REMARK  4 active torsions:
REMARK  status: ('A' for Active; 'I' for Inactive)
REMARK    1  A    between atoms: C2_5  and  C3_6 
REMARK    2  A    between atoms: C3_6  and  C4_7 
REMARK    3  A    between atoms: C5_8  and  O2_9 
REMARK    4  A    between atoms: C14_24  and  C15_25 
ROOT
HETATM    1  O1  UNL     1       2.050  -0.448  -0.189  1.00  0.00    -0.266 OA
HETATM    2  C1  UNL     1       1.348   0.096   0.694  1.00  0.00     0.273 A 
HETATM    3  N1  UNL     1      -0.004  -0.106   0.720  1.00  0.00    -0.317 N 
ATOM      4  H1  UNL     1      -0.431  -0.703   0.012  1.00  0.00     0.169 HD
HETATM    5  C2  UNL     1      -0.784   0.462   1.654  1.00  0.00     0.104 A 
HETATM    6  C12 UNL     1      -0.166   1.262   2.590  1.00  0.00     0.273 A 
HETATM    7  O3  UNL     1      -0.839   1.817   3.483  1.00  0.00    -0.266 OA
HETATM    8  N3  UNL     1       1.165   1.463   2.568  1.00  0.00    -0.317 N 
ATOM      9  H3  UNL     1       1.588   2.061   3.278  1.00  0.00     0.169 HD
HETATM   10  C13 UNL     1       1.962   0.891   1.626  1.00  0.00     0.106 A 
HETATM   11  C14 UNL     1       3.258   1.136   1.671  1.00  0.00     0.064 C 
ENDROOT
BRANCH   5  12
HETATM   12  C3  UNL     1      -2.097   0.251   1.659  1.00  0.00     0.052 C 
BRANCH  12  13
HETATM   13  C4  UNL     1      -2.750  -0.592   0.672  1.00  0.00     0.030 A 
HETATM   14  C5  UNL     1      -2.732  -1.961   0.546  1.00  0.00     0.151 A 
HETATM   15  N2  UNL     1      -3.472  -2.315  -0.507  1.00  0.00    -0.336 N 
HETATM   16  C6  UNL     1      -3.997  -1.221  -1.107  1.00  0.00     0.045 A 
ATOM     17  H2  UNL     1      -3.621  -3.275  -0.816  1.00  0.00     0.168 HD
HETATM   18  C7  UNL     1      -4.817  -1.064  -2.214  1.00  0.00     0.030 A 
HETATM   19  C11 UNL     1      -3.552  -0.139  -0.379  1.00  0.00     0.005 A 
HETATM   20  C8  UNL     1      -5.179   0.218  -2.569  1.00  0.00     0.002 A 
HETATM   21  C9  UNL     1      -4.733   1.299  -1.839  1.00  0.00     0.001 A 
HETATM   22  C10 UNL     1      -3.918   1.142  -0.739  1.00  0.00     0.014 A 
BRANCH  14  23
HETATM   23  O2  UNL     1      -2.023  -2.803   1.425  1.00  0.00    -0.345 OA
ATOM     24  H2  UNL     1      -2.011  -3.749   1.338  1.00  0.00     0.219 HD
ENDBRANCH  14  23
ENDBRANCH  12  13
ENDBRANCH   5  12
BRANCH  11  25
HETATM   25  C15 UNL     1       4.230   0.607   0.748  1.00  0.00     0.034 A 
HETATM   26  C16 UNL     1       4.583   1.298  -0.381  1.00  0.00     0.029 A 
HETATM   27  C17 UNL     1       5.528   0.742  -1.230  1.00  0.00     0.004 A 
HETATM   28  C18 UNL     1       6.094  -0.481  -0.933  1.00  0.00     0.017 A 
HETATM   29  C19 UNL     1       5.716  -1.150   0.213  1.00  0.00     0.088 A 
HETATM   30  N4  UNL     1       4.798  -0.572   1.003  1.00  0.00    -0.366 N 
ATOM     31  H4  UNL     1       4.518  -1.065   1.851  1.00  0.00     0.165 HD
ENDBRANCH  11  25
TORSDOF 4
