REMARK  4 active torsions:
REMARK  status: ('A' for Active; 'I' for Inactive)
REMARK    1  A    between atoms: N2_5  and  C3_6 
REMARK    2  A    between atoms: C8_14  and  C9_15 
REMARK    3  A    between atoms: C9_15  and  C10_16 
REMARK    4  A    between atoms: C13_21  and  C14_22 
ROOT
HETATM    1  C10 UNL     1      -0.495  -1.806  -0.951  1.00  0.00     0.043 A 
HETATM    2  N4  UNL     1      -0.381  -2.320  -2.178  1.00  0.00    -0.365 N 
ATOM      3  H4  UNL     1       0.395  -2.889  -2.517  1.00  0.00     0.165 HD
HETATM    4  C11 UNL     1      -1.449  -1.964  -2.882  1.00  0.00     0.089 A 
HETATM    5  C12 UNL     1      -2.301  -1.197  -2.118  1.00  0.00     0.030 A 
HETATM    6  C13 UNL     1      -1.698  -1.087  -0.869  1.00  0.00    -0.007 A 
ENDROOT
BRANCH   1   7
HETATM    7  C9  UNL     1       0.436  -1.936   0.155  1.00  0.00     0.050 C 
BRANCH   7   8
HETATM    8  C8  UNL     1       1.437  -1.063   0.283  1.00  0.00     0.063 A 
HETATM    9  C2  UNL     1       2.403  -1.038   1.263  1.00  0.00     0.055 A 
HETATM   10  C1  UNL     1       2.502  -1.892   2.257  1.00  0.00     0.045 C 
HETATM   11  N1  UNL     1       3.217   0.025   0.995  1.00  0.00    -0.291 N 
HETATM   12  N2  UNL     1       2.823   0.665  -0.088  1.00  0.00    -0.218 N 
ATOM     13  H1  UNL     1       4.025   0.289   1.559  1.00  0.00     0.187 HD
HETATM   14  C7  UNL     1       1.735   0.010  -0.532  1.00  0.00     0.279 A 
HETATM   15  O1  UNL     1       1.102   0.358  -1.557  1.00  0.00    -0.265 OA
BRANCH  12  16
HETATM   16  C3  UNL     1       3.442   1.831  -0.665  1.00  0.00     0.076 A 
HETATM   17  C4  UNL     1       3.698   3.027  -0.034  1.00  0.00     0.050 A 
HETATM   18  C5  UNL     1       4.308   3.842  -0.992  1.00  0.00     0.090 A 
HETATM   19  N3  UNL     1       4.422   3.186  -2.150  1.00  0.00    -0.373 N 
HETATM   20  C6  UNL     1       3.887   1.948  -1.942  1.00  0.00     0.119 A 
ATOM     21  H3  UNL     1       4.828   3.540  -3.016  1.00  0.00     0.164 HD
ENDBRANCH  12  16
ENDBRANCH   7   8
ENDBRANCH   1   7
BRANCH   6  22
HETATM   22  C14 UNL     1      -2.166  -0.368   0.296  1.00  0.00     0.027 C 
HETATM   23  C15 UNL     1      -3.388  -0.359   0.781  1.00  0.00     0.019 C 
HETATM   24  C16 UNL     1      -3.849   0.412   2.008  1.00  0.00     0.147 C 
HETATM   25  C18 UNL     1      -4.601  -1.040   0.353  1.00  0.00     0.254 C 
HETATM   26  C17 UNL     1      -5.263   0.760   1.592  1.00  0.00     0.228 C 
HETATM   27  O2  UNL     1      -5.830   1.815   1.873  1.00  0.00    -0.273 OA
HETATM   28  N5  UNL     1      -5.745  -0.372   0.837  1.00  0.00    -0.293 N 
ATOM     29  H5  UNL     1      -6.718  -0.636   0.684  1.00  0.00     0.172 HD
HETATM   30  O3  UNL     1      -4.650  -2.077  -0.344  1.00  0.00    -0.268 OA
ENDBRANCH   6  22
TORSDOF 4
