REMARK  3 active torsions:
REMARK  status: ('A' for Active; 'I' for Inactive)
REMARK    1  A    between atoms: C6_9  and  C7_10 
REMARK       I    between atoms: C7_10  and  N2_12 
REMARK    2  A    between atoms: N2_12  and  C8_14 
REMARK    3  A    between atoms: C8_14  and  C9_15 
REMARK       I    between atoms: C9_15  and  N3_17 
ROOT
HETATM    1  C7  UNL     1       2.549   1.021   0.083  1.00  0.00     0.252 C 
HETATM    2  O2  UNL     1       2.358   1.709  -0.951  1.00  0.00    -0.270 OA
HETATM    3  N2  UNL     1       1.468   0.225   0.552  1.00  0.00    -0.350 N 
ATOM      4  H2  UNL     1       1.587  -0.346   1.389  1.00  0.00     0.163 HD
ENDROOT
BRANCH   3   5
HETATM    5  C8  UNL     1       0.199   0.218  -0.148  1.00  0.00     0.227 C 
BRANCH   5   6
HETATM    6  C9  UNL     1      -0.783  -0.681   0.515  1.00  0.00     0.253 C 
HETATM    7  O3  UNL     1      -0.406  -1.286   1.541  1.00  0.00    -0.270 OA
HETATM    8  N3  UNL     1      -2.095  -0.866   0.030  1.00  0.00    -0.264 N 
HETATM    9  C10 UNL     1      -2.555  -0.168  -1.168  1.00  0.00     0.148 C 
HETATM   10  N4  UNL     1      -2.921  -1.767   0.796  1.00  0.00    -0.136 NA
HETATM   11  C11 UNL     1      -3.005   1.212  -1.045  1.00  0.00     0.025 C 
HETATM   12  C12 UNL     1      -4.397   1.682  -1.316  1.00  0.00     0.028 C 
HETATM   13  C13 UNL     1      -5.418   0.704  -1.753  1.00  0.00    -0.031 C 
HETATM   14  C14 UNL     1      -6.221  -0.115  -0.876  1.00  0.00    -0.031 C 
HETATM   15  C15 UNL     1      -6.199  -0.108   0.597  1.00  0.00     0.028 C 
HETATM   16  C16 UNL     1      -5.467  -1.352   1.214  1.00  0.00     0.021 C 
HETATM   17  C17 UNL     1      -4.136  -1.103   0.736  1.00  0.00     0.135 C 
ENDBRANCH   5   6
ENDBRANCH   3   5
BRANCH   1  18
HETATM   18  C6  UNL     1       3.854   1.047   0.778  1.00  0.00     0.245 C 
HETATM   19  C5  UNL     1       4.527  -0.203   0.775  1.00  0.00    -0.148 C 
HETATM   20  C4  UNL     1       4.937  -1.500   0.996  1.00  0.00     0.084 C 
HETATM   21  C3  UNL     1       6.255  -1.680   0.174  1.00  0.00     0.031 C 
HETATM   22  C2  UNL     1       7.157  -0.520   0.150  1.00  0.00     0.125 C 
HETATM   23  N1  UNL     1       6.903   0.599  -0.749  1.00  0.00    -0.343 N 
HETATM   24  C1  UNL     1       5.998   1.756  -0.665  1.00  0.00     0.317 C 
ATOM     25  H1  UNL     1       7.461   0.575  -1.602  1.00  0.00     0.164 HD
HETATM   26  O1  UNL     1       6.428   2.749  -1.307  1.00  0.00    -0.247 OA
HETATM   27  N5  UNL     1       4.722   1.981   0.003  1.00  0.00    -0.320 N 
ATOM     28  H5  UNL     1       4.364   2.933  -0.072  1.00  0.00     0.166 HD
ENDBRANCH   1  18
TORSDOF 3
