REMARK  5 active torsions:
REMARK  status: ('A' for Active; 'I' for Inactive)
REMARK    1  A    between atoms: C2_2  and  N1_4 
REMARK       I    between atoms: N1_4  and  C4_6 
REMARK       I    between atoms: C4_6  and  N2_8 
REMARK    2  A    between atoms: N2_8  and  N3_10 
REMARK       I    between atoms: N3_10  and  C6_12 
REMARK       I    between atoms: C6_12  and  N4_14 
REMARK    3  A    between atoms: N4_14  and  N5_16 
REMARK       I    between atoms: N5_16  and  C7_18 
REMARK    4  A    between atoms: C7_18  and  C8_20 
REMARK    5  A    between atoms: C8_20  and  C9_21 
REMARK       I    between atoms: C9_21  and  N6_23 
ROOT
HETATM    1  N3  UNL     1       2.821   0.593   0.165  1.00  0.00    -0.244 N 
ATOM      2  H3  UNL     1       2.834   1.609   0.251  1.00  0.00     0.192 HD
HETATM    3  C6  UNL     1       1.626  -0.060  -0.214  1.00  0.00     0.353 C 
HETATM    4  O2  UNL     1       1.625  -1.313  -0.316  1.00  0.00    -0.244 OA
HETATM    5  N4  UNL     1       0.470   0.724  -0.466  1.00  0.00    -0.248 N 
ATOM      6  H4  UNL     1       0.544   1.736  -0.366  1.00  0.00     0.192 HD
ENDROOT
BRANCH   5   7
HETATM    7  N5  UNL     1      -0.764   0.187  -0.844  1.00  0.00    -0.266 N 
HETATM    8  C7  UNL     1      -1.905   0.496  -0.072  1.00  0.00     0.244 C 
HETATM    9  O3  UNL     1      -1.774   1.244   0.929  1.00  0.00    -0.271 OA
ATOM     10  H5  UNL     1      -0.839  -0.417  -1.663  1.00  0.00     0.190 HD
BRANCH   8  11
HETATM   11  C8  UNL     1      -3.215  -0.076  -0.475  1.00  0.00     0.207 C 
BRANCH  11  12
HETATM   12  C9  UNL     1      -4.316   0.337   0.405  1.00  0.00     0.228 C 
HETATM   13  O4  UNL     1      -4.096   1.100   1.378  1.00  0.00    -0.273 OA
HETATM   14  N6  UNL     1      -5.619  -0.136   0.139  1.00  0.00    -0.352 N 
HETATM   15  C10 UNL     1      -5.941  -1.015  -0.962  1.00  0.00     0.125 C 
HETATM   16  C14 UNL     1      -6.726   0.268   1.009  1.00  0.00     0.125 C 
HETATM   17  C11 UNL     1      -7.450  -1.030  -1.091  1.00  0.00     0.020 C 
HETATM   18  C12 UNL     1      -7.917   0.405  -1.130  1.00  0.00     0.003 C 
HETATM   19  C13 UNL     1      -7.629   1.129   0.166  1.00  0.00     0.020 C 
ENDBRANCH  11  12
ENDBRANCH   8  11
ENDBRANCH   5   7
BRANCH   1  20
HETATM   20  N2  UNL     1       3.981  -0.135   0.423  1.00  0.00    -0.243 N 
HETATM   21  C4  UNL     1       5.231   0.438   0.053  1.00  0.00     0.337 C 
HETATM   22  N1  UNL     1       6.460  -0.217   0.272  1.00  0.00    -0.338 N 
HETATM   23  O1  UNL     1       5.239   1.588  -0.498  1.00  0.00    -0.245 OA
ATOM     24  H1  UNL     1       6.481  -1.138   0.710  1.00  0.00     0.164 HD
HETATM   25  C5  UNL     1       3.929  -1.447   1.056  1.00  0.00     0.183 C 
BRANCH  22  26
HETATM   26  C2  UNL     1       7.692   0.429  -0.131  1.00  0.00     0.078 C 
HETATM   27  C1  UNL     1       8.398  -0.507  -1.100  1.00  0.00     0.032 C 
HETATM   28  C3  UNL     1       8.587   0.696   1.066  1.00  0.00     0.032 C 
ENDBRANCH  22  26
ENDBRANCH   1  20
TORSDOF 5
