REMARK  2 active torsions:
REMARK  status: ('A' for Active; 'I' for Inactive)
REMARK    1  A    between atoms: C2_2  and  N1_4 
REMARK    2  A    between atoms: N1_4  and  C4_6 
ROOT
HETATM    1  C4  UNL     1      -0.341   0.215  -0.167  1.00  0.00     0.111 A 
HETATM    2  N2  UNL     1      -0.276  -1.003   0.401  1.00  0.00    -0.329 N 
ATOM      3  H2  UNL     1      -1.145  -1.509   0.573  1.00  0.00     0.168 HD
HETATM    4  C5  UNL     1       0.886  -1.582   0.752  1.00  0.00     0.141 A 
HETATM    5  N3  UNL     1       0.971  -2.862   1.351  1.00  0.00    -0.081 NA
HETATM    6  C6  UNL     1       2.033  -0.861   0.501  1.00  0.00     0.112 A 
HETATM    7  C7  UNL     1       3.309  -1.418   0.850  1.00  0.00     0.105 C 
HETATM    8  N4  UNL     1       4.355  -1.865   1.152  1.00  0.00    -0.191 NA
HETATM    9  C8  UNL     1       2.013   0.411  -0.090  1.00  0.00     0.062 A 
HETATM   10  C9  UNL     1       0.809   0.971  -0.435  1.00  0.00     0.015 A 
HETATM   11  C10 UNL     1       1.022   2.305  -1.037  1.00  0.00     0.064 C 
HETATM   12  C11 UNL     1       2.457   2.630  -0.682  1.00  0.00     0.124 C 
HETATM   13  N5  UNL     1       3.060   1.318  -0.435  1.00  0.00    -0.388 N 
ATOM     14  H5  UNL     1       4.053   1.092  -0.498  1.00  0.00     0.159 HD
ENDROOT
BRANCH   1  15
HETATM   15  N1  UNL     1      -1.606   0.755  -0.507  1.00  0.00    -0.372 N 
ATOM     16  H1  UNL     1      -1.662   1.678  -0.938  1.00  0.00     0.161 HD
BRANCH  15  17
HETATM   17  C2  UNL     1      -2.820   0.008  -0.248  1.00  0.00     0.075 C 
HETATM   18  C1  UNL     1      -2.824  -1.319  -0.985  1.00  0.00     0.031 C 
HETATM   19  C3  UNL     1      -2.941  -0.241   1.224  1.00  0.00     0.031 C 
ENDBRANCH  15  17
ENDBRANCH   1  15
TORSDOF 2
