REMARK  3 active torsions:
REMARK  status: ('A' for Active; 'I' for Inactive)
REMARK    1  A    between atoms: C2_2  and  S1_3 
REMARK    2  A    between atoms: S1_3  and  C3_4 
REMARK    3  A    between atoms: C4_8  and  O1_9 
ROOT
HETATM    1  C3  UNL     1       1.120  -0.195   0.402  1.00  0.00     0.069 C 
HETATM    2  N1  UNL     1       0.908  -1.445   0.627  1.00  0.00    -0.297 N 
ATOM      3  H1  UNL     1       1.617  -2.173   0.538  1.00  0.00     0.183 HD
HETATM    4  N2  UNL     1      -0.408  -1.678   1.006  1.00  0.00    -0.072 NA
HETATM    5  C4  UNL     1      -0.890  -0.402   1.518  1.00  0.00     0.327 C 
HETATM    6  N3  UNL     1      -2.263  -0.165   1.224  1.00  0.00    -0.017 N 
ATOM      7  H31 UNL     1      -2.725   0.389   1.945  1.00  0.00     0.283 HD
ATOM      8  H32 UNL     1      -2.830  -1.009   1.308  1.00  0.00     0.283 HD
HETATM    9  C5  UNL     1      -2.363   0.434  -0.073  1.00  0.00     0.124 C 
HETATM   10  C6  UNL     1      -3.230  -0.455  -0.939  1.00  0.00     0.046 C 
HETATM   11  C7  UNL     1      -2.980   1.816  -0.023  1.00  0.00     0.046 C 
HETATM   12  C8  UNL     1      -0.971   0.579  -0.617  1.00  0.00     0.056 C 
HETATM   13  C9  UNL     1      -0.123   0.555   0.628  1.00  0.00     0.129 C 
ENDROOT
BRANCH   1  14
HETATM   14  S1  UNL     1       2.658   0.589  -0.111  1.00  0.00    -0.116 SA
BRANCH  14  15
HETATM   15  C2  UNL     1       3.968  -0.671  -0.285  1.00  0.00     0.076 C 
HETATM   16  C1  UNL     1       5.233  -0.010  -0.709  1.00  0.00     0.016 C 
ENDBRANCH  14  15
ENDBRANCH   1  14
BRANCH   5  17
HETATM   17  O1  UNL     1      -0.566  -0.232   2.857  1.00  0.00    -0.350 OA
ATOM     18  H1  UNL     1      -0.880   0.600   3.191  1.00  0.00     0.214 HD
ENDBRANCH   5  17
TORSDOF 3
