REMARK  4 active torsions:
REMARK  status: ('A' for Active; 'I' for Inactive)
REMARK    1  A    between atoms: S1_2  and  S2_3 
REMARK    2  A    between atoms: S2_3  and  C2_4 
REMARK    3  A    between atoms: C4_10  and  N2_11 
REMARK    4  A    between atoms: N2_11  and  N3_13 
ROOT
HETATM    1  C2  UNL     1       0.070  -0.260   0.481  1.00  0.00     0.158 A 
HETATM    2  N1  UNL     1      -0.434  -1.351  -0.114  1.00  0.00    -0.321 N 
ATOM      3  H1  UNL     1      -1.428  -1.535   0.021  1.00  0.00     0.169 HD
HETATM    4  C3  UNL     1       0.251  -2.224  -0.871  1.00  0.00     0.148 A 
HETATM    5  S3  UNL     1      -0.452  -3.532  -1.559  1.00  0.00    -0.052 SA
HETATM    6  S4  UNL     1       1.907  -1.844  -1.047  1.00  0.00    -0.023 SA
HETATM    7  C4  UNL     1       2.335  -0.421  -0.212  1.00  0.00     0.167 A 
HETATM    8  N4  UNL     1       1.323   0.169   0.442  1.00  0.00    -0.315 N 
ATOM      9  H4  UNL     1       1.537   1.024   0.955  1.00  0.00     0.170 HD
ENDROOT
BRANCH   7  10
HETATM   10  N2  UNL     1       3.549   0.002  -0.245  1.00  0.00    -0.286 N 
ATOM     11  H2  UNL     1       4.230  -0.537  -0.780  1.00  0.00     0.188 HD
BRANCH  10  12
HETATM   12  N3  UNL     1       3.987   1.145   0.402  1.00  0.00    -0.343 N 
ATOM     13  H32 UNL     1       3.293   1.671   0.932  1.00  0.00     0.176 HD
ATOM     14  H31 UNL     1       4.950   1.481   0.376  1.00  0.00     0.176 HD
ENDBRANCH  10  12
ENDBRANCH   7  10
BRANCH   1  15
HETATM   15  S2  UNL     1      -0.983   0.664   1.370  1.00  0.00    -0.021 SA
BRANCH  15  16
HETATM   16  S1  UNL     1      -3.051   0.137   1.555  1.00  0.00    -0.094 SA
HETATM   17  C1  UNL     1      -3.952   0.600   0.051  1.00  0.00     0.103 C 
ENDBRANCH  15  16
ENDBRANCH   1  15
TORSDOF 4
