REMARK  13 active torsions:
REMARK  status: ('A' for Active; 'I' for Inactive)
REMARK    1  A    between atoms: N2_6  and  C5_7 
REMARK    2  A    between atoms: C5_7  and  C6_8 
REMARK    3  A    between atoms: C6_8  and  C7_9 
REMARK    4  A    between atoms: C7_9  and  N3_10 
REMARK    5  A    between atoms: N3_10  and  C8_13 
REMARK    6  A    between atoms: C8_13  and  C9_14 
REMARK    7  A    between atoms: C9_14  and  C10_15 
REMARK    8  A    between atoms: C10_15  and  N4_16 
REMARK    9  A    between atoms: N4_16  and  C11_18 
REMARK   10  A    between atoms: C17_26  and  C18_27 
REMARK   11  A    between atoms: C20_30  and  N6_31 
REMARK   12  A    between atoms: N6_31  and  C21_33 
REMARK   13  A    between atoms: C21_33  and  C22_34 
ROOT
HETATM    1  C22 UNL     1       9.607   1.056   2.346  1.00  0.00     0.143 C 
HETATM    2  C23 UNL     1      10.928   1.646   2.506  1.00  0.00     0.060 C 
HETATM    3  N7  UNL     1      11.993   2.120   2.624  1.00  0.00    -0.197 NA
ENDROOT
BRANCH   1   4
HETATM    4  C21 UNL     1       9.265   0.905   0.862  1.00  0.00     0.136 C 
BRANCH   4   5
HETATM    5  N6  UNL     1       7.948   0.317   0.795  1.00  0.00    -0.370 N 
ATOM      6  H6  UNL     1       7.552  -0.205   1.577  1.00  0.00     0.161 HD
BRANCH   5   7
HETATM    7  C20 UNL     1       7.283   0.492  -0.333  1.00  0.00     0.144 A 
HETATM    8  S1  UNL     1       7.748   1.317  -1.740  1.00  0.00    -0.064 SA
HETATM    9  C19 UNL     1       6.338   1.054  -2.658  1.00  0.00     0.083 A 
HETATM   10  C18 UNL     1       5.556   0.318  -1.800  1.00  0.00     0.051 A 
HETATM   11  N8  UNL     1       6.061   0.043  -0.617  1.00  0.00    -0.336 N 
ATOM     12  H8  UNL     1       5.531  -0.500   0.065  1.00  0.00     0.168 HD
BRANCH  10  13
HETATM   13  C17 UNL     1       4.192  -0.142  -2.210  1.00  0.00    -0.008 A 
HETATM   14  C16 UNL     1       3.690   0.162  -3.450  1.00  0.00     0.016 A 
HETATM   15  C15 UNL     1       2.418  -0.265  -3.838  1.00  0.00     0.031 A 
HETATM   16  C14 UNL     1       1.625  -1.003  -2.995  1.00  0.00     0.044 A 
HETATM   17  N5  UNL     1       0.386  -1.429  -3.356  1.00  0.00    -0.365 N 
HETATM   18  C25 UNL     1       2.116  -1.315  -1.748  1.00  0.00     0.018 A 
HETATM   19  C13 UNL     1      -0.404  -2.154  -2.546  1.00  0.00     0.090 A 
ATOM     20  H5  UNL     1       0.040  -1.187  -4.285  1.00  0.00     0.165 HD
HETATM   21  C12 UNL     1       0.091  -2.470  -1.284  1.00  0.00     0.047 A 
HETATM   22  C11 UNL     1       1.335  -2.062  -0.877  1.00  0.00     0.042 A 
HETATM   23  C24 UNL     1       3.384  -0.882  -1.380  1.00  0.00     0.029 A 
BRANCH  22  24
HETATM   24  N4  UNL     1       1.820  -2.335   0.268  1.00  0.00    -0.389 N 
ATOM     25  H4  UNL     1       2.756  -1.969   0.442  1.00  0.00     0.159 HD
BRANCH  24  26
HETATM   26  C10 UNL     1       1.251  -3.072   1.337  1.00  0.00     0.121 C 
BRANCH  26  27
HETATM   27  C9  UNL     1       1.266  -2.263   2.637  1.00  0.00     0.047 C 
BRANCH  27  28
HETATM   28  C8  UNL     1       0.463  -0.983   2.488  1.00  0.00     0.234 C 
BRANCH  28  29
HETATM   29  N3  UNL     1      -0.912  -1.249   2.167  1.00  0.00    -0.075 N 
ATOM     30  H32 UNL     1      -1.347  -1.873   2.846  1.00  0.00     0.277 HD
ATOM     31  H31 UNL     1      -1.002  -1.839   1.340  1.00  0.00     0.277 HD
BRANCH  29  32
HETATM   32  C7  UNL     1      -1.640  -0.019   2.028  1.00  0.00     0.234 C 
BRANCH  32  33
HETATM   33  C6  UNL     1      -3.105  -0.273   1.692  1.00  0.00     0.057 C 
BRANCH  33  34
HETATM   34  C5  UNL     1      -3.775   1.075   1.565  1.00  0.00     0.274 C 
BRANCH  34  35
HETATM   35  N2  UNL     1      -5.168   0.973   1.262  1.00  0.00     0.090 N 
HETATM   36  C4  UNL     1      -5.738   2.283   1.124  1.00  0.00     0.274 C 
HETATM   37  C3  UNL     1      -6.083   2.644  -0.307  1.00  0.00     0.060 C 
HETATM   38  C2  UNL     1      -7.462   2.128  -0.662  1.00  0.00     0.273 C 
HETATM   39  N1  UNL     1      -7.330   0.734  -1.120  1.00  0.00     0.086 N 
HETATM   40  C1  UNL     1      -8.556   0.269  -1.722  1.00  0.00     0.309 C 
HETATM   41  C27 UNL     1      -6.995  -0.094   0.028  1.00  0.00     0.302 C 
HETATM   42  C26 UNL     1      -5.503   0.034   0.247  1.00  0.00     0.302 C 
ENDBRANCH  34  35
ENDBRANCH  33  34
ENDBRANCH  32  33
ENDBRANCH  29  32
ENDBRANCH  28  29
ENDBRANCH  27  28
ENDBRANCH  26  27
ENDBRANCH  24  26
ENDBRANCH  22  24
ENDBRANCH  10  13
ENDBRANCH   5   7
ENDBRANCH   4   5
ENDBRANCH   1   4
TORSDOF 13
