REMARK  15 active torsions:
REMARK  status: ('A' for Active; 'I' for Inactive)
REMARK    1  A    between atoms: C2_2  and  C17_18 
REMARK    2  A    between atoms: C3_3  and  C4_4 
REMARK    3  A    between atoms: C4_4  and  C5_5 
REMARK    4  A    between atoms: C5_5  and  C6_6 
REMARK    5  A    between atoms: C7_7  and  C8_8 
REMARK    6  A    between atoms: C8_8  and  C9_9 
REMARK    7  A    between atoms: C9_9  and  C10_10 
REMARK    8  A    between atoms: C10_10  and  C11_11 
REMARK    9  A    between atoms: C11_11  and  C12_12 
REMARK   10  A    between atoms: C12_12  and  N1_13 
REMARK   11  A    between atoms: C17_18  and  O1_21 
REMARK   12  A    between atoms: O1_21  and  C20_22 
REMARK   13  A    between atoms: C21_24  and  N2_25 
REMARK   14  A    between atoms: C26_34  and  O5_35 
REMARK   15  A    between atoms: C27_37  and  O6_38 
ROOT
HETATM    1  C17 UNL     1      -3.483  -0.766  -1.759  1.00  0.00     0.080 C 
HETATM    2  C18 UNL     1      -3.027  -2.177  -1.844  1.00  0.00     0.051 C 
HETATM    3  C19 UNL     1      -3.563  -0.275  -3.234  1.00  0.00     0.051 C 
ENDROOT
BRANCH   1   4
HETATM    4  C2  UNL     1      -2.527   0.131  -1.118  1.00  0.00    -0.050 C 
HETATM    5  C1  UNL     1      -2.925   1.568  -0.903  1.00  0.00     0.046 C 
HETATM    6  C3  UNL     1      -1.342  -0.255  -0.729  1.00  0.00     0.013 C 
BRANCH   6   7
HETATM    7  C4  UNL     1      -0.471   0.776  -0.094  1.00  0.00     0.056 C 
BRANCH   7   8
HETATM    8  C5  UNL     1       0.728   0.576   0.372  1.00  0.00    -0.129 C 
BRANCH   8   9
HETATM    9  C6  UNL     1       1.950   0.387   0.849  1.00  0.00     0.051 C 
HETATM   10  C7  UNL     1       2.541  -0.840   0.834  1.00  0.00    -0.018 C 
BRANCH  10  11
HETATM   11  C8  UNL     1       3.901  -1.009   1.364  1.00  0.00     0.028 C 
BRANCH  11  12
HETATM   12  C9  UNL     1       4.465   0.228   1.967  1.00  0.00     0.004 C 
BRANCH  12  13
HETATM   13  C10 UNL     1       5.910   0.112   2.441  1.00  0.00     0.002 C 
BRANCH  13  14
HETATM   14  C11 UNL     1       6.749  -0.042   1.173  1.00  0.00     0.028 C 
BRANCH  14  15
HETATM   15  C12 UNL     1       8.202  -0.112   1.501  1.00  0.00     0.237 C 
BRANCH  15  16
HETATM   16  N1  UNL     1       9.005  -0.160   0.326  1.00  0.00    -0.071 N 
HETATM   17  C13 UNL     1       9.303  -1.538  -0.076  1.00  0.00     0.272 C 
HETATM   18  C14 UNL     1      10.229   0.617   0.554  1.00  0.00     0.238 C 
HETATM   19  C15 UNL     1      10.066   1.284  -0.767  1.00  0.00     0.056 C 
HETATM   20  C16 UNL     1       8.649   0.676  -0.775  1.00  0.00     0.238 C 
ENDBRANCH  15  16
ENDBRANCH  14  15
ENDBRANCH  13  14
ENDBRANCH  12  13
ENDBRANCH  11  12
ENDBRANCH  10  11
ENDBRANCH   8   9
ENDBRANCH   7   8
ENDBRANCH   6   7
ENDBRANCH   1   4
BRANCH   1  21
HETATM   21  O1  UNL     1      -4.768  -0.666  -1.288  1.00  0.00    -0.344 OA
BRANCH  21  22
HETATM   22  C20 UNL     1      -4.986  -0.956   0.023  1.00  0.00     0.295 C 
HETATM   23  O2  UNL     1      -5.707   0.075   0.616  1.00  0.00    -0.331 OA
HETATM   24  C21 UNL     1      -7.062  -0.250   0.584  1.00  0.00     0.266 C 
HETATM   25  C26 UNL     1      -7.210  -1.391  -0.362  1.00  0.00     0.201 C 
HETATM   26  C27 UNL     1      -5.932  -2.178   0.016  1.00  0.00     0.206 C 
BRANCH  24  27
HETATM   27  N2  UNL     1      -7.886   0.895   0.357  1.00  0.00    -0.280 N 
HETATM   28  C22 UNL     1      -7.281   2.065  -0.003  1.00  0.00     0.104 A 
HETATM   29  C23 UNL     1      -7.982   3.221  -0.243  1.00  0.00     0.092 A 
HETATM   30  C24 UNL     1      -9.350   3.161  -0.105  1.00  0.00     0.250 A 
HETATM   31  O3  UNL     1     -10.109   4.173  -0.302  1.00  0.00    -0.268 OA
HETATM   32  N3  UNL     1      -9.965   2.033   0.247  1.00  0.00    -0.275 N 
HETATM   33  C25 UNL     1      -9.223   0.930   0.467  1.00  0.00     0.331 A 
ATOM     34  H3  UNL     1     -10.980   2.005   0.348  1.00  0.00     0.173 HD
HETATM   35  O4  UNL     1      -9.836  -0.118   0.790  1.00  0.00    -0.246 OA
ENDBRANCH  24  27
BRANCH  25  36
HETATM   36  O5  UNL     1      -8.298  -2.200  -0.186  1.00  0.00    -0.388 OA
ATOM     37  H5  UNL     1      -8.392  -2.928  -0.789  1.00  0.00     0.210 HD
ENDBRANCH  25  36
BRANCH  26  38
HETATM   38  O6  UNL     1      -6.129  -2.641   1.286  1.00  0.00    -0.388 OA
ATOM     39  H6  UNL     1      -6.711  -3.392   1.282  1.00  0.00     0.210 HD
ENDBRANCH  26  38
ENDBRANCH  21  22
ENDBRANCH   1  21
TORSDOF 15
