REMARK  3 active torsions:
REMARK  status: ('A' for Active; 'I' for Inactive)
REMARK    1  A    between atoms: N1_2  and  C2_4 
REMARK    2  A    between atoms: C4_6  and  C5_7 
REMARK    3  A    between atoms: C5_7  and  O1_8 
ROOT
HETATM    1  C2  UNL     1      -1.909  -0.979   0.639  1.00  0.00     0.081 C 
HETATM    2  C3  UNL     1      -2.535  -0.115  -0.390  1.00  0.00     0.031 C 
HETATM    3  C4  UNL     1      -1.985   1.264  -0.507  1.00  0.00     0.012 C 
HETATM    4  C6  UNL     1      -0.951   1.570   0.535  1.00  0.00     0.013 C 
HETATM    5  C7  UNL     1       0.130   0.525   0.676  1.00  0.00     0.004 C 
HETATM    6  C8  UNL     1      -0.433  -0.827   0.857  1.00  0.00     0.013 C 
HETATM    7  C9  UNL     1       0.370  -1.916   0.126  1.00  0.00     0.015 C 
HETATM    8  C10 UNL     1       1.820  -1.682   0.524  1.00  0.00     0.012 C 
HETATM    9  C11 UNL     1       2.699  -2.807   0.023  1.00  0.00     0.015 C 
HETATM   10  C12 UNL     1       2.298  -0.342   0.097  1.00  0.00    -0.064 C 
HETATM   11  C13 UNL     1       3.604  -0.173   0.048  1.00  0.00     0.054 C 
HETATM   12  C14 UNL     1       4.136   1.108  -0.360  1.00  0.00     0.149 C 
HETATM   13  O2  UNL     1       5.358   1.275  -0.618  1.00  0.00    -0.293 OA
HETATM   14  C15 UNL     1       3.251   2.263  -0.486  1.00  0.00     0.084 C 
HETATM   15  C16 UNL     1       1.895   2.067   0.107  1.00  0.00     0.022 C 
HETATM   16  C17 UNL     1       1.297   0.690  -0.238  1.00  0.00    -0.016 C 
HETATM   17  C18 UNL     1       1.079   0.708  -1.689  1.00  0.00     0.020 C 
ENDROOT
BRANCH   1  18
HETATM   18  N1  UNL     1      -2.296  -2.332   0.347  1.00  0.00    -0.421 N 
HETATM   19  C1  UNL     1      -3.679  -2.621   0.426  1.00  0.00     0.140 C 
ATOM     20  H1  UNL     1      -1.611  -3.045   0.096  1.00  0.00     0.153 HD
ENDBRANCH   1  18
BRANCH   3  21
HETATM   21  C5  UNL     1      -3.059   2.350  -0.354  1.00  0.00     0.168 C 
BRANCH  21  22
HETATM   22  O1  UNL     1      -3.655   2.233   0.895  1.00  0.00    -0.400 OA
ATOM     23  H1  UNL     1      -4.320   2.905   0.990  1.00  0.00     0.209 HD
ENDBRANCH  21  22
ENDBRANCH   3  21
TORSDOF 3
