REMARK  4 active torsions:
REMARK  status: ('A' for Active; 'I' for Inactive)
REMARK    1  A    between atoms: C6_6  and  C7_7 
REMARK    2  A    between atoms: C7_7  and  N1_8 
REMARK    3  A    between atoms: N1_8  and  C8_10 
REMARK    4  A    between atoms: C10_16  and  C11_17 
ROOT
HETATM    1  C8  UNL     1      -0.689  -0.334   0.206  1.00  0.00     0.147 A 
HETATM    2  N2  UNL     1      -1.171  -1.489  -0.270  1.00  0.00    -0.283 N 
ATOM      3  H2  UNL     1      -0.588  -2.270  -0.571  1.00  0.00     0.188 HD
HETATM    4  N3  UNL     1      -2.496  -1.497  -0.303  1.00  0.00    -0.294 N 
ATOM      5  H3  UNL     1      -3.094  -2.259  -0.624  1.00  0.00     0.187 HD
HETATM    6  C9  UNL     1      -2.896  -0.310   0.167  1.00  0.00     0.113 A 
HETATM    7  C10 UNL     1      -4.017   0.455   0.455  1.00  0.00     0.114 A 
HETATM    8  O1  UNL     1      -3.562   1.610   0.934  1.00  0.00    -0.239 OA
HETATM    9  N4  UNL     1      -2.272   1.615   0.964  1.00  0.00    -0.255 N 
ATOM     10  H4  UNL     1      -1.696   2.390   1.293  1.00  0.00     0.195 HD
HETATM   11  C15 UNL     1      -1.807   0.462   0.504  1.00  0.00     0.130 A 
ENDROOT
BRANCH   1  12
HETATM   12  N1  UNL     1       0.552   0.048   0.349  1.00  0.00    -0.369 N 
ATOM     13  H1  UNL     1       0.806   0.960   0.729  1.00  0.00     0.161 HD
BRANCH  12  14
HETATM   14  C7  UNL     1       1.552  -0.936  -0.079  1.00  0.00     0.160 C 
BRANCH  14  15
HETATM   15  C6  UNL     1       2.905  -0.340  -0.150  1.00  0.00    -0.034 A 
HETATM   16  C4  UNL     1       3.174   0.790  -0.882  1.00  0.00    -0.054 A 
HETATM   17  C3  UNL     1       4.442   1.311  -0.992  1.00  0.00     0.014 A 
HETATM   18  C5  UNL     1       2.057   1.510  -1.568  1.00  0.00     0.049 C 
HETATM   19  C2  UNL     1       5.484   0.672  -0.341  1.00  0.00    -0.056 A 
HETATM   20  C1  UNL     1       6.859   1.187  -0.411  1.00  0.00     0.049 C 
HETATM   21  C17 UNL     1       5.257  -0.477   0.415  1.00  0.00    -0.056 A 
HETATM   22  C16 UNL     1       3.976  -0.977   0.506  1.00  0.00     0.016 A 
HETATM   23  C18 UNL     1       6.386  -1.168   1.079  1.00  0.00     0.049 C 
ENDBRANCH  14  15
ENDBRANCH  12  14
ENDBRANCH   1  12
BRANCH   7  24
HETATM   24  C11 UNL     1      -5.446   0.112   0.290  1.00  0.00     0.003 C 
HETATM   25  C12 UNL     1      -5.788  -1.090   1.150  1.00  0.00     0.021 C 
HETATM   26  C13 UNL     1      -6.264   1.324   0.703  1.00  0.00     0.021 C 
HETATM   27  C14 UNL     1      -5.790  -0.198  -1.150  1.00  0.00     0.021 C 
ENDBRANCH   7  24
TORSDOF 4
