REMARK  4 active torsions:
REMARK  status: ('A' for Active; 'I' for Inactive)
REMARK    1  A    between atoms: C2_2  and  C4_4 
REMARK    2  A    between atoms: C4_4  and  O2_6 
REMARK    3  A    between atoms: O2_6  and  C5_7 
REMARK    4  A    between atoms: C10_15  and  O3_16 
ROOT
HETATM    1  C5  UNL     1       1.722  -0.148  -1.530  1.00  0.00     0.141 C 
HETATM    2  C6  UNL     1       0.955   0.989  -2.156  1.00  0.00     0.034 C 
HETATM    3  C7  UNL     1      -0.070   1.430  -1.115  1.00  0.00     0.010 C 
HETATM    4  C8  UNL     1       0.140   0.512   0.034  1.00  0.00     0.027 C 
HETATM    5  C9  UNL     1      -1.038   0.292   0.905  1.00  0.00     0.198 C 
HETATM    6  N1  UNL     1      -1.867   1.474   1.049  1.00  0.00    -0.043 N 
ATOM      7  H11 UNL     1      -1.972   2.028   0.199  1.00  0.00     0.280 HD
ATOM      8  H12 UNL     1      -1.452   2.220   1.607  1.00  0.00     0.280 HD
HETATM    9  C10 UNL     1      -3.089   0.944   1.572  1.00  0.00     0.327 C 
HETATM   10  C11 UNL     1      -3.303  -0.292   0.728  1.00  0.00     0.009 C 
HETATM   11  C12 UNL     1      -3.956   0.149  -0.559  1.00  0.00     0.020 C 
HETATM   12  C13 UNL     1      -4.195  -1.294   1.395  1.00  0.00     0.020 C 
HETATM   13  C14 UNL     1      -1.913  -0.842   0.518  1.00  0.00     0.029 C 
HETATM   14  C15 UNL     1      -1.755  -1.328  -0.877  1.00  0.00     0.008 C 
HETATM   15  C16 UNL     1      -0.338  -1.564  -1.299  1.00  0.00     0.012 C 
HETATM   16  C17 UNL     1       0.673  -0.743  -0.595  1.00  0.00    -0.012 C 
HETATM   17  C18 UNL     1       1.413  -1.532   0.463  1.00  0.00     0.018 C 
ENDROOT
BRANCH   1  18
HETATM   18  O2  UNL     1       2.744   0.316  -0.661  1.00  0.00    -0.311 OA
BRANCH  18  19
HETATM   19  C4  UNL     1       4.035  -0.096  -0.675  1.00  0.00     0.288 C 
HETATM   20  O1  UNL     1       4.388  -0.963  -1.518  1.00  0.00    -0.260 OA
BRANCH  19  21
HETATM   21  C2  UNL     1       4.985   0.459   0.269  1.00  0.00     0.004 C 
HETATM   22  C1  UNL     1       6.271   0.069   0.278  1.00  0.00     0.024 C 
HETATM   23  C3  UNL     1       4.516   1.476   1.239  1.00  0.00     0.054 C 
ENDBRANCH  19  21
ENDBRANCH  18  19
ENDBRANCH   1  18
BRANCH   9  24
HETATM   24  O3  UNL     1      -4.112   1.860   1.351  1.00  0.00    -0.369 OA
ATOM     25  H3  UNL     1      -4.923   1.508   1.698  1.00  0.00     0.212 HD
ENDBRANCH   9  24
TORSDOF 4
