REMARK  2 active torsions:
REMARK  status: ('A' for Active; 'I' for Inactive)
REMARK    1  A    between atoms: N1_2  and  C1_4 
REMARK    2  A    between atoms: C17_20  and  O3_21 
ROOT
HETATM    1  C1  UNL     1      -0.573  -1.104  -0.594  1.00  0.00     0.130 C 
HETATM    2  C2  UNL     1      -0.419  -0.989  -2.139  1.00  0.00     0.044 C 
HETATM    3  C3  UNL     1      -1.055   0.314  -2.495  1.00  0.00     0.013 C 
HETATM    4  C4  UNL     1      -1.783   0.764  -1.204  1.00  0.00     0.024 C 
HETATM    5  C5  UNL     1      -0.830   1.722  -0.582  1.00  0.00    -0.001 C 
HETATM    6  C6  UNL     1      -1.558   2.629   0.389  1.00  0.00     0.005 C 
HETATM    7  C7  UNL     1      -0.627   2.829   1.555  1.00  0.00     0.001 C 
HETATM    8  C8  UNL     1       0.347   1.674   1.523  1.00  0.00     0.006 C 
HETATM    9  C9  UNL     1       0.353   1.149   0.083  1.00  0.00     0.002 C 
HETATM   10  C10 UNL     1       0.545  -0.347   0.001  1.00  0.00    -0.001 C 
HETATM   11  C11 UNL     1       1.782  -0.504  -0.928  1.00  0.00     0.013 C 
HETATM   12  C12 UNL     1       3.044  -0.037  -0.193  1.00  0.00     0.001 C 
HETATM   13  C13 UNL     1       3.499  -1.215   0.654  1.00  0.00     0.000 C 
HETATM   14  C14 UNL     1       2.225  -1.906   1.102  1.00  0.00     0.001 C 
HETATM   15  C15 UNL     1       1.103  -0.881   1.303  1.00  0.00     0.013 C 
HETATM   16  C16 UNL     1      -1.950  -0.556  -0.548  1.00  0.00    -0.019 C 
HETATM   17  C17 UNL     1      -2.856  -0.755   0.545  1.00  0.00     0.137 C 
ENDROOT
BRANCH   1  18
HETATM   18  N1  UNL     1      -0.566  -2.523  -0.348  1.00  0.00    -0.140 N 
HETATM   19  O1  UNL     1      -0.312  -3.394  -1.230  1.00  0.00    -0.536 OA
HETATM   20  O2  UNL     1      -0.836  -3.064   0.883  1.00  0.00    -0.536 OA
ENDBRANCH   1  18
BRANCH  17  21
HETATM   21  O3  UNL     1      -2.645  -0.377   1.817  1.00  0.00    -0.372 OA
ATOM     22  H3  UNL     1      -3.245  -0.509   2.541  1.00  0.00     0.216 HD
ENDBRANCH  17  21
TORSDOF 2
