REMARK  3 active torsions:
REMARK  status: ('A' for Active; 'I' for Inactive)
REMARK    1  A    between atoms: C9_9  and  C10_10 
REMARK    2  A    between atoms: C10_10  and  O1_12 
REMARK    3  A    between atoms: C12_14  and  O2_15 
ROOT
HETATM    1  C1  UNL     1      -2.463  -2.360  -1.471  1.00  0.00     0.048 C 
HETATM    2  C2  UNL     1      -2.464  -1.417  -0.285  1.00  0.00    -0.066 C 
HETATM    3  C3  UNL     1      -3.068  -0.287  -0.501  1.00  0.00    -0.020 C 
HETATM    4  C4  UNL     1      -3.365   0.952   0.259  1.00  0.00     0.031 C 
HETATM    5  C5  UNL     1      -2.257   2.048   0.126  1.00  0.00    -0.015 C 
HETATM    6  C6  UNL     1      -2.218   2.436  -1.313  1.00  0.00     0.010 C 
HETATM    7  C7  UNL     1      -1.108   1.257   0.627  1.00  0.00     0.005 C 
HETATM    8  C8  UNL     1       0.264   1.598   0.832  1.00  0.00     0.018 C 
HETATM    9  C9  UNL     1       1.188   0.360   0.688  1.00  0.00     0.048 C 
HETATM   10  C12 UNL     1       1.853   0.590  -0.689  1.00  0.00     0.161 C 
HETATM   11  C13 UNL     1       1.102  -0.318  -1.593  1.00  0.00     0.148 C 
HETATM   12  C14 UNL     1       1.946  -0.978  -2.656  1.00  0.00     0.042 C 
HETATM   13  O3  UNL     1       0.331  -1.162  -0.860  1.00  0.00    -0.368 OA
HETATM   14  C15 UNL     1       0.596  -0.964   0.518  1.00  0.00     0.088 C 
HETATM   15  C16 UNL     1       1.770  -1.976   0.632  1.00  0.00     0.051 C 
HETATM   16  C17 UNL     1      -0.476  -1.507   1.384  1.00  0.00     0.012 C 
HETATM   17  C18 UNL     1      -1.747  -2.007   0.866  1.00  0.00     0.005 C 
ENDROOT
BRANCH   9  18
HETATM   18  C10 UNL     1       2.184   0.557   1.790  1.00  0.00     0.128 C 
HETATM   19  C11 UNL     1       2.938   1.876   1.624  1.00  0.00     0.040 C 
BRANCH  18  20
HETATM   20  O1  UNL     1       3.156  -0.365   1.982  1.00  0.00    -0.395 OA
ATOM     21  H1  UNL     1       3.787  -0.240   2.681  1.00  0.00     0.210 HD
ENDBRANCH  18  20
ENDBRANCH   9  18
BRANCH  10  22
HETATM   22  O2  UNL     1       3.213   0.465  -0.675  1.00  0.00    -0.392 OA
ATOM     23  H2  UNL     1       3.622   0.606  -1.521  1.00  0.00     0.210 HD
ENDBRANCH  10  22
TORSDOF 3
