REMARK  3 active torsions:
REMARK  status: ('A' for Active; 'I' for Inactive)
REMARK    1  A    between atoms: C5_5  and  N1_7 
REMARK    2  A    between atoms: N1_7  and  C7_9 
REMARK    3  A    between atoms: C10_18  and  C11_19 
ROOT
HETATM    1  C7  UNL     1      -0.826  -2.311  -0.168  1.00  0.00     0.133 A 
HETATM    2  N2  UNL     1      -1.200  -3.651  -0.163  1.00  0.00    -0.337 N 
ATOM      3  H2  UNL     1      -2.152  -3.894   0.113  1.00  0.00     0.168 HD
HETATM    4  C8  UNL     1      -0.369  -4.621  -0.502  1.00  0.00     0.183 A 
HETATM    5  N3  UNL     1       0.885  -4.303  -0.866  1.00  0.00    -0.337 N 
ATOM      6  H3  UNL     1       1.528  -5.050  -1.128  1.00  0.00     0.168 HD
HETATM    7  C9  UNL     1       1.318  -3.029  -0.896  1.00  0.00     0.138 A 
HETATM    8  N4  UNL     1       2.491  -2.438  -1.211  1.00  0.00    -0.330 N 
ATOM      9  H4  UNL     1       3.331  -2.932  -1.514  1.00  0.00     0.168 HD
HETATM   10  C10 UNL     1       2.392  -1.105  -1.068  1.00  0.00     0.087 A 
HETATM   11  N5  UNL     1       1.143  -0.826  -0.657  1.00  0.00    -0.339 N 
ATOM     12  H5  UNL     1       0.770   0.104  -0.463  1.00  0.00     0.167 HD
HETATM   13  C16 UNL     1       0.463  -1.997  -0.544  1.00  0.00     0.122 A 
ENDROOT
BRANCH   1  14
HETATM   14  N1  UNL     1      -1.669  -1.463   0.168  1.00  0.00    -0.365 N 
ATOM     15  H1  UNL     1      -2.536  -1.947   0.400  1.00  0.00     0.162 HD
BRANCH  14  16
HETATM   16  C5  UNL     1      -1.866  -0.111   0.343  1.00  0.00     0.028 C 
HETATM   17  C4  UNL     1      -1.223   0.498   1.579  1.00  0.00     0.031 C 
HETATM   18  C3  UNL     1      -1.978   1.824   1.737  1.00  0.00     0.007 C 
HETATM   19  C2  UNL     1      -3.395   1.485   1.355  1.00  0.00    -0.016 C 
HETATM   20  C1  UNL     1      -4.267   1.513   2.610  1.00  0.00     0.010 C 
HETATM   21  C17 UNL     1      -3.357   0.128   0.727  1.00  0.00     0.034 C 
HETATM   22  C6  UNL     1      -1.622   0.798  -0.833  1.00  0.00     0.038 C 
ENDBRANCH  14  16
ENDBRANCH   1  14
BRANCH  10  23
HETATM   23  C11 UNL     1       3.506  -0.148  -1.332  1.00  0.00     0.053 C 
HETATM   24  C12 UNL     1       3.093   0.913  -2.320  1.00  0.00     0.012 C 
HETATM   25  C13 UNL     1       2.690   2.126  -1.499  1.00  0.00     0.001 C 
HETATM   26  C14 UNL     1       3.441   2.004  -0.193  1.00  0.00     0.001 C 
HETATM   27  C15 UNL     1       3.855   0.581  -0.046  1.00  0.00     0.012 C 
ENDBRANCH  10  23
TORSDOF 3
