REMARK  14 active torsions:
REMARK  status: ('A' for Active; 'I' for Inactive)
REMARK    1  A    between atoms: C2_2  and  C3_4 
REMARK    2  A    between atoms: C4_8  and  C5_9 
REMARK    3  A    between atoms: C5_9  and  N2_10 
REMARK       I    between atoms: N2_10  and  C6_12 
REMARK    4  A    between atoms: C6_12  and  O3_14 
REMARK    5  A    between atoms: O3_14  and  C7_15 
REMARK    6  A    between atoms: C14_22  and  N3_23 
REMARK       I    between atoms: N3_23  and  C16_25 
REMARK    7  A    between atoms: C16_25  and  C17_27 
REMARK    8  A    between atoms: C17_27  and  C18_28 
REMARK    9  A    between atoms: C18_28  and  C19_29 
REMARK   10  A    between atoms: C19_29  and  C20_30 
REMARK   11  A    between atoms: C20_30  and  C21_31 
REMARK   12  A    between atoms: C21_31  and  O5_32 
REMARK   13  A    between atoms: O5_32  and  C22_33 
REMARK       I    between atoms: C22_33  and  N4_35 
REMARK   14  A    between atoms: C25_38  and  C26_39 
ROOT
HETATM    1  C3  UNL     1      -2.451   1.293  -2.088  1.00  0.00     0.270 C 
HETATM    2  N1  UNL     1      -1.489   0.310  -1.493  1.00  0.00    -0.044 N 
ATOM      3  H11 UNL     1      -0.553   0.355  -1.895  1.00  0.00     0.280 HD
ATOM      4  H12 UNL     1      -1.680  -0.659  -1.747  1.00  0.00     0.280 HD
HETATM    5  C4  UNL     1      -1.525   0.553  -0.106  1.00  0.00     0.201 C 
HETATM    6  C11 UNL     1      -1.622   2.047  -0.114  1.00  0.00     0.050 C 
HETATM    7  C12 UNL     1      -1.504   2.353   1.303  1.00  0.00     0.014 C 
HETATM    8  C13 UNL     1      -0.101   1.663   1.449  1.00  0.00     0.056 C 
HETATM    9  C14 UNL     1      -0.162   0.441   0.626  1.00  0.00     0.033 C 
HETATM   10  C25 UNL     1      -2.672   2.341  -1.031  1.00  0.00     0.132 C 
ENDROOT
BRANCH   9  11
HETATM   11  N3  UNL     1       0.897  -0.105  -0.061  1.00  0.00    -0.327 N 
HETATM   12  C15 UNL     1       1.293  -1.498   0.336  1.00  0.00     0.159 C 
HETATM   13  C16 UNL     1       1.733   0.374  -1.105  1.00  0.00     0.223 C 
HETATM   14  O4  UNL     1       1.695   1.495  -1.646  1.00  0.00    -0.273 OA
BRANCH  13  15
HETATM   15  C17 UNL     1       2.802  -0.483  -1.685  1.00  0.00     0.103 C 
BRANCH  15  16
HETATM   16  C18 UNL     1       3.713   0.185  -2.636  1.00  0.00     0.009 C 
BRANCH  16  17
HETATM   17  C19 UNL     1       4.535   1.312  -2.136  1.00  0.00     0.002 C 
BRANCH  17  18
HETATM   18  C20 UNL     1       5.469   0.955  -0.998  1.00  0.00     0.027 C 
BRANCH  18  19
HETATM   19  C21 UNL     1       6.406  -0.099  -1.477  1.00  0.00     0.180 C 
BRANCH  19  20
HETATM   20  O5  UNL     1       7.343  -0.540  -0.537  1.00  0.00    -0.304 OA
BRANCH  20  21
HETATM   21  C22 UNL     1       6.924  -1.145   0.635  1.00  0.00     0.362 C 
HETATM   22  O6  UNL     1       5.707  -1.324   0.900  1.00  0.00    -0.238 OA
HETATM   23  N4  UNL     1       7.897  -1.596   1.605  1.00  0.00    -0.337 N 
HETATM   24  C23 UNL     1       9.322  -1.409   1.347  1.00  0.00     0.154 C 
HETATM   25  C24 UNL     1       7.468  -2.230   2.810  1.00  0.00     0.154 C 
ENDBRANCH  20  21
ENDBRANCH  19  20
ENDBRANCH  18  19
ENDBRANCH  17  18
ENDBRANCH  16  17
ENDBRANCH  15  16
ENDBRANCH  13  15
ENDBRANCH   9  11
BRANCH   5  26
HETATM   26  C5  UNL     1      -2.483  -0.247   0.674  1.00  0.00     0.111 C 
BRANCH  26  27
HETATM   27  N2  UNL     1      -3.849  -0.283   0.453  1.00  0.00    -0.314 N 
HETATM   28  C6  UNL     1      -4.663  -1.098   1.333  1.00  0.00     0.365 C 
HETATM   29  O2  UNL     1      -4.083  -1.722   2.244  1.00  0.00    -0.238 OA
ATOM     30  H2  UNL     1      -4.271   0.249  -0.308  1.00  0.00     0.170 HD
BRANCH  28  31
HETATM   31  O3  UNL     1      -6.026  -1.187   1.177  1.00  0.00    -0.294 OA
BRANCH  31  32
HETATM   32  C7  UNL     1      -6.850  -1.971   2.016  1.00  0.00     0.061 C 
HETATM   33  C8  UNL     1      -6.760  -1.528   3.462  1.00  0.00     0.046 C 
HETATM   34  C9  UNL     1      -8.267  -1.872   1.494  1.00  0.00     0.046 C 
HETATM   35  C10 UNL     1      -6.456  -3.432   1.976  1.00  0.00     0.046 C 
ENDBRANCH  31  32
ENDBRANCH  28  31
ENDBRANCH  26  27
ENDBRANCH   5  26
BRANCH   1  36
HETATM   36  C2  UNL     1      -1.973   1.720  -3.399  1.00  0.00     0.154 C 
HETATM   37  C1  UNL     1      -2.539   2.628  -4.388  1.00  0.00     0.093 C 
HETATM   38  O1  UNL     1      -0.879   1.224  -3.755  1.00  0.00    -0.296 OA
ENDBRANCH   1  36
BRANCH  10  39
HETATM   39  C26 UNL     1      -2.767   3.732  -1.521  1.00  0.00     0.180 C 
HETATM   40  O7  UNL     1      -1.801   4.504  -1.387  1.00  0.00    -0.648 OA
HETATM   41  O8  UNL     1      -3.918   4.173  -2.124  1.00  0.00    -0.648 OA
ENDBRANCH  10  39
TORSDOF 14
