REMARK  12 active torsions:
REMARK  status: ('A' for Active; 'I' for Inactive)
REMARK    1  A    between atoms: O1_2  and  C2_3 
REMARK    2  A    between atoms: C4_5  and  C5_6 
REMARK    3  A    between atoms: C5_6  and  C6_7 
REMARK    4  A    between atoms: C8_11  and  N2_12 
REMARK    5  A    between atoms: C11_22  and  C12_23 
REMARK    6  A    between atoms: C12_23  and  N5_24 
REMARK    7  A    between atoms: N7_29  and  C15_30 
REMARK    8  A    between atoms: C15_30  and  C16_31 
REMARK    9  A    between atoms: C16_31  and  C17_32 
REMARK   10  A    between atoms: C17_32  and  O3_33 
REMARK   11  A    between atoms: C17_32  and  O4_35 
REMARK   12  A    between atoms: C21_39  and  C22_40 
ROOT
HETATM    1  C2  UNL     1      -3.410  -1.495  -0.527  1.00  0.00     0.069 A 
HETATM    2  C3  UNL     1      -4.527  -1.098   0.156  1.00  0.00     0.044 A 
HETATM    3  C4  UNL     1      -4.365  -0.559   1.426  1.00  0.00    -0.050 A 
HETATM    4  C10 UNL     1      -3.119  -0.447   1.946  1.00  0.00     0.020 A 
HETATM    5  C11 UNL     1      -1.956  -0.842   1.277  1.00  0.00    -0.017 A 
HETATM    6  C28 UNL     1      -2.125  -1.366   0.035  1.00  0.00     0.049 A 
ENDROOT
BRANCH   5   7
HETATM    7  C12 UNL     1      -0.673  -0.640   1.908  1.00  0.00     0.108 C 
BRANCH   7   8
HETATM    8  N5  UNL     1       0.469  -0.443   1.061  1.00  0.00    -0.294 N 
HETATM    9  C13 UNL     1       0.416   0.767   0.263  1.00  0.00     0.343 C 
HETATM   10  O2  UNL     1      -0.674   1.386   0.162  1.00  0.00    -0.245 OA
HETATM   11  N6  UNL     1       1.541   1.293  -0.414  1.00  0.00    -0.242 N 
HETATM   12  C14 UNL     1       1.439   2.514  -1.218  1.00  0.00     0.183 C 
HETATM   13  N7  UNL     1       2.753   0.627  -0.315  1.00  0.00    -0.253 N 
HETATM   14  C20 UNL     1       2.813  -0.543   0.450  1.00  0.00     0.262 C 
HETATM   15  O5  UNL     1       3.920  -1.082   0.675  1.00  0.00    -0.269 OA
HETATM   16  C21 UNL     1       1.609  -1.243   1.054  1.00  0.00     0.192 C 
BRANCH  13  17
HETATM   17  C15 UNL     1       3.930   1.167  -1.013  1.00  0.00     0.157 C 
BRANCH  17  18
HETATM   18  C16 UNL     1       4.696   2.110  -0.155  1.00  0.00     0.082 C 
BRANCH  18  19
HETATM   19  C17 UNL     1       5.884   2.639  -0.973  1.00  0.00     0.260 C 
BRANCH  19  20
HETATM   20  O3  UNL     1       5.445   3.300  -2.105  1.00  0.00    -0.366 OA
HETATM   21  C18 UNL     1       5.937   2.755  -3.278  1.00  0.00     0.204 C 
ENDBRANCH  19  20
BRANCH  19  22
HETATM   22  O4  UNL     1       6.647   3.487  -0.158  1.00  0.00    -0.366 OA
HETATM   23  C19 UNL     1       7.946   2.996  -0.012  1.00  0.00     0.204 C 
ENDBRANCH  19  22
ENDBRANCH  18  19
ENDBRANCH  17  18
ENDBRANCH  13  17
BRANCH  16  24
HETATM   24  C22 UNL     1       1.654  -2.616   0.531  1.00  0.00     0.018 C 
HETATM   25  C23 UNL     1       0.832  -3.664   1.184  1.00  0.00     0.007 C 
HETATM   26  C24 UNL     1       0.906  -4.930   0.334  1.00  0.00     0.000 C 
HETATM   27  C25 UNL     1       2.229  -5.064  -0.388  1.00  0.00     0.000 C 
HETATM   28  C26 UNL     1       2.454  -3.926  -1.364  1.00  0.00     0.000 C 
HETATM   29  C27 UNL     1       1.558  -2.772  -0.961  1.00  0.00     0.007 C 
ENDBRANCH  16  24
ENDBRANCH   7   8
ENDBRANCH   5   7
BRANCH   3  30
HETATM   30  C5  UNL     1      -5.611  -0.119   2.137  1.00  0.00     0.082 C 
BRANCH  30  31
HETATM   31  C6  UNL     1      -6.058   1.162   1.548  1.00  0.00     0.006 A 
HETATM   32  C7  UNL     1      -7.104   1.142   0.652  1.00  0.00     0.117 A 
HETATM   33  N1  UNL     1      -7.524   2.309   0.089  1.00  0.00    -0.202 N 
HETATM   34  C8  UNL     1      -6.960   3.483   0.371  1.00  0.00     0.677 A 
ATOM     35  H1  UNL     1      -8.299   2.283  -0.573  1.00  0.00     0.183 HD
HETATM   36  N3  UNL     1      -5.947   3.522   1.234  1.00  0.00    -0.177 N 
HETATM   37  C9  UNL     1      -5.487   2.376   1.830  1.00  0.00     0.122 A 
ATOM     38  H3  UNL     1      -5.508   4.416   1.455  1.00  0.00     0.185 HD
HETATM   39  N4  UNL     1      -4.524   2.480   2.653  1.00  0.00    -0.385 N 
ATOM     40  H42 UNL     1      -4.182   1.628   3.096  1.00  0.00     0.157 HD
ATOM     41  H41 UNL     1      -4.099   3.383   2.863  1.00  0.00     0.157 HD
BRANCH  34  42
HETATM   42  N2  UNL     1      -7.416   4.562  -0.205  1.00  0.00    -0.234 N 
ATOM     43  H22 UNL     1      -8.192   4.532  -0.866  1.00  0.00     0.174 HD
ATOM     44  H21 UNL     1      -6.984   5.461   0.011  1.00  0.00     0.174 HD
ENDBRANCH  34  42
ENDBRANCH  30  31
ENDBRANCH   3  30
BRANCH   1  45
HETATM   45  O1  UNL     1      -3.533  -2.045  -1.810  1.00  0.00    -0.356 OA
HETATM   46  C1  UNL     1      -4.807  -2.173  -2.362  1.00  0.00     0.210 C 
ENDBRANCH   1  45
TORSDOF 12
