REMARK  11 active torsions:
REMARK  status: ('A' for Active; 'I' for Inactive)
REMARK    1  A    between atoms: C4_4  and  C5_5 
REMARK    2  A    between atoms: C5_5  and  C6_6 
REMARK    3  A    between atoms: C12_19  and  N4_20 
REMARK    4  A    between atoms: N4_20  and  C13_22 
REMARK    5  A    between atoms: C18_31  and  O3_32 
REMARK    6  A    between atoms: C20_34  and  O4_35 
REMARK    7  A    between atoms: O4_35  and  C21_36 
REMARK    8  A    between atoms: C21_36  and  C22_37 
REMARK    9  A    between atoms: C22_37  and  N7_38 
REMARK   10  A    between atoms: N7_38  and  C23_39 
REMARK   11  A    between atoms: N7_38  and  C25_41 
ROOT
HETATM    1  N4  UNL     1      -0.624  -1.165  -0.650  1.00  0.00    -0.340 N 
ATOM      2  H4  UNL     1      -1.479  -0.708  -0.967  1.00  0.00     0.167 HD
ENDROOT
BRANCH   1   3
HETATM    3  C12 UNL     1       0.569  -0.416  -0.585  1.00  0.00     0.052 A 
HETATM    4  C11 UNL     1       1.563  -0.454   0.342  1.00  0.00     0.130 A 
HETATM    5  N3  UNL     1       2.541   0.454   0.069  1.00  0.00    -0.286 N 
HETATM    6  C10 UNL     1       3.690   0.762   0.713  1.00  0.00     0.258 A 
HETATM    7  C29 UNL     1       2.174   1.083  -1.046  1.00  0.00     0.053 A 
HETATM    8  C4  UNL     1       4.530   1.745   0.236  1.00  0.00     0.016 A 
HETATM    9  O2  UNL     1       4.000   0.132   1.777  1.00  0.00    -0.267 OA
HETATM   10  C3  UNL     1       4.165   2.413  -0.925  1.00  0.00     0.026 A 
HETATM   11  C2  UNL     1       2.999   2.087  -1.561  1.00  0.00    -0.017 A 
HETATM   12  C1  UNL     1       2.629   2.725  -2.669  1.00  0.00     0.026 C 
HETATM   13  C28 UNL     1       0.964   0.580  -1.485  1.00  0.00     0.061 A 
BRANCH   8  14
HETATM   14  C5  UNL     1       5.794   2.157   0.897  1.00  0.00     0.090 C 
BRANCH  14  15
HETATM   15  C6  UNL     1       6.914   1.211   0.726  1.00  0.00     0.039 A 
HETATM   16  C7  UNL     1       7.638   1.010  -0.436  1.00  0.00     0.034 A 
HETATM   17  C8  UNL     1       7.512   1.631  -1.770  1.00  0.00     0.070 C 
HETATM   18  N1  UNL     1       8.578   0.083  -0.166  1.00  0.00    -0.302 N 
HETATM   19  N2  UNL     1       8.506  -0.320   1.086  1.00  0.00    -0.266 N 
ATOM     20  H1  UNL     1       9.258  -0.262  -0.844  1.00  0.00     0.186 HD
HETATM   21  C9  UNL     1       7.488   0.367   1.641  1.00  0.00     0.268 A 
ATOM     22  H2  UNL     1       9.100  -1.012   1.543  1.00  0.00     0.190 HD
HETATM   23  O1  UNL     1       7.152   0.216   2.845  1.00  0.00    -0.266 OA
ENDBRANCH  14  15
ENDBRANCH   8  14
ENDBRANCH   1   3
BRANCH   1  24
HETATM   24  C13 UNL     1      -0.665  -2.380  -0.329  1.00  0.00     0.122 A 
HETATM   25  N5  UNL     1       0.425  -3.034   0.091  1.00  0.00    -0.338 N 
HETATM   26  C14 UNL     1       0.448  -4.333   0.415  1.00  0.00     0.182 A 
ATOM     27  H5  UNL     1       1.295  -2.508   0.169  1.00  0.00     0.168 HD
HETATM   28  N6  UNL     1      -0.697  -4.998   0.306  1.00  0.00    -0.351 N 
HETATM   29  C15 UNL     1      -1.841  -4.442  -0.102  1.00  0.00     0.050 A 
ATOM     30  H6  UNL     1      -0.703  -5.989   0.547  1.00  0.00     0.166 HD
HETATM   31  C16 UNL     1      -2.971  -5.225  -0.215  1.00  0.00     0.033 A 
HETATM   32  C27 UNL     1      -1.867  -3.071  -0.442  1.00  0.00     0.071 A 
HETATM   33  C17 UNL     1      -4.110  -4.608  -0.670  1.00  0.00     0.042 A 
HETATM   34  C18 UNL     1      -4.157  -3.283  -1.001  1.00  0.00     0.102 A 
HETATM   35  C20 UNL     1      -3.001  -2.471  -0.885  1.00  0.00     0.118 A 
BRANCH  34  36
HETATM   36  O3  UNL     1      -5.344  -2.745  -1.449  1.00  0.00    -0.353 OA
HETATM   37  C19 UNL     1      -6.560  -3.394  -1.621  1.00  0.00     0.210 C 
ENDBRANCH  34  36
BRANCH  35  38
HETATM   38  O4  UNL     1      -3.148  -1.190  -1.232  1.00  0.00    -0.346 OA
BRANCH  38  39
HETATM   39  C21 UNL     1      -3.695  -0.059  -0.709  1.00  0.00     0.196 C 
BRANCH  39  40
HETATM   40  C22 UNL     1      -3.316   0.574   0.557  1.00  0.00     0.153 C 
BRANCH  40  41
HETATM   41  N7  UNL     1      -4.082   1.734   0.841  1.00  0.00    -0.373 N 
BRANCH  41  42
HETATM   42  C23 UNL     1      -5.436   1.570   1.156  1.00  0.00     0.059 C 
HETATM   43  C24 UNL     1      -6.140   2.872   1.497  1.00  0.00     0.055 C 
ENDBRANCH  41  42
BRANCH  41  44
HETATM   44  C25 UNL     1      -3.573   3.002   0.531  1.00  0.00     0.059 C 
HETATM   45  C26 UNL     1      -3.486   3.311  -0.947  1.00  0.00     0.055 C 
ENDBRANCH  41  44
ENDBRANCH  40  41
ENDBRANCH  39  40
ENDBRANCH  38  39
ENDBRANCH  35  38
ENDBRANCH   1  24
TORSDOF 11
