REMARK  15 active torsions:
REMARK  status: ('A' for Active; 'I' for Inactive)
REMARK    1  A    between atoms: C2_2  and  C3_3 
REMARK    2  A    between atoms: C3_3  and  S1_4 
REMARK    3  A    between atoms: S1_4  and  C4_5 
REMARK    4  A    between atoms: C4_5  and  C5_6 
REMARK    5  A    between atoms: C5_6  and  O1_7 
REMARK    6  A    between atoms: C5_6  and  N1_9 
REMARK    7  A    between atoms: C5_6  and  C22_35 
REMARK    8  A    between atoms: N1_9  and  C6_10 
REMARK    9  A    between atoms: N1_9  and  C8_14 
REMARK   10  A    between atoms: C6_10  and  C7_11 
REMARK   11  A    between atoms: C8_14  and  C9_15 
REMARK   12  A    between atoms: C8_14  and  C11_19 
REMARK   13  A    between atoms: C9_15  and  C10_16 
REMARK       I    between atoms: C11_19  and  N2_21 
REMARK   14  A    between atoms: N2_21  and  C12_23 
REMARK   15  A    between atoms: C19_30  and  O7_31 
ROOT
HETATM    1  C8  UNL     1       0.548  -0.896   0.845  1.00  0.00     0.112 C 
ENDROOT
BRANCH   1   2
HETATM    2  N1  UNL     1       1.834  -0.708   0.270  1.00  0.00    -0.311 N 
BRANCH   2   3
HETATM    3  C5  UNL     1       2.899  -0.887   1.161  1.00  0.00     0.153 C 
BRANCH   3   4
HETATM    4  C4  UNL     1       3.265   0.442   1.863  1.00  0.00     0.136 C 
BRANCH   4   5
HETATM    5  S1  UNL     1       4.041   1.708   1.003  1.00  0.00    -0.161 SA
BRANCH   5   6
HETATM    6  C3  UNL     1       3.230   2.666  -0.221  1.00  0.00     0.100 C 
BRANCH   6   7
HETATM    7  C2  UNL     1       4.167   3.645  -0.823  1.00  0.00    -0.027 C 
HETATM    8  C1  UNL     1       5.416   3.730  -0.477  1.00  0.00     0.007 C 
ENDBRANCH   6   7
ENDBRANCH   5   6
ENDBRANCH   4   5
ENDBRANCH   3   4
BRANCH   3   9
HETATM    9  O1  UNL     1       2.366  -1.606   2.256  1.00  0.00    -0.369 OA
ATOM     10  H1  UNL     1       2.141  -2.422   1.825  1.00  0.00     0.212 HD
ENDBRANCH   3   9
BRANCH   3  11
HETATM   11  C22 UNL     1       4.164  -1.559   0.835  1.00  0.00     0.000 C 
HETATM   12  C23 UNL     1       4.849  -1.787   2.224  1.00  0.00     0.019 C 
HETATM   13  C24 UNL     1       5.226  -0.777   0.115  1.00  0.00     0.019 C 
HETATM   14  C25 UNL     1       4.070  -2.973   0.296  1.00  0.00     0.019 C 
ENDBRANCH   3  11
ENDBRANCH   2   3
BRANCH   2  15
HETATM   15  C6  UNL     1       2.009  -0.989  -1.093  1.00  0.00     0.178 C 
BRANCH  15  16
HETATM   16  C7  UNL     1       1.026  -0.590  -2.102  1.00  0.00     0.215 C 
HETATM   17  O2  UNL     1       0.045  -1.272  -2.516  1.00  0.00    -0.643 OA
HETATM   18  O3  UNL     1       1.089   0.670  -2.745  1.00  0.00    -0.643 OA
ENDBRANCH  15  16
ENDBRANCH   2  15
ENDBRANCH   1   2
BRANCH   1  19
HETATM   19  C9  UNL     1      -0.015  -2.154   1.299  1.00  0.00     0.119 C 
BRANCH  19  20
HETATM   20  C10 UNL     1      -0.222  -3.301   0.431  1.00  0.00     0.201 C 
HETATM   21  O4  UNL     1       0.607  -4.264   0.482  1.00  0.00    -0.644 OA
HETATM   22  O5  UNL     1      -1.251  -3.500  -0.486  1.00  0.00    -0.644 OA
ENDBRANCH  19  20
ENDBRANCH   1  19
BRANCH   1  23
HETATM   23  C11 UNL     1      -0.461   0.157   0.481  1.00  0.00     0.269 C 
HETATM   24  O6  UNL     1      -0.030   1.296   0.272  1.00  0.00    -0.266 OA
HETATM   25  N2  UNL     1      -1.830  -0.092   0.371  1.00  0.00    -0.350 N 
ATOM     26  H2  UNL     1      -2.189  -1.032   0.538  1.00  0.00     0.163 HD
BRANCH  25  27
HETATM   27  C12 UNL     1      -2.758   0.994   0.016  1.00  0.00     0.093 C 
HETATM   28  C13 UNL     1      -3.781   1.198   1.073  1.00  0.00     0.012 C 
HETATM   29  C14 UNL     1      -4.642   2.405   0.728  1.00  0.00     0.011 C 
HETATM   30  C21 UNL     1      -4.638  -0.015   1.216  1.00  0.00     0.044 C 
HETATM   31  C15 UNL     1      -5.322   2.119  -0.582  1.00  0.00    -0.011 C 
HETATM   32  C16 UNL     1      -4.273   1.953  -1.636  1.00  0.00     0.011 C 
HETATM   33  C20 UNL     1      -6.214   0.928  -0.438  1.00  0.00     0.042 C 
HETATM   34  C17 UNL     1      -3.417   0.742  -1.298  1.00  0.00     0.012 C 
HETATM   35  C18 UNL     1      -4.359  -0.440  -1.240  1.00  0.00     0.044 C 
HETATM   36  C19 UNL     1      -5.335  -0.266  -0.099  1.00  0.00     0.059 C 
BRANCH  36  37
HETATM   37  O7  UNL     1      -6.045  -1.444   0.005  1.00  0.00    -0.390 OA
ATOM     38  H7  UNL     1      -6.658  -1.335   0.722  1.00  0.00     0.210 HD
ENDBRANCH  36  37
ENDBRANCH  25  27
ENDBRANCH   1  23
TORSDOF 15
