REMARK  12 active torsions:
REMARK  status: ('A' for Active; 'I' for Inactive)
REMARK    1  A    between atoms: C2_2  and  C3_3 
REMARK    2  A    between atoms: C3_3  and  C4_4 
REMARK    3  A    between atoms: C4_4  and  C5_6 
REMARK    4  A    between atoms: C6_9  and  C7_10 
REMARK       I    between atoms: C7_10  and  N2_12 
REMARK    5  A    between atoms: C8_14  and  C9_15 
REMARK    6  A    between atoms: C8_14  and  C13_21 
REMARK    7  A    between atoms: C9_15  and  C10_16 
REMARK    8  A    between atoms: C10_16  and  O4_18 
REMARK    9  A    between atoms: O4_18  and  C11_19 
REMARK   10  A    between atoms: C21_33  and  C22_34 
REMARK   11  A    between atoms: C22_34  and  C23_35 
REMARK   12  A    between atoms: C23_35  and  C24_36 
ROOT
HETATM    1  C7  UNL     1      -0.283   0.844   1.019  1.00  0.00     0.272 C 
HETATM    2  O2  UNL     1      -0.621   1.151   2.182  1.00  0.00    -0.266 OA
HETATM    3  N2  UNL     1      -1.124   0.582  -0.028  1.00  0.00    -0.328 N 
ATOM      4  H2  UNL     1      -0.688   0.758  -0.933  1.00  0.00     0.168 HD
HETATM    5  C8  UNL     1      -2.323   0.170  -0.136  1.00  0.00     0.006 C 
ENDROOT
BRANCH   1   6
HETATM    6  C6  UNL     1       1.181   0.757   0.757  1.00  0.00     0.108 A 
HETATM    7  N1  UNL     1       2.146   0.973   1.651  1.00  0.00    -0.348 N 
HETATM    8  C5  UNL     1       3.395   0.820   1.083  1.00  0.00     0.086 A 
ATOM      9  H1  UNL     1       1.983   1.219   2.627  1.00  0.00     0.166 HD
HETATM   10  C21 UNL     1       3.214   0.488  -0.234  1.00  0.00    -0.016 A 
HETATM   11  C19 UNL     1       1.814   0.457  -0.419  1.00  0.00    -0.021 A 
HETATM   12  C20 UNL     1       1.113   0.199  -1.694  1.00  0.00     0.051 C 
BRANCH   8  13
HETATM   13  C4  UNL     1       4.570   1.067   1.880  1.00  0.00     0.176 C 
HETATM   14  O1  UNL     1       4.378   1.413   3.117  1.00  0.00    -0.291 OA
BRANCH  13  15
HETATM   15  C3  UNL     1       5.950   0.973   1.441  1.00  0.00     0.085 C 
BRANCH  15  16
HETATM   16  C2  UNL     1       6.918   1.436   2.554  1.00  0.00     0.003 C 
HETATM   17  C1  UNL     1       6.653   2.854   2.937  1.00  0.00     0.005 C 
ENDBRANCH  15  16
ENDBRANCH  13  15
ENDBRANCH   8  13
BRANCH  10  18
HETATM   18  C22 UNL     1       4.164   0.227  -1.299  1.00  0.00     0.074 C 
BRANCH  18  19
HETATM   19  C23 UNL     1       4.895  -1.035  -1.348  1.00  0.00     0.048 C 
BRANCH  19  20
HETATM   20  C24 UNL     1       4.221  -2.317  -1.366  1.00  0.00     0.251 C 
HETATM   21  N4  UNL     1       5.005  -3.469  -1.784  1.00  0.00    -0.058 NA
HETATM   22  O6  UNL     1       3.054  -2.519  -1.059  1.00  0.00    -0.272 OA
ENDBRANCH  19  20
ENDBRANCH  18  19
ENDBRANCH  10  18
ENDBRANCH   1   6
BRANCH   5  23
HETATM   23  C9  UNL     1      -2.844   0.027  -1.529  1.00  0.00     0.164 C 
BRANCH  23  24
HETATM   24  C10 UNL     1      -3.882   1.053  -1.786  1.00  0.00     0.264 C 
HETATM   25  O3  UNL     1      -4.209   1.958  -0.969  1.00  0.00    -0.265 OA
BRANCH  24  26
HETATM   26  O4  UNL     1      -4.587   1.083  -2.991  1.00  0.00    -0.322 OA
BRANCH  26  27
HETATM   27  C11 UNL     1      -5.573   2.044  -3.253  1.00  0.00     0.174 C 
HETATM   28  C12 UNL     1      -5.110   3.452  -3.225  1.00  0.00     0.034 C 
ENDBRANCH  26  27
ENDBRANCH  24  26
ENDBRANCH  23  24
ENDBRANCH   5  23
BRANCH   5  29
HETATM   29  C13 UNL     1      -3.095  -0.138   1.070  1.00  0.00     0.071 A 
HETATM   30  C14 UNL     1      -3.401  -1.506   1.373  1.00  0.00     0.109 A 
HETATM   31  N3  UNL     1      -3.589  -2.623   0.513  1.00  0.00    -0.355 N 
HETATM   32  C18 UNL     1      -4.498  -0.510   0.932  1.00  0.00     0.082 A 
HETATM   33  C15 UNL     1      -4.826  -3.379   0.517  1.00  0.00     0.218 C 
ATOM     34  H3  UNL     1      -2.838  -2.898  -0.120  1.00  0.00     0.162 HD
HETATM   35  O5  UNL     1      -4.800  -4.462  -0.122  1.00  0.00    -0.274 OA
HETATM   36  C16 UNL     1      -6.139  -3.099   1.152  1.00  0.00     0.113 C 
HETATM   37  C17 UNL     1      -6.007  -2.387   2.493  1.00  0.00     0.083 C 
HETATM   38  S1  UNL     1      -5.720  -0.584   2.239  1.00  0.00    -0.161 SA
ENDBRANCH   5  29
TORSDOF 12
