REMARK  12 active torsions:
REMARK  status: ('A' for Active; 'I' for Inactive)
REMARK    1  A    between atoms: C5_7  and  C6_8 
REMARK    2  A    between atoms: C12_16  and  O3_17 
REMARK    3  A    between atoms: C13_19  and  O4_20 
REMARK    4  A    between atoms: O4_20  and  C14_21 
REMARK    5  A    between atoms: C14_21  and  C15_22 
REMARK    6  A    between atoms: C15_22  and  C16_23 
REMARK    7  A    between atoms: C16_23  and  C17_24 
REMARK    8  A    between atoms: C18_25  and  C19_26 
REMARK    9  A    between atoms: C19_26  and  C20_27 
REMARK   10  A    between atoms: C20_27  and  C21_28 
REMARK   11  A    between atoms: C23_30  and  O5_31 
REMARK       I    between atoms: N2_34  and  C25_35 
REMARK   12  A    between atoms: C25_35  and  C26_37 
ROOT
HETATM    1  C6  UNL     1      -1.909  -0.377  -0.458  1.00  0.00     0.131 C 
HETATM    2  O1  UNL     1      -1.903  -0.485  -1.865  1.00  0.00    -0.352 OA
HETATM    3  C7  UNL     1      -0.553  -0.207  -1.958  1.00  0.00     0.155 C 
HETATM    4  C8  UNL     1      -0.101   0.801  -2.959  1.00  0.00     0.058 C 
HETATM    5  C9  UNL     1       0.229  -1.464  -2.115  1.00  0.00     0.171 C 
HETATM    6  O2  UNL     1       0.614  -1.899  -3.181  1.00  0.00    -0.294 OA
HETATM    7  C10 UNL     1       0.392  -1.989  -0.729  1.00  0.00     0.093 C 
HETATM    8  C11 UNL     1      -0.885  -2.659  -0.334  1.00  0.00     0.050 C 
HETATM    9  C12 UNL     1      -1.909  -1.712   0.248  1.00  0.00     0.157 C 
HETATM   10  C13 UNL     1       0.551  -0.689   0.032  1.00  0.00     0.173 C 
HETATM   11  C23 UNL     1      -0.543   0.182  -0.517  1.00  0.00     0.156 C 
ENDROOT
BRANCH   1  12
HETATM   12  C5  UNL     1      -3.006   0.501   0.074  1.00  0.00     0.057 C 
HETATM   13  C4  UNL     1      -2.990   1.912  -0.419  1.00  0.00     0.037 C 
HETATM   14  C3  UNL     1      -4.404   2.473  -0.652  1.00  0.00     0.100 C 
HETATM   15  N1  UNL     1      -5.048   1.661  -1.704  1.00  0.00    -0.386 N 
HETATM   16  C28 UNL     1      -5.196   2.191   0.607  1.00  0.00     0.151 C 
HETATM   17  C2  UNL     1      -4.911   0.266  -1.464  1.00  0.00     0.019 C 
ATOM     18  H1  UNL     1      -5.535   2.055  -2.509  1.00  0.00     0.160 HD
HETATM   19  C1  UNL     1      -5.205  -0.693  -2.312  1.00  0.00     0.040 C 
HETATM   20  C24 UNL     1      -4.384  -0.053  -0.099  1.00  0.00     0.143 C 
HETATM   21  N2  UNL     1      -5.261   0.741   0.784  1.00  0.00    -0.340 N 
HETATM   22  C25 UNL     1      -6.127   0.149   1.724  1.00  0.00     0.220 C 
HETATM   23  O6  UNL     1      -6.179  -1.093   1.823  1.00  0.00    -0.273 OA
BRANCH  22  24
HETATM   24  C26 UNL     1      -6.954   1.025   2.568  1.00  0.00     0.098 C 
HETATM   25  C27 UNL     1      -8.445   0.686   2.428  1.00  0.00     0.014 C 
ENDBRANCH  22  24
ENDBRANCH   1  12
BRANCH   9  26
HETATM   26  O3  UNL     1      -1.718  -1.465   1.607  1.00  0.00    -0.392 OA
ATOM     27  H3  UNL     1      -1.718  -2.305   2.051  1.00  0.00     0.210 HD
ENDBRANCH   9  26
BRANCH  11  28
HETATM   28  O5  UNL     1      -0.418   1.532  -0.215  1.00  0.00    -0.380 OA
ATOM     29  H5  UNL     1       0.461   1.892  -0.253  1.00  0.00     0.211 HD
ENDBRANCH  11  28
BRANCH  10  30
HETATM   30  O4  UNL     1       1.777  -0.143  -0.392  1.00  0.00    -0.382 OA
BRANCH  30  31
HETATM   31  C14 UNL     1       2.651   0.025   0.658  1.00  0.00     0.168 C 
BRANCH  31  32
HETATM   32  C15 UNL     1       3.933   0.634   0.138  1.00  0.00     0.030 C 
BRANCH  32  33
HETATM   33  C16 UNL     1       4.568  -0.260  -0.923  1.00  0.00     0.029 C 
BRANCH  33  34
HETATM   34  C17 UNL     1       5.822   0.347  -1.431  1.00  0.00    -0.031 C 
HETATM   35  C18 UNL     1       7.012  -0.182  -1.391  1.00  0.00    -0.031 C 
BRANCH  35  36
HETATM   36  C19 UNL     1       7.387  -1.473  -0.846  1.00  0.00     0.027 C 
BRANCH  36  37
HETATM   37  C20 UNL     1       8.404  -1.528   0.229  1.00  0.00     0.003 C 
BRANCH  37  38
HETATM   38  C21 UNL     1       8.138  -0.811   1.503  1.00  0.00    -0.004 C 
HETATM   39  C22 UNL     1       8.011   0.674   1.331  1.00  0.00     0.005 C 
ENDBRANCH  37  38
ENDBRANCH  36  37
ENDBRANCH  35  36
ENDBRANCH  33  34
ENDBRANCH  32  33
ENDBRANCH  31  32
ENDBRANCH  30  31
ENDBRANCH  10  30
TORSDOF 12
