REMARK  14 active torsions:
REMARK  status: ('A' for Active; 'I' for Inactive)
REMARK    1  A    between atoms: C2_2  and  C3_3 
REMARK    2  A    between atoms: C3_3  and  N1_4 
REMARK    3  A    between atoms: N1_4  and  C4_5 
REMARK    4  A    between atoms: N1_4  and  C15_27 
REMARK    5  A    between atoms: C4_5  and  C5_6 
REMARK    6  A    between atoms: C6_9  and  N3_10 
REMARK    7  A    between atoms: N3_10  and  C7_12 
REMARK    8  A    between atoms: C10_17  and  N5_18 
REMARK    9  A    between atoms: N5_18  and  C11_20 
REMARK   10  A    between atoms: C11_20  and  C12_21 
REMARK   11  A    between atoms: C12_21  and  C13_22 
REMARK   12  A    between atoms: C13_22  and  O1_23 
REMARK   13  A    between atoms: C17_29  and  N7_30 
REMARK   14  A    between atoms: N9_39  and  C23_41 
ROOT
HETATM    1  N1  UNL     1      -0.946  -1.843   0.560  1.00  0.00    -0.374 N 
ENDROOT
BRANCH   1   2
HETATM    2  C3  UNL     1      -0.689  -2.428   1.828  1.00  0.00     0.123 C 
BRANCH   2   3
HETATM    3  C2  UNL     1      -1.090  -3.824   2.070  1.00  0.00     0.015 C 
HETATM    4  C1  UNL     1      -0.514  -4.902   1.236  1.00  0.00     0.006 C 
ENDBRANCH   2   3
ENDBRANCH   1   2
BRANCH   1   5
HETATM    5  C4  UNL     1      -0.251  -2.146  -0.660  1.00  0.00     0.200 C 
BRANCH   5   6
HETATM    6  C5  UNL     1       1.212  -1.806  -0.610  1.00  0.00     0.131 A 
HETATM    7  N2  UNL     1       2.155  -2.750  -0.771  1.00  0.00    -0.178 N 
HETATM    8  C6  UNL     1       3.479  -2.531  -0.739  1.00  0.00     0.694 A 
ATOM      9  H2  UNL     1       1.840  -3.707  -0.930  1.00  0.00     0.185 HD
HETATM   10  N4  UNL     1       3.863  -1.268  -0.530  1.00  0.00    -0.022 N 
HETATM   11  C10 UNL     1       2.960  -0.250  -0.358  1.00  0.00     0.694 A 
ATOM     12  H4  UNL     1       4.860  -1.054  -0.497  1.00  0.00     0.203 HD
HETATM   13  N6  UNL     1       1.648  -0.550  -0.403  1.00  0.00    -0.178 N 
ATOM     14  H6  UNL     1       0.965   0.197  -0.276  1.00  0.00     0.185 HD
BRANCH   8  15
HETATM   15  N3  UNL     1       4.349  -3.446  -0.896  1.00  0.00    -0.222 N 
ATOM     16  H3  UNL     1       3.957  -4.375  -1.048  1.00  0.00     0.178 HD
BRANCH  15  17
HETATM   17  C7  UNL     1       5.753  -3.406  -0.897  1.00  0.00     0.091 C 
HETATM   18  C8  UNL     1       6.225  -3.032   0.506  1.00  0.00     0.032 C 
HETATM   19  C9  UNL     1       6.398  -2.558  -1.936  1.00  0.00     0.032 C 
ENDBRANCH  15  17
ENDBRANCH   8  15
BRANCH  11  20
HETATM   20  N5  UNL     1       3.423   0.930  -0.166  1.00  0.00    -0.225 N 
ATOM     21  H5  UNL     1       4.440   1.005  -0.159  1.00  0.00     0.177 HD
BRANCH  20  22
HETATM   22  C11 UNL     1       2.722   2.144   0.038  1.00  0.00     0.140 C 
BRANCH  22  23
HETATM   23  C12 UNL     1       3.789   3.208   0.342  1.00  0.00     0.046 C 
BRANCH  23  24
HETATM   24  C13 UNL     1       4.709   3.282  -0.837  1.00  0.00     0.168 C 
BRANCH  24  25
HETATM   25  O1  UNL     1       5.703   4.220  -0.672  1.00  0.00    -0.396 OA
HETATM   26  C14 UNL     1       6.485   3.913   0.417  1.00  0.00     0.201 C 
ENDBRANCH  24  25
ENDBRANCH  23  24
ENDBRANCH  22  23
ENDBRANCH  20  22
ENDBRANCH  11  20
ENDBRANCH   5   6
ENDBRANCH   1   5
BRANCH   1  27
HETATM   27  C15 UNL     1      -2.044  -0.898   0.495  1.00  0.00     0.037 A 
HETATM   28  C16 UNL     1      -2.221  -0.043  -0.577  1.00  0.00     0.078 A 
HETATM   29  C17 UNL     1      -3.303   0.808  -0.628  1.00  0.00     0.113 A 
HETATM   30  N8  UNL     1      -4.226   0.827   0.379  1.00  0.00    -0.329 N 
HETATM   31  C22 UNL     1      -4.106   0.020   1.443  1.00  0.00     0.104 A 
ATOM     32  H8  UNL     1      -5.019   1.465   0.320  1.00  0.00     0.169 HD
HETATM   33  N9  UNL     1      -4.905  -0.063   2.424  1.00  0.00    -0.372 N 
HETATM   34  C26 UNL     1      -3.001  -0.839   1.479  1.00  0.00     0.077 A 
ATOM     35  H9  UNL     1      -4.646  -0.737   3.144  1.00  0.00     0.161 HD
BRANCH  29  36
HETATM   36  N7  UNL     1      -3.540   1.707  -1.695  1.00  0.00    -0.304 N 
HETATM   37  C18 UNL     1      -4.702   1.536  -2.580  1.00  0.00     0.134 C 
HETATM   38  C19 UNL     1      -4.711   2.708  -3.503  1.00  0.00     0.029 C 
HETATM   39  C20 UNL     1      -3.749   3.701  -2.916  1.00  0.00     0.105 C 
HETATM   40  C21 UNL     1      -2.817   2.850  -2.128  1.00  0.00     0.225 C 
HETATM   41  O2  UNL     1      -1.611   3.042  -1.858  1.00  0.00    -0.273 OA
ENDBRANCH  29  36
BRANCH  33  42
HETATM   42  C23 UNL     1      -6.117   0.655   2.663  1.00  0.00     0.075 C 
HETATM   43  C24 UNL     1      -5.857   2.115   2.949  1.00  0.00     0.031 C 
HETATM   44  C25 UNL     1      -7.139   0.557   1.567  1.00  0.00     0.031 C 
ENDBRANCH  33  42
ENDBRANCH   1  27
TORSDOF 14
