REMARK  11 active torsions:
REMARK  status: ('A' for Active; 'I' for Inactive)
REMARK    1  A    between atoms: C2_2  and  C3_3 
REMARK    2  A    between atoms: C3_3  and  C4_4 
REMARK    3  A    between atoms: C4_4  and  C5_5 
REMARK    4  A    between atoms: C6_6  and  O1_7 
REMARK    5  A    between atoms: C7_11  and  C8_12 
REMARK    6  A    between atoms: C8_12  and  C9_13 
REMARK    7  A    between atoms: C13_20  and  C14_21 
REMARK    8  A    between atoms: C14_21  and  C15_22 
REMARK    9  A    between atoms: C15_22  and  C18_25 
REMARK   10  A    between atoms: C22_29  and  O3_30 
REMARK   11  A    between atoms: C23_34  and  C24_35 
ROOT
HETATM    1  C5  UNL     1       4.040   0.316   0.713  1.00  0.00     0.064 C 
HETATM    2  C6  UNL     1       3.381   0.109   1.963  1.00  0.00     0.160 C 
HETATM    3  N1  UNL     1       2.345  -0.672   2.469  1.00  0.00    -0.356 N 
ATOM      4  H1  UNL     1       2.495  -1.000   3.423  1.00  0.00     0.162 HD
HETATM    5  C7  UNL     1       1.106  -1.097   1.889  1.00  0.00     0.176 C 
HETATM    6  C12 UNL     1       0.084  -0.011   2.128  1.00  0.00     0.241 C 
HETATM    7  O2  UNL     1       0.283   0.680   3.189  1.00  0.00    -0.271 OA
HETATM    8  N2  UNL     1      -0.984   0.235   1.287  1.00  0.00    -0.347 N 
ATOM      9  H2  UNL     1      -1.588   1.016   1.544  1.00  0.00     0.163 HD
HETATM   10  C13 UNL     1      -1.355  -0.498   0.062  1.00  0.00     0.159 C 
HETATM   11  C22 UNL     1      -0.837   0.301  -1.065  1.00  0.00     0.135 C 
HETATM   12  N3  UNL     1      -1.089   1.623  -1.407  1.00  0.00    -0.359 N 
ATOM     13  H3  UNL     1      -1.599   1.749  -2.281  1.00  0.00     0.162 HD
HETATM   14  C23 UNL     1      -0.746   2.849  -0.725  1.00  0.00     0.179 C 
HETATM   15  C27 UNL     1       0.457   3.394  -1.405  1.00  0.00     0.241 C 
HETATM   16  O4  UNL     1       0.271   4.004  -2.485  1.00  0.00    -0.271 OA
HETATM   17  N4  UNL     1       1.783   3.271  -0.918  1.00  0.00    -0.346 N 
ATOM     18  H4  UNL     1       2.532   3.235  -1.609  1.00  0.00     0.163 HD
HETATM   19  C28 UNL     1       2.164   3.193   0.472  1.00  0.00     0.173 C 
HETATM   20  C29 UNL     1       1.892   4.578   1.029  1.00  0.00     0.042 C 
HETATM   21  C30 UNL     1       3.581   2.855   0.669  1.00  0.00     0.246 C 
HETATM   22  O5  UNL     1       4.283   3.784   1.229  1.00  0.00    -0.271 OA
HETATM   23  N5  UNL     1       4.301   1.708   0.357  1.00  0.00    -0.320 N 
HETATM   24  C31 UNL     1       5.527   1.917  -0.459  1.00  0.00     0.159 C 
ENDROOT
BRANCH  10  25
HETATM   25  C14 UNL     1      -2.798  -0.706   0.171  1.00  0.00     0.042 C 
BRANCH  25  26
HETATM   26  C15 UNL     1      -3.594  -1.418  -0.860  1.00  0.00    -0.042 C 
HETATM   27  C16 UNL     1      -3.081  -2.858  -1.071  1.00  0.00     0.015 C 
HETATM   28  C17 UNL     1      -3.613  -0.639  -2.113  1.00  0.00     0.015 C 
BRANCH  26  29
HETATM   29  C18 UNL     1      -4.968  -1.649  -0.228  1.00  0.00    -0.003 A 
HETATM   30  C19 UNL     1      -5.795  -0.501   0.215  1.00  0.00     0.010 A 
HETATM   31  C20 UNL     1      -6.263  -1.595  -0.805  1.00  0.00    -0.013 A 
HETATM   32  C21 UNL     1      -6.803  -0.999  -2.040  1.00  0.00     0.010 C 
ENDBRANCH  26  29
ENDBRANCH  25  26
ENDBRANCH  10  25
BRANCH  11  33
HETATM   33  O3  UNL     1      -0.020  -0.352  -1.845  1.00  0.00    -0.348 OA
ATOM     34  H3  UNL     1       0.314   0.162  -2.571  1.00  0.00     0.219 HD
ENDBRANCH  11  33
BRANCH   5  35
HETATM   35  C8  UNL     1       0.568  -2.355   2.517  1.00  0.00     0.038 C 
BRANCH  35  36
HETATM   36  C9  UNL     1       1.385  -3.582   2.439  1.00  0.00    -0.020 C 
HETATM   37  C10 UNL     1       2.727  -3.570   3.095  1.00  0.00     0.009 C 
HETATM   38  C11 UNL     1       0.587  -4.702   3.112  1.00  0.00     0.009 C 
ENDBRANCH  35  36
ENDBRANCH   5  35
BRANCH  14  39
HETATM   39  C24 UNL     1      -1.840   3.881  -0.756  1.00  0.00     0.009 C 
HETATM   40  C25 UNL     1      -3.105   3.373  -0.082  1.00  0.00     0.012 C 
HETATM   41  C26 UNL     1      -2.213   4.364  -2.132  1.00  0.00     0.012 C 
ENDBRANCH  14  39
BRANCH   2  42
HETATM   42  O1  UNL     1       3.890   0.869   2.918  1.00  0.00    -0.345 OA
ATOM     43  H1  UNL     1       3.452   0.731   3.749  1.00  0.00     0.219 HD
ENDBRANCH   2  42
BRANCH   1  44
HETATM   44  C4  UNL     1       3.713  -0.429  -0.513  1.00  0.00     0.062 C 
BRANCH  44  45
HETATM   45  C3  UNL     1       3.927  -1.920  -0.492  1.00  0.00     0.006 C 
BRANCH  45  46
HETATM   46  C2  UNL     1       3.556  -2.551  -1.823  1.00  0.00    -0.004 C 
HETATM   47  C1  UNL     1       4.387  -1.985  -2.940  1.00  0.00     0.005 C 
ENDBRANCH  45  46
ENDBRANCH  44  45
ENDBRANCH   1  44
TORSDOF 11
