REMARK  10 active torsions:
REMARK  status: ('A' for Active; 'I' for Inactive)
REMARK    1  A    between atoms: C2_2  and  C3_3 
REMARK    2  A    between atoms: C4_4  and  O1_5 
REMARK    3  A    between atoms: C5_9  and  C6_10 
REMARK    4  A    between atoms: C6_10  and  C7_11 
REMARK    5  A    between atoms: C11_18  and  C12_19 
REMARK    6  A    between atoms: C12_19  and  C13_20 
REMARK    7  A    between atoms: C18_29  and  C19_30 
REMARK    8  A    between atoms: C19_30  and  C20_31 
REMARK    9  A    between atoms: C25_39  and  C26_40 
REMARK   10  A    between atoms: C26_40  and  C27_41 
ROOT
HETATM    1  C3  UNL     1       0.974  -2.876   0.731  1.00  0.00     0.160 C 
HETATM    2  C4  UNL     1       0.305  -2.764  -0.567  1.00  0.00     0.135 C 
HETATM    3  N1  UNL     1      -0.649  -1.876  -1.040  1.00  0.00    -0.359 N 
ATOM      4  H1  UNL     1      -0.344  -1.351  -1.860  1.00  0.00     0.162 HD
HETATM    5  C5  UNL     1      -1.975  -1.546  -0.612  1.00  0.00     0.176 C 
HETATM    6  C10 UNL     1      -2.682  -0.687  -1.624  1.00  0.00     0.242 C 
HETATM    7  O2  UNL     1      -3.180  -1.262  -2.669  1.00  0.00    -0.271 OA
HETATM    8  N2  UNL     1      -2.861   0.703  -1.551  1.00  0.00    -0.338 N 
ATOM      9  H2  UNL     1      -3.451   1.111  -2.276  1.00  0.00     0.164 HD
HETATM   10  C11 UNL     1      -2.323   1.631  -0.588  1.00  0.00     0.193 C 
HETATM   11  N3  UNL     1      -1.385   2.497  -1.269  1.00  0.00    -0.338 N 
ATOM     12  H3  UNL     1      -1.788   3.286  -1.776  1.00  0.00     0.164 HD
HETATM   13  C17 UNL     1      -0.000   2.382  -1.315  1.00  0.00     0.242 C 
HETATM   14  O4  UNL     1       0.538   2.313  -2.479  1.00  0.00    -0.271 OA
HETATM   15  C18 UNL     1       0.944   2.328  -0.147  1.00  0.00     0.177 C 
HETATM   16  N4  UNL     1       2.248   2.636  -0.671  1.00  0.00    -0.348 N 
ATOM     17  H4  UNL     1       2.480   3.627  -0.737  1.00  0.00     0.163 HD
HETATM   18  C23 UNL     1       3.247   1.737  -1.106  1.00  0.00     0.219 C 
HETATM   19  O5  UNL     1       3.608   1.885  -2.331  1.00  0.00    -0.274 OA
HETATM   20  C24 UNL     1       3.915   0.671  -0.341  1.00  0.00     0.117 C 
HETATM   21  C25 UNL     1       3.314  -0.686  -0.390  1.00  0.00     0.087 C 
HETATM   22  C30 UNL     1       2.759  -1.050   0.982  1.00  0.00     0.224 C 
HETATM   23  O6  UNL     1       3.568  -0.687   1.920  1.00  0.00    -0.273 OA
HETATM   24  N5  UNL     1       1.560  -1.685   1.280  1.00  0.00    -0.344 N 
HETATM   25  C31 UNL     1       0.746  -1.065   2.352  1.00  0.00     0.153 C 
ENDROOT
BRANCH  10  26
HETATM   26  C12 UNL     1      -3.360   2.470   0.097  1.00  0.00     0.112 C 
BRANCH  26  27
HETATM   27  C13 UNL     1      -4.188   3.314  -0.745  1.00  0.00     0.056 A 
HETATM   28  C14 UNL     1      -5.176   4.150  -0.262  1.00  0.00     0.035 A 
HETATM   29  C15 UNL     1      -5.741   4.783  -1.341  1.00  0.00     0.027 A 
HETATM   30  C16 UNL     1      -5.086   4.319  -2.448  1.00  0.00     0.142 A 
HETATM   31  O3  UNL     1      -4.191   3.464  -2.028  1.00  0.00    -0.327 OA
ENDBRANCH  26  27
ENDBRANCH  10  26
BRANCH   5  32
HETATM   32  C6  UNL     1      -2.915  -2.716  -0.426  1.00  0.00     0.038 C 
BRANCH  32  33
HETATM   33  C7  UNL     1      -4.266  -2.194   0.024  1.00  0.00    -0.020 C 
HETATM   34  C8  UNL     1      -4.212  -1.445   1.326  1.00  0.00     0.009 C 
HETATM   35  C9  UNL     1      -5.138  -3.431   0.277  1.00  0.00     0.009 C 
ENDBRANCH  32  33
ENDBRANCH   5  32
BRANCH  15  36
HETATM   36  C19 UNL     1       0.526   3.222   0.949  1.00  0.00     0.038 C 
BRANCH  36  37
HETATM   37  C20 UNL     1       1.324   3.311   2.183  1.00  0.00    -0.020 C 
HETATM   38  C21 UNL     1       2.713   3.808   2.016  1.00  0.00     0.009 C 
HETATM   39  C22 UNL     1       0.657   4.233   3.226  1.00  0.00     0.009 C 
ENDBRANCH  36  37
ENDBRANCH  15  36
BRANCH   2  40
HETATM   40  O1  UNL     1       0.666  -3.656  -1.446  1.00  0.00    -0.348 OA
ATOM     41  H1  UNL     1       0.232  -3.583  -2.288  1.00  0.00     0.219 HD
ENDBRANCH   2  40
BRANCH   1  42
HETATM   42  C2  UNL     1       0.132  -3.632   1.786  1.00  0.00     0.029 C 
HETATM   43  C1  UNL     1      -0.063  -5.033   1.182  1.00  0.00     0.007 C 
ENDBRANCH   1  42
BRANCH  21  44
HETATM   44  C26 UNL     1       4.120  -1.839  -0.798  1.00  0.00     0.018 C 
BRANCH  44  45
HETATM   45  C27 UNL     1       4.761  -1.963  -2.113  1.00  0.00    -0.022 C 
HETATM   46  C28 UNL     1       5.469  -3.375  -2.171  1.00  0.00     0.009 C 
HETATM   47  C29 UNL     1       5.916  -1.010  -2.355  1.00  0.00     0.009 C 
ENDBRANCH  44  45
ENDBRANCH  21  44
TORSDOF 10
