REMARK  11 active torsions:
REMARK  status: ('A' for Active; 'I' for Inactive)
REMARK    1  A    between atoms: C2_2  and  C3_3 
REMARK    2  A    between atoms: C3_3  and  C4_4 
REMARK    3  A    between atoms: C5_7  and  O1_8 
REMARK    4  A    between atoms: C6_10  and  C7_11 
REMARK    5  A    between atoms: C7_11  and  C9_13 
REMARK    6  A    between atoms: C12_19  and  C13_20 
REMARK    7  A    between atoms: C16_25  and  O3_26 
REMARK    8  A    between atoms: C17_28  and  C18_29 
REMARK    9  A    between atoms: C23_37  and  C24_38 
REMARK   10  A    between atoms: C24_38  and  C25_39 
REMARK   11  A    between atoms: C28_44  and  C29_45 
ROOT
HETATM    1  C4  UNL     1       0.915  -3.059  -0.389  1.00  0.00     0.175 C 
HETATM    2  N1  UNL     1       0.127  -2.419  -1.383  1.00  0.00    -0.359 N 
ATOM      3  H1  UNL     1       0.397  -2.763  -2.304  1.00  0.00     0.162 HD
HETATM    4  C5  UNL     1      -0.877  -1.492  -1.518  1.00  0.00     0.135 C 
HETATM    5  C6  UNL     1      -2.209  -1.280  -0.918  1.00  0.00     0.162 C 
HETATM    6  N2  UNL     1      -2.294  -0.587   0.323  1.00  0.00    -0.347 N 
ATOM      7  H2  UNL     1      -1.761  -1.028   1.073  1.00  0.00     0.163 HD
HETATM    8  C11 UNL     1      -2.965   0.584   0.725  1.00  0.00     0.241 C 
HETATM    9  O2  UNL     1      -3.893   0.519   1.633  1.00  0.00    -0.271 OA
HETATM   10  C12 UNL     1      -2.793   1.977   0.271  1.00  0.00     0.179 C 
HETATM   11  N3  UNL     1      -1.909   2.178  -0.824  1.00  0.00    -0.359 N 
ATOM     12  H3  UNL     1      -2.190   1.684  -1.671  1.00  0.00     0.162 HD
HETATM   13  C16 UNL     1      -0.747   2.908  -0.971  1.00  0.00     0.135 C 
HETATM   14  C17 UNL     1       0.461   3.036  -0.169  1.00  0.00     0.162 C 
HETATM   15  N4  UNL     1       0.647   2.147   0.920  1.00  0.00    -0.348 N 
ATOM     16  H4  UNL     1      -0.205   1.816   1.373  1.00  0.00     0.163 HD
HETATM   17  C21 UNL     1       1.859   1.661   1.458  1.00  0.00     0.226 C 
HETATM   18  O4  UNL     1       2.182   1.936   2.682  1.00  0.00    -0.273 OA
HETATM   19  C22 UNL     1       2.887   0.826   0.788  1.00  0.00     0.124 A 
HETATM   20  C23 UNL     1       2.427   0.139  -0.457  1.00  0.00     0.102 A 
HETATM   21  N5  UNL     1       2.552  -1.161   0.106  1.00  0.00    -0.339 N 
HETATM   22  C27 UNL     1       2.330  -2.424  -0.385  1.00  0.00     0.243 C 
HETATM   23  O5  UNL     1       3.164  -3.240  -0.885  1.00  0.00    -0.271 OA
HETATM   24  C28 UNL     1       2.941  -0.593   1.340  1.00  0.00     0.106 A 
ENDROOT
BRANCH   5  25
HETATM   25  C7  UNL     1      -2.997  -2.617  -0.911  1.00  0.00     0.012 C 
HETATM   26  C8  UNL     1      -3.110  -3.021  -2.362  1.00  0.00     0.012 C 
BRANCH  25  27
HETATM   27  C9  UNL     1      -4.288  -2.424  -0.212  1.00  0.00     0.002 C 
HETATM   28  C10 UNL     1      -5.139  -3.675  -0.163  1.00  0.00     0.005 C 
ENDBRANCH  25  27
ENDBRANCH   5  25
BRANCH   4  29
HETATM   29  O1  UNL     1      -0.603  -0.557  -2.400  1.00  0.00    -0.348 OA
ATOM     30  H1  UNL     1      -1.298   0.084  -2.493  1.00  0.00     0.219 HD
ENDBRANCH   4  29
BRANCH   1  31
HETATM   31  C3  UNL     1       0.425  -3.186   0.995  1.00  0.00     0.034 C 
BRANCH  31  32
HETATM   32  C2  UNL     1       1.459  -3.981   1.800  1.00  0.00    -0.002 C 
HETATM   33  C1  UNL     1       1.024  -4.126   3.239  1.00  0.00     0.005 C 
ENDBRANCH  31  32
ENDBRANCH   1  31
BRANCH  10  34
HETATM   34  C13 UNL     1      -4.183   2.561  -0.033  1.00  0.00     0.009 C 
HETATM   35  C14 UNL     1      -4.929   1.802  -1.069  1.00  0.00     0.012 C 
HETATM   36  C15 UNL     1      -4.968   2.756   1.229  1.00  0.00     0.012 C 
ENDBRANCH  10  34
BRANCH  13  37
HETATM   37  O3  UNL     1      -0.689   3.649  -2.044  1.00  0.00    -0.348 OA
ATOM     38  H3  UNL     1       0.111   4.151  -2.145  1.00  0.00     0.219 HD
ENDBRANCH  13  37
BRANCH  20  39
HETATM   39  C24 UNL     1       3.316   0.539  -1.603  1.00  0.00     0.026 C 
BRANCH  39  40
HETATM   40  C25 UNL     1       2.955  -0.093  -2.921  1.00  0.00    -0.002 C 
HETATM   41  C26 UNL     1       3.985   0.443  -3.928  1.00  0.00     0.005 C 
ENDBRANCH  39  40
ENDBRANCH  20  39
BRANCH  24  42
HETATM   42  C29 UNL     1       4.233  -0.998   1.988  1.00  0.00     0.001 C 
HETATM   43  C30 UNL     1       4.602  -0.117   3.176  1.00  0.00     0.011 C 
HETATM   44  C31 UNL     1       5.409  -1.149   1.102  1.00  0.00     0.011 C 
ENDBRANCH  24  42
BRANCH  14  45
HETATM   45  C18 UNL     1       0.623   4.499   0.231  1.00  0.00     0.008 C 
HETATM   46  C19 UNL     1      -0.528   5.009   1.030  1.00  0.00     0.012 C 
HETATM   47  C20 UNL     1       0.846   5.400  -0.958  1.00  0.00     0.012 C 
ENDBRANCH  14  45
TORSDOF 11
