REMARK  9 active torsions:
REMARK  status: ('A' for Active; 'I' for Inactive)
REMARK    1  A    between atoms: C2_2  and  C3_3 
REMARK    2  A    between atoms: C3_3  and  C4_4 
REMARK    3  A    between atoms: C4_4  and  C5_5 
REMARK    4  A    between atoms: C5_5  and  C6_6 
REMARK    5  A    between atoms: C8_11  and  C9_12 
REMARK    6  A    between atoms: C9_12  and  C10_13 
REMARK    7  A    between atoms: C14_20  and  C15_21 
REMARK    8  A    between atoms: C24_35  and  C25_36 
REMARK    9  A    between atoms: C25_36  and  C26_37 
ROOT
HETATM    1  C6  UNL     1       1.504   0.835  -0.738  1.00  0.00     0.097 C 
HETATM    2  N1  UNL     1       2.653  -0.027  -0.956  1.00  0.00    -0.354 N 
ATOM      3  H1  UNL     1       3.544   0.454  -1.078  1.00  0.00     0.162 HD
HETATM    4  C7  UNL     1       2.710  -1.422  -1.022  1.00  0.00     0.240 C 
HETATM    5  O1  UNL     1       3.544  -2.007  -0.280  1.00  0.00    -0.271 OA
HETATM    6  C8  UNL     1       1.895  -2.334  -1.881  1.00  0.00     0.177 C 
HETATM    7  N2  UNL     1       0.949  -3.148  -1.210  1.00  0.00    -0.346 N 
ATOM      8  H2  UNL     1       0.283  -3.592  -1.842  1.00  0.00     0.163 HD
HETATM    9  C13 UNL     1       0.731  -3.474   0.134  1.00  0.00     0.241 C 
HETATM   10  O2  UNL     1       0.956  -4.676   0.533  1.00  0.00    -0.271 OA
HETATM   11  C14 UNL     1       0.249  -2.608   1.239  1.00  0.00     0.180 C 
HETATM   12  N3  UNL     1      -1.214  -2.815   1.284  1.00  0.00    -0.346 N 
ATOM     13  H3  UNL     1      -1.560  -3.594   1.844  1.00  0.00     0.163 HD
HETATM   14  C18 UNL     1      -2.166  -2.027   0.619  1.00  0.00     0.241 C 
HETATM   15  O3  UNL     1      -2.962  -2.582  -0.231  1.00  0.00    -0.271 OA
HETATM   16  C19 UNL     1      -2.329  -0.567   0.827  1.00  0.00     0.179 C 
HETATM   17  C20 UNL     1      -2.898  -0.241   2.200  1.00  0.00     0.037 C 
HETATM   18  C21 UNL     1      -4.378  -0.155   2.010  1.00  0.00     0.022 C 
HETATM   19  C22 UNL     1      -4.618  -0.366   0.533  1.00  0.00     0.127 C 
HETATM   20  N4  UNL     1      -3.344  -0.023  -0.077  1.00  0.00    -0.337 N 
HETATM   21  C23 UNL     1      -2.961   0.660  -1.255  1.00  0.00     0.243 C 
HETATM   22  O4  UNL     1      -3.563   0.348  -2.336  1.00  0.00    -0.271 OA
HETATM   23  C24 UNL     1      -1.920   1.714  -1.362  1.00  0.00     0.177 C 
HETATM   24  N5  UNL     1      -1.190   1.548  -2.602  1.00  0.00    -0.347 N 
ATOM     25  H5  UNL     1      -1.748   1.546  -3.456  1.00  0.00     0.163 HD
HETATM   26  C29 UNL     1       0.194   1.390  -2.768  1.00  0.00     0.224 C 
HETATM   27  O5  UNL     1       0.559   0.812  -3.839  1.00  0.00    -0.273 OA
HETATM   28  C30 UNL     1       1.265   1.826  -1.830  1.00  0.00     0.096 C 
HETATM   29  C31 UNL     1       1.030   3.241  -1.426  1.00  0.00     0.022 C 
ENDROOT
BRANCH   1  30
HETATM   30  C5  UNL     1       1.584   1.408   0.659  1.00  0.00     0.026 C 
BRANCH  30  31
HETATM   31  C4  UNL     1       2.811   2.194   0.949  1.00  0.00     0.002 C 
BRANCH  31  32
HETATM   32  C3  UNL     1       2.830   2.740   2.373  1.00  0.00    -0.000 C 
BRANCH  32  33
HETATM   33  C2  UNL     1       1.686   3.652   2.676  1.00  0.00    -0.005 C 
HETATM   34  C1  UNL     1       1.865   4.104   4.131  1.00  0.00     0.005 C 
ENDBRANCH  32  33
ENDBRANCH  31  32
ENDBRANCH  30  31
ENDBRANCH   1  30
BRANCH   6  35
HETATM   35  C9  UNL     1       2.823  -3.050  -2.847  1.00  0.00     0.038 C 
BRANCH  35  36
HETATM   36  C10 UNL     1       2.222  -4.007  -3.794  1.00  0.00    -0.020 C 
HETATM   37  C11 UNL     1       3.421  -4.510  -4.658  1.00  0.00     0.009 C 
HETATM   38  C12 UNL     1       1.701  -5.293  -3.162  1.00  0.00     0.009 C 
ENDBRANCH  35  36
ENDBRANCH   6  35
BRANCH  23  39
HETATM   39  C25 UNL     1      -2.696   3.023  -1.538  1.00  0.00     0.038 C 
BRANCH  39  40
HETATM   40  C26 UNL     1      -3.611   3.336  -0.407  1.00  0.00    -0.020 C 
HETATM   41  C27 UNL     1      -4.282   4.671  -0.768  1.00  0.00     0.009 C 
HETATM   42  C28 UNL     1      -2.938   3.531   0.914  1.00  0.00     0.009 C 
ENDBRANCH  39  40
ENDBRANCH  23  39
BRANCH  11  43
HETATM   43  C15 UNL     1       0.728  -3.101   2.576  1.00  0.00     0.009 C 
HETATM   44  C16 UNL     1       0.178  -2.151   3.647  1.00  0.00     0.012 C 
HETATM   45  C17 UNL     1       2.180  -3.288   2.751  1.00  0.00     0.012 C 
ENDBRANCH  11  43
TORSDOF 9
