REMARK  13 active torsions:
REMARK  status: ('A' for Active; 'I' for Inactive)
REMARK    1  A    between atoms: C2_2  and  C4_4 
REMARK    2  A    between atoms: C4_4  and  C5_5 
REMARK    3  A    between atoms: C7_10  and  C8_11 
REMARK    4  A    between atoms: C12_18  and  C13_19 
REMARK    5  A    between atoms: C13_19  and  C14_20 
REMARK    6  A    between atoms: C14_20  and  C15_21 
REMARK    7  A    between atoms: C15_21  and  C16_22 
REMARK    8  A    between atoms: C16_22  and  N3_23 
REMARK    9  A    between atoms: C20_33  and  C21_34 
REMARK   10  A    between atoms: C21_34  and  C22_35 
REMARK   11  A    between atoms: N5_40  and  C27_41 
REMARK   12  A    between atoms: C27_41  and  C28_42 
REMARK   13  A    between atoms: C32_49  and  C33_50 
ROOT
HETATM    1  C5  UNL     1      -2.600  -2.689   0.685  1.00  0.00     0.177 C 
HETATM    2  N1  UNL     1      -3.688  -2.442  -0.231  1.00  0.00    -0.346 N 
ATOM      3  H1  UNL     1      -4.292  -3.237  -0.438  1.00  0.00     0.163 HD
HETATM    4  C6  UNL     1      -4.010  -1.238  -0.868  1.00  0.00     0.241 C 
HETATM    5  O1  UNL     1      -5.232  -0.858  -0.876  1.00  0.00    -0.271 OA
HETATM    6  C7  UNL     1      -3.065  -0.322  -1.557  1.00  0.00     0.180 C 
HETATM    7  N2  UNL     1      -3.497   1.046  -1.318  1.00  0.00    -0.346 N 
ATOM      8  H2  UNL     1      -4.465   1.280  -1.540  1.00  0.00     0.163 HD
HETATM    9  C11 UNL     1      -2.677   2.078  -0.801  1.00  0.00     0.241 C 
HETATM   10  O2  UNL     1      -2.663   3.205  -1.357  1.00  0.00    -0.271 OA
HETATM   11  C12 UNL     1      -1.794   1.942   0.391  1.00  0.00     0.177 C 
HETATM   12  N4  UNL     1      -0.575   2.709   0.261  1.00  0.00    -0.344 N 
ATOM     13  H4  UNL     1      -0.078   2.932   1.123  1.00  0.00     0.163 HD
HETATM   14  C17 UNL     1      -0.005   3.180  -0.942  1.00  0.00     0.241 C 
HETATM   15  O3  UNL     1       0.244   4.454  -0.971  1.00  0.00    -0.269 OA
HETATM   16  C18 UNL     1       0.328   2.411  -2.130  1.00  0.00     0.072 C 
HETATM   17  C19 UNL     1       1.166   1.422  -2.252  1.00  0.00     0.004 C 
HETATM   18  C20 UNL     1       2.008   0.830  -1.155  1.00  0.00     0.113 C 
HETATM   19  N6  UNL     1       2.096  -0.574  -1.463  1.00  0.00    -0.351 N 
ATOM     20  H6  UNL     1       2.460  -0.802  -2.388  1.00  0.00     0.163 HD
HETATM   21  C31 UNL     1       1.749  -1.665  -0.663  1.00  0.00     0.241 C 
HETATM   22  O4  UNL     1       2.614  -2.609  -0.583  1.00  0.00    -0.271 OA
HETATM   23  C32 UNL     1       0.497  -1.853   0.099  1.00  0.00     0.180 C 
HETATM   24  N7  UNL     1      -0.330  -2.863  -0.538  1.00  0.00    -0.346 N 
ATOM     25  H7  UNL     1      -0.011  -3.206  -1.444  1.00  0.00     0.163 HD
HETATM   26  C36 UNL     1      -1.511  -3.415  -0.048  1.00  0.00     0.241 C 
HETATM   27  O5  UNL     1      -1.712  -4.652  -0.225  1.00  0.00    -0.271 OA
ENDROOT
BRANCH  18  28
HETATM   28  C21 UNL     1       3.304   1.535  -0.970  1.00  0.00     0.086 C 
BRANCH  28  29
HETATM   29  C22 UNL     1       4.144   1.450  -2.181  1.00  0.00     0.013 A 
HETATM   30  C23 UNL     1       3.917   2.271  -3.272  1.00  0.00     0.025 A 
HETATM   31  C24 UNL     1       4.688   2.240  -4.408  1.00  0.00     0.003 A 
HETATM   32  C25 UNL     1       5.724   1.337  -4.419  1.00  0.00     0.017 A 
HETATM   33  C26 UNL     1       5.921   0.547  -3.331  1.00  0.00     0.091 A 
HETATM   34  N5  UNL     1       5.172   0.563  -2.198  1.00  0.00    -0.360 N 
BRANCH  34  35
HETATM   35  C27 UNL     1       5.563  -0.285  -1.124  1.00  0.00     0.132 C 
BRANCH  35  36
HETATM   36  C28 UNL     1       6.601   0.373  -0.188  1.00  0.00    -0.004 C 
HETATM   37  C29 UNL     1       6.878  -0.677   0.898  1.00  0.00     0.011 C 
HETATM   38  C30 UNL     1       7.884   0.488  -0.983  1.00  0.00     0.011 C 
ENDBRANCH  35  36
ENDBRANCH  34  35
ENDBRANCH  28  29
ENDBRANCH  18  28
BRANCH  23  39
HETATM   39  C33 UNL     1       0.830  -2.243   1.516  1.00  0.00     0.009 C 
HETATM   40  C34 UNL     1       1.605  -3.532   1.618  1.00  0.00     0.012 C 
HETATM   41  C35 UNL     1       1.667  -1.182   2.207  1.00  0.00     0.012 C 
ENDBRANCH  23  39
BRANCH  11  42
HETATM   42  C13 UNL     1      -2.646   2.524   1.532  1.00  0.00     0.035 C 
BRANCH  42  43
HETATM   43  C14 UNL     1      -1.968   2.493   2.853  1.00  0.00     0.004 C 
BRANCH  43  44
HETATM   44  C15 UNL     1      -2.903   3.063   3.897  1.00  0.00     0.027 C 
BRANCH  44  45
HETATM   45  C16 UNL     1      -3.277   4.489   3.569  1.00  0.00     0.229 C 
BRANCH  45  46
HETATM   46  N3  UNL     1      -4.164   5.008   4.602  1.00  0.00    -0.079 N 
ATOM     47  H33 UNL     1      -4.983   4.416   4.740  1.00  0.00     0.274 HD
ATOM     48  H32 UNL     1      -3.762   4.920   5.535  1.00  0.00     0.274 HD
ATOM     49  H31 UNL     1      -4.417   5.971   4.380  1.00  0.00     0.274 HD
ENDBRANCH  45  46
ENDBRANCH  44  45
ENDBRANCH  43  44
ENDBRANCH  42  43
ENDBRANCH  11  42
BRANCH   1  50
HETATM   50  C4  UNL     1      -2.942  -3.583   1.843  1.00  0.00     0.038 C 
BRANCH  50  51
HETATM   51  C2  UNL     1      -3.991  -3.156   2.772  1.00  0.00    -0.020 C 
HETATM   52  C1  UNL     1      -5.356  -2.959   2.174  1.00  0.00     0.009 C 
HETATM   53  C3  UNL     1      -3.659  -1.905   3.558  1.00  0.00     0.009 C 
ENDBRANCH  50  51
ENDBRANCH   1  50
BRANCH   6  54
HETATM   54  C8  UNL     1      -3.126  -0.495  -3.082  1.00  0.00     0.009 C 
HETATM   55  C9  UNL     1      -2.785  -1.886  -3.511  1.00  0.00     0.012 C 
HETATM   56  C10 UNL     1      -4.419   0.025  -3.655  1.00  0.00     0.012 C 
ENDBRANCH   6  54
TORSDOF 13
