REMARK  13 active torsions:
REMARK  status: ('A' for Active; 'I' for Inactive)
REMARK    1  A    between atoms: C2_2  and  C3_3 
REMARK    2  A    between atoms: C5_8  and  C6_9 
REMARK    3  A    between atoms: C6_9  and  C7_10 
REMARK    4  A    between atoms: C11_17  and  C12_18 
REMARK    5  A    between atoms: C17_26  and  C18_27 
REMARK    6  A    between atoms: C18_27  and  C19_28 
REMARK    7  A    between atoms: C19_28  and  C20_29 
REMARK    8  A    between atoms: C20_29  and  C21_30 
REMARK    9  A    between atoms: C21_30  and  N4_31 
REMARK   10  A    between atoms: C23_39  and  C24_40 
REMARK   11  A    between atoms: C24_40  and  C25_41 
REMARK   12  A    between atoms: C29_48  and  C30_49 
REMARK   13  A    between atoms: C30_49  and  C31_50 
ROOT
HETATM    1  C3  UNL     1      -2.695  -0.343   0.852  1.00  0.00     0.178 C 
HETATM    2  C4  UNL     1      -3.046  -1.804   0.957  1.00  0.00     0.241 C 
HETATM    3  O1  UNL     1      -4.005  -2.081   1.760  1.00  0.00    -0.271 OA
HETATM    4  N1  UNL     1      -2.410  -2.847   0.255  1.00  0.00    -0.346 N 
ATOM      5  H1  UNL     1      -2.274  -3.700   0.798  1.00  0.00     0.163 HD
HETATM    6  C5  UNL     1      -1.933  -2.914  -1.057  1.00  0.00     0.177 C 
HETATM    7  C10 UNL     1      -0.497  -2.574  -1.258  1.00  0.00     0.240 C 
HETATM    8  O2  UNL     1      -0.249  -2.682  -2.528  1.00  0.00    -0.271 OA
HETATM    9  N2  UNL     1       0.537  -2.194  -0.436  1.00  0.00    -0.354 N 
ATOM     10  H2  UNL     1       0.684  -1.187  -0.501  1.00  0.00     0.162 HD
HETATM   11  C11 UNL     1       1.462  -2.762   0.472  1.00  0.00     0.096 C 
HETATM   12  C15 UNL     1       2.832  -3.003  -0.134  1.00  0.00     0.128 C 
HETATM   13  C16 UNL     1       3.300  -2.050  -1.124  1.00  0.00     0.220 C 
HETATM   14  O3  UNL     1       3.114  -2.403  -2.333  1.00  0.00    -0.274 OA
HETATM   15  N3  UNL     1       3.927  -0.800  -0.950  1.00  0.00    -0.348 N 
ATOM     16  H3  UNL     1       4.821  -0.680  -1.426  1.00  0.00     0.163 HD
HETATM   17  C17 UNL     1       3.463   0.334  -0.181  1.00  0.00     0.176 C 
HETATM   18  C22 UNL     1       3.032   1.323  -1.251  1.00  0.00     0.241 C 
HETATM   19  O4  UNL     1       4.060   1.805  -1.855  1.00  0.00    -0.271 OA
HETATM   20  N5  UNL     1       1.754   1.705  -1.595  1.00  0.00    -0.346 N 
ATOM     21  H5  UNL     1       1.491   1.443  -2.545  1.00  0.00     0.163 HD
HETATM   22  C23 UNL     1       0.713   2.403  -0.878  1.00  0.00     0.177 C 
HETATM   23  C28 UNL     1      -0.203   3.049  -1.818  1.00  0.00     0.241 C 
HETATM   24  O5  UNL     1       0.253   3.528  -2.875  1.00  0.00    -0.271 OA
HETATM   25  N6  UNL     1      -1.593   3.167  -1.604  1.00  0.00    -0.346 N 
ATOM     26  H6  UNL     1      -2.117   3.691  -2.305  1.00  0.00     0.163 HD
HETATM   27  C29 UNL     1      -2.351   2.632  -0.511  1.00  0.00     0.177 C 
HETATM   28  C34 UNL     1      -2.961   1.338  -0.995  1.00  0.00     0.243 C 
HETATM   29  O6  UNL     1      -3.057   1.217  -2.258  1.00  0.00    -0.271 OA
HETATM   30  N7  UNL     1      -3.422   0.285  -0.215  1.00  0.00    -0.341 N 
HETATM   31  C35 UNL     1      -4.776  -0.298  -0.451  1.00  0.00     0.153 C 
ENDROOT
BRANCH  17  32
HETATM   32  C18 UNL     1       4.495   1.045   0.628  1.00  0.00     0.035 C 
BRANCH  32  33
HETATM   33  C19 UNL     1       5.225   0.332   1.680  1.00  0.00     0.004 C 
BRANCH  33  34
HETATM   34  C20 UNL     1       6.121  -0.793   1.339  1.00  0.00     0.027 C 
BRANCH  34  35
HETATM   35  C21 UNL     1       7.281  -0.402   0.451  1.00  0.00     0.229 C 
BRANCH  35  36
HETATM   36  N4  UNL     1       8.070  -1.590   0.191  1.00  0.00    -0.079 N 
ATOM     37  H43 UNL     1       8.369  -2.059   1.046  1.00  0.00     0.274 HD
ATOM     38  H42 UNL     1       7.516  -2.353  -0.198  1.00  0.00     0.274 HD
ATOM     39  H41 UNL     1       8.852  -1.326  -0.408  1.00  0.00     0.274 HD
ENDBRANCH  35  36
ENDBRANCH  34  35
ENDBRANCH  33  34
ENDBRANCH  32  33
ENDBRANCH  17  32
BRANCH  22  40
HETATM   40  C24 UNL     1       1.170   3.195   0.284  1.00  0.00     0.038 C 
BRANCH  40  41
HETATM   41  C25 UNL     1       2.160   4.274   0.087  1.00  0.00    -0.020 C 
HETATM   42  C26 UNL     1       1.799   5.390  -0.828  1.00  0.00     0.009 C 
HETATM   43  C27 UNL     1       2.327   4.929   1.482  1.00  0.00     0.009 C 
ENDBRANCH  40  41
ENDBRANCH  22  40
BRANCH  11  44
HETATM   44  C12 UNL     1       1.122  -3.947   1.295  1.00  0.00     0.001 C 
HETATM   45  C13 UNL     1       0.740  -5.192   0.560  1.00  0.00     0.011 C 
HETATM   46  C14 UNL     1       0.365  -3.683   2.562  1.00  0.00     0.011 C 
ENDBRANCH  11  44
BRANCH  27  47
HETATM   47  C30 UNL     1      -3.516   3.503  -0.180  1.00  0.00     0.038 C 
BRANCH  47  48
HETATM   48  C31 UNL     1      -3.314   4.895   0.236  1.00  0.00    -0.020 C 
HETATM   49  C32 UNL     1      -2.663   5.820  -0.750  1.00  0.00     0.009 C 
HETATM   50  C33 UNL     1      -4.666   5.565   0.578  1.00  0.00     0.009 C 
ENDBRANCH  47  48
ENDBRANCH  27  47
BRANCH   6  51
HETATM   51  C6  UNL     1      -2.220  -4.164  -1.847  1.00  0.00     0.038 C 
BRANCH  51  52
HETATM   52  C7  UNL     1      -3.629  -4.514  -2.088  1.00  0.00    -0.020 C 
HETATM   53  C8  UNL     1      -4.392  -4.755  -0.837  1.00  0.00     0.009 C 
HETATM   54  C9  UNL     1      -3.644  -5.832  -2.881  1.00  0.00     0.009 C 
ENDBRANCH  51  52
ENDBRANCH   6  51
BRANCH   1  55
HETATM   55  C2  UNL     1      -3.134   0.357   2.150  1.00  0.00     0.030 C 
HETATM   56  C1  UNL     1      -2.429  -0.249   3.340  1.00  0.00     0.007 C 
ENDBRANCH   1  55
TORSDOF 13
