REMARK  10 active torsions:
REMARK  status: ('A' for Active; 'I' for Inactive)
REMARK       I    between atoms: N1_2  and  C2_4 
REMARK    1  A    between atoms: C2_4  and  C3_6 
REMARK    2  A    between atoms: C3_6  and  C4_7 
REMARK    3  A    between atoms: C4_7  and  C5_8 
REMARK    4  A    between atoms: C5_8  and  C6_9 
REMARK    5  A    between atoms: C9_12  and  C10_13 
REMARK    6  A    between atoms: C13_16  and  C14_17 
REMARK       I    between atoms: C14_17  and  N2_19 
REMARK    7  A    between atoms: N2_19  and  C15_21 
REMARK    8  A    between atoms: C18_24  and  C19_25 
REMARK       I    between atoms: C19_25  and  N3_27 
REMARK    9  A    between atoms: N3_27  and  C20_29 
REMARK       I    between atoms: N4_32  and  C23_34 
REMARK   10  A    between atoms: C23_34  and  C24_36 
ROOT
HETATM    1  C15 UNL     1      -1.827  -0.094   0.239  1.00  0.00     0.035 A 
HETATM    2  C16 UNL     1      -2.480   0.621  -0.738  1.00  0.00     0.030 A 
HETATM    3  C17 UNL     1      -3.876   0.772  -0.729  1.00  0.00     0.019 A 
HETATM    4  C18 UNL     1      -4.628   0.205   0.260  1.00  0.00     0.032 A 
HETATM    5  C27 UNL     1      -3.966  -0.514   1.241  1.00  0.00     0.019 A 
HETATM    6  C28 UNL     1      -2.576  -0.659   1.226  1.00  0.00     0.030 A 
ENDROOT
BRANCH   1   7
HETATM    7  N2  UNL     1      -0.449  -0.263   0.145  1.00  0.00    -0.323 N 
HETATM    8  C14 UNL     1       0.407  -0.462   1.231  1.00  0.00     0.256 C 
HETATM    9  O2  UNL     1      -0.086  -0.468   2.406  1.00  0.00    -0.267 OA
ATOM     10  H2  UNL     1      -0.033  -0.240  -0.786  1.00  0.00     0.169 HD
BRANCH   8  11
HETATM   11  C13 UNL     1       1.870  -0.672   1.088  1.00  0.00     0.032 A 
HETATM   12  C12 UNL     1       2.643  -0.820   2.236  1.00  0.00     0.018 A 
HETATM   13  C11 UNL     1       4.011  -1.036   2.159  1.00  0.00     0.015 A 
HETATM   14  C10 UNL     1       4.662  -1.112   0.946  1.00  0.00    -0.002 A 
HETATM   15  C30 UNL     1       3.889  -0.964  -0.185  1.00  0.00     0.015 A 
HETATM   16  C29 UNL     1       2.513  -0.747  -0.114  1.00  0.00     0.018 A 
BRANCH  14  17
HETATM   17  C9  UNL     1       6.101  -1.348   0.828  1.00  0.00     0.086 A 
HETATM   18  C8  UNL     1       6.989  -1.553   1.849  1.00  0.00     0.040 A 
HETATM   19  C7  UNL     1       8.234  -1.733   1.283  1.00  0.00     0.035 A 
HETATM   20  C6  UNL     1       8.064  -1.632  -0.064  1.00  0.00     0.053 A 
HETATM   21  O6  UNL     1       6.780  -1.403  -0.286  1.00  0.00    -0.314 OA
BRANCH  20  22
HETATM   22  C5  UNL     1       9.023  -1.730  -1.199  1.00  0.00     0.065 C 
BRANCH  22  23
HETATM   23  C4  UNL     1      10.427  -1.713  -0.734  1.00  0.00     0.016 C 
BRANCH  23  24
HETATM   24  C3  UNL     1      10.813  -0.438  -0.072  1.00  0.00     0.103 C 
BRANCH  24  25
HETATM   25  C2  UNL     1      10.717   0.740  -0.969  1.00  0.00     0.217 C 
HETATM   26  N1  UNL     1      10.993   2.044  -0.436  1.00  0.00    -0.365 N 
HETATM   27  C1  UNL     1      10.901   3.191  -1.305  1.00  0.00     0.149 C 
ATOM     28  H1  UNL     1      11.251   2.158   0.544  1.00  0.00     0.161 HD
HETATM   29  O1  UNL     1      10.402   0.612  -2.172  1.00  0.00    -0.274 OA
ENDBRANCH  24  25
ENDBRANCH  23  24
ENDBRANCH  22  23
ENDBRANCH  20  22
ENDBRANCH  14  17
ENDBRANCH   8  11
ENDBRANCH   1   7
BRANCH   4  30
HETATM   30  C19 UNL     1      -6.098   0.283   0.321  1.00  0.00     0.257 C 
HETATM   31  O3  UNL     1      -6.637   0.078   1.431  1.00  0.00    -0.267 OA
HETATM   32  N3  UNL     1      -6.809   0.576  -0.853  1.00  0.00    -0.309 N 
ATOM     33  H3  UNL     1      -6.243   0.757  -1.682  1.00  0.00     0.170 HD
BRANCH  32  34
HETATM   34  C20 UNL     1      -8.207   0.652  -1.033  1.00  0.00     0.109 A 
HETATM   35  C21 UNL     1      -9.080   0.433  -0.012  1.00  0.00     0.078 A 
HETATM   36  C22 UNL     1     -10.445   0.500  -0.263  1.00  0.00     0.040 A 
HETATM   37  N4  UNL     1     -11.234   0.283   0.732  1.00  0.00    -0.319 N 
HETATM   38  C25 UNL     1     -10.913   0.785  -1.527  1.00  0.00     0.046 A 
HETATM   39  C23 UNL     1     -12.643   0.314   0.650  1.00  0.00     0.311 C 
ATOM     40  H4  UNL     1     -10.813   0.075   1.638  1.00  0.00     0.169 HD
HETATM   41  O4  UNL     1     -13.276   1.328   0.252  1.00  0.00    -0.262 OA
HETATM   42  C26 UNL     1     -10.026   1.003  -2.531  1.00  0.00     0.092 A 
HETATM   43  N6  UNL     1      -8.713   0.934  -2.276  1.00  0.00    -0.352 N 
ATOM     44  H6  UNL     1      -8.059   1.099  -3.042  1.00  0.00     0.166 HD
BRANCH  39  45
HETATM   45  C24 UNL     1     -13.370  -0.878   1.047  1.00  0.00     0.322 C 
HETATM   46  N5  UNL     1     -14.780  -0.887   0.965  1.00  0.00    -0.053 NA
HETATM   47  O5  UNL     1     -12.764  -1.916   1.467  1.00  0.00    -0.266 OA
ENDBRANCH  39  45
ENDBRANCH  32  34
ENDBRANCH   4  30
TORSDOF 10
