REMARK  12 active torsions:
REMARK  status: ('A' for Active; 'I' for Inactive)
REMARK    1  A    between atoms: N2_7  and  C6_8 
REMARK    2  A    between atoms: C6_8  and  N3_10 
REMARK    3  A    between atoms: N3_10  and  C7_12 
REMARK    4  A    between atoms: C7_12  and  C8_13 
REMARK    5  A    between atoms: C8_13  and  C9_14 
REMARK    6  A    between atoms: C9_14  and  C10_15 
REMARK    7  A    between atoms: C10_15  and  C11_16 
REMARK    8  A    between atoms: C11_16  and  C12_17 
REMARK    9  A    between atoms: C12_17  and  C13_18 
REMARK   10  A    between atoms: C13_18  and  N4_19 
REMARK   11  A    between atoms: C20_26  and  C21_27 
REMARK   12  A    between atoms: C27_37  and  O1_38 
ROOT
HETATM    1  C1  UNL     1      -3.900  -4.521  -1.749  1.00  0.00     0.152 C 
HETATM    2  N1  UNL     1      -4.099  -3.384  -0.851  1.00  0.00    -0.355 N 
HETATM    3  C2  UNL     1      -3.619  -2.054  -1.216  1.00  0.00     0.137 C 
HETATM    4  C3  UNL     1      -3.677  -1.347   0.084  1.00  0.00     0.009 C 
HETATM    5  C4  UNL     1      -3.475   0.110   0.060  1.00  0.00     0.033 C 
HETATM    6  C5  UNL     1      -1.962   0.226  -0.197  1.00  0.00     0.126 C 
HETATM    7  N2  UNL     1      -1.437  -0.811   0.644  1.00  0.00    -0.357 N 
HETATM    8  C19 UNL     1      -2.440  -1.810   0.876  1.00  0.00     0.137 C 
HETATM    9  C20 UNL     1      -4.842  -1.903   0.788  1.00  0.00     0.132 C 
HETATM   10  C31 UNL     1      -4.733  -3.353   0.420  1.00  0.00     0.228 C 
HETATM   11  O2  UNL     1      -5.109  -4.353   1.068  1.00  0.00    -0.273 OA
ENDROOT
BRANCH   9  12
HETATM   12  C21 UNL     1      -6.197  -1.428   0.414  1.00  0.00     0.195 C 
HETATM   13  N5  UNL     1      -6.465  -1.704  -0.967  1.00  0.00    -0.376 N 
HETATM   14  C22 UNL     1      -7.593  -1.084  -1.527  1.00  0.00     0.098 C 
ATOM     15  H5  UNL     1      -5.866  -2.321  -1.516  1.00  0.00     0.161 HD
HETATM   16  C23 UNL     1      -7.948   0.257  -1.076  1.00  0.00     0.006 A 
HETATM   17  C24 UNL     1      -8.829   1.069  -1.801  1.00  0.00     0.017 A 
HETATM   18  C30 UNL     1      -7.397   0.722   0.099  1.00  0.00     0.054 A 
HETATM   19  C25 UNL     1      -9.143   2.324  -1.341  1.00  0.00     0.031 A 
HETATM   20  C26 UNL     1      -8.599   2.800  -0.169  1.00  0.00     0.046 A 
HETATM   21  N6  UNL     1      -8.716   3.957   0.516  1.00  0.00    -0.336 N 
HETATM   22  C29 UNL     1      -7.733   2.002   0.543  1.00  0.00     0.022 A 
HETATM   23  C27 UNL     1      -7.940   3.885   1.633  1.00  0.00     0.141 A 
ATOM     24  H6  UNL     1      -9.291   4.754   0.242  1.00  0.00     0.168 HD
HETATM   25  C28 UNL     1      -7.304   2.659   1.679  1.00  0.00     0.072 A 
HETATM   26  N7  UNL     1      -6.505  -0.101   0.821  1.00  0.00    -0.366 N 
ATOM     27  H7  UNL     1      -6.066   0.270   1.664  1.00  0.00     0.161 HD
BRANCH  23  28
HETATM   28  O1  UNL     1      -7.821   4.901   2.568  1.00  0.00    -0.346 OA
ATOM     29  H1  UNL     1      -7.280   4.851   3.347  1.00  0.00     0.219 HD
ENDBRANCH  23  28
ENDBRANCH   9  12
BRANCH   7  30
HETATM   30  C6  UNL     1      -0.113  -0.864   1.181  1.00  0.00     0.169 C 
HETATM   31  S1  UNL     1       0.337  -2.105   2.158  1.00  0.00    -0.041 SA
BRANCH  30  32
HETATM   32  N3  UNL     1       0.802   0.166   0.894  1.00  0.00    -0.367 N 
ATOM     33  H3  UNL     1       0.490   0.941   0.309  1.00  0.00     0.161 HD
BRANCH  32  34
HETATM   34  C7  UNL     1       2.157   0.183   1.384  1.00  0.00     0.122 C 
BRANCH  34  35
HETATM   35  C8  UNL     1       3.004  -0.849   0.721  1.00  0.00     0.020 C 
BRANCH  35  36
HETATM   36  C9  UNL     1       4.409  -0.887   1.221  1.00  0.00     0.002 C 
BRANCH  36  37
HETATM   37  C10 UNL     1       5.208   0.352   1.062  1.00  0.00     0.000 C 
BRANCH  37  38
HETATM   38  C11 UNL     1       5.392   0.816  -0.366  1.00  0.00     0.005 C 
BRANCH  38  39
HETATM   39  C12 UNL     1       6.229   2.045  -0.418  1.00  0.00     0.044 C 
BRANCH  39  40
HETATM   40  C13 UNL     1       7.607   2.014   0.081  1.00  0.00     0.058 C 
BRANCH  40  41
HETATM   41  N4  UNL     1       8.609   1.239  -0.446  1.00  0.00    -0.393 N 
HETATM   42  C14 UNL     1       8.675  -0.143  -0.315  1.00  0.00     0.122 C 
HETATM   43  C15 UNL     1       9.728  -0.768  -1.245  1.00  0.00     0.020 C 
HETATM   44  C16 UNL     1      11.073  -0.332  -0.714  1.00  0.00     0.003 C 
HETATM   45  C17 UNL     1      10.996   1.072  -0.238  1.00  0.00     0.020 C 
HETATM   46  C18 UNL     1       9.850   1.878  -0.829  1.00  0.00     0.122 C 
ENDBRANCH  40  41
ENDBRANCH  39  40
ENDBRANCH  38  39
ENDBRANCH  37  38
ENDBRANCH  36  37
ENDBRANCH  35  36
ENDBRANCH  34  35
ENDBRANCH  32  34
ENDBRANCH  30  32
ENDBRANCH   7  30
TORSDOF 12
