REMARK  6 active torsions:
REMARK  status: ('A' for Active; 'I' for Inactive)
REMARK    1  A    between atoms: C4_5  and  O1_6 
REMARK    2  A    between atoms: C4_5  and  C6_14 
REMARK    3  A    between atoms: O1_6  and  C5_7 
REMARK       I    between atoms: C5_7  and  N1_9 
REMARK    4  A    between atoms: N1_9  and  N2_11 
REMARK    5  A    between atoms: C7_17  and  O5_18 
REMARK    6  A    between atoms: C9_21  and  O6_22 
ROOT
HETATM    1  C1  UNL     1      -2.763   1.752  -0.809  1.00  0.00     0.054 C 
HETATM    2  C2  UNL     1      -1.663   0.689  -0.692  1.00  0.00     0.129 C 
HETATM    3  F1  UNL     1      -0.955   0.698  -1.858  1.00  0.00    -0.240 F 
HETATM    4  C3  UNL     1      -0.832   1.079   0.508  1.00  0.00     0.099 C 
HETATM    5  C4  UNL     1       0.417   0.207   0.606  1.00  0.00     0.188 C 
HETATM    6  C7  UNL     1       0.110  -1.215   0.258  1.00  0.00     0.167 C 
HETATM    7  C8  UNL     1      -1.356  -1.539   0.303  1.00  0.00     0.070 C 
HETATM    8  C9  UNL     1      -2.247  -0.666  -0.487  1.00  0.00     0.160 C 
ENDROOT
BRANCH   5   9
HETATM    9  O1  UNL     1       1.308   0.720  -0.361  1.00  0.00    -0.277 OA
BRANCH   9  10
HETATM   10  C5  UNL     1       2.565   0.258  -0.637  1.00  0.00     0.380 C 
HETATM   11  O2  UNL     1       2.999  -0.726   0.025  1.00  0.00    -0.237 OA
HETATM   12  N1  UNL     1       3.336   0.886  -1.643  1.00  0.00    -0.252 N 
ATOM     13  H1  UNL     1       2.952   1.679  -2.157  1.00  0.00     0.191 HD
BRANCH  12  14
HETATM   14  N2  UNL     1       4.615   0.425  -1.933  1.00  0.00    -0.341 N 
ATOM     15  H22 UNL     1       4.984  -0.369  -1.410  1.00  0.00     0.177 HD
ATOM     16  H21 UNL     1       5.171   0.878  -2.658  1.00  0.00     0.177 HD
ENDBRANCH  12  14
ENDBRANCH   9  10
ENDBRANCH   5   9
BRANCH   5  17
HETATM   17  C6  UNL     1       0.958   0.368   1.987  1.00  0.00     0.212 C 
HETATM   18  O3  UNL     1       2.073   0.899   2.228  1.00  0.00    -0.646 OA
HETATM   19  O4  UNL     1       0.212  -0.083   3.066  1.00  0.00    -0.646 OA
ENDBRANCH   5  17
BRANCH   6  20
HETATM   20  O5  UNL     1       0.733  -2.067   1.179  1.00  0.00    -0.392 OA
ATOM     21  H5  UNL     1       0.538  -2.970   0.958  1.00  0.00     0.210 HD
ENDBRANCH   6  20
BRANCH   8  22
HETATM   22  O6  UNL     1      -3.542  -0.603   0.063  1.00  0.00    -0.392 OA
ATOM     23  H6  UNL     1      -3.914  -1.467   0.194  1.00  0.00     0.210 HD
ENDBRANCH   8  22
TORSDOF 6
