REMARK  4 active torsions:
REMARK  status: ('A' for Active; 'I' for Inactive)
REMARK    1  A    between atoms: C3_5  and  N2_6 
REMARK    2  A    between atoms: N2_6  and  N3_8 
REMARK    3  A    between atoms: N3_8  and  C4_10 
REMARK    4  A    between atoms: N7_20  and  O2_21 
ROOT
HETATM    1  C1  UNL     1      -4.108  -1.458   0.217  1.00  0.00     0.182 C 
HETATM    2  N1  UNL     1      -3.034  -0.468   0.176  1.00  0.00    -0.254 N 
HETATM    3  C2  UNL     1      -1.752  -0.848   0.279  1.00  0.00     0.150 A 
HETATM    4 CL1  UNL     1      -1.411  -2.550   0.455  1.00  0.00    -0.060 Cl
HETATM    5  C3  UNL     1      -0.749   0.090   0.246  1.00  0.00     0.093 A 
HETATM    6  C6  UNL     1      -1.093   1.406   0.108  1.00  0.00     0.112 A 
HETATM    7  C7  UNL     1      -2.396   1.782   0.004  1.00  0.00     0.289 A 
HETATM    8  O1  UNL     1      -2.774   2.981  -0.127  1.00  0.00    -0.264 OA
HETATM    9  N7  UNL     1      -3.332   0.819   0.042  1.00  0.00    -0.119 N 
ENDROOT
BRANCH   5  10
HETATM   10  N2  UNL     1       0.614  -0.305   0.351  1.00  0.00    -0.295 N 
ATOM     11  H2  UNL     1       0.968  -0.554   1.275  1.00  0.00     0.187 HD
BRANCH  10  12
HETATM   12  N3  UNL     1       1.499  -0.375  -0.726  1.00  0.00    -0.270 N 
ATOM     13  H3  UNL     1       1.162  -0.516  -1.678  1.00  0.00     0.190 HD
BRANCH  12  14
HETATM   14  C4  UNL     1       2.888  -0.242  -0.447  1.00  0.00     0.207 A 
HETATM   15  N4  UNL     1       3.661  -1.201  -0.125  1.00  0.00    -0.345 N 
HETATM   16  C5  UNL     1       4.990  -0.749   0.087  1.00  0.00     0.259 A 
ATOM     17  H4  UNL     1       3.363  -2.172  -0.031  1.00  0.00     0.164 HD
HETATM   18  N5  UNL     1       4.933   0.677  -0.048  1.00  0.00    -0.119 NA
HETATM   19  N6  UNL     1       3.628   0.951  -0.477  1.00  0.00    -0.273 N 
ATOM     20  H6  UNL     1       3.275   1.864  -0.763  1.00  0.00     0.185 HD
ENDBRANCH  12  14
ENDBRANCH  10  12
ENDBRANCH   5  10
BRANCH   9  21
HETATM   21  O2  UNL     1      -4.656   1.201  -0.069  1.00  0.00    -0.265 OA
ATOM     22  H2  UNL     1      -4.869   2.122  -0.165  1.00  0.00     0.247 HD
ENDBRANCH   9  21
TORSDOF 4
