REMARK  3 active torsions:
REMARK  status: ('A' for Active; 'I' for Inactive)
REMARK    1  A    between atoms: N2_6  and  C4_7 
REMARK    2  A    between atoms: C4_7  and  N3_8 
REMARK    3  A    between atoms: C4_7  and  C5_12 
ROOT
HETATM    1  N1  UNL     1      -1.460   2.076  -2.636  1.00  0.00    -0.193 NA
HETATM    2  C1  UNL     1      -1.296   1.056  -2.108  1.00  0.00     0.112 C 
HETATM    3  C2  UNL     1      -1.066  -0.237  -1.436  1.00  0.00     0.277 C 
HETATM    4  F1  UNL     1      -1.674  -1.242  -2.205  1.00  0.00    -0.218 F 
HETATM    5  C3  UNL     1       0.392  -0.507  -1.417  1.00  0.00     0.194 C 
HETATM    6  N2  UNL     1       0.964  -0.778  -0.135  1.00  0.00    -0.316 N 
HETATM    7  C6  UNL     1       0.157  -1.320   0.889  1.00  0.00     0.191 C 
HETATM    8  N5  UNL     1       0.675  -2.136   1.935  1.00  0.00    -0.064 NA
HETATM    9  N6  UNL     1      -1.102  -1.064   0.879  1.00  0.00    -0.311 N 
ATOM     10  H6  UNL     1      -1.676  -1.460   1.624  1.00  0.00     0.166 HD
HETATM   11  C7  UNL     1      -1.755  -0.254  -0.115  1.00  0.00     0.328 C 
HETATM   12  N7  UNL     1      -3.130  -0.656  -0.183  1.00  0.00    -0.349 N 
ATOM     13  H7  UNL     1      -3.451  -1.470  -0.706  1.00  0.00     0.163 HD
HETATM   14  C8  UNL     1      -3.902   0.098   0.469  1.00  0.00     0.087 C 
HETATM   15  C9  UNL     1      -3.080   1.162   1.091  1.00  0.00     0.282 C 
HETATM   16  N8  UNL     1      -1.820   1.119   0.410  1.00  0.00    -0.021 N 
ATOM     17  H81 UNL     1      -1.697   1.846  -0.295  1.00  0.00     0.282 HD
ATOM     18  H82 UNL     1      -1.021   1.389   0.984  1.00  0.00     0.282 HD
ENDROOT
BRANCH   6  19
HETATM   19  C4  UNL     1       2.346  -0.510   0.130  1.00  0.00     0.376 C 
BRANCH  19  20
HETATM   20  N3  UNL     1       3.229  -1.215  -0.794  1.00  0.00    -0.050 N 
ATOM     21  H33 UNL     1       3.040  -2.217  -0.793  1.00  0.00     0.277 HD
ATOM     22  H32 UNL     1       2.991  -1.007  -1.764  1.00  0.00     0.277 HD
ATOM     23  H31 UNL     1       4.213  -1.024  -0.605  1.00  0.00     0.277 HD
ENDBRANCH  19  20
BRANCH  19  24
HETATM   24  C5  UNL     1       2.726   0.920   0.056  1.00  0.00     0.281 C 
HETATM   25  N4  UNL     1       1.838   1.987  -0.185  1.00  0.00    -0.059 NA
HETATM   26  O1  UNL     1       3.944   1.231   0.220  1.00  0.00    -0.273 OA
ENDBRANCH  19  24
ENDBRANCH   6  19
TORSDOF 3
