REMARK  2 active torsions:
REMARK  status: ('A' for Active; 'I' for Inactive)
REMARK    1  A    between atoms: C6_11  and  N4_12 
REMARK    2  A    between atoms: N4_12  and  C7_14 
ROOT
HETATM    1  C1  UNL     1      -2.143   3.829   0.220  1.00  0.00     0.012 C 
HETATM    2  C2  UNL     1      -2.037   2.653  -0.040  1.00  0.00    -0.107 C 
HETATM    3  C3  UNL     1      -1.927   1.233  -0.372  1.00  0.00     0.124 C 
HETATM    4  C4  UNL     1      -3.172   0.539   0.126  1.00  0.00     0.143 C 
HETATM    5  N1  UNL     1      -3.092  -0.901   0.062  1.00  0.00    -0.363 N 
ATOM      6  H1  UNL     1      -3.883  -1.461  -0.258  1.00  0.00     0.162 HD
HETATM    7  C5  UNL     1      -1.980  -1.456   0.425  1.00  0.00     0.185 C 
HETATM    8  N2  UNL     1      -1.876  -2.863   0.372  1.00  0.00    -0.064 NA
HETATM    9  N3  UNL     1      -0.924  -0.621   0.857  1.00  0.00    -0.342 N 
ATOM     10  H3  UNL     1      -0.324  -0.940   1.618  1.00  0.00     0.164 HD
HETATM   11  C6  UNL     1      -0.662   0.683   0.251  1.00  0.00     0.202 C 
ENDROOT
BRANCH  11  12
HETATM   12  N4  UNL     1       0.366   0.490  -0.765  1.00  0.00    -0.348 N 
ATOM     13  H4  UNL     1       0.135   0.715  -1.733  1.00  0.00     0.163 HD
BRANCH  12  14
HETATM   14  C7  UNL     1       1.650   0.014  -0.485  1.00  0.00     0.187 A 
HETATM   15  N5  UNL     1       2.004  -0.292   0.770  1.00  0.00    -0.277 N 
HETATM   16  N6  UNL     1       3.225  -0.741   1.023  1.00  0.00    -0.250 N 
ATOM     17  H5  UNL     1       1.334  -0.179   1.531  1.00  0.00     0.189 HD
HETATM   18  C8  UNL     1       4.130  -0.900   0.045  1.00  0.00     0.341 A 
ATOM     19  H6  UNL     1       3.483  -0.971   1.983  1.00  0.00     0.192 HD
HETATM   20  O1  UNL     1       5.284  -1.331   0.334  1.00  0.00    -0.245 OA
HETATM   21  N7  UNL     1       3.815  -0.604  -1.228  1.00  0.00    -0.271 N 
HETATM   22  C9  UNL     1       2.573  -0.147  -1.488  1.00  0.00     0.294 A 
ATOM     23  H7  UNL     1       4.497  -0.722  -1.977  1.00  0.00     0.174 HD
HETATM   24  O2  UNL     1       2.316   0.120  -2.703  1.00  0.00    -0.264 OA
ENDBRANCH  12  14
ENDBRANCH  11  12
TORSDOF 2
