REMARK  10 active torsions:
REMARK  status: ('A' for Active; 'I' for Inactive)
REMARK    1  A    between atoms: C3_3  and  C4_4 
REMARK    2  A    between atoms: C3_3  and  N1_32 
REMARK    3  A    between atoms: C4_4  and  C5_5 
REMARK    4  A    between atoms: C13_13  and  O1_14 
REMARK    5  A    between atoms: C22_25  and  C23_26 
REMARK    6  A    between atoms: C23_26  and  C24_27 
REMARK    7  A    between atoms: C25_28  and  C26_29 
REMARK    8  A    between atoms: N1_32  and  C29_34 
REMARK    9  A    between atoms: C29_34  and  C31_36 
REMARK   10  A    between atoms: C31_36  and  C32_37 
ROOT
HETATM    1  C1  UNL     1       4.536   1.950   1.862  1.00  0.00     0.014 C 
HETATM    2  C2  UNL     1       4.479   1.239   0.907  1.00  0.00    -0.088 C 
HETATM    3  C3  UNL     1       4.429   0.348  -0.260  1.00  0.00     0.180 C 
ENDROOT
BRANCH   3   4
HETATM    4  C4  UNL     1       3.518  -0.763  -0.174  1.00  0.00     0.022 C 
BRANCH   4   5
HETATM    5  C5  UNL     1       2.197  -0.659  -0.004  1.00  0.00    -0.036 A 
HETATM    6  C6  UNL     1       1.417  -1.805   0.067  1.00  0.00     0.012 A 
HETATM    7  C7  UNL     1       0.048  -1.781   0.226  1.00  0.00     0.013 A 
HETATM    8  C8  UNL     1      -0.611  -0.569   0.321  1.00  0.00    -0.021 A 
HETATM    9  C9  UNL     1      -1.988  -0.726   0.478  1.00  0.00     0.024 C 
HETATM   10  C19 UNL     1       0.147   0.581   0.251  1.00  0.00     0.026 A 
HETATM   11  C10 UNL     1      -2.960   0.226   0.191  1.00  0.00    -0.022 A 
HETATM   12  C11 UNL     1      -2.831   1.599  -0.000  1.00  0.00     0.005 A 
HETATM   13  C28 UNL     1      -4.135  -0.397   0.113  1.00  0.00     0.028 A 
HETATM   14  C12 UNL     1      -3.959   2.343  -0.280  1.00  0.00     0.060 A 
HETATM   15  C17 UNL     1      -1.628   2.312   0.068  1.00  0.00     0.027 A 
HETATM   16  C13 UNL     1      -3.928   3.719  -0.484  1.00  0.00     0.083 A 
HETATM   17  C21 UNL     1      -5.286   1.736  -0.381  1.00  0.00     0.196 A 
HETATM   18  C15 UNL     1      -2.727   4.386  -0.409  1.00  0.00     0.039 A 
HETATM   19  C16 UNL     1      -1.586   3.668  -0.132  1.00  0.00     0.019 A 
HETATM   20  O3  UNL     1      -6.327   2.371  -0.631  1.00  0.00    -0.286 OA
HETATM   21  C22 UNL     1      -5.368   0.285  -0.172  1.00  0.00     0.024 A 
HETATM   22  C18 UNL     1      -0.342   1.872   0.327  1.00  0.00     0.194 C 
HETATM   23  O2  UNL     1       0.528   2.710   0.676  1.00  0.00    -0.287 OA
HETATM   24  C20 UNL     1       1.527   0.535   0.091  1.00  0.00     0.027 A 
BRANCH  16  25
HETATM   25  O1  UNL     1      -5.069   4.443  -0.763  1.00  0.00    -0.355 OA
HETATM   26  C14 UNL     1      -4.973   5.835  -0.960  1.00  0.00     0.210 C 
ENDBRANCH  16  25
BRANCH  21  27
HETATM   27  C23 UNL     1      -6.520  -0.358  -0.242  1.00  0.00     0.080 C 
BRANCH  27  28
HETATM   28  C24 UNL     1      -6.531  -1.777  -0.026  1.00  0.00    -0.078 C 
HETATM   29  C25 UNL     1      -6.538  -2.965   0.177  1.00  0.00    -0.102 C 
BRANCH  29  30
HETATM   30  C26 UNL     1      -6.542  -4.413   0.450  1.00  0.00     0.090 C 
HETATM   31  C27 UNL     1      -7.894  -4.830   1.035  1.00  0.00     0.018 C 
ENDBRANCH  29  30
ENDBRANCH  27  28
ENDBRANCH  21  27
ENDBRANCH   4   5
ENDBRANCH   3   4
BRANCH   3  32
HETATM   32  N1  UNL     1       5.754   0.042  -0.633  1.00  0.00    -0.400 N 
ATOM     33  H1  UNL     1       6.085   0.244  -1.576  1.00  0.00     0.155 HD
BRANCH  32  34
HETATM   34  C29 UNL     1       6.616  -0.548   0.317  1.00  0.00     0.077 C 
HETATM   35  C30 UNL     1       6.240  -1.903   0.794  1.00  0.00     0.032 C 
BRANCH  34  36
HETATM   36  C31 UNL     1       8.056  -0.566  -0.222  1.00  0.00     0.050 C 
BRANCH  36  37
HETATM   37  C32 UNL     1       8.071  -1.357  -1.476  1.00  0.00    -0.035 C 
HETATM   38  C33 UNL     1       8.821  -2.435  -1.591  1.00  0.00     0.007 C 
ENDBRANCH  36  37
ENDBRANCH  34  36
ENDBRANCH  32  34
ENDBRANCH   3  32
TORSDOF 10
