REMARK  8 active torsions:
REMARK  status: ('A' for Active; 'I' for Inactive)
REMARK    1  A    between atoms: C2_2  and  N1_3 
REMARK    2  A    between atoms: N1_3  and  C3_4 
REMARK    3  A    between atoms: N1_3  and  C5_6 
REMARK    4  A    between atoms: C5_6  and  C7_8 
REMARK    5  A    between atoms: C7_8  and  N2_9 
REMARK       I    between atoms: N2_9  and  C8_11 
REMARK    6  A    between atoms: C8_11  and  C9_13 
REMARK    7  A    between atoms: N3_19  and  C15_20 
REMARK    8  A    between atoms: C15_20  and  C16_21 
ROOT
HETATM    1  C9  UNL     1      -0.836  -0.004   0.724  1.00  0.00     0.173 C 
HETATM    2  C10 UNL     1      -0.036   1.161   0.195  1.00  0.00     0.038 C 
HETATM    3  C11 UNL     1      -0.517   2.483   0.764  1.00  0.00     0.009 C 
HETATM    4  C12 UNL     1       0.667   3.385   0.561  1.00  0.00     0.002 C 
HETATM    5  C13 UNL     1       1.832   2.488   0.109  1.00  0.00     0.027 C 
HETATM    6  C14 UNL     1       1.390   1.171   0.681  1.00  0.00     0.108 C 
HETATM    7  N3  UNL     1       2.136   0.031   0.311  1.00  0.00    -0.272 N 
HETATM    8  S1  UNL     1       1.248  -1.431   0.345  1.00  0.00     0.305 S 
HETATM    9  O2  UNL     1       1.782  -2.502  -0.535  1.00  0.00    -0.188 OA
HETATM   10  O3  UNL     1       1.243  -1.932   1.762  1.00  0.00    -0.188 OA
HETATM   11  N4  UNL     1      -0.447  -1.161  -0.038  1.00  0.00    -0.183 NA
HETATM   12  C26 UNL     1      -1.179  -2.354   0.391  1.00  0.00     0.132 C 
ENDROOT
BRANCH   1  13
HETATM   13  C8  UNL     1      -2.306   0.313   0.605  1.00  0.00     0.240 C 
HETATM   14  N2  UNL     1      -3.112  -0.179  -0.402  1.00  0.00    -0.337 N 
ATOM     15  H2  UNL     1      -2.623  -0.771  -1.073  1.00  0.00     0.167 HD
HETATM   16  O1  UNL     1      -2.745   1.071   1.501  1.00  0.00    -0.271 OA
BRANCH  14  17
HETATM   17  C7  UNL     1      -4.482  -0.016  -0.676  1.00  0.00     0.099 C 
BRANCH  17  18
HETATM   18  C5  UNL     1      -5.534  -0.530   0.227  1.00  0.00     0.257 C 
HETATM   19  C6  UNL     1      -5.568  -0.054   1.638  1.00  0.00     0.049 C 
BRANCH  18  20
HETATM   20  N1  UNL     1      -6.868  -0.250  -0.319  1.00  0.00     0.096 N 
BRANCH  20  21
HETATM   21  C2  UNL     1      -7.200   1.126  -0.402  1.00  0.00     0.269 C 
HETATM   22  C1  UNL     1      -8.702   1.372  -0.386  1.00  0.00     0.037 C 
ENDBRANCH  20  21
BRANCH  20  23
HETATM   23  C3  UNL     1      -7.210  -1.022  -1.462  1.00  0.00     0.269 C 
HETATM   24  C4  UNL     1      -6.860  -2.470  -1.258  1.00  0.00     0.037 C 
ENDBRANCH  20  23
ENDBRANCH  18  20
ENDBRANCH  17  18
ENDBRANCH  14  17
ENDBRANCH   1  13
BRANCH   7  25
HETATM   25  C15 UNL     1       3.143   0.129  -0.653  1.00  0.00     0.087 C 
BRANCH  25  26
HETATM   26  C16 UNL     1       4.545  -0.182  -0.253  1.00  0.00    -0.006 C 
HETATM   27  C17 UNL     1       5.007   0.759   0.852  1.00  0.00     0.019 C 
HETATM   28  C18 UNL     1       6.473   0.553   1.156  1.00  0.00    -0.013 C 
HETATM   29  C19 UNL     1       7.348   0.793  -0.045  1.00  0.00     0.009 C 
HETATM   30  C23 UNL     1       6.669  -0.848   1.637  1.00  0.00     0.009 C 
HETATM   31  C20 UNL     1       6.895  -0.144  -1.135  1.00  0.00    -0.013 C 
HETATM   32  C21 UNL     1       7.096  -1.568  -0.679  1.00  0.00     0.009 C 
HETATM   33  C25 UNL     1       5.459   0.106  -1.455  1.00  0.00     0.019 C 
HETATM   34  C22 UNL     1       6.239  -1.784   0.535  1.00  0.00    -0.013 C 
HETATM   35  C24 UNL     1       4.795  -1.612   0.137  1.00  0.00     0.019 C 
ENDBRANCH  25  26
ENDBRANCH   7  25
TORSDOF 8
