REMARK  17 active torsions:
REMARK  status: ('A' for Active; 'I' for Inactive)
REMARK    1  A    between atoms: O1_2  and  C2_3 
REMARK       I    between atoms: C2_3  and  N1_5 
REMARK    2  A    between atoms: N1_5  and  C3_7 
REMARK    3  A    between atoms: C4_8  and  O3_9 
REMARK    4  A    between atoms: C5_11  and  N2_12 
REMARK    5  A    between atoms: C8_15  and  C9_16 
REMARK    6  A    between atoms: C11_21  and  C12_22 
REMARK    7  A    between atoms: C12_22  and  O7_23 
REMARK    8  A    between atoms: C12_22  and  O8_25 
REMARK    9  A    between atoms: C13_27  and  C14_28 
REMARK   10  A    between atoms: C14_28  and  O9_29 
REMARK   11  A    between atoms: C14_28  and  O10_31 
REMARK   12  A    between atoms: N3_36  and  N4_37 
REMARK   13  A    between atoms: C16_40  and  N5_41 
REMARK   14  A    between atoms: N5_41  and  C17_43 
REMARK   15  A    between atoms: C17_43  and  O13_44 
REMARK   16  A    between atoms: C17_43  and  C18_46 
REMARK   17  A    between atoms: C18_46  and  O14_47 
ROOT
HETATM    1  C3  UNL     1       2.329   0.089   0.474  1.00  0.00     0.119 A 
HETATM    2  C4  UNL     1       1.002   0.414   0.471  1.00  0.00     0.131 A 
HETATM    3  C5  UNL     1       0.146  -0.300  -0.345  1.00  0.00     0.162 A 
HETATM    4  C15 UNL     1       0.673  -1.295  -1.107  1.00  0.00     0.299 A 
HETATM    5  O12 UNL     1      -0.112  -1.934  -1.841  1.00  0.00    -0.263 OA
HETATM    6  N3  UNL     1       1.998  -1.638  -1.120  1.00  0.00    -0.206 N 
HETATM    7  C16 UNL     1       2.828  -0.945  -0.328  1.00  0.00     0.158 A 
ENDROOT
BRANCH   3   8
HETATM    8  N2  UNL     1      -1.241   0.027  -0.359  1.00  0.00    -0.249 N 
HETATM    9  C6  UNL     1      -2.189  -0.616   0.561  1.00  0.00     0.171 C 
HETATM   10  C7  UNL     1      -3.468   0.185   0.181  1.00  0.00     0.046 C 
HETATM   11  C8  UNL     1      -4.671  -0.588   0.630  1.00  0.00     0.170 C 
HETATM   12  C11 UNL     1      -3.735   1.135   1.214  1.00  0.00     0.125 C 
HETATM   13  C13 UNL     1      -3.165   0.336  -1.213  1.00  0.00     0.219 C 
HETATM   14  C10 UNL     1      -4.447   0.026   1.971  1.00  0.00     0.152 C 
HETATM   15  O6  UNL     1      -4.722  -0.264   3.105  1.00  0.00    -0.296 OA
HETATM   16  O11 UNL     1      -1.877   0.921  -1.165  1.00  0.00    -0.266 OA
BRANCH  11  17
HETATM   17  C9  UNL     1      -4.554  -2.064   0.605  1.00  0.00     0.185 C 
HETATM   18  O4  UNL     1      -4.657  -2.720   1.691  1.00  0.00    -0.647 OA
HETATM   19  O5  UNL     1      -4.334  -2.805  -0.542  1.00  0.00    -0.647 OA
ENDBRANCH  11  17
BRANCH  12  20
HETATM   20  C12 UNL     1      -4.618   2.306   1.166  1.00  0.00     0.266 C 
BRANCH  20  21
HETATM   21  O7  UNL     1      -4.302   3.277   0.217  1.00  0.00    -0.371 OA
ATOM     22  H7  UNL     1      -4.874   4.035   0.186  1.00  0.00     0.212 HD
ENDBRANCH  20  21
BRANCH  20  23
HETATM   23  O8  UNL     1      -5.983   1.994   1.142  1.00  0.00    -0.371 OA
ATOM     24  H8  UNL     1      -6.555   2.752   1.111  1.00  0.00     0.212 HD
ENDBRANCH  20  23
ENDBRANCH  12  20
BRANCH  13  25
HETATM   25  C14 UNL     1      -4.071   0.847  -2.223  1.00  0.00     0.286 C 
BRANCH  25  26
HETATM   26  O9  UNL     1      -3.451   0.609  -3.485  1.00  0.00    -0.369 OA
ATOM     27  H9  UNL     1      -4.045   0.944  -4.147  1.00  0.00     0.212 HD
ENDBRANCH  25  26
BRANCH  25  28
HETATM   28  O10 UNL     1      -5.203  -0.001  -2.254  1.00  0.00    -0.369 OA
ATOM     29  H10 UNL     1      -5.797   0.334  -2.916  1.00  0.00     0.212 HD
ENDBRANCH  25  28
ENDBRANCH  13  25
ENDBRANCH   3   8
BRANCH   2  30
HETATM   30  O3  UNL     1       0.540   1.459   1.290  1.00  0.00    -0.356 OA
ATOM     31  H3  UNL     1      -0.383   1.685   1.288  1.00  0.00     0.218 HD
ENDBRANCH   2  30
BRANCH   1  32
HETATM   32  N1  UNL     1       3.206   0.827   1.316  1.00  0.00    -0.297 N 
HETATM   33  C2  UNL     1       3.870   2.002   0.886  1.00  0.00     0.364 C 
HETATM   34  O2  UNL     1       3.687   2.418  -0.281  1.00  0.00    -0.238 OA
ATOM     35  H1  UNL     1       3.363   0.497   2.268  1.00  0.00     0.171 HD
BRANCH  33  36
HETATM   36  O1  UNL     1       4.712   2.692   1.729  1.00  0.00    -0.309 OA
HETATM   37  C1  UNL     1       5.384   3.871   1.306  1.00  0.00     0.215 C 
ENDBRANCH  33  36
ENDBRANCH   1  32
BRANCH   6  38
HETATM   38  N4  UNL     1       2.370  -2.661  -1.969  1.00  0.00    -0.334 N 
ATOM     39  H42 UNL     1       1.738  -3.188  -2.572  1.00  0.00     0.177 HD
ATOM     40  H41 UNL     1       3.357  -2.917  -1.979  1.00  0.00     0.177 HD
ENDBRANCH   6  38
BRANCH   7  41
HETATM   41  N5  UNL     1       4.203  -1.198  -0.277  1.00  0.00    -0.345 N 
ATOM     42  H5  UNL     1       4.740  -0.554   0.303  1.00  0.00     0.163 HD
BRANCH  41  43
HETATM   43  C17 UNL     1       4.966  -2.219  -0.913  1.00  0.00     0.242 C 
BRANCH  43  44
HETATM   44  O13 UNL     1       4.699  -3.508  -0.389  1.00  0.00    -0.375 OA
ATOM     45  H13 UNL     1       5.208  -4.189  -0.813  1.00  0.00     0.212 HD
ENDBRANCH  43  44
BRANCH  43  46
HETATM   46  C18 UNL     1       6.477  -2.036  -0.625  1.00  0.00     0.217 C 
BRANCH  46  47
HETATM   47  O14 UNL     1       6.723  -2.094   0.731  1.00  0.00    -0.397 OA
ATOM     48  H14 UNL     1       7.650  -1.982   0.908  1.00  0.00     0.209 HD
ENDBRANCH  46  47
ENDBRANCH  43  46
ENDBRANCH  41  43
ENDBRANCH   7  41
TORSDOF 17
