REMARK  15 active torsions:
REMARK  status: ('A' for Active; 'I' for Inactive)
REMARK    1  A    between atoms: N1_1  and  C1_4 
REMARK    2  A    between atoms: C5_12  and  O1_13 
REMARK    3  A    between atoms: N4_15  and  C6_16 
REMARK    4  A    between atoms: C8_19  and  C9_20 
REMARK    5  A    between atoms: C9_20  and  O3_21 
REMARK    6  A    between atoms: C9_20  and  C10_23 
REMARK    7  A    between atoms: C10_23  and  O4_24 
REMARK    8  A    between atoms: C10_23  and  C11_26 
REMARK    9  A    between atoms: C11_26  and  O5_27 
REMARK   10  A    between atoms: C11_26  and  C12_29 
REMARK   11  A    between atoms: C12_29  and  N5_30 
REMARK   12  A    between atoms: C14_32  and  C15_33 
REMARK   13  A    between atoms: C15_33  and  O6_34 
REMARK   14  A    between atoms: N8_40  and  N9_42 
REMARK   15  A    between atoms: N10_47  and  N11_48 
ROOT
HETATM    1  C6  UNL     1      -3.398  -1.088   1.605  1.00  0.00     0.243 C 
HETATM    2  C7  UNL     1      -2.381  -0.312   2.414  1.00  0.00     0.218 C 
HETATM    3  O2  UNL     1      -1.343   0.171   1.673  1.00  0.00    -0.373 OA
HETATM    4  C8  UNL     1      -0.107  -0.480   1.908  1.00  0.00     0.209 C 
HETATM    5  C16 UNL     1      -0.339  -1.934   1.771  1.00  0.00     0.126 C 
HETATM    6  N8  UNL     1       0.511  -2.757   2.342  1.00  0.00    -0.304 N 
ATOM      7  H8  UNL     1       1.301  -2.371   2.860  1.00  0.00     0.186 HD
HETATM    8  C17 UNL     1      -1.411  -2.632   1.076  1.00  0.00     0.290 C 
HETATM    9  O7  UNL     1      -1.120  -3.776   0.607  1.00  0.00    -0.264 OA
HETATM   10  N10 UNL     1      -2.740  -2.173   0.867  1.00  0.00    -0.236 N 
ENDROOT
BRANCH   4  11
HETATM   11  C9  UNL     1       0.809   0.097   0.846  1.00  0.00     0.184 C 
BRANCH  11  12
HETATM   12  O3  UNL     1       0.834   1.469   1.080  1.00  0.00    -0.390 OA
ATOM     13  H3  UNL     1       1.408   1.830   0.415  1.00  0.00     0.210 HD
ENDBRANCH  11  12
BRANCH  11  14
HETATM   14  C10 UNL     1       2.178  -0.464   0.827  1.00  0.00     0.180 C 
BRANCH  14  15
HETATM   15  O4  UNL     1       2.882  -0.249   2.015  1.00  0.00    -0.390 OA
ATOM     16  H4  UNL     1       3.761  -0.609   2.003  1.00  0.00     0.210 HD
ENDBRANCH  14  15
BRANCH  14  17
HETATM   17  C11 UNL     1       3.017   0.028  -0.314  1.00  0.00     0.169 C 
BRANCH  17  18
HETATM   18  O5  UNL     1       2.376  -0.111  -1.545  1.00  0.00    -0.391 OA
ATOM     19  H5  UNL     1       2.908   0.201  -2.268  1.00  0.00     0.210 HD
ENDBRANCH  17  18
BRANCH  17  20
HETATM   20  C12 UNL     1       3.512   1.436  -0.188  1.00  0.00     0.180 C 
BRANCH  20  21
HETATM   21  N5  UNL     1       4.329   1.730  -1.391  1.00  0.00    -0.282 N 
HETATM   22  C13 UNL     1       5.648   1.493  -1.419  1.00  0.00     0.136 A 
HETATM   23  C14 UNL     1       6.064   1.886  -2.688  1.00  0.00     0.064 A 
HETATM   24  N6  UNL     1       4.981   2.330  -3.336  1.00  0.00    -0.285 N 
HETATM   25  N7  UNL     1       3.919   2.234  -2.541  1.00  0.00    -0.020 NA
ATOM     26  H6  UNL     1       4.971   2.687  -4.292  1.00  0.00     0.184 HD
BRANCH  23  27
HETATM   27  C15 UNL     1       7.472   1.793  -3.150  1.00  0.00     0.223 C 
BRANCH  27  28
HETATM   28  O6  UNL     1       7.629   0.540  -3.734  1.00  0.00    -0.395 OA
ATOM     29  H6  UNL     1       8.530   0.480  -4.030  1.00  0.00     0.209 HD
ENDBRANCH  27  28
ENDBRANCH  23  27
ENDBRANCH  20  21
ENDBRANCH  17  20
ENDBRANCH  14  17
ENDBRANCH  11  14
ENDBRANCH   4  11
BRANCH   6  30
HETATM   30  N9  UNL     1       0.367  -4.141   2.262  1.00  0.00    -0.345 N 
ATOM     31  H92 UNL     1      -0.428  -4.510   1.740  1.00  0.00     0.176 HD
ATOM     32  H91 UNL     1       1.027  -4.780   2.705  1.00  0.00     0.176 HD
ENDBRANCH   6  30
BRANCH   1  33
HETATM   33  N4  UNL     1      -4.162  -0.240   0.716  1.00  0.00    -0.285 N 
HETATM   34  C2  UNL     1      -3.811   0.231  -0.529  1.00  0.00     0.133 A 
HETATM   35  N2  UNL     1      -2.774   0.129  -1.339  1.00  0.00    -0.322 N 
HETATM   36  C3  UNL     1      -4.871   0.981  -0.942  1.00  0.00     0.081 A 
HETATM   37  C1  UNL     1      -2.825   0.763  -2.508  1.00  0.00     0.144 A 
ATOM     38  H2  UNL     1      -1.956  -0.421  -1.076  1.00  0.00     0.169 HD
HETATM   39  S1  UNL     1      -4.351   1.519  -2.480  1.00  0.00    -0.049 SA
HETATM   40  C4  UNL     1      -5.886   0.987   0.031  1.00  0.00     0.118 A 
HETATM   41  N3  UNL     1      -7.096   1.667  -0.101  1.00  0.00    -0.096 NA
HETATM   42  C5  UNL     1      -5.401   0.221   1.033  1.00  0.00     0.172 A 
BRANCH  37  43
HETATM   43  N1  UNL     1      -1.898   0.784  -3.447  1.00  0.00    -0.380 N 
ATOM     44  H12 UNL     1      -0.984   0.331  -3.464  1.00  0.00     0.158 HD
ATOM     45  H11 UNL     1      -1.937   1.270  -4.343  1.00  0.00     0.158 HD
ENDBRANCH  37  43
BRANCH  42  46
HETATM   46  O1  UNL     1      -6.072  -0.064   2.233  1.00  0.00    -0.344 OA
ATOM     47  H1  UNL     1      -5.731  -0.603   2.937  1.00  0.00     0.219 HD
ENDBRANCH  42  46
ENDBRANCH   1  33
BRANCH  10  48
HETATM   48  N11 UNL     1      -3.479  -2.814  -0.123  1.00  0.00    -0.338 N 
ATOM     49 2H11 UNL     1      -4.433  -2.485  -0.273  1.00  0.00     0.177 HD
ATOM     50 1H11 UNL     1      -3.022  -3.568  -0.636  1.00  0.00     0.177 HD
ENDBRANCH  10  48
TORSDOF 15
