REMARK  18 active torsions:
REMARK  status: ('A' for Active; 'I' for Inactive)
REMARK    1  A    between atoms: C2_3  and  C3_4 
REMARK    2  A    between atoms: C3_4  and  O1_5 
REMARK    3  A    between atoms: C3_4  and  O2_7 
REMARK    4  A    between atoms: C7_12  and  N2_13 
REMARK    5  A    between atoms: N2_13  and  N3_15 
REMARK    6  A    between atoms: N3_15  and  C8_17 
REMARK    7  A    between atoms: C8_17  and  C9_18 
REMARK    8  A    between atoms: C9_18  and  O3_19 
REMARK    9  A    between atoms: C9_18  and  C10_21 
REMARK   10  A    between atoms: C11_23  and  C12_24 
REMARK   11  A    between atoms: C12_24  and  O5_25 
REMARK   12  A    between atoms: C12_24  and  O6_27 
REMARK   13  A    between atoms: C15_32  and  C16_33 
REMARK   14  A    between atoms: N4_34  and  O8_36 
REMARK   15  A    between atoms: C17_38  and  O9_39 
REMARK   16  A    between atoms: C18_41  and  O10_43 
REMARK   17  A    between atoms: C20_45  and  C21_46 
REMARK   18  A    between atoms: C21_46  and  O11_47 
ROOT
HETATM    1  N2  UNL     1      -0.476  -0.633  -1.186  1.00  0.00    -0.289 N 
ATOM      2  H2  UNL     1      -0.025  -1.547  -1.142  1.00  0.00     0.188 HD
ENDROOT
BRANCH   1   3
HETATM    3  C7  UNL     1      -1.572  -0.743  -0.650  1.00  0.00     0.133 A 
HETATM    4  N1  UNL     1      -1.891  -1.990  -0.160  1.00  0.00    -0.335 N 
HETATM    5  C1  UNL     1      -0.930  -3.046  -0.308  1.00  0.00     0.158 C 
HETATM    6  C2  UNL     1      -3.058  -2.256   0.447  1.00  0.00     0.070 A 
HETATM    7  C4  UNL     1      -3.991  -1.258   0.597  1.00  0.00     0.068 A 
HETATM    8  C5  UNL     1      -3.741   0.012   0.132  1.00  0.00     0.084 A 
HETATM    9  C6  UNL     1      -2.513   0.255  -0.495  1.00  0.00     0.052 A 
HETATM   10  O12 UNL     1      -4.686   1.014   0.286  1.00  0.00    -0.340 OA
HETATM   11  C17 UNL     1      -2.189   1.605  -1.014  1.00  0.00     0.194 C 
HETATM   12  C18 UNL     1      -3.101   2.691  -0.433  1.00  0.00     0.113 C 
HETATM   13  C19 UNL     1      -2.568   3.048   0.916  1.00  0.00     0.052 C 
HETATM   14  C20 UNL     1      -4.536   2.210  -0.408  1.00  0.00     0.189 C 
BRANCH   6  15
HETATM   15  C3  UNL     1      -3.396  -3.603   0.969  1.00  0.00     0.305 C 
BRANCH  15  16
HETATM   16  O1  UNL     1      -2.335  -4.183   1.656  1.00  0.00    -0.366 OA
ATOM     17  H1  UNL     1      -2.551  -5.046   1.990  1.00  0.00     0.213 HD
ENDBRANCH  15  16
BRANCH  15  18
HETATM   18  O2  UNL     1      -4.419  -3.451   1.901  1.00  0.00    -0.366 OA
ATOM     19  H2  UNL     1      -4.635  -4.314   2.235  1.00  0.00     0.213 HD
ENDBRANCH  15  18
ENDBRANCH   6  15
BRANCH  11  20
HETATM   20  O9  UNL     1      -2.453   1.582  -2.404  1.00  0.00    -0.388 OA
ATOM     21  H9  UNL     1      -2.245   2.447  -2.737  1.00  0.00     0.210 HD
ENDBRANCH  11  20
BRANCH  12  22
HETATM   22  O10 UNL     1      -3.045   3.786  -1.289  1.00  0.00    -0.385 OA
ATOM     23  H10 UNL     1      -3.610   4.459  -0.929  1.00  0.00     0.210 HD
ENDBRANCH  12  22
BRANCH  14  24
HETATM   24  C21 UNL     1      -5.416   3.291   0.122  1.00  0.00     0.199 C 
BRANCH  24  25
HETATM   25  O11 UNL     1      -5.124   3.550   1.466  1.00  0.00    -0.398 OA
ATOM     26  H11 UNL     1      -5.685   4.239   1.804  1.00  0.00     0.209 HD
ENDBRANCH  24  25
ENDBRANCH  14  24
ENDBRANCH   1   3
BRANCH   1  27
HETATM   27  N3  UNL     1       0.362   0.187  -1.799  1.00  0.00    -0.332 N 
ATOM     28  H3  UNL     1       0.127   0.579  -2.711  1.00  0.00     0.180 HD
BRANCH  27  29
HETATM   29  C8  UNL     1       1.638   0.526  -1.149  1.00  0.00     0.177 C 
BRANCH  29  30
HETATM   30  C9  UNL     1       2.404  -0.787  -0.956  1.00  0.00     0.195 C 
BRANCH  30  31
HETATM   31  O3  UNL     1       2.577  -1.304  -2.242  1.00  0.00    -0.387 OA
ATOM     32  H3  UNL     1       3.052  -2.118  -2.122  1.00  0.00     0.210 HD
ENDBRANCH  30  31
BRANCH  30  33
HETATM   33  C10 UNL     1       3.734  -0.517  -0.355  1.00  0.00     0.099 A 
HETATM   34  O4  UNL     1       4.097   0.714  -0.210  1.00  0.00    -0.310 OA
HETATM   35  C11 UNL     1       5.240   1.074   0.302  1.00  0.00     0.111 A 
HETATM   36  C13 UNL     1       6.125   0.129   0.719  1.00  0.00     0.093 A 
HETATM   37  C14 UNL     1       5.802  -1.221   0.594  1.00  0.00     0.188 A 
HETATM   38  O7  UNL     1       6.615  -2.076   0.976  1.00  0.00    -0.287 OA
HETATM   39  C15 UNL     1       4.585  -1.550   0.047  1.00  0.00     0.064 A 
BRANCH  35  40
HETATM   40  C12 UNL     1       5.535   2.543   0.413  1.00  0.00     0.312 C 
BRANCH  40  41
HETATM   41  O5  UNL     1       4.428   3.190   0.908  1.00  0.00    -0.365 OA
ATOM     42  H5  UNL     1       4.615   4.119   0.978  1.00  0.00     0.213 HD
ENDBRANCH  40  41
BRANCH  40  43
HETATM   43  O6  UNL     1       5.869   2.956  -0.884  1.00  0.00    -0.365 OA
ATOM     44  H6  UNL     1       6.056   3.885  -0.814  1.00  0.00     0.213 HD
ENDBRANCH  40  43
ENDBRANCH  35  40
BRANCH  39  45
HETATM   45  C16 UNL     1       4.128  -2.928  -0.128  1.00  0.00     0.132 C 
HETATM   46  N4  UNL     1       4.688  -3.986   0.143  1.00  0.00    -0.279 N 
ATOM     47  H4  UNL     1       4.038  -4.723  -0.131  1.00  0.00     0.193 HD
BRANCH  46  48
HETATM   48  O8  UNL     1       5.720  -4.587   0.615  1.00  0.00    -0.290 OA
ATOM     49  H8  UNL     1       6.153  -5.406   0.825  1.00  0.00     0.244 HD
ENDBRANCH  46  48
ENDBRANCH  39  45
ENDBRANCH  30  33
ENDBRANCH  29  30
ENDBRANCH  27  29
ENDBRANCH   1  27
TORSDOF 18
