REMARK  4 active torsions:
REMARK  status: ('A' for Active; 'I' for Inactive)
REMARK    1  A    between atoms: N3_10  and  N4_12 
REMARK    2  A    between atoms: C5_14  and  C6_15 
REMARK    3  A    between atoms: C5_14  and  C7_24 
REMARK    4  A    between atoms: C10_28  and  O2_29 
ROOT
HETATM    1  N4  UNL     1      -0.176   0.440   0.636  1.00  0.00    -0.294 N 
ATOM      2  H4  UNL     1      -0.084   1.451   0.541  1.00  0.00     0.187 HD
HETATM    3  C5  UNL     1      -1.318   0.175   0.192  1.00  0.00     0.108 C 
ENDROOT
BRANCH   3   4
HETATM    4  C6  UNL     1      -2.068   1.361  -0.278  1.00  0.00     0.166 A 
HETATM    5  N5  UNL     1      -3.247   1.531  -0.794  1.00  0.00    -0.267 N 
HETATM    6  N6  UNL     1      -3.492   2.771  -1.057  1.00  0.00    -0.227 N 
ATOM      7  H5  UNL     1      -3.905   0.772  -0.971  1.00  0.00     0.190 HD
HETATM    8  N7  UNL     1      -2.434   3.464  -0.704  1.00  0.00    -0.227 N 
ATOM      9  H6  UNL     1      -4.350   3.144  -1.464  1.00  0.00     0.210 HD
HETATM   10  N8  UNL     1      -1.541   2.628  -0.221  1.00  0.00    -0.267 N 
ATOM     11  H7  UNL     1      -2.324   4.474  -0.789  1.00  0.00     0.210 HD
ATOM     12  H8  UNL     1      -0.618   2.877   0.134  1.00  0.00     0.190 HD
ENDBRANCH   3   4
BRANCH   3  13
HETATM   13  C7  UNL     1      -1.867  -1.212   0.148  1.00  0.00     0.036 A 
HETATM   14  C8  UNL     1      -1.028  -2.218   0.655  1.00  0.00     0.066 A 
HETATM   15  S1  UNL     1      -1.929  -3.644   0.472  1.00  0.00    -0.110 SA
HETATM   16  C9  UNL     1      -3.322  -3.004  -0.223  1.00  0.00     0.087 A 
HETATM   17  C10 UNL     1      -3.055  -1.651  -0.302  1.00  0.00     0.085 A 
BRANCH  17  18
HETATM   18  O2  UNL     1      -4.080  -0.837  -0.863  1.00  0.00    -0.359 OA
ATOM     19  H2  UNL     1      -4.920  -1.147  -1.181  1.00  0.00     0.217 HD
ENDBRANCH  17  18
ENDBRANCH   3  13
BRANCH   1  20
HETATM   20  N3  UNL     1       0.941   0.050   1.156  1.00  0.00    -0.280 N 
HETATM   21  C4  UNL     1       2.147   0.124   0.703  1.00  0.00     0.189 A 
HETATM   22  C1  UNL     1       2.450   0.685  -0.520  1.00  0.00     0.290 A 
HETATM   23  N2  UNL     1       3.200  -0.352   1.413  1.00  0.00    -0.345 N 
HETATM   24  O1  UNL     1       1.517   1.144  -1.228  1.00  0.00    -0.264 OA
HETATM   25  N1  UNL     1       3.719   0.758  -0.989  1.00  0.00    -0.329 N 
HETATM   26  C2  UNL     1       4.733   0.277  -0.257  1.00  0.00     0.108 A 
ATOM     27  H1  UNL     1       3.903   1.179  -1.900  1.00  0.00     0.168 HD
HETATM   28  C3  UNL     1       4.462  -0.290   0.971  1.00  0.00     0.107 A 
ATOM     29  H2  UNL     1       3.023  -0.776   2.324  1.00  0.00     0.167 HD
ATOM     30  H3  UNL     1       0.855  -0.387   2.074  1.00  0.00     0.188 HD
ENDBRANCH   1  20
TORSDOF 4
