REMARK  7 active torsions:
REMARK  status: ('A' for Active; 'I' for Inactive)
REMARK    1  A    between atoms: N1_2  and  N2_3 
REMARK    2  A    between atoms: N1_2  and  N3_6 
REMARK    3  A    between atoms: N4_8  and  C2_10 
REMARK    4  A    between atoms: C3_11  and  O1_12 
REMARK    5  A    between atoms: C5_18  and  C6_19 
REMARK    6  A    between atoms: C6_19  and  O3_21 
REMARK    7  A    between atoms: O3_21  and  C7_22 
ROOT
HETATM    1  C2  UNL     1      -1.690   0.452  -0.570  1.00  0.00     0.151 A 
HETATM    2  C3  UNL     1      -1.450   1.579  -1.326  1.00  0.00     0.174 A 
HETATM    3  N5  UNL     1      -0.155   1.911  -1.466  1.00  0.00    -0.329 N 
ATOM      4  H5  UNL     1       0.085   2.737  -2.015  1.00  0.00     0.168 HD
HETATM    5  C4  UNL     1       0.856   1.176  -0.895  1.00  0.00     0.091 A 
HETATM    6  S1  UNL     1       2.556   1.324  -0.883  1.00  0.00    -0.065 SA
HETATM    7  C5  UNL     1       2.947  -0.030   0.072  1.00  0.00     0.083 A 
HETATM    8  C8  UNL     1       1.728  -0.570   0.360  1.00  0.00     0.043 A 
HETATM    9  C9  UNL     1       0.640   0.057  -0.143  1.00  0.00     0.052 A 
HETATM   10  C10 UNL     1      -0.716  -0.312   0.019  1.00  0.00     0.217 A 
HETATM   11  O5  UNL     1      -1.056  -1.322   0.689  1.00  0.00    -0.285 OA
ENDROOT
BRANCH   1  12
HETATM   12  N4  UNL     1      -3.046   0.061  -0.393  1.00  0.00    -0.277 N 
HETATM   13  N3  UNL     1      -3.572  -0.126   0.737  1.00  0.00    -0.226 N 
ATOM     14  H3  UNL     1      -3.047  -0.006   1.603  1.00  0.00     0.210 HD
ATOM     15  H4  UNL     1      -3.622  -0.075  -1.223  1.00  0.00     0.189 HD
BRANCH  13  16
HETATM   16  N1  UNL     1      -4.931  -0.512   0.735  1.00  0.00    -0.231 N 
HETATM   17  C1  UNL     1      -5.302  -1.757   1.331  1.00  0.00     0.201 C 
BRANCH  16  18
HETATM   18  N2  UNL     1      -5.821   0.381   0.134  1.00  0.00    -0.328 N 
ATOM     19  H22 UNL     1      -6.802   0.102   0.133  1.00  0.00     0.178 HD
ATOM     20  H21 UNL     1      -5.556   1.269  -0.291  1.00  0.00     0.178 HD
ENDBRANCH  16  18
ENDBRANCH  13  16
ENDBRANCH   1  12
BRANCH   2  21
HETATM   21  O1  UNL     1      -2.446   2.342  -1.915  1.00  0.00    -0.344 OA
ATOM     22  H1  UNL     1      -2.281   3.119  -2.436  1.00  0.00     0.219 HD
ENDBRANCH   2  21
BRANCH   7  23
HETATM   23  C6  UNL     1       4.277  -0.525   0.500  1.00  0.00     0.308 C 
HETATM   24  O2  UNL     1       4.341  -1.551   1.208  1.00  0.00    -0.258 OA
BRANCH  23  25
HETATM   25  O3  UNL     1       5.429   0.119   0.136  1.00  0.00    -0.225 OA
BRANCH  25  26
HETATM   26  C7  UNL     1       6.676  -0.339   0.533  1.00  0.00     0.380 C 
HETATM   27  N6  UNL     1       7.857   0.341   0.147  1.00  0.00    -0.032 NA
HETATM   28  O4  UNL     1       6.723  -1.382   1.251  1.00  0.00    -0.242 OA
ENDBRANCH  25  26
ENDBRANCH  23  25
ENDBRANCH   7  23
TORSDOF 7
