REMARK  5 active torsions:
REMARK  status: ('A' for Active; 'I' for Inactive)
REMARK    1  A    between atoms: O1_2  and  C2_3 
REMARK    2  A    between atoms: C2_3  and  C3_5 
REMARK    3  A    between atoms: C5_8  and  C6_9 
REMARK    4  A    between atoms: C6_9  and  C7_10 
REMARK    5  A    between atoms: N4_22  and  N5_24 
ROOT
HETATM    1  C3  UNL     1      -1.862  -0.429   1.002  1.00  0.00     0.219 C 
HETATM    2  C4  UNL     1      -0.460  -0.005   0.624  1.00  0.00     0.186 C 
HETATM    3  O3  UNL     1      -0.287   1.043  -0.101  1.00  0.00    -0.290 OA
HETATM    4  C5  UNL     1       0.544  -0.869   1.151  1.00  0.00     0.055 C 
HETATM    5  S2  UNL     1      -0.345  -2.306   1.827  1.00  0.00    -0.070 SA
HETATM    6  C10 UNL     1      -1.902  -1.889   1.086  1.00  0.00     0.087 C 
HETATM    7  N4  UNL     1      -2.810  -2.664   0.725  1.00  0.00    -0.303 N 
ATOM      8  H4  UNL     1      -3.624  -2.202   0.319  1.00  0.00     0.186 HD
ENDROOT
BRANCH   4   9
HETATM    9  C6  UNL     1       1.829  -0.789   1.189  1.00  0.00     0.045 C 
BRANCH   9  10
HETATM   10  C7  UNL     1       2.712   0.252   0.675  1.00  0.00     0.051 A 
HETATM   11  S1  UNL     1       3.704   1.314   1.599  1.00  0.00    -0.051 SA
HETATM   12  C8  UNL     1       4.462   2.140   0.311  1.00  0.00     0.144 A 
HETATM   13  N1  UNL     1       5.355   3.104   0.330  1.00  0.00    -0.380 N 
HETATM   14  N2  UNL     1       3.920   1.561  -0.766  1.00  0.00    -0.324 N 
ATOM     15  H12 UNL     1       5.768   3.546   1.151  1.00  0.00     0.158 HD
ATOM     16  H11 UNL     1       5.808   3.597  -0.439  1.00  0.00     0.158 HD
HETATM   17  C9  UNL     1       3.041   0.613  -0.595  1.00  0.00     0.135 A 
ATOM     18  H2  UNL     1       4.189   1.856  -1.705  1.00  0.00     0.169 HD
HETATM   19  N3  UNL     1       2.447  -0.094  -1.731  1.00  0.00    -0.081 NA
ENDBRANCH   9  10
ENDBRANCH   4   9
BRANCH   1  20
HETATM   20  C2  UNL     1      -2.849   0.109   0.058  1.00  0.00     0.276 C 
HETATM   21  O2  UNL     1      -3.540  -0.675  -0.619  1.00  0.00    -0.264 OA
BRANCH  20  22
HETATM   22  O1  UNL     1      -3.041   1.466  -0.108  1.00  0.00    -0.326 OA
HETATM   23  C1  UNL     1      -4.019   1.947  -1.042  1.00  0.00     0.213 C 
ENDBRANCH  20  22
ENDBRANCH   1  20
BRANCH   7  24
HETATM   24  N5  UNL     1      -2.901  -4.029   0.781  1.00  0.00    -0.344 N 
ATOM     25  H52 UNL     1      -2.078  -4.471   1.190  1.00  0.00     0.176 HD
ATOM     26  H51 UNL     1      -3.644  -4.663   0.486  1.00  0.00     0.176 HD
ENDBRANCH   7  24
TORSDOF 5
