REMARK  7 active torsions:
REMARK  status: ('A' for Active; 'I' for Inactive)
REMARK    1  A    between atoms: C6_6  and  C7_7 
REMARK    2  A    between atoms: C7_7  and  C9_10 
REMARK    3  A    between atoms: C7_7  and  C22_29 
REMARK       I    between atoms: C9_10  and  N2_12 
REMARK    4  A    between atoms: N2_12  and  C10_14 
REMARK    5  A    between atoms: C10_14  and  C11_15 
REMARK    6  A    between atoms: N3_18  and  C14_19 
REMARK    7  A    between atoms: C19_24  and  O2_25 
ROOT
HETATM    1  C7  UNL     1      -2.700   0.244  -0.975  1.00  0.00     0.137 C 
HETATM    2  C8  UNL     1      -2.649   1.051  -2.225  1.00  0.00     0.080 C 
HETATM    3  N1  UNL     1      -2.618   1.671  -3.226  1.00  0.00    -0.196 NA
ENDROOT
BRANCH   1   4
HETATM    4  C6  UNL     1      -3.846  -0.668  -1.144  1.00  0.00     0.018 C 
HETATM    5  C5  UNL     1      -5.159   0.002  -1.393  1.00  0.00     0.007 C 
HETATM    6  C4  UNL     1      -5.935  -1.020  -2.277  1.00  0.00     0.001 C 
HETATM    7  C3  UNL     1      -6.007  -2.313  -1.560  1.00  0.00     0.004 C 
HETATM    8  C2  UNL     1      -5.371  -2.403  -0.220  1.00  0.00    -0.018 C 
HETATM    9  C1  UNL     1      -5.206  -3.882   0.118  1.00  0.00     0.010 C 
HETATM   10  C28 UNL     1      -4.001  -1.769  -0.115  1.00  0.00     0.011 C 
ENDBRANCH   1   4
BRANCH   1  11
HETATM   11  C9  UNL     1      -1.397  -0.578  -1.081  1.00  0.00     0.244 C 
HETATM   12  O1  UNL     1      -0.765  -0.540  -2.147  1.00  0.00    -0.271 OA
HETATM   13  N2  UNL     1      -0.961  -1.338   0.008  1.00  0.00    -0.339 N 
ATOM     14  H2  UNL     1      -1.562  -1.300   0.831  1.00  0.00     0.167 HD
BRANCH  13  15
HETATM   15  C10 UNL     1       0.179  -2.146   0.141  1.00  0.00     0.068 C 
BRANCH  15  16
HETATM   16  C11 UNL     1       1.539  -1.589   0.109  1.00  0.00     0.027 C 
HETATM   17  C12 UNL     1       2.049  -0.889  -1.086  1.00  0.00     0.040 C 
HETATM   18  C13 UNL     1       3.592  -0.814  -0.894  1.00  0.00     0.273 C 
HETATM   19  N3  UNL     1       3.793   0.088   0.220  1.00  0.00     0.095 N 
HETATM   20  C20 UNL     1       3.282  -0.512   1.438  1.00  0.00     0.273 C 
HETATM   21  C21 UNL     1       1.789  -0.642   1.295  1.00  0.00     0.040 C 
BRANCH  19  22
HETATM   22  C14 UNL     1       5.199   0.410   0.325  1.00  0.00     0.251 C 
HETATM   23  C15 UNL     1       6.081  -0.762   0.610  1.00  0.00     0.038 C 
HETATM   24  C16 UNL     1       7.508  -0.328   0.253  1.00  0.00     0.002 C 
HETATM   25  C17 UNL     1       7.879   0.783   1.215  1.00  0.00     0.003 C 
HETATM   26  C18 UNL     1       6.914   1.927   1.172  1.00  0.00     0.034 C 
HETATM   27  C19 UNL     1       5.480   1.482   1.350  1.00  0.00     0.151 C 
BRANCH  27  28
HETATM   28  O2  UNL     1       4.660   2.569   1.033  1.00  0.00    -0.393 OA
ATOM     29  H2  UNL     1       4.837   3.244   1.678  1.00  0.00     0.210 HD
ENDBRANCH  27  28
ENDBRANCH  19  22
ENDBRANCH  15  16
ENDBRANCH  13  15
ENDBRANCH   1  11
BRANCH   1  30
HETATM   30  C22 UNL     1      -2.611   1.097   0.234  1.00  0.00     0.018 C 
HETATM   31  C23 UNL     1      -3.737   2.056   0.408  1.00  0.00     0.007 C 
HETATM   32  C24 UNL     1      -3.524   3.150   1.414  1.00  0.00     0.000 C 
HETATM   33  C25 UNL     1      -2.215   3.837   1.299  1.00  0.00     0.000 C 
HETATM   34  C26 UNL     1      -1.518   3.349   0.052  1.00  0.00     0.000 C 
HETATM   35  C27 UNL     1      -1.287   1.857   0.278  1.00  0.00     0.007 C 
ENDBRANCH   1  30
TORSDOF 7
