REMARK  9 active torsions:
REMARK  status: ('A' for Active; 'I' for Inactive)
REMARK    1  A    between atoms: C3_3  and  C5_5 
REMARK    2  A    between atoms: C5_5  and  C6_6 
REMARK    3  A    between atoms: C6_6  and  C8_8 
REMARK    4  A    between atoms: C15_15  and  O1_16 
REMARK    5  A    between atoms: C19_21  and  O2_22 
REMARK    6  A    between atoms: O2_22  and  C20_23 
REMARK    7  A    between atoms: C20_23  and  C21_25 
REMARK    8  A    between atoms: C26_30  and  C27_31 
REMARK    9  A    between atoms: C26_30  and  C29_33 
ROOT
HETATM    1  C1  UNL     1      -1.592   4.931  -1.615  1.00  0.00     0.012 C 
HETATM    2  C2  UNL     1      -2.304   4.266  -0.896  1.00  0.00    -0.113 C 
HETATM    3  C3  UNL     1      -3.162   3.434  -0.028  1.00  0.00     0.064 C 
HETATM    4  C4  UNL     1      -3.451   4.302   1.185  1.00  0.00     0.023 C 
ENDROOT
BRANCH   3   5
HETATM    5  C5  UNL     1      -2.409   2.238   0.494  1.00  0.00     0.051 C 
BRANCH   5   6
HETATM    6  C6  UNL     1      -1.894   1.333  -0.583  1.00  0.00    -0.075 C 
HETATM    7  C7  UNL     1      -2.955   0.747  -1.447  1.00  0.00     0.044 C 
BRANCH   6   8
HETATM    8  C8  UNL     1      -0.730   0.497  -0.222  1.00  0.00    -0.046 C 
HETATM    9  C9  UNL     1      -0.796  -0.479   0.887  1.00  0.00    -0.066 C 
HETATM   10  C10 UNL     1      -0.864   0.107   2.277  1.00  0.00     0.035 C 
HETATM   11  C14 UNL     1      -1.598  -1.716   0.701  1.00  0.00     0.044 C 
HETATM   12  C11 UNL     1      -0.422  -1.039   3.215  1.00  0.00     0.004 C 
HETATM   13  C12 UNL     1      -1.449  -2.144   3.196  1.00  0.00     0.001 C 
HETATM   14  C13 UNL     1      -2.277  -2.195   1.968  1.00  0.00     0.011 C 
HETATM   15  C15 UNL     1      -0.798  -2.904   0.199  1.00  0.00     0.126 C 
HETATM   16  C16 UNL     1       0.286  -2.443  -0.753  1.00  0.00     0.039 C 
HETATM   17  C17 UNL     1      -0.151  -1.467  -1.760  1.00  0.00     0.022 C 
HETATM   18  C18 UNL     1      -0.040  -0.030  -1.448  1.00  0.00     0.054 C 
HETATM   19  C26 UNL     1       0.733  -1.496  -3.021  1.00  0.00     0.072 C 
HETATM   20  C19 UNL     1       1.434   0.298  -1.531  1.00  0.00     0.142 C 
HETATM   21  C25 UNL     1       1.899  -0.583  -2.669  1.00  0.00     0.058 C 
BRANCH  15  22
HETATM   22  O1  UNL     1      -0.160  -3.591   1.227  1.00  0.00    -0.395 OA
ATOM     23  H1  UNL     1       0.341  -4.335   0.913  1.00  0.00     0.210 HD
ENDBRANCH  15  22
BRANCH  20  24
HETATM   24  O2  UNL     1       2.132   0.095  -0.353  1.00  0.00    -0.311 OA
BRANCH  24  25
HETATM   25  C20 UNL     1       2.767   1.122   0.286  1.00  0.00     0.289 C 
HETATM   26  O3  UNL     1       2.740   2.299  -0.176  1.00  0.00    -0.260 OA
BRANCH  25  27
HETATM   27  C21 UNL     1       3.502   0.913   1.524  1.00  0.00     0.009 C 
HETATM   28  C22 UNL     1       3.557  -0.450   2.098  1.00  0.00     0.054 C 
HETATM   29  C23 UNL     1       4.119   1.894   2.152  1.00  0.00    -0.018 C 
HETATM   30  C24 UNL     1       4.863   1.656   3.414  1.00  0.00     0.036 C 
ENDBRANCH  25  27
ENDBRANCH  24  25
ENDBRANCH  20  24
BRANCH  19  31
HETATM   31  C27 UNL     1       1.137  -2.828  -3.437  1.00  0.00    -0.016 C 
HETATM   32  C28 UNL     1       2.328  -3.088  -3.957  1.00  0.00     0.008 C 
ENDBRANCH  19  31
BRANCH  19  33
HETATM   33  C29 UNL     1      -0.046  -0.790  -4.091  1.00  0.00     0.186 C 
HETATM   34  O4  UNL     1       0.380   0.242  -4.667  1.00  0.00    -0.647 OA
HETATM   35  O5  UNL     1      -1.277  -1.274  -4.472  1.00  0.00    -0.647 OA
ENDBRANCH  19  33
ENDBRANCH   6   8
ENDBRANCH   5   6
ENDBRANCH   3   5
TORSDOF 9
