REMARK  11 active torsions:
REMARK  status: ('A' for Active; 'I' for Inactive)
REMARK    1  A    between atoms: C1_4  and  C2_5 
REMARK    2  A    between atoms: C1_4  and  N3_9 
REMARK    3  A    between atoms: C2_5  and  N2_6 
REMARK    4  A    between atoms: N3_9  and  S1_11 
REMARK    5  A    between atoms: S1_11  and  C3_12 
REMARK    6  A    between atoms: C5_18  and  C6_19 
REMARK       I    between atoms: C6_19  and  N5_21 
REMARK    7  A    between atoms: N5_21  and  N6_22 
REMARK    8  A    between atoms: C7_24  and  C8_25 
REMARK    9  A    between atoms: C11_28  and  O6_29 
REMARK   10  A    between atoms: C12_31  and  O7_32 
REMARK   11  A    between atoms: C13_34  and  N7_35 
ROOT
HETATM    1  C6  UNL     1       0.689   0.394   0.368  1.00  0.00     0.354 C 
HETATM    2  O5  UNL     1       1.304   1.291   0.968  1.00  0.00    -0.249 OA
HETATM    3  N5  UNL     1      -0.658   0.368   0.119  1.00  0.00    -0.281 NA
ENDROOT
BRANCH   1   4
HETATM    4  C5  UNL     1       1.466  -0.758  -0.121  1.00  0.00     0.162 A 
HETATM    5  C3  UNL     1       2.847  -0.971   0.151  1.00  0.00     0.135 A 
HETATM    6  N4  UNL     1       3.071  -2.124  -0.478  1.00  0.00    -0.248 N 
HETATM    7  O3  UNL     1       2.039  -2.603  -1.075  1.00  0.00    -0.194 OA
ATOM      8  H4  UNL     1       3.981  -2.585  -0.485  1.00  0.00     0.195 HD
HETATM    9  C4  UNL     1       1.037  -1.811  -0.887  1.00  0.00     0.324 A 
HETATM   10  O4  UNL     1      -0.180  -1.911  -1.298  1.00  0.00    -0.257 OA
BRANCH   5  11
HETATM   11  S1  UNL     1       3.882   0.094   1.120  1.00  0.00     0.008 SA
BRANCH  11  12
HETATM   12  N3  UNL     1       4.920   1.041   0.012  1.00  0.00    -0.313 N 
ATOM     13  H3  UNL     1       4.568   1.240  -0.924  1.00  0.00     0.175 HD
BRANCH  12  14
HETATM   14  C1  UNL     1       6.199   1.528   0.360  1.00  0.00     0.105 C 
HETATM   15  N1  UNL     1       6.293   2.605   1.054  1.00  0.00    -0.387 N 
ATOM     16  H12 UNL     1       7.217   2.957   1.305  1.00  0.00     0.157 HD
ATOM     17  H11 UNL     1       5.426   3.072   1.318  1.00  0.00     0.157 HD
BRANCH  14  18
HETATM   18  C2  UNL     1       7.460   0.849  -0.024  1.00  0.00     0.277 C 
BRANCH  18  19
HETATM   19  N2  UNL     1       7.514  -0.489   0.529  1.00  0.00    -0.148 N 
HETATM   20  O1  UNL     1       8.402  -0.866   1.317  1.00  0.00    -0.536 OA
HETATM   21  O2  UNL     1       6.544  -1.393   0.178  1.00  0.00    -0.536 OA
ENDBRANCH  18  19
ENDBRANCH  14  18
ENDBRANCH  12  14
ENDBRANCH  11  12
ENDBRANCH   5  11
ENDBRANCH   1   4
BRANCH   3  22
HETATM   22  N6  UNL     1      -1.922   0.345  -0.115  1.00  0.00    -0.242 N 
HETATM   23  C7  UNL     1      -2.766   0.802  -0.961  1.00  0.00     0.135 C 
ATOM     24  H6  UNL     1      -2.401  -0.210   0.594  1.00  0.00     0.201 HD
BRANCH  23  25
HETATM   25  C8  UNL     1      -4.172   0.498  -0.821  1.00  0.00     0.018 A 
HETATM   26  C9  UNL     1      -5.018   0.940  -1.826  1.00  0.00     0.018 A 
HETATM   27  C10 UNL     1      -6.354   0.642  -1.807  1.00  0.00     0.040 A 
HETATM   28  C11 UNL     1      -6.835  -0.107  -0.757  1.00  0.00     0.101 A 
HETATM   29  C12 UNL     1      -6.023  -0.552   0.249  1.00  0.00     0.133 A 
HETATM   30  C13 UNL     1      -4.644  -0.232   0.210  1.00  0.00     0.150 A 
BRANCH  28  31
HETATM   31  O6  UNL     1      -8.203  -0.441  -0.697  1.00  0.00    -0.358 OA
ATOM     32  H6  UNL     1      -8.535  -0.958   0.028  1.00  0.00     0.217 HD
ENDBRANCH  28  31
BRANCH  29  33
HETATM   33  O7  UNL     1      -6.525  -1.292   1.269  1.00  0.00    -0.356 OA
ATOM     34  H7  UNL     1      -5.961  -1.601   1.968  1.00  0.00     0.218 HD
ENDBRANCH  29  33
BRANCH  30  35
HETATM   35  N7  UNL     1      -3.884  -0.698   1.310  1.00  0.00    -0.112 N 
HETATM   36  O8  UNL     1      -3.593   0.095   2.225  1.00  0.00    -0.532 OA
HETATM   37  O9  UNL     1      -3.488  -1.990   1.393  1.00  0.00    -0.532 OA
ENDBRANCH  30  35
ENDBRANCH  23  25
ENDBRANCH   3  22
TORSDOF 11
