REMARK  12 active torsions:
REMARK  status: ('A' for Active; 'I' for Inactive)
REMARK    1  A    between atoms: N1_1  and  C1_4 
REMARK    2  A    between atoms: N3_8  and  C3_10 
REMARK    3  A    between atoms: C3_10  and  O6_34 
REMARK    4  A    between atoms: N4_11  and  C4_13 
REMARK    5  A    between atoms: C6_15  and  C7_16 
REMARK       I    between atoms: C7_16  and  N5_18 
REMARK    6  A    between atoms: N5_18  and  N6_20 
REMARK    7  A    between atoms: N6_20  and  C8_22 
REMARK    8  A    between atoms: C8_22  and  C9_23 
REMARK    9  A    between atoms: C12_26  and  N7_27 
REMARK   10  A    between atoms: O6_34  and  N9_35 
REMARK   11  A    between atoms: C15_40  and  C16_41 
REMARK   12  A    between atoms: C16_41  and  N10_42 
ROOT
HETATM    1  C3  UNL     1       1.810  -2.572   0.052  1.00  0.00     0.249 C 
HETATM    2  N4  UNL     1       0.742  -3.199  -0.234  1.00  0.00    -0.302 N 
ATOM      3  H4  UNL     1       0.388  -4.091   0.111  1.00  0.00     0.171 HD
ENDROOT
BRANCH   2   4
HETATM    4  C4  UNL     1       0.131  -2.203  -1.269  1.00  0.00     0.155 A 
HETATM    5  C5  UNL     1      -0.773  -1.447  -0.561  1.00  0.00     0.152 A 
HETATM    6  C6  UNL     1      -1.394  -0.419  -1.545  1.00  0.00     0.109 A 
HETATM    7  N8  UNL     1      -0.752  -0.774  -2.501  1.00  0.00    -0.258 N 
HETATM    8  O5  UNL     1       0.152  -1.797  -2.372  1.00  0.00    -0.224 OA
ATOM      9  H8  UNL     1      -0.881  -0.315  -3.403  1.00  0.00     0.194 HD
BRANCH   6  10
HETATM   10  C7  UNL     1      -2.308   0.197  -0.383  1.00  0.00     0.285 C 
HETATM   11  O1  UNL     1      -1.829   1.157  -0.029  1.00  0.00    -0.265 OA
HETATM   12  N5  UNL     1      -3.307  -0.757  -0.271  1.00  0.00    -0.258 N 
ATOM     13  H5  UNL     1      -3.334  -1.500  -0.969  1.00  0.00     0.191 HD
BRANCH  12  14
HETATM   14  N6  UNL     1      -4.247  -0.771   0.699  1.00  0.00    -0.260 N 
ATOM     15  H6  UNL     1      -3.946  -1.143   1.600  1.00  0.00     0.197 HD
BRANCH  14  16
HETATM   16  C8  UNL     1      -5.316  -0.428   0.647  1.00  0.00     0.012 C 
BRANCH  16  17
HETATM   17  C9  UNL     1      -6.630   0.022   0.491  1.00  0.00     0.141 A 
HETATM   18  C10 UNL     1      -7.825  -0.384  -0.025  1.00  0.00     0.052 A 
HETATM   19  C11 UNL     1      -8.771   0.624   0.054  1.00  0.00     0.066 A 
HETATM   20  C12 UNL     1      -8.110   1.690   0.645  1.00  0.00     0.215 A 
HETATM   21  O4  UNL     1      -6.920   1.330   0.911  1.00  0.00    -0.279 OA
BRANCH  20  22
HETATM   22  N7  UNL     1      -8.601   3.011   0.952  1.00  0.00    -0.090 N 
HETATM   23  O2  UNL     1      -9.802   3.361   0.672  1.00  0.00    -0.530 OA
HETATM   24  O3  UNL     1      -7.767   3.876   1.522  1.00  0.00    -0.530 OA
ENDBRANCH  20  22
ENDBRANCH  16  17
ENDBRANCH  14  16
ENDBRANCH  12  14
ENDBRANCH   6  10
ENDBRANCH   2   4
BRANCH   1  25
HETATM   25  N3  UNL     1       2.517  -1.488  -0.318  1.00  0.00    -0.306 N 
HETATM   26  C2  UNL     1       3.664  -0.842  -0.455  1.00  0.00     0.109 A 
HETATM   27  N2  UNL     1       3.523   0.533  -0.719  1.00  0.00    -0.328 N 
HETATM   28  C13 UNL     1       4.904  -1.227  -0.114  1.00  0.00     0.049 A 
HETATM   29  C1  UNL     1       4.513   1.352  -0.606  1.00  0.00     0.108 A 
ATOM     30  H2  UNL     1       2.613   0.892  -1.008  1.00  0.00     0.169 HD
HETATM   31  C15 UNL     1       5.834   0.976  -0.236  1.00  0.00     0.011 A 
HETATM   32  C14 UNL     1       6.022  -0.372   0.016  1.00  0.00     0.016 A 
ATOM     33  H3  UNL     1       1.816  -0.836  -0.670  1.00  0.00     0.171 HD
BRANCH  29  34
HETATM   34  N1  UNL     1       4.471   2.568  -0.754  1.00  0.00    -0.385 N 
ATOM     35  H12 UNL     1       3.524   2.838  -1.019  1.00  0.00     0.157 HD
ATOM     36  H11 UNL     1       5.254   3.216  -0.665  1.00  0.00     0.157 HD
ENDBRANCH  29  34
BRANCH  31  37
HETATM   37  C16 UNL     1       6.844   2.059  -0.288  1.00  0.00     0.271 C 
BRANCH  37  38
HETATM   38  N10 UNL     1       7.985   1.944   0.605  1.00  0.00    -0.075 N 
ATOM     39 3H10 UNL     1       7.656   1.832   1.564  1.00  0.00     0.274 HD
ATOM     40 2H10 UNL     1       8.443   1.045   0.456  1.00  0.00     0.274 HD
ATOM     41 1H10 UNL     1       8.680   2.689   0.569  1.00  0.00     0.274 HD
ENDBRANCH  37  38
ENDBRANCH  31  37
ENDBRANCH   1  25
BRANCH   1  42
HETATM   42  O6  UNL     1       2.437  -3.348   1.223  1.00  0.00    -0.207 OA
BRANCH  42  43
HETATM   43  N9  UNL     1       1.820  -3.328   2.410  1.00  0.00    -0.302 N 
ATOM     44  H92 UNL     1       0.952  -2.804   2.520  1.00  0.00     0.184 HD
ATOM     45  H91 UNL     1       2.236  -3.843   3.186  1.00  0.00     0.184 HD
ENDBRANCH  42  43
ENDBRANCH   1  42
TORSDOF 12
