REMARK  11 active torsions:
REMARK  status: ('A' for Active; 'I' for Inactive)
REMARK    1  A    between atoms: N1_1  and  N2_4 
REMARK    2  A    between atoms: N2_4  and  C1_6 
REMARK    3  A    between atoms: C3_8  and  C4_9 
REMARK    4  A    between atoms: C5_13  and  C6_14 
REMARK    5  A    between atoms: C6_14  and  S1_15 
REMARK    6  A    between atoms: S1_15  and  C7_16 
REMARK    7  A    between atoms: C12_21  and  N4_22 
REMARK    8  A    between atoms: C13_25  and  O3_26 
REMARK    9  A    between atoms: C14_28  and  O4_29 
REMARK   10  A    between atoms: C15_31  and  O5_32 
REMARK   11  A    between atoms: C16_35  and  N5_36 
ROOT
HETATM    1  C4  UNL     1      -1.402  -0.632   0.957  1.00  0.00     0.274 C 
HETATM    2  N3  UNL     1      -0.280  -0.543   0.041  1.00  0.00    -0.055 N 
ATOM      3  H31 UNL     1       0.086   0.404  -0.058  1.00  0.00     0.278 HD
ATOM      4  H32 UNL     1      -0.544  -0.680  -0.935  1.00  0.00     0.278 HD
HETATM    5  C5  UNL     1       0.708  -1.492   0.505  1.00  0.00     0.227 C 
HETATM    6  C13 UNL     1       0.226  -2.867   0.115  1.00  0.00     0.180 C 
HETATM    7  C14 UNL     1      -1.228  -3.086   0.434  1.00  0.00     0.180 C 
HETATM    8  C15 UNL     1      -1.823  -2.011   1.292  1.00  0.00     0.186 C 
ENDROOT
BRANCH   1   9
HETATM    9  C3  UNL     1      -2.529   0.187   0.389  1.00  0.00     0.091 A 
HETATM   10  C2  UNL     1      -3.329   1.070   1.059  1.00  0.00     0.070 A 
HETATM   11  C1  UNL     1      -4.254   1.613   0.131  1.00  0.00     0.107 A 
HETATM   12  C16 UNL     1      -3.941   1.009  -1.049  1.00  0.00     0.243 A 
HETATM   13  O6  UNL     1      -2.915   0.177  -0.840  1.00  0.00    -0.289 OA
BRANCH  11  14
HETATM   14  N2  UNL     1      -5.243   2.570   0.483  1.00  0.00    -0.303 N 
ATOM     15  H2  UNL     1      -5.247   2.848   1.464  1.00  0.00     0.186 HD
BRANCH  14  16
HETATM   16  N1  UNL     1      -6.186   3.172  -0.292  1.00  0.00    -0.345 N 
ATOM     17  H12 UNL     1      -6.165   2.881  -1.269  1.00  0.00     0.176 HD
ATOM     18  H11 UNL     1      -6.896   3.859  -0.039  1.00  0.00     0.176 HD
ENDBRANCH  14  16
ENDBRANCH  11  14
BRANCH  12  19
HETATM   19  N5  UNL     1      -4.557   1.189  -2.312  1.00  0.00    -0.088 N 
HETATM   20  O7  UNL     1      -5.489   1.912  -2.618  1.00  0.00    -0.530 OA
HETATM   21  O8  UNL     1      -4.044   0.442  -3.385  1.00  0.00    -0.530 OA
ENDBRANCH  12  19
ENDBRANCH   1   9
BRANCH   8  22
HETATM   22  O5  UNL     1      -3.212  -2.152   1.265  1.00  0.00    -0.390 OA
ATOM     23  H5  UNL     1      -3.482  -3.037   1.480  1.00  0.00     0.210 HD
ENDBRANCH   8  22
BRANCH   5  24
HETATM   24  C6  UNL     1       2.063  -1.250  -0.125  1.00  0.00     0.115 C 
BRANCH  24  25
HETATM   25  S1  UNL     1       2.595   0.420   0.321  1.00  0.00    -0.125 SA
BRANCH  25  26
HETATM   26  C7  UNL     1       4.192   0.804  -0.377  1.00  0.00     0.033 A 
HETATM   27  C8  UNL     1       4.898  -0.085  -1.151  1.00  0.00     0.021 A 
HETATM   28  C9  UNL     1       6.133   0.253  -1.672  1.00  0.00     0.002 A 
HETATM   29  C10 UNL     1       6.685   1.493  -1.425  1.00  0.00     0.003 A 
HETATM   30  C11 UNL     1       5.997   2.402  -0.652  1.00  0.00     0.037 A 
HETATM   31  C12 UNL     1       4.750   2.037  -0.136  1.00  0.00     0.119 A 
BRANCH  31  32
HETATM   32  N4  UNL     1       4.054   2.982   0.657  1.00  0.00    -0.114 N 
HETATM   33  O1  UNL     1       3.304   2.652   1.586  1.00  0.00    -0.532 OA
HETATM   34  O2  UNL     1       4.229   4.315   0.373  1.00  0.00    -0.532 OA
ENDBRANCH  31  32
ENDBRANCH  25  26
ENDBRANCH  24  25
ENDBRANCH   5  24
BRANCH   7  35
HETATM   35  O4  UNL     1      -1.995  -3.233  -0.725  1.00  0.00    -0.390 OA
ATOM     36  H4  UNL     1      -2.913  -3.371  -0.524  1.00  0.00     0.210 HD
ENDBRANCH   7  35
BRANCH   6  37
HETATM   37  O3  UNL     1       1.065  -3.801   0.690  1.00  0.00    -0.391 OA
ATOM     38  H3  UNL     1       0.761  -4.667   0.444  1.00  0.00     0.210 HD
ENDBRANCH   6  37
TORSDOF 11
