REMARK  11 active torsions:
REMARK  status: ('A' for Active; 'I' for Inactive)
REMARK    1  A    between atoms: C4_5  and  N2_6 
REMARK    2  A    between atoms: N2_6  and  C5_8 
REMARK    3  A    between atoms: C5_8  and  C6_13 
REMARK    4  A    between atoms: N3_9  and  O1_11 
REMARK    5  A    between atoms: C6_13  and  O2_14 
REMARK    6  A    between atoms: C6_13  and  N4_16 
REMARK    7  A    between atoms: N4_16  and  N5_18 
REMARK    8  A    between atoms: C7_20  and  C8_21 
REMARK    9  A    between atoms: C10_23  and  N6_24 
REMARK   10  A    between atoms: C12_28  and  N7_29 
REMARK   11  A    between atoms: C15_34  and  N8_35 
ROOT
HETATM    1  C6  UNL     1      -0.097   0.261  -2.038  1.00  0.00     0.303 C 
ENDROOT
BRANCH   1   2
HETATM    2  C5  UNL     1      -1.274   1.166  -1.899  1.00  0.00     0.152 C 
HETATM    3  N3  UNL     1      -1.120   2.449  -1.795  1.00  0.00    -0.253 N 
ATOM      4  H3  UNL     1      -0.171   2.822  -1.810  1.00  0.00     0.195 HD
BRANCH   2   5
HETATM    5  N2  UNL     1      -2.601   0.666  -1.875  1.00  0.00    -0.341 N 
ATOM      6  H2  UNL     1      -3.149   0.707  -2.734  1.00  0.00     0.167 HD
BRANCH   5   7
HETATM    7  C4  UNL     1      -3.206   0.111  -0.717  1.00  0.00     0.035 A 
HETATM    8  C3  UNL     1      -2.510   0.030   0.486  1.00  0.00     0.031 A 
HETATM    9  C2  UNL     1      -3.136  -0.523   1.605  1.00  0.00     0.031 A 
HETATM   10  C1  UNL     1      -4.428  -0.996   1.569  1.00  0.00     0.079 A 
HETATM   11  N1  UNL     1      -5.091  -1.564   2.693  1.00  0.00    -0.100 NA
HETATM   12  C15 UNL     1      -5.093  -0.902   0.362  1.00  0.00     0.129 A 
HETATM   13  C14 UNL     1      -4.501  -0.361  -0.762  1.00  0.00     0.067 A 
BRANCH  12  14
HETATM   14  N8  UNL     1      -6.431  -1.375   0.264  1.00  0.00    -0.114 N 
HETATM   15  O7  UNL     1      -6.840  -2.329   0.940  1.00  0.00    -0.532 OA
HETATM   16  O8  UNL     1      -7.326  -0.778  -0.598  1.00  0.00    -0.532 OA
ENDBRANCH  12  14
ENDBRANCH   5   7
ENDBRANCH   2   5
BRANCH   3  17
HETATM   17  O1  UNL     1      -2.147   3.322  -1.667  1.00  0.00    -0.288 OA
ATOM     18  H1  UNL     1      -2.034   4.262  -1.591  1.00  0.00     0.244 HD
ENDBRANCH   3  17
ENDBRANCH   1   2
BRANCH   1  19
HETATM   19  O2  UNL     1      -0.171  -0.458  -3.226  1.00  0.00    -0.368 OA
ATOM     20  H2  UNL     1       0.579  -1.035  -3.315  1.00  0.00     0.212 HD
ENDBRANCH   1  19
BRANCH   1  21
HETATM   21  N4  UNL     1       1.107   1.082  -2.029  1.00  0.00    -0.301 N 
ATOM     22  H4  UNL     1       1.725   1.059  -2.840  1.00  0.00     0.183 HD
BRANCH  21  23
HETATM   23  N5  UNL     1       1.429   1.866  -0.990  1.00  0.00    -0.313 N 
HETATM   24  C7  UNL     1       2.267   1.886  -0.072  1.00  0.00     0.118 C 
ATOM     25  H5  UNL     1       0.811   2.676  -0.938  1.00  0.00     0.185 HD
BRANCH  24  26
HETATM   26  C8  UNL     1       3.307   0.916   0.189  1.00  0.00    -0.015 A 
HETATM   27  C9  UNL     1       3.515  -0.194  -0.568  1.00  0.00     0.049 A 
HETATM   28  C10 UNL     1       4.523  -1.121  -0.305  1.00  0.00     0.106 A 
HETATM   29  C11 UNL     1       5.347  -0.904   0.773  1.00  0.00     0.072 A 
HETATM   30  C12 UNL     1       5.171   0.210   1.567  1.00  0.00     0.106 A 
HETATM   31  C13 UNL     1       4.168   1.111   1.286  1.00  0.00     0.049 A 
BRANCH  28  32
HETATM   32  N6  UNL     1       4.682  -2.267  -1.145  1.00  0.00    -0.116 N 
HETATM   33  O3  UNL     1       5.562  -3.099  -0.935  1.00  0.00    -0.532 OA
HETATM   34  O4  UNL     1       3.830  -2.438  -2.211  1.00  0.00    -0.532 OA
ENDBRANCH  28  32
BRANCH  30  35
HETATM   35  N7  UNL     1       6.028   0.428   2.680  1.00  0.00    -0.116 N 
HETATM   36  O5  UNL     1       6.940  -0.375   2.951  1.00  0.00    -0.532 OA
HETATM   37  O6  UNL     1       5.874   1.525   3.485  1.00  0.00    -0.532 OA
ENDBRANCH  30  35
ENDBRANCH  24  26
ENDBRANCH  21  23
ENDBRANCH   1  21
TORSDOF 11
