REMARK  15 active torsions:
REMARK  status: ('A' for Active; 'I' for Inactive)
REMARK    1  A    between atoms: O1_1  and  C1_3 
REMARK    2  A    between atoms: C1_3  and  N1_4 
REMARK    3  A    between atoms: C1_3  and  C16_32 
REMARK    4  A    between atoms: N1_4  and  C2_5 
REMARK    5  A    between atoms: C2_5  and  C3_6 
REMARK    6  A    between atoms: C5_8  and  O2_9 
REMARK    7  A    between atoms: C6_11  and  O3_12 
REMARK    8  A    between atoms: C7_14  and  N2_15 
REMARK    9  A    between atoms: N2_15  and  N3_17 
REMARK   10  A    between atoms: N3_17  and  C8_18 
REMARK   11  A    between atoms: C8_18  and  C9_19 
REMARK   12  A    between atoms: C13_23  and  N4_24 
REMARK   13  A    between atoms: C15_28  and  N5_29 
REMARK   14  A    between atoms: C16_32  and  O8_33 
REMARK   15  A    between atoms: N6_35  and  O9_37 
ROOT
HETATM    1  C3  UNL     1       2.374   0.060   0.222  1.00  0.00     0.031 A 
HETATM    2  C4  UNL     1       3.300  -0.940   0.084  1.00  0.00     0.056 A 
HETATM    3  C5  UNL     1       2.873  -2.217  -0.312  1.00  0.00     0.102 A 
HETATM    4  C6  UNL     1       1.560  -2.475  -0.560  1.00  0.00     0.129 A 
HETATM    5  C7  UNL     1       0.610  -1.470  -0.425  1.00  0.00     0.114 A 
HETATM    6  C15 UNL     1       1.033  -0.236  -0.040  1.00  0.00     0.146 A 
ENDROOT
BRANCH   5   7
HETATM    7  N2  UNL     1      -0.745  -1.767  -0.702  1.00  0.00    -0.299 N 
ATOM      8  H2  UNL     1      -0.955  -2.734  -0.949  1.00  0.00     0.182 HD
BRANCH   7   9
HETATM    9  N3  UNL     1      -1.808  -0.901  -0.676  1.00  0.00    -0.136 NA
BRANCH   9  10
HETATM   10  C8  UNL     1      -3.059  -1.531  -0.326  1.00  0.00     0.173 C 
BRANCH  10  11
HETATM   11  C9  UNL     1      -4.216  -0.637  -0.278  1.00  0.00    -0.040 A 
HETATM   12  C10 UNL     1      -5.462  -1.250  -0.360  1.00  0.00     0.008 A 
HETATM   13  C11 UNL     1      -6.654  -0.562  -0.324  1.00  0.00     0.003 A 
HETATM   14  C12 UNL     1      -6.586   0.825  -0.198  1.00  0.00     0.036 A 
HETATM   15  C13 UNL     1      -5.368   1.466  -0.114  1.00  0.00     0.103 A 
HETATM   16  C14 UNL     1      -4.194   0.713  -0.157  1.00  0.00     0.044 A 
BRANCH  15  17
HETATM   17  N4  UNL     1      -5.303   2.879   0.014  1.00  0.00    -0.116 N 
HETATM   18  O4  UNL     1      -4.193   3.430   0.081  1.00  0.00    -0.532 OA
HETATM   19  O5  UNL     1      -6.459   3.615   0.061  1.00  0.00    -0.532 OA
ENDBRANCH  15  17
ENDBRANCH  10  11
ENDBRANCH   9  10
ENDBRANCH   7   9
ENDBRANCH   5   7
BRANCH   4  20
HETATM   20  O3  UNL     1       1.104  -3.733  -0.955  1.00  0.00    -0.356 OA
ATOM     21  H3  UNL     1       0.187  -3.913  -1.128  1.00  0.00     0.218 HD
ENDBRANCH   4  20
BRANCH   6  22
HETATM   22  N5  UNL     1       0.103   0.838   0.150  1.00  0.00    -0.112 N 
HETATM   23  O6  UNL     1       0.028   1.685  -0.759  1.00  0.00    -0.532 OA
HETATM   24  O7  UNL     1      -0.676   0.970   1.252  1.00  0.00    -0.532 OA
ENDBRANCH   6  22
BRANCH   3  25
HETATM   25  O2  UNL     1       3.851  -3.176  -0.431  1.00  0.00    -0.358 OA
ATOM     26  H2  UNL     1       3.562  -4.040  -0.699  1.00  0.00     0.217 HD
ENDBRANCH   3  25
BRANCH   1  27
HETATM   27  C2  UNL     1       2.790   1.420   0.644  1.00  0.00     0.199 C 
BRANCH  27  28
HETATM   28  N1  UNL     1       3.898   1.738   0.879  1.00  0.00    -0.389 NA
BRANCH  28  29
HETATM   29  C1  UNL     1       5.143   2.026   1.125  1.00  0.00     0.267 C 
BRANCH  29  30
HETATM   30  O1  UNL     1       5.480   2.560   2.264  1.00  0.00    -0.332 OA
ATOM     31  H1  UNL     1       6.389   2.770   2.444  1.00  0.00     0.220 HD
ENDBRANCH  29  30
BRANCH  29  32
HETATM   32  C16 UNL     1       6.266   1.792   0.178  1.00  0.00     0.227 C 
HETATM   33  N6  UNL     1       7.463   2.097   0.466  1.00  0.00    -0.243 N 
ATOM     34  H6  UNL     1       8.211   1.923  -0.205  1.00  0.00     0.196 HD
BRANCH  32  35
HETATM   35  O8  UNL     1       5.999   1.224  -1.057  1.00  0.00    -0.341 OA
ATOM     36  H8  UNL     1       6.716   1.075  -1.662  1.00  0.00     0.219 HD
ENDBRANCH  32  35
BRANCH  33  37
HETATM   37  O9  UNL     1       7.747   2.660   1.680  1.00  0.00    -0.288 OA
ATOM     38  H9  UNL     1       8.644   2.888   1.896  1.00  0.00     0.244 HD
ENDBRANCH  33  37
ENDBRANCH  29  32
ENDBRANCH  28  29
ENDBRANCH  27  28
ENDBRANCH   1  27
TORSDOF 15
