REMARK  11 active torsions:
REMARK  status: ('A' for Active; 'I' for Inactive)
REMARK    1  A    between atoms: N1_1  and  C1_5 
REMARK    2  A    between atoms: C1_5  and  C2_6 
REMARK    3  A    between atoms: C3_8  and  O2_9 
REMARK    4  A    between atoms: O2_9  and  C4_10 
REMARK    5  A    between atoms: C4_10  and  C5_11 
REMARK    6  A    between atoms: C5_11  and  C6_12 
REMARK    7  A    between atoms: C6_12  and  C7_13 
REMARK    8  A    between atoms: C7_13  and  C8_14 
REMARK    9  A    between atoms: C8_14  and  N2_15 
REMARK   10  A    between atoms: C14_25  and  O4_26 
REMARK   11  A    between atoms: C15_28  and  O5_29 
ROOT
HETATM    1  C2  UNL     1       4.670  -0.555  -0.636  1.00  0.00     0.182 C 
HETATM    2  O1  UNL     1       3.570  -0.226  -1.417  1.00  0.00    -0.344 OA
HETATM    3  C3  UNL     1       2.409   0.021  -0.684  1.00  0.00     0.333 C 
HETATM    4  C13 UNL     1       2.587   1.097   0.298  1.00  0.00     0.212 C 
HETATM    5  O3  UNL     1       1.674   1.815   0.605  1.00  0.00    -0.290 OA
HETATM    6  C14 UNL     1       3.921   1.289   0.912  1.00  0.00     0.224 C 
HETATM    7  C15 UNL     1       4.643  -0.038   0.755  1.00  0.00     0.185 C 
ENDROOT
BRANCH   3   8
HETATM    8  O2  UNL     1       1.425   0.360  -1.602  1.00  0.00    -0.354 OA
BRANCH   8   9
HETATM    9  C4  UNL     1       0.345  -0.510  -1.623  1.00  0.00     0.171 C 
BRANCH   9  10
HETATM   10  C5  UNL     1      -0.414  -0.571  -0.325  1.00  0.00     0.027 C 
BRANCH  10  11
HETATM   11  C6  UNL     1      -1.545  -1.565  -0.519  1.00  0.00     0.007 C 
BRANCH  11  12
HETATM   12  C7  UNL     1      -2.397  -1.734   0.684  1.00  0.00     0.044 C 
BRANCH  12  13
HETATM   13  C8  UNL     1      -3.144  -0.570   1.194  1.00  0.00     0.058 C 
BRANCH  13  14
HETATM   14  N2  UNL     1      -4.122   0.052   0.449  1.00  0.00    -0.390 N 
HETATM   15  C9  UNL     1      -3.917   0.802  -0.695  1.00  0.00     0.149 C 
HETATM   16  C10 UNL     1      -5.103   0.533  -1.645  1.00  0.00     0.252 C 
HETATM   17  N3  UNL     1      -6.257   1.184  -1.058  1.00  0.00    -0.072 N 
HETATM   18  C11 UNL     1      -6.313   0.983   0.379  1.00  0.00     0.252 C 
ATOM     19  H32 UNL     1      -6.286   2.175  -1.296  1.00  0.00     0.277 HD
ATOM     20  H31 UNL     1      -7.122   0.886  -1.509  1.00  0.00     0.277 HD
HETATM   21  C12 UNL     1      -5.490  -0.218   0.802  1.00  0.00     0.149 C 
ENDBRANCH  13  14
ENDBRANCH  12  13
ENDBRANCH  11  12
ENDBRANCH  10  11
ENDBRANCH   9  10
ENDBRANCH   8   9
ENDBRANCH   3   8
BRANCH   1  22
HETATM   22  C1  UNL     1       5.900  -0.195  -1.430  1.00  0.00     0.264 C 
BRANCH  22  23
HETATM   23  N1  UNL     1       7.141  -0.485  -0.761  1.00  0.00    -0.077 N 
ATOM     24  H13 UNL     1       7.165  -0.038   0.156  1.00  0.00     0.274 HD
ATOM     25  H12 UNL     1       7.173  -1.464  -0.478  1.00  0.00     0.274 HD
ATOM     26  H11 UNL     1       7.973  -0.241  -1.298  1.00  0.00     0.274 HD
ENDBRANCH  22  23
ENDBRANCH   1  22
BRANCH   6  27
HETATM   27  O4  UNL     1       4.631   2.337   0.343  1.00  0.00    -0.385 OA
ATOM     28  H4  UNL     1       5.487   2.460   0.737  1.00  0.00     0.210 HD
ENDBRANCH   6  27
BRANCH   7  29
HETATM   29  O5  UNL     1       5.896  -0.028   1.314  1.00  0.00    -0.390 OA
ATOM     30  H5  UNL     1       5.879   0.303   2.204  1.00  0.00     0.210 HD
ENDBRANCH   7  29
TORSDOF 11
