REMARK  11 active torsions:
REMARK  status: ('A' for Active; 'I' for Inactive)
REMARK    1  A    between atoms: N2_5  and  C4_6 
REMARK    2  A    between atoms: C4_6  and  C5_7 
REMARK    3  A    between atoms: C5_7  and  C6_8 
REMARK    4  A    between atoms: C6_8  and  C7_9 
REMARK    5  A    between atoms: C7_9  and  C8_10 
REMARK    6  A    between atoms: C8_10  and  N3_11 
REMARK    7  A    between atoms: N3_11  and  C9_14 
REMARK    8  A    between atoms: C9_14  and  C10_15 
REMARK    9  A    between atoms: C12_18  and  O2_19 
REMARK   10  A    between atoms: C13_21  and  O3_22 
REMARK   11  A    between atoms: C14_24  and  O4_25 
ROOT
HETATM    1  N3  UNL     1      -2.399  -0.792   0.583  1.00  0.00    -0.073 N 
ATOM      2  H31 UNL     1      -2.288   0.161   0.930  1.00  0.00     0.277 HD
ATOM      3  H32 UNL     1      -3.256  -1.037   1.080  1.00  0.00     0.277 HD
ENDROOT
BRANCH   1   4
HETATM    4  C8  UNL     1      -1.308  -1.626   0.967  1.00  0.00     0.232 C 
BRANCH   4   5
HETATM    5  C7  UNL     1       0.001  -1.110   0.482  1.00  0.00     0.028 C 
BRANCH   5   6
HETATM    6  C6  UNL     1       0.296   0.263   1.005  1.00  0.00     0.007 C 
BRANCH   6   7
HETATM    7  C5  UNL     1       1.624   0.767   0.506  1.00  0.00     0.045 C 
BRANCH   7   8
HETATM    8  C4  UNL     1       2.743  -0.093   0.947  1.00  0.00     0.068 C 
BRANCH   8   9
HETATM    9  N2  UNL     1       4.028   0.313   0.550  1.00  0.00    -0.351 N 
HETATM   10  C3  UNL     1       5.140  -0.436   0.964  1.00  0.00     0.098 C 
HETATM   11  C2  UNL     1       6.387   0.369   0.633  1.00  0.00     0.317 C 
HETATM   12  N1  UNL     1       6.465   0.632  -0.791  1.00  0.00     0.093 N 
HETATM   13  C1  UNL     1       6.985  -0.573  -1.420  1.00  0.00     0.310 C 
HETATM   14  C16 UNL     1       5.219   1.059  -1.365  1.00  0.00     0.317 C 
HETATM   15  C15 UNL     1       4.236   1.427  -0.259  1.00  0.00     0.098 C 
ENDBRANCH   8   9
ENDBRANCH   7   8
ENDBRANCH   6   7
ENDBRANCH   5   6
ENDBRANCH   4   5
ENDBRANCH   1   4
BRANCH   1  16
HETATM   16  C9  UNL     1      -2.582  -0.822  -0.841  1.00  0.00     0.266 C 
BRANCH  16  17
HETATM   17  C10 UNL     1      -3.887  -0.092  -1.118  1.00  0.00     0.178 C 
HETATM   18  O1  UNL     1      -3.912   1.204  -0.657  1.00  0.00    -0.379 OA
HETATM   19  C11 UNL     1      -5.036   1.840  -1.165  1.00  0.00     0.202 C 
HETATM   20  C12 UNL     1      -6.315   1.113  -0.898  1.00  0.00     0.173 C 
HETATM   21  C13 UNL     1      -6.016  -0.002   0.082  1.00  0.00     0.180 C 
HETATM   22  C14 UNL     1      -4.992  -0.923  -0.564  1.00  0.00     0.180 C 
BRANCH  20  23
HETATM   23  O2  UNL     1      -7.328   1.894  -0.398  1.00  0.00    -0.391 OA
ATOM     24  H2  UNL     1      -8.141   1.432  -0.228  1.00  0.00     0.210 HD
ENDBRANCH  20  23
BRANCH  21  25
HETATM   25  O3  UNL     1      -7.137  -0.788   0.348  1.00  0.00    -0.390 OA
ATOM     26  H3  UNL     1      -6.949  -1.488   0.963  1.00  0.00     0.210 HD
ENDBRANCH  21  25
BRANCH  22  27
HETATM   27  O4  UNL     1      -4.610  -1.860   0.374  1.00  0.00    -0.390 OA
ATOM     28  H4  UNL     1      -5.315  -2.390   0.727  1.00  0.00     0.210 HD
ENDBRANCH  22  27
ENDBRANCH  16  17
ENDBRANCH   1  16
TORSDOF 11
