REMARK  10 active torsions:
REMARK  status: ('A' for Active; 'I' for Inactive)
REMARK    1  A    between atoms: N1_1  and  C1_5 
REMARK    2  A    between atoms: C1_5  and  C2_6 
REMARK    3  A    between atoms: C2_6  and  C3_7 
REMARK    4  A    between atoms: C3_7  and  N5_19 
REMARK    5  A    between atoms: N2_8  and  S1_10 
REMARK    6  A    between atoms: S1_10  and  C4_11 
REMARK    7  A    between atoms: C4_11  and  C5_12 
REMARK    8  A    between atoms: N5_19  and  C8_21 
REMARK    9  A    between atoms: C8_21  and  C9_22 
REMARK   10  A    between atoms: C9_22  and  N6_23 
ROOT
HETATM    1  C3  UNL     1       1.076   2.614   0.021  1.00  0.00     0.084 C 
HETATM    2  N2  UNL     1       1.711   1.731  -0.635  1.00  0.00    -0.320 N 
ATOM      3  H2  UNL     1       1.200   0.991  -1.115  1.00  0.00     0.175 HD
ENDROOT
BRANCH   1   4
HETATM    4  C2  UNL     1       1.819   3.685   0.716  1.00  0.00     0.104 C 
BRANCH   4   5
HETATM    5  C1  UNL     1       1.551   3.691   2.207  1.00  0.00     0.237 C 
BRANCH   5   6
HETATM    6  N1  UNL     1       0.127   3.896   2.477  1.00  0.00    -0.079 N 
ATOM      7  H13 UNL     1      -0.225   4.741   2.026  1.00  0.00     0.274 HD
ATOM      8  H12 UNL     1      -0.452   3.211   1.992  1.00  0.00     0.274 HD
ATOM      9  H11 UNL     1      -0.053   3.900   3.481  1.00  0.00     0.274 HD
ENDBRANCH   5   6
ENDBRANCH   4   5
ENDBRANCH   1   4
BRANCH   1  10
HETATM   10  N5  UNL     1      -0.327   2.582   0.087  1.00  0.00    -0.378 N 
ATOM     11  H5  UNL     1      -0.819   3.476   0.098  1.00  0.00     0.160 HD
BRANCH  10  12
HETATM   12  C8  UNL     1      -1.120   1.390   0.140  1.00  0.00     0.151 C 
BRANCH  12  13
HETATM   13  C9  UNL     1      -1.136   0.578  -1.110  1.00  0.00     0.292 C 
BRANCH  13  14
HETATM   14  N6  UNL     1      -1.964  -0.609  -0.990  1.00  0.00     0.091 N 
HETATM   15  C10 UNL     1      -3.375  -0.295  -0.880  1.00  0.00     0.274 C 
HETATM   16  C11 UNL     1      -4.224  -1.360  -1.557  1.00  0.00     0.057 C 
HETATM   17  C12 UNL     1      -4.582  -2.485  -0.618  1.00  0.00     0.234 C 
HETATM   18  N7  UNL     1      -3.608  -2.505   0.455  1.00  0.00    -0.073 N 
HETATM   19  C13 UNL     1      -2.279  -2.795  -0.019  1.00  0.00     0.262 C 
ATOM     20  H72 UNL     1      -3.628  -1.635   0.987  1.00  0.00     0.277 HD
ATOM     21  H71 UNL     1      -3.886  -3.153   1.193  1.00  0.00     0.277 HD
HETATM   22  C14 UNL     1      -1.497  -1.484   0.048  1.00  0.00     0.300 C 
ENDBRANCH  13  14
ENDBRANCH  12  13
ENDBRANCH  10  12
ENDBRANCH   1  10
BRANCH   2  23
HETATM   23  S1  UNL     1       3.460   1.778  -0.719  1.00  0.00    -0.047 SA
BRANCH  23  24
HETATM   24  C4  UNL     1       4.116   0.557   0.444  1.00  0.00     0.173 C 
BRANCH  24  25
HETATM   25  C5  UNL     1       3.727  -0.803  -0.020  1.00  0.00     0.084 C 
HETATM   26  N3  UNL     1       3.080  -1.674   0.635  1.00  0.00    -0.378 N 
HETATM   27  C6  UNL     1       2.860  -2.903  -0.097  1.00  0.00     0.140 C 
ATOM     28  H3  UNL     1       2.746  -1.523   1.587  1.00  0.00     0.160 HD
HETATM   29  C7  UNL     1       3.801  -2.754  -1.279  1.00  0.00     0.140 C 
HETATM   30  N4  UNL     1       4.040  -1.324  -1.290  1.00  0.00    -0.378 N 
ATOM     31  H4  UNL     1       4.379  -0.784  -2.086  1.00  0.00     0.160 HD
ENDBRANCH  24  25
ENDBRANCH  23  24
ENDBRANCH   2  23
TORSDOF 10
