REMARK  10 active torsions:
REMARK  status: ('A' for Active; 'I' for Inactive)
REMARK    1  A    between atoms: N1_1  and  C1_5 
REMARK    2  A    between atoms: C2_6  and  O1_7 
REMARK    3  A    between atoms: C3_9  and  O2_10 
REMARK    4  A    between atoms: C4_12  and  O3_13 
REMARK    5  A    between atoms: C5_15  and  O4_16 
REMARK    6  A    between atoms: O4_16  and  C6_17 
REMARK    7  A    between atoms: C6_17  and  C7_18 
REMARK    8  A    between atoms: C10_21  and  O5_22 
REMARK    9  A    between atoms: O5_22  and  C11_23 
REMARK   10  A    between atoms: C11_23  and  C12_24 
ROOT
HETATM    1  C1  UNL     1       1.284   1.617   0.371  1.00  0.00     0.245 C 
HETATM    2  C2  UNL     1       0.702   2.666  -0.590  1.00  0.00     0.182 C 
HETATM    3  C3  UNL     1      -0.710   2.841  -0.088  1.00  0.00     0.180 C 
HETATM    4  C4  UNL     1      -1.492   1.598  -0.232  1.00  0.00     0.180 C 
HETATM    5  C5  UNL     1      -0.824   0.316   0.087  1.00  0.00     0.183 C 
HETATM    6  C10 UNL     1       0.706   0.302  -0.043  1.00  0.00     0.186 C 
ENDROOT
BRANCH   5   7
HETATM    7  O4  UNL     1      -1.360  -0.640  -0.752  1.00  0.00    -0.380 OA
BRANCH   7   8
HETATM    8  C6  UNL     1      -2.051  -1.657  -0.165  1.00  0.00     0.173 C 
BRANCH   8   9
HETATM    9  C7  UNL     1      -3.253  -1.311   0.627  1.00  0.00     0.009 A 
HETATM   10  C8  UNL     1      -4.430  -0.633   0.090  1.00  0.00     0.007 A 
HETATM   11  C9  UNL     1      -4.516  -2.116   0.271  1.00  0.00     0.007 A 
ENDBRANCH   8   9
ENDBRANCH   7   8
ENDBRANCH   5   7
BRANCH   4  12
HETATM   12  O3  UNL     1      -2.041   1.596  -1.525  1.00  0.00    -0.390 OA
ATOM     13  H3  UNL     1      -2.544   0.796  -1.618  1.00  0.00     0.210 HD
ENDBRANCH   4  12
BRANCH   6  14
HETATM   14  O5  UNL     1       1.210  -0.680   0.751  1.00  0.00    -0.381 OA
BRANCH  14  15
HETATM   15  C11 UNL     1       1.745  -1.798   0.273  1.00  0.00     0.172 C 
BRANCH  15  16
HETATM   16  C12 UNL     1       2.958  -1.885  -0.549  1.00  0.00     0.009 A 
HETATM   17  C13 UNL     1       4.324  -1.468  -0.121  1.00  0.00     0.007 A 
HETATM   18  C14 UNL     1       4.018  -2.898  -0.097  1.00  0.00     0.007 A 
ENDBRANCH  15  16
ENDBRANCH  14  15
ENDBRANCH   6  14
BRANCH   3  19
HETATM   19  O2  UNL     1      -0.605   3.212   1.271  1.00  0.00    -0.390 OA
ATOM     20  H2  UNL     1      -1.494   3.322   1.587  1.00  0.00     0.210 HD
ENDBRANCH   3  19
BRANCH   1  21
HETATM   21  N1  UNL     1       2.691   1.673   0.301  1.00  0.00    -0.070 N 
ATOM     22  H13 UNL     1       3.039   1.566  -0.652  1.00  0.00     0.274 HD
ATOM     23  H12 UNL     1       3.054   2.610   0.479  1.00  0.00     0.274 HD
ATOM     24  H11 UNL     1       3.077   0.977   0.939  1.00  0.00     0.274 HD
ENDBRANCH   1  21
BRANCH   2  25
HETATM   25  O1  UNL     1       1.462   3.803  -0.456  1.00  0.00    -0.391 OA
ATOM     26  H1  UNL     1       1.102   4.451  -1.050  1.00  0.00     0.210 HD
ENDBRANCH   2  25
TORSDOF 10
