REMARK  9 active torsions:
REMARK  status: ('A' for Active; 'I' for Inactive)
REMARK    1  A    between atoms: C3_4  and  O1_5 
REMARK    2  A    between atoms: C4_7  and  O2_8 
REMARK    3  A    between atoms: C5_10  and  O3_11 
REMARK    4  A    between atoms: C6_13  and  C7_14 
REMARK    5  A    between atoms: C7_14  and  C8_15 
REMARK    6  A    between atoms: C8_15  and  N2_16 
REMARK    7  A    between atoms: C8_15  and  C9_20 
REMARK    8  A    between atoms: C9_20  and  C10_21 
REMARK    9  A    between atoms: C10_21  and  N3_22 
ROOT
HETATM    1  C1  UNL     1      -2.320   1.939  -0.694  1.00  0.00     0.310 C 
HETATM    2  N1  UNL     1      -2.438   1.206   0.511  1.00  0.00     0.094 N 
HETATM    3  C2  UNL     1      -3.765   1.199   1.024  1.00  0.00     0.306 C 
HETATM    4  C3  UNL     1      -4.667   0.362   0.134  1.00  0.00     0.177 C 
HETATM    5  C4  UNL     1      -4.123  -1.024   0.042  1.00  0.00     0.179 C 
HETATM    6  C5  UNL     1      -2.643  -1.069  -0.380  1.00  0.00     0.182 C 
HETATM    7  C6  UNL     1      -1.884  -0.151   0.476  1.00  0.00     0.255 C 
ENDROOT
BRANCH   7   8
HETATM    8  C7  UNL     1      -0.408  -0.121   0.402  1.00  0.00     0.071 C 
BRANCH   8   9
HETATM    9  C8  UNL     1       0.242  -1.460   0.370  1.00  0.00     0.187 C 
BRANCH   9  10
HETATM   10  N2  UNL     1      -0.117  -2.211  -0.773  1.00  0.00    -0.075 N 
ATOM     11  H23 UNL     1      -1.130  -2.293  -0.854  1.00  0.00     0.274 HD
ATOM     12  H22 UNL     1       0.074  -1.690  -1.629  1.00  0.00     0.274 HD
ATOM     13  H21 UNL     1       0.328  -3.128  -0.795  1.00  0.00     0.274 HD
ENDBRANCH   9  10
BRANCH   9  14
HETATM   14  C9  UNL     1       1.749  -1.372   0.562  1.00  0.00     0.063 C 
BRANCH  14  15
HETATM   15  C10 UNL     1       2.395  -0.541  -0.521  1.00  0.00     0.274 C 
BRANCH  15  16
HETATM   16  N3  UNL     1       3.841  -0.483  -0.307  1.00  0.00     0.088 N 
HETATM   17  C11 UNL     1       4.075   0.300   0.911  1.00  0.00     0.272 C 
HETATM   18  C12 UNL     1       5.509   0.745   0.766  1.00  0.00     0.032 C 
HETATM   19  C13 UNL     1       5.613   1.034  -0.717  1.00  0.00     0.032 C 
HETATM   20  C14 UNL     1       4.342   0.453  -1.316  1.00  0.00     0.272 C 
ENDBRANCH  15  16
ENDBRANCH  14  15
ENDBRANCH   9  14
ENDBRANCH   8   9
ENDBRANCH   7   8
BRANCH   6  21
HETATM   21  O3  UNL     1      -2.594  -0.903  -1.731  1.00  0.00    -0.391 OA
ATOM     22  H3  UNL     1      -1.681  -0.931  -1.991  1.00  0.00     0.210 HD
ENDBRANCH   6  21
BRANCH   5  23
HETATM   23  O2  UNL     1      -4.179  -1.667   1.290  1.00  0.00    -0.390 OA
ATOM     24  H2  UNL     1      -3.833  -2.550   1.231  1.00  0.00     0.210 HD
ENDBRANCH   5  23
BRANCH   4  25
HETATM   25  O1  UNL     1      -5.915   0.249   0.787  1.00  0.00    -0.391 OA
ATOM     26  H1  UNL     1      -6.479  -0.275   0.230  1.00  0.00     0.210 HD
ENDBRANCH   4  25
TORSDOF 9
