REMARK  6 active torsions:
REMARK  status: ('A' for Active; 'I' for Inactive)
REMARK    1  A    between atoms: C2_2  and  N1_3 
REMARK    2  A    between atoms: N2_6  and  C4_7 
REMARK    3  A    between atoms: C4_7  and  C5_8 
REMARK    4  A    between atoms: C14_18  and  C15_19 
REMARK    5  A    between atoms: C15_19  and  C16_20 
REMARK    6  A    between atoms: C16_20  and  O3_21 
ROOT
HETATM    1  N1  UNL     1       2.029   0.463  -0.570  1.00  0.00    -0.329 N 
HETATM    2  C3  UNL     1       0.740  -0.073  -0.894  1.00  0.00     0.320 C 
HETATM    3  O1  UNL     1       0.194   0.273  -1.944  1.00  0.00    -0.247 OA
HETATM    4  N2  UNL     1       0.123  -0.979  -0.014  1.00  0.00    -0.331 N 
HETATM    5  C11 UNL     1       0.818  -1.523   1.105  1.00  0.00     0.134 C 
HETATM    6  C12 UNL     1       2.063  -0.803   1.523  1.00  0.00     0.023 C 
HETATM    7  C13 UNL     1       1.805   0.277   2.552  1.00  0.00     0.014 C 
HETATM    8  C14 UNL     1       2.858  -0.271   0.344  1.00  0.00     0.096 C 
ENDROOT
BRANCH   4   9
HETATM    9  C4  UNL     1      -1.258  -1.395  -0.219  1.00  0.00     0.159 C 
BRANCH   9  10
HETATM   10  C5  UNL     1      -2.238  -0.492   0.494  1.00  0.00     0.139 C 
HETATM   11  C6  UNL     1      -3.588  -1.125   0.423  1.00  0.00     0.034 C 
HETATM   12  C7  UNL     1      -4.656  -0.353   1.158  1.00  0.00     0.003 C 
HETATM   13  C8  UNL     1      -5.293   0.593   0.162  1.00  0.00     0.002 C 
HETATM   14  C9  UNL     1      -4.317   1.750  -0.021  1.00  0.00     0.026 C 
HETATM   15  C10 UNL     1      -3.147   1.198  -0.808  1.00  0.00     0.168 C 
HETATM   16  O2  UNL     1      -2.174   0.811   0.082  1.00  0.00    -0.384 OA
ENDBRANCH   9  10
ENDBRANCH   4   9
BRANCH   1  17
HETATM   17  C2  UNL     1       2.525   1.703  -1.115  1.00  0.00     0.123 C 
HETATM   18  C1  UNL     1       2.149   2.888  -0.246  1.00  0.00     0.026 C 
ENDBRANCH   1  17
BRANCH   8  19
HETATM   19  C15 UNL     1       3.576  -1.434  -0.301  1.00  0.00     0.051 C 
BRANCH  19  20
HETATM   20  C16 UNL     1       4.487  -1.037  -1.424  1.00  0.00     0.166 C 
BRANCH  20  21
HETATM   21  O3  UNL     1       5.117  -2.160  -1.959  1.00  0.00    -0.401 OA
ATOM     22  H3  UNL     1       5.694  -1.908  -2.670  1.00  0.00     0.209 HD
ENDBRANCH  20  21
ENDBRANCH  19  20
ENDBRANCH   8  19
TORSDOF 6
