REMARK  9 active torsions:
REMARK  status: ('A' for Active; 'I' for Inactive)
REMARK    1  A    between atoms: C3_3  and  C5_5 
REMARK    2  A    between atoms: C5_5  and  N1_6 
REMARK    3  A    between atoms: C5_5  and  C6_10 
REMARK    4  A    between atoms: C6_10  and  O1_11 
REMARK    5  A    between atoms: C6_10  and  N2_13 
REMARK    6  A    between atoms: C11_18  and  C12_19 
REMARK    7  A    between atoms: C12_19  and  C13_20 
REMARK    8  A    between atoms: C13_20  and  O2_21 
REMARK    9  A    between atoms: O2_21  and  C14_22 
ROOT
HETATM    1  N2  UNL     1      -1.361   0.428   0.125  1.00  0.00    -0.359 N 
HETATM    2  C7  UNL     1      -1.855   1.683   0.593  1.00  0.00     0.125 C 
HETATM    3  C8  UNL     1      -0.768   2.565   1.229  1.00  0.00     0.020 C 
HETATM    4  C9  UNL     1       0.319   2.849   0.236  1.00  0.00     0.004 C 
HETATM    5  C10 UNL     1       0.130   1.960  -0.967  1.00  0.00     0.025 C 
HETATM    6  C11 UNL     1      -0.071   0.522  -0.611  1.00  0.00     0.088 C 
ENDROOT
BRANCH   1   7
HETATM    7  C6  UNL     1      -1.947  -0.843   0.281  1.00  0.00     0.149 C 
BRANCH   7   8
HETATM    8  C5  UNL     1      -3.149  -1.291   0.962  1.00  0.00     0.285 C 
BRANCH   8   9
HETATM    9  C3  UNL     1      -4.232  -1.700   0.006  1.00  0.00    -0.050 C 
HETATM   10  C2  UNL     1      -4.083  -1.615  -1.284  1.00  0.00    -0.026 C 
HETATM   11  C1  UNL     1      -5.200  -2.033  -2.201  1.00  0.00     0.036 C 
HETATM   12  C4  UNL     1      -5.501  -2.208   0.585  1.00  0.00     0.046 C 
ENDBRANCH   8   9
BRANCH   8  13
HETATM   13  N1  UNL     1      -3.663  -0.329   1.878  1.00  0.00    -0.064 N 
ATOM     14  H13 UNL     1      -4.080   0.471   1.403  1.00  0.00     0.275 HD
ATOM     15  H12 UNL     1      -4.497  -0.663   2.360  1.00  0.00     0.275 HD
ATOM     16  H11 UNL     1      -2.927  -0.051   2.527  1.00  0.00     0.275 HD
ENDBRANCH   8  13
ENDBRANCH   7   8
BRANCH   7  17
HETATM   17  O1  UNL     1      -1.312  -1.852  -0.286  1.00  0.00    -0.348 OA
ATOM     18  H1  UNL     1      -0.526  -1.559  -0.731  1.00  0.00     0.219 HD
ENDBRANCH   7  17
ENDBRANCH   1   7
BRANCH   6  19
HETATM   19  C12 UNL     1       1.009  -0.007   0.261  1.00  0.00     0.051 C 
BRANCH  19  20
HETATM   20  C13 UNL     1       2.371   0.046  -0.408  1.00  0.00     0.173 C 
BRANCH  20  21
HETATM   21  O2  UNL     1       3.292  -0.463   0.478  1.00  0.00    -0.361 OA
BRANCH  21  22
HETATM   22  C14 UNL     1       4.585  -0.478   0.003  1.00  0.00     0.259 C 
HETATM   23  C15 UNL     1       5.177  -1.857  -0.063  1.00  0.00     0.063 C 
HETATM   24  C16 UNL     1       6.662  -1.568  -0.030  1.00  0.00     0.031 C 
HETATM   25  C17 UNL     1       6.705  -0.064   0.164  1.00  0.00     0.171 C 
HETATM   26  O3  UNL     1       5.469   0.284   0.735  1.00  0.00    -0.361 OA
ENDBRANCH  21  22
ENDBRANCH  20  21
ENDBRANCH  19  20
ENDBRANCH   6  19
TORSDOF 9
