REMARK  7 active torsions:
REMARK  status: ('A' for Active; 'I' for Inactive)
REMARK    1  A    between atoms: C2_2  and  N1_4 
REMARK    2  A    between atoms: N1_4  and  C4_5 
REMARK    3  A    between atoms: N1_4  and  C11_19 
REMARK    4  A    between atoms: C4_5  and  C5_6 
REMARK    5  A    between atoms: N2_7  and  N3_9 
REMARK    6  A    between atoms: N3_9  and  C6_11 
REMARK    7  A    between atoms: C6_11  and  N4_13 
ROOT
HETATM    1  C5  UNL     1      -0.490   0.707  -0.413  1.00  0.00     0.124 C 
HETATM    2  N2  UNL     1       0.533   1.445  -0.431  1.00  0.00    -0.308 N 
ATOM      3  H2  UNL     1       0.305   2.438  -0.487  1.00  0.00     0.186 HD
ENDROOT
BRANCH   2   4
HETATM    4  N3  UNL     1       1.855   1.215  -0.393  1.00  0.00    -0.277 N 
ATOM      5  H3  UNL     1       2.435   1.855  -0.936  1.00  0.00     0.189 HD
BRANCH   4   6
HETATM    6  C6  UNL     1       2.537   0.205   0.300  1.00  0.00     0.188 C 
HETATM    7  S1  UNL     1       1.772  -0.903   1.215  1.00  0.00    -0.039 SA
BRANCH   6   8
HETATM    8  N4  UNL     1       3.974   0.076   0.249  1.00  0.00    -0.356 N 
HETATM    9  C7  UNL     1       4.661  -0.963   0.963  1.00  0.00     0.135 C 
HETATM   10  C8  UNL     1       5.474  -1.832   0.018  1.00  0.00     0.093 C 
HETATM   11  S2  UNL     1       6.748  -0.747  -0.705  1.00  0.00    -0.166 SA
HETATM   12  C9  UNL     1       6.177   0.956  -0.428  1.00  0.00     0.093 C 
HETATM   13  C10 UNL     1       4.681   1.054  -0.557  1.00  0.00     0.135 C 
ENDBRANCH   6   8
ENDBRANCH   4   6
ENDBRANCH   2   4
BRANCH   1  14
HETATM   14  C4  UNL     1      -1.870   1.247  -0.470  1.00  0.00     0.105 C 
BRANCH  14  15
HETATM   15  N1  UNL     1      -2.850   0.285  -0.340  1.00  0.00    -0.381 N 
BRANCH  15  16
HETATM   16  C2  UNL     1      -3.142  -0.395   0.825  1.00  0.00     0.076 C 
HETATM   17  C1  UNL     1      -2.084  -1.283   1.412  1.00  0.00     0.032 C 
HETATM   18  C3  UNL     1      -3.612   0.507   1.983  1.00  0.00     0.032 C 
ENDBRANCH  15  16
BRANCH  15  19
HETATM   19  C11 UNL     1      -3.721   0.079  -1.464  1.00  0.00     0.076 C 
HETATM   20  C12 UNL     1      -3.769  -1.325  -1.978  1.00  0.00     0.032 C 
HETATM   21  C13 UNL     1      -5.078   0.677  -1.178  1.00  0.00     0.032 C 
ENDBRANCH  15  19
ENDBRANCH  14  15
ENDBRANCH   1  14
TORSDOF 7
