REMARK  10 active torsions:
REMARK  status: ('A' for Active; 'I' for Inactive)
REMARK    1  A    between atoms: N1_1  and  C1_5 
REMARK    2  A    between atoms: C1_5  and  C2_6 
REMARK    3  A    between atoms: N2_8  and  C3_9 
REMARK    4  A    between atoms: C3_9  and  C4_10 
REMARK    5  A    between atoms: C5_11  and  C6_12 
REMARK    6  A    between atoms: C6_12  and  C7_13 
REMARK    7  A    between atoms: C7_13  and  C8_14 
REMARK    8  A    between atoms: N3_16  and  C10_17 
REMARK    9  A    between atoms: C11_19  and  O2_20 
REMARK   10  A    between atoms: C12_22  and  O3_23 
ROOT
HETATM    1  C2  UNL     1      -3.762  -0.906  -0.257  1.00  0.00     0.203 C 
HETATM    2  O1  UNL     1      -2.428  -1.145  -0.369  1.00  0.00    -0.291 OA
HETATM    3  N2  UNL     1      -1.732  -0.234   0.268  1.00  0.00    -0.161 NA
HETATM    4  C11 UNL     1      -2.546   0.536   1.124  1.00  0.00     0.249 C 
HETATM    5  C12 UNL     1      -3.960   0.229   0.703  1.00  0.00     0.195 C 
ENDROOT
BRANCH   3   6
HETATM    6  C3  UNL     1      -0.624  -0.811   1.035  1.00  0.00     0.151 C 
BRANCH   6   7
HETATM    7  C4  UNL     1       0.343   0.217   1.487  1.00  0.00    -0.014 C 
HETATM    8  C5  UNL     1       1.620   0.295   1.200  1.00  0.00    -0.029 C 
BRANCH   8   9
HETATM    9  C6  UNL     1       2.307  -0.662   0.356  1.00  0.00     0.029 C 
BRANCH   9  10
HETATM   10  C7  UNL     1       2.941  -0.062  -0.888  1.00  0.00     0.041 C 
BRANCH  10  11
HETATM   11  C8  UNL     1       3.959   0.978  -0.577  1.00  0.00     0.253 A 
HETATM   12  C9  UNL     1       5.162   0.667   0.228  1.00  0.00     0.310 A 
HETATM   13  N3  UNL     1       5.221   1.074  -1.225  1.00  0.00     0.110 N 
BRANCH  13  14
HETATM   14  C10 UNL     1       5.732   0.106  -2.133  1.00  0.00     0.387 C 
HETATM   15 CL1  UNL     1       4.744  -0.132  -3.587  1.00  0.00    -0.098 Cl
ENDBRANCH  13  14
ENDBRANCH  10  11
ENDBRANCH   9  10
ENDBRANCH   8   9
ENDBRANCH   6   7
ENDBRANCH   3   6
BRANCH   4  16
HETATM   16  O2  UNL     1      -2.345   0.264   2.480  1.00  0.00    -0.376 OA
ATOM     17  H2  UNL     1      -2.893   0.783   3.057  1.00  0.00     0.211 HD
ENDBRANCH   4  16
BRANCH   1  18
HETATM   18  C1  UNL     1      -4.363  -0.581  -1.627  1.00  0.00     0.266 C 
BRANCH  18  19
HETATM   19  N1  UNL     1      -5.774  -0.345  -1.406  1.00  0.00    -0.077 N 
ATOM     20  H13 UNL     1      -6.244  -1.115  -0.930  1.00  0.00     0.274 HD
ATOM     21  H12 UNL     1      -5.960   0.370  -0.702  1.00  0.00     0.274 HD
ATOM     22  H11 UNL     1      -6.174  -0.128  -2.319  1.00  0.00     0.274 HD
ENDBRANCH  18  19
ENDBRANCH   1  18
BRANCH   5  23
HETATM   23  O3  UNL     1      -4.736  -0.188   1.797  1.00  0.00    -0.389 OA
ATOM     24  H3  UNL     1      -4.861   0.531   2.405  1.00  0.00     0.210 HD
ENDBRANCH   5  23
TORSDOF 10
