REMARK  8 active torsions:
REMARK  status: ('A' for Active; 'I' for Inactive)
REMARK    1  A    between atoms: C2_2  and  C3_3 
REMARK    2  A    between atoms: C8_12  and  O1_13 
REMARK    3  A    between atoms: C9_15  and  O2_16 
REMARK    4  A    between atoms: C10_18  and  O3_19 
REMARK    5  A    between atoms: O3_19  and  C11_20 
REMARK    6  A    between atoms: C11_20  and  C12_21 
REMARK    7  A    between atoms: C12_21  and  C13_22 
REMARK    8  A    between atoms: C13_22  and  C14_23 
ROOT
HETATM    1  C3  UNL     1      -0.611   1.145   0.805  1.00  0.00     0.071 C 
HETATM    2  C4  UNL     1      -1.535   1.393  -0.318  1.00  0.00     0.227 C 
HETATM    3  C5  UNL     1      -2.995   1.105   0.034  1.00  0.00     0.308 C 
HETATM    4  N1  UNL     1      -3.315  -0.014  -0.781  1.00  0.00     0.120 N 
HETATM    5  C6  UNL     1      -4.322  -0.883  -0.256  1.00  0.00     0.312 C 
HETATM    6  C7  UNL     1      -2.090  -0.637  -1.167  1.00  0.00     0.450 C 
HETATM    7  N2  UNL     1      -1.193   0.452  -1.382  1.00  0.00    -0.034 N 
ATOM      8  H21 UNL     1      -0.208   0.188  -1.412  1.00  0.00     0.280 HD
ATOM      9  H22 UNL     1      -1.226   0.847  -2.322  1.00  0.00     0.280 HD
HETATM   10  C8  UNL     1      -1.624  -1.710  -0.265  1.00  0.00     0.210 C 
HETATM   11  C9  UNL     1      -0.926  -1.352   0.961  1.00  0.00     0.180 C 
HETATM   12  C10 UNL     1       0.064  -0.180   0.871  1.00  0.00     0.162 C 
ENDROOT
BRANCH  12  13
HETATM   13  O3  UNL     1       0.998  -0.442  -0.110  1.00  0.00    -0.382 OA
BRANCH  13  14
HETATM   14  C11 UNL     1       2.159  -0.953   0.473  1.00  0.00     0.168 C 
BRANCH  14  15
HETATM   15  C12 UNL     1       3.214  -1.276  -0.526  1.00  0.00     0.029 C 
BRANCH  15  16
HETATM   16  C13 UNL     1       3.814  -0.166  -1.291  1.00  0.00     0.033 C 
BRANCH  16  17
HETATM   17  C14 UNL     1       4.633   0.811  -0.499  1.00  0.00     0.222 C 
HETATM   18  F1  UNL     1       3.975   1.416   0.504  1.00  0.00    -0.255 F 
ENDBRANCH  16  17
ENDBRANCH  15  16
ENDBRANCH  14  15
ENDBRANCH  13  14
ENDBRANCH  12  13
BRANCH   1  19
HETATM   19  C2  UNL     1       0.409   2.191   0.978  1.00  0.00    -0.028 C 
HETATM   20  C1  UNL     1       0.877   3.114   0.263  1.00  0.00     0.007 C 
ENDBRANCH   1  19
BRANCH  11  21
HETATM   21  O2  UNL     1      -1.674  -1.156   2.108  1.00  0.00    -0.390 OA
ATOM     22  H2  UNL     1      -1.218  -0.922   2.908  1.00  0.00     0.210 HD
ENDBRANCH  11  21
BRANCH  10  23
HETATM   23  O1  UNL     1      -0.849  -2.626  -1.017  1.00  0.00    -0.389 OA
ATOM     24  H1  UNL     1      -0.549  -3.316  -0.437  1.00  0.00     0.210 HD
ENDBRANCH  10  23
TORSDOF 8
