REMARK  7 active torsions:
REMARK  status: ('A' for Active; 'I' for Inactive)
REMARK    1  A    between atoms: C1_2  and  N1_3 
REMARK    2  A    between atoms: N1_3  and  C2_5 
REMARK    3  A    between atoms: C5_9  and  C6_10 
REMARK    4  A    between atoms: C7_12  and  N2_13 
REMARK    5  A    between atoms: N2_13  and  C8_16 
REMARK    6  A    between atoms: C8_16  and  C9_17 
REMARK    7  A    between atoms: C12_20  and  O3_21 
ROOT
HETATM    1  C2  UNL     1      -2.436   0.725   0.084  1.00  0.00     0.138 C 
HETATM    2  C3  UNL     1      -3.785   0.077  -0.082  1.00  0.00     0.194 C 
HETATM    3  O2  UNL     1      -3.718  -1.316  -0.079  1.00  0.00    -0.389 OA
HETATM    4  C4  UNL     1      -2.721  -1.648  -1.026  1.00  0.00     0.175 C 
HETATM    5  C5  UNL     1      -1.403  -1.534  -0.288  1.00  0.00     0.056 C 
HETATM    6  C7  UNL     1      -1.361  -0.261   0.486  1.00  0.00     0.217 C 
ENDROOT
BRANCH   6   7
HETATM    7  N2  UNL     1      -0.083   0.428   0.301  1.00  0.00    -0.066 N 
ATOM      8  H22 UNL     1       0.010   0.790  -0.648  1.00  0.00     0.277 HD
ATOM      9  H21 UNL     1      -0.060   1.311   0.812  1.00  0.00     0.277 HD
BRANCH   7  10
HETATM   10  C8  UNL     1       1.029  -0.407   0.652  1.00  0.00     0.264 C 
BRANCH  10  11
HETATM   11  C9  UNL     1       2.294   0.383   0.429  1.00  0.00     0.150 C 
HETATM   12  C10 UNL     1       3.504  -0.479   0.650  1.00  0.00     0.038 C 
HETATM   13  C11 UNL     1       4.513   0.147  -0.301  1.00  0.00     0.063 C 
HETATM   14  C12 UNL     1       3.741   1.311  -0.872  1.00  0.00     0.257 C 
HETATM   15  O4  UNL     1       2.437   0.790  -0.895  1.00  0.00    -0.355 OA
BRANCH  14  16
HETATM   16  O3  UNL     1       3.767   2.398   0.003  1.00  0.00    -0.371 OA
ATOM     17  H3  UNL     1       3.281   3.131  -0.356  1.00  0.00     0.212 HD
ENDBRANCH  14  16
ENDBRANCH  10  11
ENDBRANCH   7  10
ENDBRANCH   6   7
BRANCH   1  18
HETATM   18  N1  UNL     1      -2.557   1.744   1.094  1.00  0.00    -0.359 N 
ATOM     19  H1  UNL     1      -2.848   1.484   2.036  1.00  0.00     0.162 HD
BRANCH  18  20
HETATM   20  C1  UNL     1      -2.278   3.105   0.801  1.00  0.00     0.348 C 
HETATM   21  O1  UNL     1      -1.913   3.483  -0.349  1.00  0.00    -0.284 OA
ENDBRANCH  18  20
ENDBRANCH   1  18
BRANCH   5  22
HETATM   22  C6  UNL     1      -1.319  -2.766   0.615  1.00  0.00     0.123 C 
HETATM   23 CL1  UNL     1      -1.381  -4.180  -0.476  1.00  0.00    -0.130 Cl
ENDBRANCH   5  22
TORSDOF 7
