REMARK  8 active torsions:
REMARK  status: ('A' for Active; 'I' for Inactive)
REMARK    1  A    between atoms: O1_1  and  N1_3 
REMARK    2  A    between atoms: C1_5  and  C2_6 
REMARK    3  A    between atoms: C1_5  and  N3_13 
REMARK    4  A    between atoms: C2_6  and  C3_7 
REMARK    5  A    between atoms: C3_7  and  N2_8 
REMARK    6  A    between atoms: N3_13  and  C8_15 
REMARK    7  A    between atoms: C8_15  and  C9_16 
REMARK    8  A    between atoms: C9_16  and  N4_17 
ROOT
HETATM    1  N1  UNL     1       0.022  -1.212  -1.718  1.00  0.00    -0.257 N 
ATOM      2  H1  UNL     1      -0.982  -1.100  -1.861  1.00  0.00     0.195 HD
HETATM    3  C1  UNL     1       0.466  -1.319  -0.516  1.00  0.00     0.099 C 
ENDROOT
BRANCH   3   4
HETATM    4  C2  UNL     1       1.926  -1.481  -0.316  1.00  0.00     0.108 C 
BRANCH   4   5
HETATM    5  C3  UNL     1       2.511  -0.369   0.507  1.00  0.00     0.280 C 
BRANCH   5   6
HETATM    6  N2  UNL     1       3.919  -0.556   0.685  1.00  0.00     0.088 N 
HETATM    7  C4  UNL     1       4.510   0.508   1.485  1.00  0.00     0.272 C 
HETATM    8  C5  UNL     1       4.729   1.660   0.527  1.00  0.00     0.032 C 
HETATM    9  C6  UNL     1       4.666   1.014  -0.847  1.00  0.00     0.032 C 
HETATM   10  C7  UNL     1       4.698  -0.450  -0.529  1.00  0.00     0.272 C 
ENDBRANCH   5   6
ENDBRANCH   4   5
ENDBRANCH   3   4
BRANCH   3  11
HETATM   11  N3  UNL     1      -0.475  -1.277   0.545  1.00  0.00    -0.374 N 
ATOM     12  H3  UNL     1      -0.788  -2.164   0.940  1.00  0.00     0.161 HD
BRANCH  11  13
HETATM   13  C8  UNL     1      -1.020  -0.059   1.104  1.00  0.00     0.165 C 
BRANCH  13  14
HETATM   14  C9  UNL     1      -1.912   0.695   0.201  1.00  0.00     0.077 C 
BRANCH  14  15
HETATM   15  N4  UNL     1      -3.061   0.085  -0.273  1.00  0.00    -0.389 N 
HETATM   16  C10 UNL     1      -3.899   0.841  -1.144  1.00  0.00     0.149 C 
HETATM   17  C11 UNL     1      -5.323   0.742  -0.703  1.00  0.00     0.252 C 
HETATM   18  N5  UNL     1      -5.386   0.853   0.735  1.00  0.00    -0.072 N 
HETATM   19  C12 UNL     1      -4.804  -0.265   1.414  1.00  0.00     0.252 C 
ATOM     20  H52 UNL     1      -4.966   1.727   1.050  1.00  0.00     0.277 HD
ATOM     21  H51 UNL     1      -6.346   1.006   1.045  1.00  0.00     0.277 HD
HETATM   22  C13 UNL     1      -3.736  -0.883   0.509  1.00  0.00     0.149 C 
ENDBRANCH  14  15
ENDBRANCH  13  14
ENDBRANCH  11  13
ENDBRANCH   3  11
BRANCH   1  23
HETATM   23  O1  UNL     1       0.844  -1.242  -2.816  1.00  0.00    -0.288 OA
ATOM     24  H1  UNL     1       0.516  -1.163  -3.704  1.00  0.00     0.244 HD
ENDBRANCH   1  23
TORSDOF 8
