REMARK  8 active torsions:
REMARK  status: ('A' for Active; 'I' for Inactive)
REMARK    1  A    between atoms: O1_2  and  C2_3 
REMARK    2  A    between atoms: C2_3  and  C3_4 
REMARK    3  A    between atoms: C3_4  and  N1_5 
REMARK    4  A    between atoms: N1_5  and  C4_7 
REMARK    5  A    between atoms: C5_14  and  N5_15 
REMARK    6  A    between atoms: N5_15  and  C6_17 
REMARK    7  A    between atoms: C6_17  and  C7_18 
REMARK    8  A    between atoms: C7_18  and  C8_19 
ROOT
HETATM    1  C4  UNL     1      -0.738   0.035   0.486  1.00  0.00     0.708 A 
HETATM    2  N2  UNL     1      -0.739  -0.463  -0.765  1.00  0.00    -0.117 N 
ATOM      3  H2  UNL     1      -1.622  -0.712  -1.211  1.00  0.00     0.207 HD
HETATM    4  N3  UNL     1       0.397  -0.631  -1.417  1.00  0.00    -0.214 N 
ATOM      5  H3  UNL     1       0.401  -1.009  -2.365  1.00  0.00     0.209 HD
HETATM    6  N4  UNL     1       1.524  -0.302  -0.821  1.00  0.00    -0.117 N 
ATOM      7  H4  UNL     1       2.398  -0.435  -1.330  1.00  0.00     0.207 HD
HETATM    8  C5  UNL     1       1.579   0.199   0.422  1.00  0.00     0.712 A 
HETATM    9  N6  UNL     1       0.407   0.371   1.093  1.00  0.00    -0.020 N 
ATOM     10  H6  UNL     1       0.401   0.749   2.040  1.00  0.00     0.203 HD
ENDROOT
BRANCH   1  11
HETATM   11  N1  UNL     1      -1.885   0.190   1.109  1.00  0.00    -0.222 N 
ATOM     12  H1  UNL     1      -1.905   0.566   2.057  1.00  0.00     0.177 HD
BRANCH  11  13
HETATM   13  C3  UNL     1      -3.121  -0.175   0.445  1.00  0.00     0.164 C 
BRANCH  13  14
HETATM   14  C2  UNL     1      -4.244   0.110   1.407  1.00  0.00     0.187 C 
BRANCH  14  15
HETATM   15  O1  UNL     1      -5.494  -0.190   0.913  1.00  0.00    -0.394 OA
HETATM   16  C1  UNL     1      -5.824   0.513  -0.231  1.00  0.00     0.201 C 
ENDBRANCH  14  15
ENDBRANCH  13  14
ENDBRANCH  11  13
ENDBRANCH   1  11
BRANCH   8  17
HETATM   17  N5  UNL     1       2.670   0.514   0.989  1.00  0.00    -0.203 N 
ATOM     18  H5  UNL     1       2.564   0.883   1.934  1.00  0.00     0.183 HD
BRANCH  17  19
HETATM   19  C6  UNL     1       4.001   0.441   0.536  1.00  0.00     0.080 C 
BRANCH  19  20
HETATM   20  C7  UNL     1       4.225  -0.010  -0.870  1.00  0.00     0.056 C 
BRANCH  20  21
HETATM   21  C8  UNL     1       5.748   0.002  -1.108  1.00  0.00     0.090 C 
HETATM   22 BR1  UNL     1       6.064  -0.579  -2.924  1.00  0.00    -0.096 Br
ENDBRANCH  20  21
ENDBRANCH  19  20
ENDBRANCH  17  19
ENDBRANCH   8  17
TORSDOF 8
