REMARK  4 active torsions:
REMARK  status: ('A' for Active; 'I' for Inactive)
REMARK    1  A    between atoms: S1_2  and  C1_5 
REMARK    2  A    between atoms: C1_5  and  C2_6 
REMARK    3  A    between atoms: C2_6  and  C3_7 
REMARK    4  A    between atoms: C3_7  and  O4_8 
ROOT
HETATM    1  C2  UNL     1       0.162  -0.242  -0.032  1.00  0.00     0.037 C 
HETATM    2  C4  UNL     1      -1.011  -1.116  -0.504  1.00  0.00     0.246 C 
HETATM    3  N1  UNL     1      -1.885  -0.357  -1.361  1.00  0.00    -0.074 N 
ATOM      4  H11 UNL     1      -2.481  -0.947  -1.942  1.00  0.00     0.277 HD
ATOM      5  H12 UNL     1      -1.388   0.116  -2.116  1.00  0.00     0.277 HD
HETATM    6  C5  UNL     1      -2.637   0.553  -0.525  1.00  0.00     0.233 C 
HETATM    7  C6  UNL     1      -1.920   0.952   0.719  1.00  0.00     0.048 C 
HETATM    8  C7  UNL     1      -0.427   0.983   0.611  1.00  0.00     0.097 C 
HETATM    9 CL1  UNL     1       0.196   1.150   2.280  1.00  0.00    -0.124 Cl
ENDROOT
BRANCH   1  10
HETATM   10  C1  UNL     1       0.938   0.112  -1.242  1.00  0.00     0.180 C 
BRANCH  10  11
HETATM   11  S1  UNL     1       2.431   1.031  -0.992  1.00  0.00     0.102 S 
HETATM   12  O1  UNL     1       2.214   2.510  -0.238  1.00  0.00    -0.595 OA
HETATM   13  O2  UNL     1       3.190   1.352  -2.507  1.00  0.00    -0.595 OA
HETATM   14  O3  UNL     1       3.565   0.129  -0.103  1.00  0.00    -0.595 OA
ENDBRANCH  10  11
ENDBRANCH   1  10
BRANCH   1  15
HETATM   15  C3  UNL     1       0.928  -1.095   0.954  1.00  0.00     0.177 C 
BRANCH  15  16
HETATM   16  O4  UNL     1       1.290  -2.281   0.290  1.00  0.00    -0.400 OA
ATOM     17  H4  UNL     1       1.771  -2.817   0.909  1.00  0.00     0.209 HD
ENDBRANCH  15  16
ENDBRANCH   1  15
TORSDOF 4
