REMARK  7 active torsions:
REMARK  status: ('A' for Active; 'I' for Inactive)
REMARK    1  A    between atoms: O1_1  and  C1_3 
REMARK    2  A    between atoms: C1_3  and  C2_4 
REMARK    3  A    between atoms: C2_4  and  O2_5 
REMARK    4  A    between atoms: C2_4  and  C3_7 
REMARK    5  A    between atoms: C3_7  and  O3_8 
REMARK    6  A    between atoms: C3_7  and  N1_10 
REMARK    7  A    between atoms: C7_14  and  C8_15 
ROOT
HETATM    1  C3  UNL     1       0.632   0.681   0.623  1.00  0.00     0.247 C 
ENDROOT
BRANCH   1   2
HETATM    2  C2  UNL     1       2.002   0.012   0.739  1.00  0.00     0.190 C 
BRANCH   2   3
HETATM    3  C1  UNL     1       2.656   0.024  -0.649  1.00  0.00     0.200 C 
BRANCH   3   4
HETATM    4  O1  UNL     1       3.934  -0.488  -0.578  1.00  0.00    -0.398 OA
ATOM      5  H1  UNL     1       4.339  -0.481  -1.437  1.00  0.00     0.209 HD
ENDBRANCH   3   4
ENDBRANCH   2   3
BRANCH   2   6
HETATM    6  O2  UNL     1       2.791   0.801   1.575  1.00  0.00    -0.389 OA
ATOM      7  H2  UNL     1       2.386   0.794   2.434  1.00  0.00     0.210 HD
ENDBRANCH   2   6
ENDBRANCH   1   2
BRANCH   1   8
HETATM    8  O3  UNL     1       0.096   0.937   1.862  1.00  0.00    -0.374 OA
ATOM      9  H3  UNL     1      -0.755   1.353   1.790  1.00  0.00     0.212 HD
ENDBRANCH   1   8
BRANCH   1  10
HETATM   10  N1  UNL     1      -0.172  -0.119  -0.237  1.00  0.00    -0.381 N 
HETATM   11  C4  UNL     1      -0.467  -1.431   0.191  1.00  0.00     0.120 C 
HETATM   12  C5  UNL     1      -1.990  -1.498   0.109  1.00  0.00     0.021 C 
HETATM   13  C6  UNL     1      -2.264  -0.604  -1.095  1.00  0.00     0.027 C 
HETATM   14  C7  UNL     1      -1.259   0.505  -0.870  1.00  0.00     0.091 C 
BRANCH  14  15
HETATM   15  C8  UNL     1      -1.887   1.656  -0.107  1.00  0.00     0.110 C 
HETATM   16 BR1  UNL     1      -3.342   2.326  -1.219  1.00  0.00    -0.094 Br
ENDBRANCH  14  15
ENDBRANCH   1  10
TORSDOF 7
