REMARK  8 active torsions:
REMARK  status: ('A' for Active; 'I' for Inactive)
REMARK    1  A    between atoms: O1_1  and  C1_3 
REMARK    2  A    between atoms: C1_3  and  C2_4 
REMARK    3  A    between atoms: C2_4  and  C3_5 
REMARK    4  A    between atoms: C3_5  and  N1_6 
REMARK    5  A    between atoms: C5_8  and  C6_9 
REMARK    6  A    between atoms: C7_10  and  C8_11 
REMARK    7  A    between atoms: C9_14  and  C10_15 
REMARK    8  A    between atoms: C10_15  and  O3_16 
ROOT
HETATM    1  N1  UNL     1       0.854   0.132  -0.177  1.00  0.00     0.094 N 
HETATM    2  C4  UNL     1      -0.226   0.904   0.348  1.00  0.00     0.317 C 
HETATM    3  C5  UNL     1      -1.595   0.383   0.283  1.00  0.00     0.229 C 
HETATM    4  O2  UNL     1      -1.818  -0.449  -0.809  1.00  0.00    -0.363 OA
HETATM    5  C9  UNL     1      -0.934  -1.528  -0.568  1.00  0.00     0.175 C 
HETATM    6  C11 UNL     1       0.469  -1.079  -0.846  1.00  0.00     0.306 C 
ENDROOT
BRANCH   1   7
HETATM    7  C3  UNL     1       1.800  -0.129   0.898  1.00  0.00     0.275 C 
BRANCH   7   8
HETATM    8  C2  UNL     1       3.130  -0.644   0.429  1.00  0.00     0.056 C 
BRANCH   8   9
HETATM    9  C1  UNL     1       3.799   0.405  -0.490  1.00  0.00     0.165 C 
BRANCH   9  10
HETATM   10  O1  UNL     1       3.970   1.598   0.206  1.00  0.00    -0.401 OA
ATOM     11  H1  UNL     1       4.381   2.242  -0.358  1.00  0.00     0.209 HD
ENDBRANCH   9  10
ENDBRANCH   8   9
ENDBRANCH   7   8
ENDBRANCH   1   7
BRANCH   3  12
HETATM   12  C6  UNL     1      -2.559   1.495   0.306  1.00  0.00    -0.071 C 
HETATM   13  C7  UNL     1      -3.353   2.400   0.321  1.00  0.00    -0.089 C 
BRANCH  13  14
HETATM   14  C8  UNL     1      -4.335   3.500   0.352  1.00  0.00     0.208 C 
HETATM   15 CL1  UNL     1      -4.631   4.018   2.032  1.00  0.00    -0.117 Cl
ENDBRANCH  13  14
ENDBRANCH   3  12
BRANCH   5  16
HETATM   16  C10 UNL     1      -1.361  -2.744  -1.293  1.00  0.00     0.197 C 
BRANCH  16  17
HETATM   17  O3  UNL     1      -0.473  -3.780  -1.040  1.00  0.00    -0.398 OA
ATOM     18  H3  UNL     1      -0.747  -4.561  -1.506  1.00  0.00     0.209 HD
ENDBRANCH  16  17
ENDBRANCH   5  16
TORSDOF 8
