REMARK  5 active torsions:
REMARK  status: ('A' for Active; 'I' for Inactive)
REMARK    1  A    between atoms: C3_9  and  N4_10 
REMARK    2  A    between atoms: N4_10  and  C4_12 
REMARK    3  A    between atoms: C4_12  and  C5_13 
REMARK    4  A    between atoms: C5_13  and  C6_14 
REMARK    5  A    between atoms: C6_14  and  N5_15 
ROOT
HETATM    1  C4  UNL     1       1.906  -1.023  -0.499  1.00  0.00     0.123 C 
ENDROOT
BRANCH   1   2
HETATM    2  N4  UNL     1       2.447   0.275  -0.593  1.00  0.00    -0.374 N 
ATOM      3  H4  UNL     1       1.823   0.985  -0.976  1.00  0.00     0.161 HD
BRANCH   2   4
HETATM    4  C3  UNL     1       3.592   0.679  -0.270  1.00  0.00     0.141 A 
HETATM    5  C2  UNL     1       4.637  -0.015   0.262  1.00  0.00     0.068 A 
HETATM    6  C1  UNL     1       4.732  -1.458   0.622  1.00  0.00     0.074 C 
HETATM    7  N1  UNL     1       5.644   0.896   0.421  1.00  0.00    -0.287 N 
HETATM    8  N2  UNL     1       5.238   2.075   0.010  1.00  0.00    -0.241 N 
ATOM      9  H1  UNL     1       6.568   0.691   0.800  1.00  0.00     0.188 HD
HETATM   10  N3  UNL     1       4.008   1.996  -0.415  1.00  0.00    -0.270 N 
ATOM     11  H2  UNL     1       5.801   2.926   0.021  1.00  0.00     0.208 HD
ATOM     12  H3  UNL     1       3.451   2.765  -0.788  1.00  0.00     0.190 HD
ENDBRANCH   2   4
ENDBRANCH   1   2
BRANCH   1  13
HETATM   13  C5  UNL     1       0.394  -0.902  -0.741  1.00  0.00     0.050 C 
BRANCH  13  14
HETATM   14  C6  UNL     1      -0.228   0.005   0.300  1.00  0.00     0.274 C 
BRANCH  14  15
HETATM   15  N5  UNL     1      -1.642   0.075   0.015  1.00  0.00     0.090 N 
HETATM   16  C7  UNL     1      -2.364   0.908   0.933  1.00  0.00     0.274 C 
HETATM   17  C8  UNL     1      -3.361   1.728   0.135  1.00  0.00     0.057 C 
HETATM   18  C9  UNL     1      -4.640   0.941  -0.058  1.00  0.00     0.234 C 
HETATM   19  N6  UNL     1      -4.338  -0.210  -0.856  1.00  0.00    -0.073 N 
HETATM   20  C10 UNL     1      -3.716  -1.237  -0.043  1.00  0.00     0.262 C 
ATOM     21  H62 UNL     1      -5.161  -0.560  -1.346  1.00  0.00     0.277 HD
ATOM     22  H61 UNL     1      -3.769   0.029  -1.668  1.00  0.00     0.277 HD
HETATM   23  C11 UNL     1      -2.236  -1.179  -0.267  1.00  0.00     0.299 C 
ENDBRANCH  14  15
ENDBRANCH  13  14
ENDBRANCH   1  13
TORSDOF 5
