REMARK  7 active torsions:
REMARK  status: ('A' for Active; 'I' for Inactive)
REMARK    1  A    between atoms: C3_3  and  C4_4 
REMARK    2  A    between atoms: C5_5  and  C6_6 
REMARK    3  A    between atoms: C6_6  and  N1_7 
REMARK    4  A    between atoms: C8_9  and  O1_10 
REMARK    5  A    between atoms: C9_12  and  O2_13 
REMARK    6  A    between atoms: C10_15  and  C11_16 
REMARK    7  A    between atoms: C11_16  and  O3_17 
ROOT
HETATM    1  N1  UNL     1      -0.519   0.298   0.264  1.00  0.00    -0.387 N 
HETATM    2  C7  UNL     1      -0.717  -0.474  -0.882  1.00  0.00     0.156 C 
HETATM    3  C8  UNL     1      -1.613  -1.667  -0.508  1.00  0.00     0.165 C 
HETATM    4  C9  UNL     1      -2.911  -1.012  -0.076  1.00  0.00     0.156 C 
HETATM    5  C10 UNL     1      -2.659  -0.402   1.285  1.00  0.00     0.058 C 
HETATM    6  C12 UNL     1      -1.217   0.001   1.458  1.00  0.00     0.131 C 
ENDROOT
BRANCH   1   7
HETATM    7  C6  UNL     1       0.056   1.567   0.144  1.00  0.00     0.085 C 
BRANCH   7   8
HETATM    8  C5  UNL     1       1.472   1.604  -0.175  1.00  0.00     0.017 C 
HETATM    9  C4  UNL     1       2.283   0.583  -0.301  1.00  0.00     0.001 C 
BRANCH   9  10
HETATM   10  C3  UNL     1       3.699   0.753  -0.631  1.00  0.00    -0.004 C 
HETATM   11  C2  UNL     1       4.472  -0.283  -0.744  1.00  0.00    -0.031 C 
HETATM   12  C1  UNL     1       5.917  -0.211  -1.075  1.00  0.00     0.036 C 
ENDBRANCH   9  10
ENDBRANCH   7   8
ENDBRANCH   1   7
BRANCH   3  13
HETATM   13  O1  UNL     1      -1.760  -2.551  -1.552  1.00  0.00    -0.391 OA
ATOM     14  H1  UNL     1      -2.313  -3.288  -1.321  1.00  0.00     0.210 HD
ENDBRANCH   3  13
BRANCH   5  15
HETATM   15  C11 UNL     1      -3.571   0.756   1.589  1.00  0.00     0.173 C 
BRANCH  15  16
HETATM   16  O3  UNL     1      -3.417   1.783   0.656  1.00  0.00    -0.400 OA
ATOM     17  H3  UNL     1      -3.993   2.514   0.848  1.00  0.00     0.209 HD
ENDBRANCH  15  16
ENDBRANCH   5  15
BRANCH   4  18
HETATM   18  O2  UNL     1      -3.914  -1.937  -0.119  1.00  0.00    -0.392 OA
ATOM     19  H2  UNL     1      -4.727  -1.527   0.152  1.00  0.00     0.210 HD
ENDBRANCH   4  18
TORSDOF 7
