REMARK  6 active torsions:
REMARK  status: ('A' for Active; 'I' for Inactive)
REMARK    1  A    between atoms: C2_2  and  C3_3 
REMARK    2  A    between atoms: C2_2  and  N2_11 
REMARK    3  A    between atoms: C9_13  and  C10_14 
REMARK    4  A    between atoms: C10_14  and  O1_15 
REMARK    5  A    between atoms: C11_17  and  C12_18 
REMARK    6  A    between atoms: C12_18  and  O2_19 
ROOT
HETATM    1  N2  UNL     1      -0.779  -0.042  -0.268  1.00  0.00     0.100 N 
HETATM    2  C8  UNL     1      -1.278  -1.293   0.177  1.00  0.00     0.282 C 
HETATM    3  C9  UNL     1      -2.472  -0.642   0.782  1.00  0.00     0.073 C 
HETATM    4  C11 UNL     1      -2.039   0.614   0.100  1.00  0.00     0.254 C 
ENDROOT
BRANCH   1   5
HETATM    5  C2  UNL     1       0.306   0.566   0.455  1.00  0.00     0.223 C 
HETATM    6  C1  UNL     1       0.687   1.827  -0.308  1.00  0.00     0.043 C 
BRANCH   5   7
HETATM    7  C3  UNL     1       1.477  -0.347   0.654  1.00  0.00     0.022 C 
HETATM    8  C4  UNL     1       2.104  -0.826  -0.621  1.00  0.00     0.034 C 
HETATM    9  C5  UNL     1       3.446  -1.457  -0.224  1.00  0.00     0.232 C 
HETATM   10  N1  UNL     1       4.383  -0.469   0.220  1.00  0.00    -0.075 N 
HETATM   11  C6  UNL     1       3.689   0.780   0.546  1.00  0.00     0.232 C 
ATOM     12  H12 UNL     1       4.949  -0.804   1.000  1.00  0.00     0.277 HD
ATOM     13  H11 UNL     1       5.131  -0.323  -0.458  1.00  0.00     0.277 HD
HETATM   14  C7  UNL     1       2.527   0.430   1.454  1.00  0.00     0.034 C 
ENDBRANCH   5   7
ENDBRANCH   1   5
BRANCH   4  15
HETATM   15  C12 UNL     1      -2.814   1.028  -1.111  1.00  0.00     0.200 C 
BRANCH  15  16
HETATM   16  O2  UNL     1      -4.007   1.646  -0.677  1.00  0.00    -0.399 OA
ATOM     17  H2  UNL     1      -4.499   1.909  -1.446  1.00  0.00     0.209 HD
ENDBRANCH  15  16
ENDBRANCH   4  15
BRANCH   3  18
HETATM   18  C10 UNL     1      -3.754  -1.263   0.291  1.00  0.00     0.172 C 
BRANCH  18  19
HETATM   19  O1  UNL     1      -4.890  -0.687   0.830  1.00  0.00    -0.400 OA
ATOM     20  H1  UNL     1      -5.698  -1.079   0.520  1.00  0.00     0.209 HD
ENDBRANCH  18  19
ENDBRANCH   3  18
TORSDOF 6
