REMARK  2 active torsions:
REMARK  status: ('A' for Active; 'I' for Inactive)
REMARK    1  A    between atoms: C5_5  and  N1_6 
REMARK    2  A    between atoms: N1_6  and  C6_8 
ROOT
HETATM    1  C1  UNL     1      -3.823   0.500  -0.620  1.00  0.00     0.038 C 
HETATM    2  C2  UNL     1      -3.663  -0.876   0.120  1.00  0.00     0.083 C 
HETATM    3  C3  UNL     1      -2.356  -0.900   0.615  1.00  0.00    -0.181 C 
HETATM    4  C4  UNL     1      -1.020  -0.879   1.055  1.00  0.00     0.108 C 
HETATM    5  C5  UNL     1      -0.410   0.453   0.518  1.00  0.00     0.110 C 
HETATM    6  C11 UNL     1      -1.474   1.416   0.025  1.00  0.00    -0.005 C 
HETATM    7  C12 UNL     1      -2.455   1.099  -0.966  1.00  0.00    -0.028 C 
ENDROOT
BRANCH   5   8
HETATM    8  N1  UNL     1       0.584   0.253  -0.465  1.00  0.00    -0.409 N 
ATOM      9  H1  UNL     1       0.457   0.591  -1.419  1.00  0.00     0.154 HD
BRANCH   8  10
HETATM   10  C6  UNL     1       1.766  -0.435  -0.081  1.00  0.00     0.077 C 
HETATM   11  C7  UNL     1       2.841  -0.378  -1.157  1.00  0.00     0.024 C 
HETATM   12  C8  UNL     1       4.100  -0.785  -0.413  1.00  0.00     0.002 C 
HETATM   13  C9  UNL     1       3.953   0.002   0.870  1.00  0.00     0.002 C 
HETATM   14  C10 UNL     1       2.475   0.187   1.096  1.00  0.00     0.024 C 
ENDBRANCH   8  10
ENDBRANCH   5   8
TORSDOF 2
