REMARK  3 active torsions:
REMARK  status: ('A' for Active; 'I' for Inactive)
REMARK    1  A    between atoms: C2_2  and  C4_4 
REMARK    2  A    between atoms: C4_4  and  C5_6 
REMARK    3  A    between atoms: C6_7  and  C7_8 
ROOT
HETATM    1  C5  UNL     1       1.168   0.327   0.068  1.00  0.00     0.051 C 
HETATM    2  C6  UNL     1       0.086   1.116   0.076  1.00  0.00    -0.018 C 
ENDROOT
BRANCH   2   3
HETATM    3  C7  UNL     1      -1.231   0.540   0.278  1.00  0.00     0.008 C 
HETATM    4  C8  UNL     1      -1.185  -0.971   0.492  1.00  0.00     0.008 C 
HETATM    5  C9  UNL     1      -2.579  -1.522   0.607  1.00  0.00     0.001 C 
HETATM    6  C10 UNL     1      -3.587  -0.425   0.801  1.00  0.00     0.000 C 
HETATM    7  C11 UNL     1      -3.593   0.584  -0.298  1.00  0.00     0.001 C 
HETATM    8  C12 UNL     1      -2.203   0.773  -0.857  1.00  0.00     0.008 C 
ENDBRANCH   2   3
BRANCH   1   9
HETATM    9  C4  UNL     1       2.494   0.858  -0.130  1.00  0.00     0.176 C 
HETATM   10  O1  UNL     1       2.653   2.115  -0.304  1.00  0.00    -0.288 OA
BRANCH   9  11
HETATM   11  C2  UNL     1       3.657   0.017  -0.139  1.00  0.00    -0.021 C 
HETATM   12  C1  UNL     1       3.578  -1.279   0.032  1.00  0.00     0.022 C 
HETATM   13  C3  UNL     1       4.994   0.672  -0.353  1.00  0.00     0.051 C 
ENDBRANCH   9  11
ENDBRANCH   1   9
TORSDOF 3
