REMARK  2 active torsions:
REMARK  status: ('A' for Active; 'I' for Inactive)
REMARK    1  A    between atoms: C4_4  and  N1_5 
REMARK    2  A    between atoms: N1_5  and  C5_8 
ROOT
HETATM    1  N1  UNL     1       0.015  -0.175   0.771  1.00  0.00    -0.067 N 
ATOM      2  H11 UNL     1       0.276   0.458   1.527  1.00  0.00     0.278 HD
ATOM      3  H12 UNL     1      -0.201  -1.011   1.314  1.00  0.00     0.278 HD
ENDROOT
BRANCH   1   4
HETATM    4  C4  UNL     1       1.142  -0.414  -0.106  1.00  0.00     0.186 C 
HETATM    5  C3  UNL     1       1.957  -1.542   0.360  1.00  0.00     0.033 C 
HETATM    6  C2  UNL     1       3.419  -1.478   0.133  1.00  0.00     0.002 C 
HETATM    7  C1  UNL     1       3.999  -0.176  -0.276  1.00  0.00     0.000 C 
HETATM    8  C12 UNL     1       3.068   0.712  -1.047  1.00  0.00     0.002 C 
HETATM    9  C11 UNL     1       1.879   0.924  -0.148  1.00  0.00     0.033 C 
ENDBRANCH   1   4
BRANCH   1  10
HETATM   10  C5  UNL     1      -1.151   0.302   0.093  1.00  0.00     0.186 C 
HETATM   11  C6  UNL     1      -1.965  -0.774  -0.551  1.00  0.00     0.033 C 
HETATM   12  C7  UNL     1      -3.270  -0.107  -1.010  1.00  0.00     0.002 C 
HETATM   13  C8  UNL     1      -4.061   0.215   0.223  1.00  0.00     0.000 C 
HETATM   14  C9  UNL     1      -3.258   0.797   1.348  1.00  0.00     0.002 C 
HETATM   15  C10 UNL     1      -1.909   1.296   0.900  1.00  0.00     0.033 C 
ENDBRANCH   1  10
TORSDOF 2
