REMARK  2 active torsions:
REMARK  status: ('A' for Active; 'I' for Inactive)
REMARK    1  A    between atoms: C5_5  and  N1_6 
REMARK    2  A    between atoms: N1_6  and  C6_8 
ROOT
HETATM    1  C1  UNL     1      -2.604  -0.453   0.458  1.00  0.00     0.000 C 
HETATM    2  C2  UNL     1      -2.672   0.832  -0.292  1.00  0.00     0.000 C 
HETATM    3  C3  UNL     1      -1.708   1.884   0.159  1.00  0.00     0.002 C 
HETATM    4  C4  UNL     1      -0.269   1.528  -0.168  1.00  0.00     0.024 C 
HETATM    5  C5  UNL     1       0.123   0.250   0.519  1.00  0.00     0.077 C 
HETATM    6  C9  UNL     1      -0.234  -0.975  -0.263  1.00  0.00     0.024 C 
HETATM    7  C10 UNL     1      -1.646  -1.388  -0.216  1.00  0.00     0.002 C 
ENDROOT
BRANCH   5   8
HETATM    8  N1  UNL     1       1.442   0.160   0.952  1.00  0.00    -0.413 N 
ATOM      9  H1  UNL     1       1.609   0.062   1.953  1.00  0.00     0.154 HD
BRANCH   8  10
HETATM   10  C6  UNL     1       2.539   0.195   0.116  1.00  0.00     0.077 A 
HETATM   11  C7  UNL     1       2.934  -0.717  -0.939  1.00  0.00     0.027 A 
HETATM   12  C8  UNL     1       3.583  -0.921   0.377  1.00  0.00     0.027 A 
ENDBRANCH   8  10
ENDBRANCH   5   8
TORSDOF 2
