REMARK  1 active torsions:
REMARK  status: ('A' for Active; 'I' for Inactive)
REMARK    1  A    between atoms: N1_1  and  N2_4 
ROOT
HETATM    1  N2  UNL     1       1.602  -0.234   0.264  1.00  0.00    -0.293 N 
HETATM    2  C1  UNL     1       0.856   0.830   0.802  1.00  0.00     0.087 C 
HETATM    3  C2  UNL     1       0.091   1.644  -0.187  1.00  0.00     0.046 C 
HETATM    4  C3  UNL     1      -1.392   1.588  -0.008  1.00  0.00     0.005 C 
HETATM    5  C4  UNL     1      -1.987   0.240  -0.005  1.00  0.00     0.001 C 
HETATM    6  C5  UNL     1      -1.216  -0.826  -0.690  1.00  0.00     0.005 C 
HETATM    7  C6  UNL     1      -0.442  -1.603   0.361  1.00  0.00     0.046 C 
HETATM    8  C7  UNL     1       1.030  -1.497   0.154  1.00  0.00     0.087 C 
ENDROOT
BRANCH   1   9
HETATM    9  N1  UNL     1       2.707   0.060  -0.461  1.00  0.00    -0.340 N 
ATOM     10  H12 UNL     1       3.126   0.986  -0.380  1.00  0.00     0.177 HD
ATOM     11  H11 UNL     1       3.248  -0.712  -0.851  1.00  0.00     0.177 HD
ENDBRANCH   1   9
TORSDOF 1
