REMARK  1 active torsions:
REMARK  status: ('A' for Active; 'I' for Inactive)
REMARK    1  A    between atoms: N1_1  and  C1_5 
ROOT
HETATM    1  C1  UNL     1      -1.326  -0.555  -0.636  1.00  0.00     0.188 C 
HETATM    2  C2  UNL     1      -1.779   0.913  -0.543  1.00  0.00     0.033 C 
HETATM    3  C3  UNL     1      -0.594   1.667   0.082  1.00  0.00     0.007 C 
HETATM    4  C4  UNL     1       0.307   0.601   0.496  1.00  0.00    -0.008 C 
HETATM    5  C5  UNL     1       1.765   0.776   0.379  1.00  0.00     0.005 C 
HETATM    6  C6  UNL     1       2.228  -0.689   0.292  1.00  0.00     0.001 C 
HETATM    7  C7  UNL     1       0.995  -1.482  -0.175  1.00  0.00     0.007 C 
HETATM    8  C8  UNL     1       0.125  -0.405  -0.665  1.00  0.00     0.020 C 
ENDROOT
BRANCH   1   9
HETATM    9  N1  UNL     1      -1.794  -1.233   0.553  1.00  0.00    -0.075 N 
ATOM     10  H13 UNL     1      -1.492  -0.778   1.414  1.00  0.00     0.274 HD
ATOM     11  H12 UNL     1      -2.799  -1.136   0.696  1.00  0.00     0.274 HD
ATOM     12  H11 UNL     1      -1.494  -2.206   0.491  1.00  0.00     0.274 HD
ENDBRANCH   1   9
TORSDOF 1
