REMARK  0 active torsions:
REMARK  status: ('A' for Active; 'I' for Inactive)
ROOT
HETATM    1  C1  UNL     1      -2.103   0.418  -0.519  1.00  0.00     0.002 C 
HETATM    2  C2  UNL     1      -2.262  -0.648   0.540  1.00  0.00     0.002 C 
HETATM    3  C3  UNL     1      -0.919  -0.668   1.235  1.00  0.00     0.039 C 
HETATM    4  C4  UNL     1       0.066  -0.209   0.226  1.00  0.00     0.126 C 
HETATM    5  C5  UNL     1      -0.671   0.310  -0.972  1.00  0.00     0.039 C 
HETATM    6  C6  UNL     1       1.034   0.832   0.798  1.00  0.00     0.040 C 
HETATM    7  C7  UNL     1       2.039   0.899  -0.335  1.00  0.00     0.030 C 
HETATM    8  C8  UNL     1       1.994  -0.491  -0.923  1.00  0.00     0.233 C 
HETATM    9  N1  UNL     1       1.014  -1.243  -0.180  1.00  0.00    -0.066 N 
ATOM     10  H11 UNL     1       0.603  -2.028  -0.684  1.00  0.00     0.278 HD
ATOM     11  H12 UNL     1       1.392  -1.803   0.584  1.00  0.00     0.278 HD
ENDROOT
TORSDOF 0
