REMARK  0 active torsions:
REMARK  status: ('A' for Active; 'I' for Inactive)
ROOT
HETATM    1  C1  UNL     1       1.826  -0.399   0.020  1.00  0.00     0.002 C 
HETATM    2  C2  UNL     1       1.272   0.743  -0.767  1.00  0.00     0.002 C 
HETATM    3  C3  UNL     1       0.455   1.707   0.031  1.00  0.00     0.033 C 
HETATM    4  C4  UNL     1      -0.701   1.081   0.736  1.00  0.00     0.186 C 
HETATM    5  C5  UNL     1      -1.739   0.512  -0.187  1.00  0.00     0.035 C 
HETATM    6  C6  UNL     1      -1.455  -0.956  -0.190  1.00  0.00     0.035 C 
HETATM    7  C7  UNL     1      -0.401  -1.164   0.887  1.00  0.00     0.186 C 
HETATM    8  C8  UNL     1       0.873  -1.536   0.213  1.00  0.00     0.033 C 
HETATM    9  N1  UNL     1      -0.326   0.042   1.648  1.00  0.00    -0.067 N 
ATOM     10  H11 UNL     1      -0.880   0.025   2.505  1.00  0.00     0.278 HD
ATOM     11  H12 UNL     1       0.578   0.192   2.096  1.00  0.00     0.278 HD
ENDROOT
TORSDOF 0
