REMARK  4 active torsions:
REMARK  status: ('A' for Active; 'I' for Inactive)
REMARK    1  A    between atoms: N1_2  and  C2_4 
REMARK    2  A    between atoms: N2_5  and  C3_7 
REMARK    3  A    between atoms: N3_8  and  C4_10 
REMARK    4  A    between atoms: C4_10  and  C5_11 
ROOT
HETATM    1  C2  UNL     1      -1.474   0.902   0.601  1.00  0.00     0.176 C 
HETATM    2  N2  UNL     1      -0.294   1.189   1.018  1.00  0.00    -0.349 N 
ATOM      3  H2  UNL     1      -0.014   2.170   1.008  1.00  0.00     0.167 HD
ENDROOT
BRANCH   2   4
HETATM    4  C3  UNL     1       0.642   0.247   1.489  1.00  0.00     0.176 C 
HETATM    5  N3  UNL     1       1.616  -0.178   0.781  1.00  0.00    -0.385 N 
ATOM      6  H3  UNL     1       2.274  -0.861   1.156  1.00  0.00     0.160 HD
BRANCH   5   7
HETATM    7  C4  UNL     1       1.764   0.328  -0.558  1.00  0.00     0.131 C 
BRANCH   7   8
HETATM    8  C5  UNL     1       3.162   0.148  -1.102  1.00  0.00     0.104 C 
HETATM    9 BR1  UNL     1       3.697  -1.689  -1.172  1.00  0.00    -0.095 Br
ENDBRANCH   7   8
ENDBRANCH   5   7
ENDBRANCH   2   4
BRANCH   1  10
HETATM   10  N1  UNL     1      -1.874  -0.458   0.612  1.00  0.00    -0.390 N 
HETATM   11  C1  UNL     1      -3.262  -0.834   0.758  1.00  0.00     0.147 C 
ATOM     12  H1  UNL     1      -1.167  -1.187   0.515  1.00  0.00     0.159 HD
ENDBRANCH   1  10
TORSDOF 4
