REMARK  3 active torsions:
REMARK  status: ('A' for Active; 'I' for Inactive)
REMARK    1  A    between atoms: N1_2  and  C3_5 
REMARK    2  A    between atoms: C3_5  and  C4_6 
REMARK    3  A    between atoms: C4_6  and  N2_7 
ROOT
HETATM    1  N2  UNL     1       1.369   0.554   0.236  1.00  0.00     0.117 N 
HETATM    2  C5  UNL     1       2.380   0.066   1.148  1.00  0.00     0.302 C 
HETATM    3  C6  UNL     1       3.583   0.016   0.207  1.00  0.00     0.264 C 
HETATM    4  N3  UNL     1       3.030  -0.513  -1.045  1.00  0.00    -0.047 N 
ATOM      5  H31 UNL     1       2.978  -1.530  -1.107  1.00  0.00     0.279 HD
ATOM      6  H32 UNL     1       3.624  -0.405  -1.867  1.00  0.00     0.279 HD
HETATM    7  C7  UNL     1       1.763   0.178  -1.098  1.00  0.00     0.502 C 
ENDROOT
BRANCH   1   8
HETATM    8  C4  UNL     1       0.054   0.003   0.577  1.00  0.00     0.304 C 
BRANCH   8   9
HETATM    9  C3  UNL     1      -0.936   0.717  -0.295  1.00  0.00     0.287 C 
BRANCH   9  10
HETATM   10  N1  UNL     1      -2.304   0.317  -0.173  1.00  0.00     0.008 N 
HETATM   11  C1  UNL     1      -2.714  -0.672  -1.153  1.00  0.00     0.294 C 
HETATM   12  C2  UNL     1      -2.735  -0.121   1.115  1.00  0.00     0.294 C 
HETATM   13 CL1  UNL     1      -3.260   1.748  -0.557  1.00  0.00     0.117 Cl
ENDBRANCH   9  10
ENDBRANCH   8   9
ENDBRANCH   1   8
TORSDOF 3
