REMARK  3 active torsions:
REMARK  status: ('A' for Active; 'I' for Inactive)
REMARK    1  A    between atoms: N1_2  and  C4_5 
REMARK    2  A    between atoms: C4_5  and  C5_6 
REMARK    3  A    between atoms: C9_13  and  N3_14 
ROOT
HETATM    1  C5  UNL     1       0.548   0.139  -0.282  1.00  0.00     0.068 C 
HETATM    2  C6  UNL     1       0.665   1.225   0.761  1.00  0.00     0.240 C 
HETATM    3  N2  UNL     1       2.039   1.306   1.281  1.00  0.00    -0.075 N 
ATOM      4  H21 UNL     1       2.231   0.597   1.988  1.00  0.00     0.277 HD
ATOM      5  H22 UNL     1       2.188   2.130   1.864  1.00  0.00     0.277 HD
HETATM    6  C7  UNL     1       2.964   1.241   0.161  1.00  0.00     0.234 C 
HETATM    7  C8  UNL     1       3.040  -0.201  -0.267  1.00  0.00     0.060 C 
HETATM    8  C9  UNL     1       1.708  -0.835  -0.016  1.00  0.00     0.192 C 
ENDROOT
BRANCH   1   9
HETATM    9  C4  UNL     1      -0.677  -0.678  -0.095  1.00  0.00     0.244 C 
BRANCH   9  10
HETATM   10  N1  UNL     1      -1.932  -0.062  -0.155  1.00  0.00    -0.078 N 
HETATM   11  C1  UNL     1      -2.621  -0.342   1.113  1.00  0.00     0.271 C 
HETATM   12  C2  UNL     1      -2.783  -0.667  -1.177  1.00  0.00     0.271 C 
HETATM   13  C3  UNL     1      -1.980   1.351  -0.343  1.00  0.00     0.271 C 
ENDBRANCH   9  10
ENDBRANCH   1   9
BRANCH   8  14
HETATM   14  N3  UNL     1       1.537  -2.000  -0.852  1.00  0.00    -0.074 N 
ATOM     15  H33 UNL     1       0.624  -2.438  -0.729  1.00  0.00     0.274 HD
ATOM     16  H32 UNL     1       1.447  -1.761  -1.840  1.00  0.00     0.274 HD
ATOM     17  H31 UNL     1       2.306  -2.646  -0.676  1.00  0.00     0.274 HD
ENDBRANCH   8  14
TORSDOF 3
