REMARK  7 active torsions:
REMARK  status: ('A' for Active; 'I' for Inactive)
REMARK    1  A    between atoms: N1_2  and  C2_3 
REMARK    2  A    between atoms: N1_2  and  S1_28 
REMARK    3  A    between atoms: C3_6  and  N3_7 
REMARK       I    between atoms: N3_7  and  C4_9 
REMARK    4  A    between atoms: C4_9  and  C5_11 
REMARK    5  A    between atoms: C5_11  and  O2_12 
REMARK    6  A    between atoms: C6_18  and  O3_19 
REMARK    7  A    between atoms: C7_21  and  O4_22 
ROOT
HETATM    1  N3  UNL     1      -0.544   0.212   0.361  1.00  0.00    -0.311 N 
ATOM      2  H3  UNL     1      -0.828  -0.015  -0.592  1.00  0.00     0.170 HD
HETATM    3  C4  UNL     1      -1.570   0.418   1.300  1.00  0.00     0.279 C 
HETATM    4  O1  UNL     1      -1.288   0.698   2.484  1.00  0.00    -0.268 OA
ENDROOT
BRANCH   1   5
HETATM    5  C3  UNL     1       0.848   0.290   0.614  1.00  0.00     0.108 C 
HETATM    6  N2  UNL     1       1.816   0.099  -0.217  1.00  0.00    -0.338 N 
HETATM    7  C2  UNL     1       3.105   0.262   0.396  1.00  0.00     0.378 C 
ATOM      8  H2  UNL     1       1.681  -0.141  -1.199  1.00  0.00     0.164 HD
HETATM    9  N7  UNL     1       2.843   0.986   1.599  1.00  0.00    -0.034 N 
HETATM   10  C8  UNL     1       1.463   0.632   1.913  1.00  0.00     0.312 C 
ATOM     11  H72 UNL     1       3.507   0.809   2.353  1.00  0.00     0.281 HD
ATOM     12  H71 UNL     1       3.019   1.989   1.536  1.00  0.00     0.281 HD
BRANCH   7  13
HETATM   13  N1  UNL     1       3.887   1.125  -0.465  1.00  0.00    -0.169 NA
HETATM   14  C1  UNL     1       3.114   1.602  -1.596  1.00  0.00     0.133 C 
BRANCH  13  15
HETATM   15  S1  UNL     1       5.358   0.385  -0.958  1.00  0.00     0.210 S 
HETATM   16  C9  UNL     1       5.120  -1.029  -1.973  1.00  0.00     0.180 C 
HETATM   17  O5  UNL     1       6.256   1.355  -1.667  1.00  0.00    -0.211 OA
HETATM   18  O6  UNL     1       6.083  -0.059   0.289  1.00  0.00    -0.211 OA
ENDBRANCH  13  15
ENDBRANCH   7  13
ENDBRANCH   1   5
BRANCH   3  19
HETATM   19  C5  UNL     1      -3.012   0.324   0.965  1.00  0.00     0.261 C 
HETATM   20  N4  UNL     1      -3.369   1.272  -0.082  1.00  0.00    -0.076 NA
HETATM   21  N5  UNL     1      -4.552   0.958  -0.713  1.00  0.00    -0.244 N 
HETATM   22  N6  UNL     1      -5.374   0.095  -0.023  1.00  0.00    -0.094 NA
ATOM     23  H5  UNL     1      -4.802   1.338  -1.626  1.00  0.00     0.199 HD
HETATM   24  C6  UNL     1      -4.814  -1.198   0.222  1.00  0.00     0.266 C 
HETATM   25  C7  UNL     1      -3.316  -1.063   0.394  1.00  0.00     0.227 C 
BRANCH  19  26
HETATM   26  O2  UNL     1      -3.821   0.566   2.046  1.00  0.00    -0.363 OA
ATOM     27  H2  UNL     1      -4.744   0.506   1.831  1.00  0.00     0.212 HD
ENDBRANCH  19  26
BRANCH  24  28
HETATM   28  O3  UNL     1      -5.102  -2.091  -0.813  1.00  0.00    -0.375 OA
ATOM     29  H3  UNL     1      -4.730  -2.950  -0.650  1.00  0.00     0.211 HD
ENDBRANCH  24  28
BRANCH  25  30
HETATM   30  O4  UNL     1      -2.887  -2.011   1.291  1.00  0.00    -0.386 OA
ATOM     31  H4  UNL     1      -3.076  -2.872   0.937  1.00  0.00     0.210 HD
ENDBRANCH  25  30
ENDBRANCH   3  19
TORSDOF 7
