REMARK  9 active torsions:
REMARK  status: ('A' for Active; 'I' for Inactive)
REMARK    1  A    between atoms: N1_1  and  C1_4 
REMARK    2  A    between atoms: N3_8  and  C3_9 
REMARK    3  A    between atoms: C4_10  and  N4_11 
REMARK    4  A    between atoms: C5_15  and  O1_16 
REMARK    5  A    between atoms: C6_18  and  O2_19 
REMARK    6  A    between atoms: C7_21  and  N5_22 
REMARK    7  A    between atoms: C8_25  and  C9_26 
REMARK       I    between atoms: C9_26  and  N6_28 
REMARK    8  A    between atoms: N6_28  and  C10_30 
REMARK    9  A    between atoms: C10_30  and  C11_31 
ROOT
HETATM    1  C1  UNL     1      -1.106  -3.328   0.047  1.00  0.00     0.707 A 
HETATM    2  N2  UNL     1      -1.764  -2.168   0.128  1.00  0.00    -0.018 N 
ATOM      3  H2  UNL     1      -2.777  -2.069   0.195  1.00  0.00     0.203 HD
HETATM    4  C2  UNL     1      -0.892  -1.161   0.107  1.00  0.00     0.738 A 
HETATM    5  N3  UNL     1      -1.076   0.166   0.168  1.00  0.00    -0.153 N 
HETATM    6  C7  UNL     1       0.046   0.915   0.129  1.00  0.00     0.152 A 
HETATM    7  C8  UNL     1       1.293   0.327   0.031  1.00  0.00     0.162 A 
HETATM    8  N8  UNL     1       1.435  -1.009  -0.028  1.00  0.00    -0.256 N 
ATOM      9  H8  UNL     1       2.353  -1.447  -0.100  1.00  0.00     0.190 HD
HETATM   10  N9  UNL     1       0.324  -1.726   0.012  1.00  0.00    -0.004 N 
HETATM   11  N10 UNL     1       0.204  -3.051  -0.025  1.00  0.00    -0.096 N 
ATOM     12  H10 UNL     1       0.964  -3.727  -0.095  1.00  0.00     0.208 HD
ENDROOT
BRANCH   5  13
HETATM   13  C3  UNL     1      -2.314   0.835   0.264  1.00  0.00     0.174 C 
HETATM   14  C4  UNL     1      -3.595   0.072   0.315  1.00  0.00     0.240 C 
HETATM   15  C5  UNL     1      -4.227   1.337  -0.329  1.00  0.00     0.181 C 
HETATM   16  C6  UNL     1      -2.859   1.454  -1.039  1.00  0.00     0.175 C 
BRANCH  14  17
HETATM   17  N4  UNL     1      -4.190  -0.142   1.596  1.00  0.00    -0.070 N 
ATOM     18  H43 UNL     1      -3.510  -0.586   2.213  1.00  0.00     0.274 HD
ATOM     19  H42 UNL     1      -4.315   0.756   2.063  1.00  0.00     0.274 HD
ATOM     20  H41 UNL     1      -5.066  -0.664   1.631  1.00  0.00     0.274 HD
ENDBRANCH  14  17
BRANCH  15  21
HETATM   21  O1  UNL     1      -5.283   1.076  -1.160  1.00  0.00    -0.391 OA
ATOM     22  H1  UNL     1      -5.669   1.849  -1.554  1.00  0.00     0.210 HD
ENDBRANCH  15  21
BRANCH  16  23
HETATM   23  O2  UNL     1      -2.725   0.573  -2.108  1.00  0.00    -0.391 OA
ATOM     24  H2  UNL     1      -3.061   0.954  -2.911  1.00  0.00     0.210 HD
ENDBRANCH  16  23
ENDBRANCH   5  13
BRANCH   6  25
HETATM   25  N5  UNL     1       0.040   2.197   0.196  1.00  0.00    -0.383 N 
ATOM     26  H52 UNL     1      -0.880   2.631   0.268  1.00  0.00     0.157 HD
ATOM     27  H51 UNL     1       0.888   2.763   0.167  1.00  0.00     0.157 HD
ENDBRANCH   6  25
BRANCH   7  28
HETATM   28  C9  UNL     1       2.522   1.136  -0.013  1.00  0.00     0.273 C 
HETATM   29  O3  UNL     1       2.392   2.385   0.042  1.00  0.00    -0.266 OA
HETATM   30  N6  UNL     1       3.796   0.545  -0.113  1.00  0.00    -0.347 N 
ATOM     31  H6  UNL     1       3.883  -0.470  -0.156  1.00  0.00     0.163 HD
BRANCH  30  32
HETATM   32  C10 UNL     1       4.967   1.362  -0.154  1.00  0.00     0.222 C 
BRANCH  32  33
HETATM   33  C11 UNL     1       6.219   0.577  -0.260  1.00  0.00     0.248 C 
HETATM   34  N7  UNL     1       6.200  -0.833  -0.312  1.00  0.00    -0.061 NA
HETATM   35  O4  UNL     1       7.319   1.156  -0.305  1.00  0.00    -0.275 OA
ENDBRANCH  32  33
ENDBRANCH  30  32
ENDBRANCH   7  28
BRANCH   1  36
HETATM   36  N1  UNL     1      -1.578  -4.535   0.036  1.00  0.00    -0.233 N 
ATOM     37  H12 UNL     1      -2.574  -4.746   0.091  1.00  0.00     0.174 HD
ATOM     38  H11 UNL     1      -1.076  -5.421  -0.026  1.00  0.00     0.174 HD
ENDBRANCH   1  36
TORSDOF 9
