REMARK  7 active torsions:
REMARK  status: ('A' for Active; 'I' for Inactive)
REMARK       I    between atoms: C1_4  and  N3_6 
REMARK    1  A    between atoms: N3_6  and  C2_8 
REMARK    2  A    between atoms: C4_11  and  N4_12 
REMARK    3  A    between atoms: C4_11  and  C5_16 
REMARK       I    between atoms: C5_16  and  N5_18 
REMARK       I    between atoms: N6_20  and  C6_22 
REMARK       I    between atoms: C6_22  and  N8_27 
REMARK    4  A    between atoms: N7_23  and  O3_25 
REMARK    5  A    between atoms: N8_27  and  N9_29 
REMARK    6  A    between atoms: C7_32  and  O6_33 
REMARK    7  A    between atoms: C8_35  and  O7_36 
ROOT
HETATM    1  C2  UNL     1      -2.247   0.394   0.262  1.00  0.00     0.254 C 
HETATM    2  O1  UNL     1      -1.299  -0.390  -0.327  1.00  0.00    -0.361 OA
HETATM    3  C3  UNL     1      -0.107   0.217  -0.591  1.00  0.00     0.222 C 
HETATM    4  C4  UNL     1       0.569   0.823   0.621  1.00  0.00     0.253 C 
HETATM    5  C7  UNL     1      -0.425   1.509   1.550  1.00  0.00     0.199 C 
HETATM    6  C8  UNL     1      -1.716   1.679   0.830  1.00  0.00     0.198 C 
ENDROOT
BRANCH   4   7
HETATM    7  N4  UNL     1       1.507   1.769   0.201  1.00  0.00    -0.057 N 
ATOM      8  H43 UNL     1       2.178   1.381  -0.462  1.00  0.00     0.276 HD
ATOM      9  H42 UNL     1       1.096   2.477  -0.407  1.00  0.00     0.276 HD
ATOM     10  H41 UNL     1       1.962   2.177   1.017  1.00  0.00     0.276 HD
ENDBRANCH   4   7
BRANCH   4  11
HETATM   11  C5  UNL     1       1.236  -0.220   1.442  1.00  0.00     0.277 C 
HETATM   12  O2  UNL     1       0.501  -1.142   1.884  1.00  0.00    -0.269 OA
HETATM   13  N5  UNL     1       2.621  -0.137   1.685  1.00  0.00    -0.253 N 
HETATM   14  N6  UNL     1       3.529  -0.749   1.096  1.00  0.00    -0.126 N 
ATOM     15  H5  UNL     1       2.912   0.497   2.429  1.00  0.00     0.190 HD
HETATM   16  C6  UNL     1       3.394  -1.672   0.045  1.00  0.00     0.735 C 
ATOM     17  H6  UNL     1       4.480  -0.560   1.412  1.00  0.00     0.206 HD
HETATM   18  N7  UNL     1       3.143  -2.910   0.285  1.00  0.00    -0.096 N 
HETATM   19  N8  UNL     1       3.526  -1.307  -1.334  1.00  0.00    -0.069 N 
ATOM     20  H7  UNL     1       3.055  -3.542  -0.511  1.00  0.00     0.213 HD
ATOM     21  H8  UNL     1       2.714  -1.409  -1.943  1.00  0.00     0.212 HD
BRANCH  18  22
HETATM   22  O3  UNL     1       2.986  -3.435   1.539  1.00  0.00    -0.276 OA
ATOM     23  H3  UNL     1       2.801  -4.350   1.716  1.00  0.00     0.245 HD
ENDBRANCH  18  22
BRANCH  19  24
HETATM   24  N9  UNL     1       4.703  -0.822  -1.881  1.00  0.00    -0.024 N 
HETATM   25  O4  UNL     1       5.502  -0.227  -1.107  1.00  0.00    -0.516 OA
HETATM   26  O5  UNL     1       4.987  -0.985  -3.220  1.00  0.00    -0.516 OA
ENDBRANCH  19  24
ENDBRANCH   4  11
BRANCH   5  27
HETATM   27  O6  UNL     1      -0.652   0.773   2.706  1.00  0.00    -0.390 OA
ATOM     28  H6  UNL     1      -1.272   1.201   3.285  1.00  0.00     0.210 HD
ENDBRANCH   5  27
BRANCH   6  29
HETATM   29  O7  UNL     1      -1.639   2.616  -0.212  1.00  0.00    -0.389 OA
ATOM     30  H7  UNL     1      -1.303   3.429   0.147  1.00  0.00     0.210 HD
ENDBRANCH   6  29
BRANCH   1  31
HETATM   31  N3  UNL     1      -3.350   0.665  -0.630  1.00  0.00    -0.336 N 
HETATM   32  C1  UNL     1      -4.014  -0.397  -1.292  1.00  0.00     0.183 C 
HETATM   33  N1  UNL     1      -5.266  -0.299  -1.653  1.00  0.00    -0.374 N 
HETATM   34  N2  UNL     1      -3.372  -1.619  -1.601  1.00  0.00    -0.064 NA
ATOM     35  H12 UNL     1      -5.744  -1.064  -2.130  1.00  0.00     0.158 HD
ATOM     36  H11 UNL     1      -5.729   0.582  -1.430  1.00  0.00     0.158 HD
ATOM     37  H3  UNL     1      -3.653   1.627  -0.784  1.00  0.00     0.164 HD
ENDBRANCH   1  31
TORSDOF 7
