REMARK  8 active torsions:
REMARK  status: ('A' for Active; 'I' for Inactive)
REMARK    1  A    between atoms: O1_2  and  C2_3 
REMARK    2  A    between atoms: C2_3  and  C3_4 
REMARK    3  A    between atoms: C4_9  and  C5_10 
REMARK    4  A    between atoms: C5_10  and  O4_12 
REMARK    5  A    between atoms: C7_14  and  O5_15 
REMARK       I    between atoms: N3_20  and  C9_21 
REMARK       I    between atoms: C9_21  and  N4_23 
REMARK    6  A    between atoms: N4_23  and  N5_25 
REMARK    7  A    between atoms: N5_25  and  N6_26 
REMARK    8  A    between atoms: C10_30  and  O7_31 
ROOT
HETATM    1  C2  UNL     1      -0.993  -1.283  -0.001  1.00  0.00     0.267 C 
HETATM    2  N1  UNL     1      -1.772  -0.212  -0.352  1.00  0.00    -0.370 N 
ATOM      3  H1  UNL     1      -2.197  -0.222  -1.279  1.00  0.00     0.157 HD
HETATM    4  C4  UNL     1      -2.028   0.891   0.463  1.00  0.00     0.144 C 
HETATM    5  C7  UNL     1      -0.940   1.418   1.315  1.00  0.00     0.213 C 
HETATM    6  C8  UNL     1       0.405   1.261   0.783  1.00  0.00     0.151 A 
HETATM    7  N2  UNL     1       1.508   1.917   0.714  1.00  0.00    -0.259 N 
ATOM      8  H2  UNL     1       1.786   2.838   1.054  1.00  0.00     0.190 HD
HETATM    9  N3  UNL     1       2.205   0.906  -0.003  1.00  0.00    -0.133 N 
HETATM   10  C9  UNL     1       3.523   0.786  -0.509  1.00  0.00     0.374 C 
HETATM   11  O6  UNL     1       4.379   1.715  -0.322  1.00  0.00    -0.242 OA
HETATM   12  N4  UNL     1       3.929  -0.337  -1.224  1.00  0.00    -0.233 N 
ATOM     13  H4  UNL     1       3.269  -1.096  -1.394  1.00  0.00     0.189 HD
HETATM   14  N7  UNL     1       1.017   0.210   0.078  1.00  0.00    -0.216 N 
HETATM   15  C10 UNL     1       0.464  -1.038  -0.305  1.00  0.00     0.311 C 
ENDROOT
BRANCH  12  16
HETATM   16  N5  UNL     1       5.232  -0.429  -1.708  1.00  0.00    -0.026 NA
BRANCH  16  17
HETATM   17  N6  UNL     1       6.185  -0.164  -0.707  1.00  0.00    -0.329 N 
ATOM     18  H62 UNL     1       5.935   0.067   0.255  1.00  0.00     0.174 HD
ATOM     19  H61 UNL     1       7.139  -0.231  -1.061  1.00  0.00     0.174 HD
ENDBRANCH  16  17
ENDBRANCH  12  16
BRANCH  15  20
HETATM   20  O7  UNL     1       1.240  -2.098   0.248  1.00  0.00    -0.370 OA
ATOM     21  H7  UNL     1       2.158  -1.944   0.057  1.00  0.00     0.212 HD
ENDBRANCH  15  20
BRANCH   5  22
HETATM   22  O5  UNL     1      -0.987   0.931   2.610  1.00  0.00    -0.386 OA
ATOM     23  H5  UNL     1      -0.288   1.270   3.157  1.00  0.00     0.210 HD
ENDBRANCH   5  22
BRANCH   1  24
HETATM   24  O1  UNL     1      -1.167  -1.704   1.310  1.00  0.00    -0.353 OA
HETATM   25  C1  UNL     1      -2.394  -2.220   1.615  1.00  0.00     0.205 C 
ENDBRANCH   1  24
BRANCH   1  26
HETATM   26  C3  UNL     1      -1.343  -2.447  -0.927  1.00  0.00     0.236 C 
HETATM   27  O2  UNL     1      -2.218  -2.247  -1.780  1.00  0.00    -0.644 OA
HETATM   28  O3  UNL     1      -0.706  -3.658  -0.810  1.00  0.00    -0.644 OA
ENDBRANCH   1  26
BRANCH   4  29
HETATM   29  C5  UNL     1      -2.535   1.981  -0.523  1.00  0.00     0.139 C 
HETATM   30  C6  UNL     1      -2.802   3.268   0.158  1.00  0.00     0.041 C 
BRANCH  29  31
HETATM   31  O4  UNL     1      -3.683   1.557  -1.177  1.00  0.00    -0.394 OA
ATOM     32  H4  UNL     1      -3.993   2.223  -1.779  1.00  0.00     0.210 HD
ENDBRANCH  29  31
ENDBRANCH   4  29
TORSDOF 8
