REMARK  9 active torsions:
REMARK  status: ('A' for Active; 'I' for Inactive)
REMARK    1  A    between atoms: C4_5  and  C5_6 
REMARK    2  A    between atoms: N1_8  and  C7_9 
REMARK    3  A    between atoms: C7_9  and  C8_10 
REMARK    4  A    between atoms: C8_10  and  N2_11 
REMARK    5  A    between atoms: N2_11  and  C9_13 
REMARK    6  A    between atoms: C10_16  and  N4_17 
REMARK    7  A    between atoms: N4_17  and  C11_19 
REMARK    8  A    between atoms: C11_19  and  C12_20 
REMARK    9  A    between atoms: C12_20  and  C13_21 
ROOT
HETATM    1  C9  UNL     1       0.792  -0.417  -0.165  1.00  0.00     0.680 A 
HETATM    2  N3  UNL     1       2.102  -0.232   0.132  1.00  0.00    -0.176 N 
ATOM      3  H3  UNL     1       2.481   0.704   0.274  1.00  0.00     0.186 HD
HETATM    4  C10 UNL     1       2.880  -1.308   0.233  1.00  0.00     0.129 A 
HETATM    5  C19 UNL     1       2.370  -2.574   0.041  1.00  0.00     0.035 A 
HETATM    6  C20 UNL     1       3.154  -3.691   0.141  1.00  0.00     0.017 A 
HETATM    7  C21 UNL     1       2.609  -4.955  -0.057  1.00  0.00     0.001 A 
HETATM    8  C22 UNL     1       1.255  -5.072  -0.359  1.00  0.00     0.002 A 
HETATM    9  C23 UNL     1       0.474  -3.959  -0.458  1.00  0.00     0.031 A 
HETATM   10  C24 UNL     1       1.042  -2.725  -0.257  1.00  0.00     0.063 A 
HETATM   11  N5  UNL     1       0.274  -1.623  -0.354  1.00  0.00    -0.191 N 
ATOM     12  H5  UNL     1      -0.717  -1.717  -0.575  1.00  0.00     0.184 HD
ENDROOT
BRANCH   1  13
HETATM   13  N2  UNL     1       0.058   0.616  -0.262  1.00  0.00    -0.224 N 
ATOM     14  H2  UNL     1       0.493   1.526  -0.111  1.00  0.00     0.177 HD
BRANCH  13  15
HETATM   15  C8  UNL     1      -1.350   0.585  -0.571  1.00  0.00     0.168 C 
BRANCH  15  16
HETATM   16  C7  UNL     1      -2.075   0.326   0.732  1.00  0.00     0.292 C 
BRANCH  16  17
HETATM   17  N1  UNL     1      -3.477   0.281   0.497  1.00  0.00     0.091 N 
HETATM   18  C6  UNL     1      -4.005  -0.821  -0.260  1.00  0.00     0.283 C 
HETATM   19  C5  UNL     1      -5.241  -0.775   0.589  1.00  0.00     0.075 C 
HETATM   20  C25 UNL     1      -4.341  -0.074   1.583  1.00  0.00     0.283 C 
BRANCH  19  21
HETATM   21  C4  UNL     1      -6.336   0.107   0.156  1.00  0.00    -0.050 A 
HETATM   22  C3  UNL     1      -7.651  -0.221   0.468  1.00  0.00     0.011 A 
HETATM   23  C2  UNL     1      -8.732   0.542   0.095  1.00  0.00     0.043 A 
HETATM   24  C1  UNL     1      -8.527   1.694  -0.625  1.00  0.00     0.116 A 
HETATM   25  F1  UNL     1      -9.583   2.471  -1.008  1.00  0.00    -0.206 F 
HETATM   26  C27 UNL     1      -7.246   2.052  -0.951  1.00  0.00     0.043 A 
HETATM   27  C26 UNL     1      -6.161   1.258  -0.559  1.00  0.00     0.011 A 
ENDBRANCH  19  21
ENDBRANCH  16  17
ENDBRANCH  15  16
ENDBRANCH  13  15
ENDBRANCH   1  13
BRANCH   4  28
HETATM   28  N4  UNL     1       4.117  -1.219   0.510  1.00  0.00    -0.375 N 
ATOM     29  H4  UNL     1       4.654  -2.084   0.572  1.00  0.00     0.161 HD
BRANCH  28  30
HETATM   30  C11 UNL     1       4.804   0.010   0.740  1.00  0.00     0.126 C 
BRANCH  30  31
HETATM   31  C12 UNL     1       5.198   0.675  -0.557  1.00  0.00     0.058 C 
BRANCH  31  32
HETATM   32  C13 UNL     1       5.899   1.939  -0.190  1.00  0.00    -0.057 A 
HETATM   33  C14 UNL     1       7.262   1.997   0.003  1.00  0.00     0.007 A 
HETATM   34  C15 UNL     1       7.858   3.197   0.344  1.00  0.00     0.001 A 
HETATM   35  C16 UNL     1       7.112   4.332   0.492  1.00  0.00     0.000 A 
HETATM   36  C17 UNL     1       5.741   4.248   0.293  1.00  0.00     0.001 A 
HETATM   37  C18 UNL     1       5.129   3.073  -0.045  1.00  0.00     0.007 A 
ENDBRANCH  31  32
ENDBRANCH  30  31
ENDBRANCH  28  30
ENDBRANCH   4  28
TORSDOF 9
