REMARK  8 active torsions:
REMARK  status: ('A' for Active; 'I' for Inactive)
REMARK    1  A    between atoms: N1_2  and  C2_3 
REMARK    2  A    between atoms: N1_2  and  C20_29 
REMARK    3  A    between atoms: C2_3  and  C3_4 
REMARK       I    between atoms: C3_4  and  N2_6 
REMARK    4  A    between atoms: N2_6  and  C4_8 
REMARK    5  A    between atoms: C10_14  and  C11_15 
REMARK    6  A    between atoms: C11_15  and  C12_16 
REMARK    7  A    between atoms: C12_16  and  N3_17 
REMARK    8  A    between atoms: C20_29  and  C21_30 
ROOT
HETATM    1  C4  UNL     1      -0.221  -0.087   0.643  1.00  0.00     0.035 A 
HETATM    2  C5  UNL     1      -0.459  -0.638   1.892  1.00  0.00     0.032 A 
HETATM    3  C6  UNL     1      -1.724  -0.814   2.336  1.00  0.00     0.033 A 
HETATM    4  C7  UNL     1      -2.794  -0.440   1.532  1.00  0.00     0.045 A 
HETATM    5  C8  UNL     1      -2.582   0.107   0.291  1.00  0.00     0.000 A 
HETATM    6  C9  UNL     1      -1.288   0.273  -0.132  1.00  0.00     0.043 A 
HETATM    7  C10 UNL     1      -3.691   0.463  -0.448  1.00  0.00    -0.032 A 
HETATM    8  C13 UNL     1      -4.979   0.289   0.018  1.00  0.00    -0.002 A 
HETATM    9  C14 UNL     1      -6.054   0.657  -0.752  1.00  0.00     0.014 A 
HETATM   10  C15 UNL     1      -7.341   0.480  -0.280  1.00  0.00     0.001 A 
HETATM   11  C16 UNL     1      -7.518  -0.066   0.962  1.00  0.00     0.002 A 
HETATM   12  C17 UNL     1      -6.415  -0.440   1.742  1.00  0.00     0.030 A 
HETATM   13  C18 UNL     1      -5.131  -0.272   1.288  1.00  0.00     0.045 A 
HETATM   14  N4  UNL     1      -4.055  -0.631   2.032  1.00  0.00    -0.350 N 
HETATM   15  C19 UNL     1      -4.191  -1.221   3.324  1.00  0.00     0.156 C 
ENDROOT
BRANCH   1  16
HETATM   16  N2  UNL     1       1.119   0.046   0.251  1.00  0.00    -0.323 N 
HETATM   17  C3  UNL     1       1.571   1.071  -0.587  1.00  0.00     0.261 C 
HETATM   18  O1  UNL     1       0.775   1.934  -1.023  1.00  0.00    -0.267 OA
ATOM     19  H2  UNL     1       1.796  -0.636   0.593  1.00  0.00     0.169 HD
BRANCH  17  20
HETATM   20  C2  UNL     1       2.979   1.249  -1.036  1.00  0.00     0.160 C 
BRANCH  20  21
HETATM   21  N1  UNL     1       3.907   0.302  -0.585  1.00  0.00    -0.386 N 
HETATM   22  C1  UNL     1       3.836  -1.024  -1.061  1.00  0.00     0.149 C 
BRANCH  21  23
HETATM   23  C20 UNL     1       4.641   0.557   0.592  1.00  0.00     0.160 C 
BRANCH  23  24
HETATM   24  C21 UNL     1       6.076   0.172   0.390  1.00  0.00    -0.040 A 
HETATM   25  C22 UNL     1       7.014   1.136   0.027  1.00  0.00     0.012 A 
HETATM   26  C23 UNL     1       8.340   0.841  -0.171  1.00  0.00     0.043 A 
HETATM   27  C24 UNL     1       8.784  -0.453  -0.009  1.00  0.00     0.116 A 
HETATM   28  F1  UNL     1      10.112  -0.732  -0.210  1.00  0.00    -0.206 F 
HETATM   29  C25 UNL     1       7.870  -1.426   0.352  1.00  0.00     0.043 A 
HETATM   30  C26 UNL     1       6.542  -1.113   0.546  1.00  0.00     0.012 A 
ENDBRANCH  23  24
ENDBRANCH  21  23
ENDBRANCH  20  21
ENDBRANCH  17  20
ENDBRANCH   1  16
BRANCH   7  31
HETATM   31  C11 UNL     1      -3.462   1.034  -1.779  1.00  0.00     0.067 C 
BRANCH  31  32
HETATM   32  C12 UNL     1      -3.165  -0.109  -2.760  1.00  0.00     0.234 C 
BRANCH  32  33
HETATM   33  N3  UNL     1      -2.938   0.507  -4.054  1.00  0.00    -0.079 N 
ATOM     34  H33 UNL     1      -3.705   1.108  -4.355  1.00  0.00     0.274 HD
ATOM     35  H32 UNL     1      -2.213   1.224  -4.038  1.00  0.00     0.274 HD
ATOM     36  H31 UNL     1      -2.741  -0.252  -4.706  1.00  0.00     0.274 HD
ENDBRANCH  32  33
ENDBRANCH  31  32
ENDBRANCH   7  31
TORSDOF 8
