REMARK  8 active torsions:
REMARK  status: ('A' for Active; 'I' for Inactive)
REMARK    1  A    between atoms: C2_2  and  C3_3 
REMARK    2  A    between atoms: C11_12  and  O1_13 
REMARK    3  A    between atoms: C12_15  and  C13_16 
REMARK    4  A    between atoms: C13_16  and  C14_17 
REMARK    5  A    between atoms: C14_17  and  N1_18 
REMARK    6  A    between atoms: N1_18  and  C15_19 
REMARK    7  A    between atoms: N1_18  and  C18_22 
REMARK    8  A    between atoms: C21_25  and  C22_26 
ROOT
HETATM    1  C3  UNL     1      -2.509  -0.559  -0.044  1.00  0.00    -0.004 C 
HETATM    2  C4  UNL     1      -4.018  -0.415   0.287  1.00  0.00     0.021 C 
HETATM    3  C5  UNL     1      -2.328   0.053  -1.390  1.00  0.00     0.004 A 
HETATM    4  C6  UNL     1      -3.346   1.085  -1.813  1.00  0.00     0.006 A 
HETATM    5  C7  UNL     1      -2.257   2.135  -1.722  1.00  0.00     0.007 A 
HETATM    6  C8  UNL     1      -1.269   1.060  -1.330  1.00  0.00     0.012 A 
HETATM    7  C9  UNL     1      -0.657   1.342  -0.011  1.00  0.00     0.044 C 
HETATM    8 BR1  UNL     1       0.427   2.939  -0.257  1.00  0.00    -0.083 Br
HETATM    9  C10 UNL     1      -1.661   1.503   1.110  1.00  0.00     0.057 C 
HETATM   10  C11 UNL     1      -0.525   1.278   2.032  1.00  0.00     0.140 C 
HETATM   11  C12 UNL     1      -0.288   0.301   0.880  1.00  0.00     0.043 C 
HETATM   12  C21 UNL     1      -1.799   0.032   1.083  1.00  0.00     0.082 C 
ENDROOT
BRANCH  11  13
HETATM   13  C13 UNL     1       0.595  -0.758   0.998  1.00  0.00     0.006 C 
BRANCH  13  14
HETATM   14  C14 UNL     1       2.037  -0.595   0.958  1.00  0.00     0.088 C 
BRANCH  14  15
HETATM   15  N1  UNL     1       2.738  -0.221  -0.221  1.00  0.00    -0.358 N 
BRANCH  15  16
HETATM   16  C15 UNL     1       2.324  -0.336  -1.562  1.00  0.00    -0.002 C 
HETATM   17  C16 UNL     1       2.619   0.581  -2.448  1.00  0.00     0.038 C 
HETATM   18  C17 UNL     1       1.585  -1.526  -2.025  1.00  0.00     0.067 C 
ENDBRANCH  15  16
BRANCH  15  19
HETATM   19  C18 UNL     1       4.124   0.253  -0.031  1.00  0.00     0.081 C 
HETATM   20  C19 UNL     1       4.936  -0.764   0.757  1.00  0.00     0.032 C 
HETATM   21  C20 UNL     1       4.093   1.561   0.685  1.00  0.00     0.032 C 
ENDBRANCH  15  19
ENDBRANCH  14  15
ENDBRANCH  13  14
ENDBRANCH  11  13
BRANCH  10  22
HETATM   22  O1  UNL     1       0.406   2.273   2.219  1.00  0.00    -0.394 OA
ATOM     23  H1  UNL     1       1.135   2.129   2.811  1.00  0.00     0.210 HD
ENDBRANCH  10  22
BRANCH  12  24
HETATM   24  C22 UNL     1      -2.189  -0.625   2.333  1.00  0.00     0.184 C 
HETATM   25  O2  UNL     1      -2.947   0.071   3.106  1.00  0.00    -0.647 OA
HETATM   26  O3  UNL     1      -1.869  -1.861   2.793  1.00  0.00    -0.647 OA
ENDBRANCH  12  24
BRANCH   1  27
HETATM   27  C2  UNL     1      -2.305  -2.020  -0.153  1.00  0.00    -0.026 C 
HETATM   28  C1  UNL     1      -2.870  -2.695  -1.178  1.00  0.00     0.008 C 
ENDBRANCH   1  27
TORSDOF 8
