REMARK  5 active torsions:
REMARK  status: ('A' for Active; 'I' for Inactive)
REMARK    1  A    between atoms: N2_4  and  N3_6 
REMARK    2  A    between atoms: N3_6  and  C1_8 
REMARK    3  A    between atoms: N4_9  and  C2_11 
REMARK    4  A    between atoms: C2_11  and  C3_12 
REMARK    5  A    between atoms: C3_12  and  N5_13 
ROOT
HETATM    1  C1  UNL     1       1.951  -0.243  -1.506  1.00  0.00     0.194 C 
HETATM    2  N4  UNL     1       0.824  -0.030  -0.928  1.00  0.00    -0.383 N 
ATOM      3  H4  UNL     1       0.011   0.248  -1.478  1.00  0.00     0.160 HD
ENDROOT
BRANCH   2   4
HETATM    4  C2  UNL     1       0.711  -0.186   0.509  1.00  0.00     0.142 C 
BRANCH   4   5
HETATM    5  C3  UNL     1      -0.564  -0.955   0.817  1.00  0.00     0.167 C 
BRANCH   5   6
HETATM    6  N5  UNL     1      -1.689  -0.179   0.289  1.00  0.00    -0.302 N 
HETATM    7  C4  UNL     1      -2.370   0.763   0.980  1.00  0.00     0.111 A 
HETATM    8  C5  UNL     1      -3.328   1.224   0.100  1.00  0.00     0.037 A 
HETATM    9  C6  UNL     1      -3.206   0.556  -1.089  1.00  0.00     0.108 A 
HETATM   10  N6  UNL     1      -2.182  -0.303  -0.934  1.00  0.00    -0.310 N 
ATOM     11  H6  UNL     1      -1.839  -0.948  -1.646  1.00  0.00     0.186 HD
ENDBRANCH   5   6
ENDBRANCH   4   5
ENDBRANCH   2   4
BRANCH   1  12
HETATM   12  N3  UNL     1       3.075  -0.630  -0.732  1.00  0.00    -0.283 N 
ATOM     13  H3  UNL     1       3.242  -1.621  -0.555  1.00  0.00     0.189 HD
BRANCH  12  14
HETATM   14  N2  UNL     1       3.960   0.318  -0.206  1.00  0.00    -0.248 N 
HETATM   15  N1  UNL     1       3.752   1.533  -0.433  1.00  0.00    -0.331 N 
ATOM     16  H12 UNL     1       2.946   1.810  -0.994  1.00  0.00     0.178 HD
ATOM     17  H11 UNL     1       4.397   2.224  -0.050  1.00  0.00     0.178 HD
ATOM     18  H2  UNL     1       4.761   0.025   0.353  1.00  0.00     0.207 HD
ENDBRANCH  12  14
ENDBRANCH   1  12
TORSDOF 5
