REMARK  6 active torsions:
REMARK  status: ('A' for Active; 'I' for Inactive)
REMARK    1  A    between atoms: N1_2  and  C2_3 
REMARK    2  A    between atoms: N1_2  and  C4_8 
REMARK    3  A    between atoms: C2_3  and  C3_4 
REMARK    4  A    between atoms: C4_8  and  C5_9 
REMARK    5  A    between atoms: C5_9  and  C6_10 
REMARK    6  A    between atoms: N3_11  and  N4_13 
ROOT
HETATM    1  C5  UNL     1       1.100   0.141  -0.120  1.00  0.00     0.066 C 
ENDROOT
BRANCH   1   2
HETATM    2  C4  UNL     1      -0.158  -0.329   0.575  1.00  0.00     0.126 C 
BRANCH   2   3
HETATM    3  N1  UNL     1      -1.212  -0.691  -0.317  1.00  0.00    -0.394 N 
HETATM    4  C1  UNL     1      -1.536  -1.928  -0.381  1.00  0.00     0.115 C 
BRANCH   3   5
HETATM    5  C2  UNL     1      -1.918   0.245  -1.132  1.00  0.00     0.165 C 
BRANCH   5   6
HETATM    6  C3  UNL     1      -2.732   1.114  -0.232  1.00  0.00     0.072 C 
HETATM    7  N2  UNL     1      -2.300   2.171   0.338  1.00  0.00    -0.410 N 
ATOM      8  H22 UNL     1      -1.329   2.425   0.155  1.00  0.00     0.155 HD
ATOM      9  H21 UNL     1      -2.856   2.765   0.953  1.00  0.00     0.155 HD
ENDBRANCH   5   6
ENDBRANCH   3   5
ENDBRANCH   2   3
ENDBRANCH   1   2
BRANCH   1  10
HETATM   10  C6  UNL     1       2.072   0.473   0.950  1.00  0.00     0.083 C 
HETATM   11  N3  UNL     1       3.333   0.328   0.746  1.00  0.00    -0.302 N 
ATOM     12  H3  UNL     1       3.989   0.563   1.491  1.00  0.00     0.187 HD
BRANCH  11  13
HETATM   13  N4  UNL     1       3.824  -0.142  -0.469  1.00  0.00    -0.250 N 
HETATM   14  N5  UNL     1       4.523  -1.186  -0.478  1.00  0.00    -0.331 N 
ATOM     15  H52 UNL     1       4.718  -1.669   0.399  1.00  0.00     0.178 HD
ATOM     16  H51 UNL     1       4.883  -1.530  -1.368  1.00  0.00     0.178 HD
ATOM     17  H4  UNL     1       3.620   0.353  -1.337  1.00  0.00     0.207 HD
ENDBRANCH  11  13
ENDBRANCH   1  10
TORSDOF 6
