REMARK  5 active torsions:
REMARK  status: ('A' for Active; 'I' for Inactive)
REMARK    1  A    between atoms: N2_4  and  N3_6 
REMARK    2  A    between atoms: C1_8  and  N4_9 
REMARK    3  A    between atoms: N4_9  and  C2_11 
REMARK    4  A    between atoms: C2_11  and  C3_12 
REMARK    5  A    between atoms: C3_12  and  N5_13 
ROOT
HETATM    1  N3  UNL     1       3.021  -0.119   0.182  1.00  0.00    -0.283 N 
ATOM      2  H3  UNL     1       2.327   0.220   0.848  1.00  0.00     0.189 HD
HETATM    3  C1  UNL     1       2.628  -0.628  -0.924  1.00  0.00     0.194 C 
ENDROOT
BRANCH   3   4
HETATM    4  N4  UNL     1       1.240  -0.721  -1.227  1.00  0.00    -0.384 N 
ATOM      5  H4  UNL     1       0.941  -1.119  -2.117  1.00  0.00     0.160 HD
BRANCH   4   6
HETATM    6  C2  UNL     1       0.249  -0.252  -0.276  1.00  0.00     0.136 C 
BRANCH   6   7
HETATM    7  C3  UNL     1      -1.098  -0.498  -0.882  1.00  0.00     0.129 C 
BRANCH   7   8
HETATM    8  N5  UNL     1      -2.229  -0.120  -0.148  1.00  0.00    -0.232 NA
HETATM    9  C4  UNL     1      -2.525   1.243   0.090  1.00  0.00     0.127 C 
HETATM   10  C5  UNL     1      -2.943   0.741   1.467  1.00  0.00     0.144 C 
HETATM   11  N6  UNL     1      -2.439  -0.598   1.123  1.00  0.00    -0.164 NA
ENDBRANCH   7   8
ENDBRANCH   6   7
ENDBRANCH   4   6
ENDBRANCH   3   4
BRANCH   1  12
HETATM   12  N2  UNL     1       4.358  -0.018   0.495  1.00  0.00    -0.248 N 
HETATM   13  N1  UNL     1       5.057   0.918  -0.031  1.00  0.00    -0.331 N 
ATOM     14  H12 UNL     1       4.612   1.574  -0.673  1.00  0.00     0.178 HD
ATOM     15  H11 UNL     1       6.047   0.993   0.201  1.00  0.00     0.178 HD
ATOM     16  H2  UNL     1       4.788  -0.682   1.139  1.00  0.00     0.207 HD
ENDBRANCH   1  12
TORSDOF 5
