REMARK  2 active torsions:
REMARK  status: ('A' for Active; 'I' for Inactive)
REMARK    1  A    between atoms: C3_6  and  O1_8 
REMARK    2  A    between atoms: O1_8  and  C4_9 
ROOT
HETATM    1  F1  UNL     1      -1.774   1.951  -0.008  1.00  0.00    -0.236 F 
HETATM    2  C1  UNL     1      -1.599   0.649   0.434  1.00  0.00     0.322 A 
HETATM    3  C2  UNL     1      -1.271  -0.424  -0.581  1.00  0.00     0.342 A 
HETATM    4  F2  UNL     1      -1.723  -1.697  -0.404  1.00  0.00    -0.196 F 
HETATM    5  F3  UNL     1      -1.178   0.048  -1.871  1.00  0.00    -0.196 F 
HETATM    6  C3  UNL     1      -0.254   0.068   0.448  1.00  0.00     0.312 A 
HETATM    7  F4  UNL     1       0.017  -0.801   1.496  1.00  0.00    -0.201 F 
ENDROOT
BRANCH   6   8
HETATM    8  O1  UNL     1       0.836   0.699  -0.141  1.00  0.00    -0.329 OA
BRANCH   8   9
HETATM    9  C4  UNL     1       1.952  -0.113   0.050  1.00  0.00     0.286 C 
HETATM   10 CL1  UNL     1       3.414   0.578  -0.655  1.00  0.00    -0.102 Cl
ENDBRANCH   8   9
ENDBRANCH   6   8
TORSDOF 2
