REMARK  1 active torsions:
REMARK  status: ('A' for Active; 'I' for Inactive)
REMARK    1  A    between atoms: C2_4  and  C3_5 
ROOT
HETATM    1  F1  UNL     1       2.832  -1.513  -0.162  1.00  0.00    -0.174 F 
HETATM    2  C1  UNL     1       1.670  -0.805  -0.099  1.00  0.00     0.272 A 
HETATM    3  O1  UNL     1       0.441  -1.246  -0.022  1.00  0.00    -0.277 OA
HETATM    4  C2  UNL     1      -0.424  -0.265   0.021  1.00  0.00     0.162 A 
HETATM    5  C4  UNL     1       0.305   0.904  -0.032  1.00  0.00     0.195 A 
HETATM    6  F4  UNL     1      -0.229   2.149  -0.011  1.00  0.00    -0.200 F 
HETATM    7  C5  UNL     1       1.640   0.578  -0.109  1.00  0.00     0.220 A 
HETATM    8  F5  UNL     1       2.684   1.439  -0.178  1.00  0.00    -0.197 F 
ENDROOT
BRANCH   4   9
HETATM    9  C3  UNL     1      -1.925  -0.373   0.111  1.00  0.00     0.413 C 
HETATM   10  F2  UNL     1      -2.447   0.289  -0.962  1.00  0.00    -0.207 F 
HETATM   11  F3  UNL     1      -2.295   0.251   1.305  1.00  0.00    -0.207 F 
ENDBRANCH   4   9
TORSDOF 1
