REMARK  1 active torsions:
REMARK  status: ('A' for Active; 'I' for Inactive)
REMARK    1  A    between atoms: C3_5  and  N1_6 
ROOT
HETATM    1  F1  UNL     1      -1.875  -0.098   1.569  1.00  0.00    -0.199 F 
HETATM    2  C1  UNL     1      -1.390   0.030   0.279  1.00  0.00     0.312 C 
HETATM    3  F2  UNL     1      -2.380   0.184  -0.642  1.00  0.00    -0.199 F 
HETATM    4  C2  UNL     1      -0.298   1.044   0.106  1.00  0.00     0.118 C 
HETATM    5  C3  UNL     1       0.522  -0.039  -0.602  1.00  0.00     0.178 C 
HETATM    6  C4  UNL     1      -0.373  -1.059  -0.028  1.00  0.00     0.328 C 
HETATM    7  F3  UNL     1      -0.921  -1.933  -0.955  1.00  0.00    -0.197 F 
HETATM    8  F4  UNL     1       0.070  -1.758   1.067  1.00  0.00    -0.197 F 
ENDROOT
BRANCH   5   9
HETATM    9  N1  UNL     1       1.866   0.028  -0.172  1.00  0.00    -0.323 N 
HETATM   10 CL1  UNL     1       2.240  -0.176   1.433  1.00  0.00     0.006 Cl
ATOM     11  H1  UNL     1       2.609   0.202  -0.849  1.00  0.00     0.174 HD
ENDBRANCH   5   9
TORSDOF 1
