REMARK  6 active torsions:
REMARK  status: ('A' for Active; 'I' for Inactive)
REMARK    1  A    between atoms: C2_4  and  C3_5 
REMARK    2  A    between atoms: C5_7  and  C6_8 
REMARK    3  A    between atoms: C6_8  and  N2_9 
REMARK    4  A    between atoms: N2_9  and  C7_12 
REMARK    5  A    between atoms: C7_12  and  C8_13 
REMARK    6  A    between atoms: C8_13  and  N3_14 
ROOT
HETATM    1  C6  UNL     1      -1.136  -0.161   0.421  1.00  0.00     0.268 C 
ENDROOT
BRANCH   1   2
HETATM    2  C5  UNL     1      -0.148   0.315  -0.586  1.00  0.00     0.251 C 
HETATM    3  C4  UNL     1       0.793   1.359   0.012  1.00  0.00     0.078 C 
HETATM    4  C3  UNL     1       1.654   0.162   0.342  1.00  0.00     0.263 C 
HETATM    5  N4  UNL     1       1.027  -0.486  -0.796  1.00  0.00     0.100 N 
HETATM    6  C9  UNL     1       0.965  -1.893  -0.633  1.00  0.00     0.311 C 
BRANCH   4   7
HETATM    7  C2  UNL     1       3.102   0.355   0.091  1.00  0.00     0.090 C 
HETATM    8  N1  UNL     1       3.901   0.780   1.012  1.00  0.00    -0.404 N 
HETATM    9  C1  UNL     1       5.296   0.985   0.845  1.00  0.00     0.145 C 
ATOM     10  H1  UNL     1       3.500   0.984   1.928  1.00  0.00     0.158 HD
ENDBRANCH   4   7
ENDBRANCH   1   2
BRANCH   1  11
HETATM   11  N2  UNL     1      -2.101  -1.108  -0.000  1.00  0.00    -0.071 N 
ATOM     12  H22 UNL     1      -1.645  -1.925  -0.407  1.00  0.00     0.277 HD
ATOM     13  H21 UNL     1      -2.549  -1.543   0.806  1.00  0.00     0.277 HD
BRANCH  11  14
HETATM   14  C7  UNL     1      -3.100  -0.577  -0.911  1.00  0.00     0.259 C 
BRANCH  14  15
HETATM   15  C8  UNL     1      -4.017   0.406  -0.218  1.00  0.00     0.257 C 
BRANCH  15  16
HETATM   16  N3  UNL     1      -4.696  -0.275   0.889  1.00  0.00    -0.078 N 
ATOM     17  H33 UNL     1      -5.186  -1.116   0.586  1.00  0.00     0.274 HD
ATOM     18  H32 UNL     1      -4.041  -0.717   1.534  1.00  0.00     0.274 HD
ATOM     19  H31 UNL     1      -5.314   0.388   1.356  1.00  0.00     0.274 HD
ENDBRANCH  15  16
ENDBRANCH  14  15
ENDBRANCH  11  14
ENDBRANCH   1  11
TORSDOF 6
