REMARK  6 active torsions:
REMARK  status: ('A' for Active; 'I' for Inactive)
REMARK    1  A    between atoms: C2_2  and  C3_3 
REMARK    2  A    between atoms: C3_3  and  N1_4 
REMARK    3  A    between atoms: N1_4  and  N2_5 
REMARK    4  A    between atoms: N1_4  and  C4_8 
REMARK    5  A    between atoms: C4_8  and  C5_9 
REMARK    6  A    between atoms: C5_9  and  N3_10 
ROOT
HETATM    1  C4  UNL     1       0.388  -0.222  -0.341  1.00  0.00     0.108 C 
ENDROOT
BRANCH   1   2
HETATM    2  N1  UNL     1       1.713  -0.652  -0.272  1.00  0.00    -0.287 N 
BRANCH   2   3
HETATM    3  C3  UNL     1       2.734   0.072  -0.906  1.00  0.00     0.114 C 
BRANCH   3   4
HETATM    4  C2  UNL     1       3.108   1.350  -0.312  1.00  0.00     0.009 C 
HETATM    5  C1  UNL     1       2.652   1.901   0.781  1.00  0.00     0.013 C 
ENDBRANCH   3   4
ENDBRANCH   2   3
BRANCH   2   6
HETATM    6  N2  UNL     1       2.022  -1.838   0.315  1.00  0.00    -0.340 N 
ATOM      7  H22 UNL     1       2.991  -2.152   0.365  1.00  0.00     0.177 HD
ATOM      8  H21 UNL     1       1.280  -2.364   0.776  1.00  0.00     0.177 HD
ENDBRANCH   2   6
ENDBRANCH   1   2
BRANCH   1   9
HETATM    9  C5  UNL     1      -0.609  -1.066   0.415  1.00  0.00     0.174 C 
BRANCH   9  10
HETATM   10  N3  UNL     1      -1.912  -0.467   0.219  1.00  0.00    -0.359 N 
HETATM   11  C6  UNL     1      -2.344   0.461   1.066  1.00  0.00     0.107 A 
HETATM   12  C7  UNL     1      -3.582   1.081   0.949  1.00  0.00     0.104 A 
HETATM   13  N4  UNL     1      -4.345   0.693  -0.083  1.00  0.00    -0.373 N 
HETATM   14  C8  UNL     1      -3.962  -0.247  -0.980  1.00  0.00     0.104 A 
ATOM     15  H4  UNL     1      -5.260   1.128  -0.199  1.00  0.00     0.164 HD
HETATM   16  C9  UNL     1      -2.717  -0.818  -0.797  1.00  0.00     0.107 A 
ENDBRANCH   9  10
ENDBRANCH   1   9
TORSDOF 6
