REMARK  8 active torsions:
REMARK  status: ('A' for Active; 'I' for Inactive)
REMARK    1  A    between atoms: C1_2  and  C2_3 
REMARK    2  A    between atoms: C5_6  and  N1_7 
REMARK    3  A    between atoms: N1_7  and  C6_9 
REMARK    4  A    between atoms: C6_9  and  C7_10 
REMARK    5  A    between atoms: C7_10  and  C8_11 
REMARK    6  A    between atoms: C8_11  and  N2_12 
REMARK    7  A    between atoms: N2_12  and  C9_14 
REMARK    8  A    between atoms: C12_17  and  O2_18 
ROOT
HETATM    1  C7  UNL     1       0.142   0.126   1.151  1.00  0.00     0.039 C 
ENDROOT
BRANCH   1   2
HETATM    2  C6  UNL     1       1.501  -0.293   0.615  1.00  0.00     0.121 C 
BRANCH   2   3
HETATM    3  N1  UNL     1       2.391   0.829   0.468  1.00  0.00    -0.390 N 
ATOM      4  H1  UNL     1       2.082   1.769   0.715  1.00  0.00     0.159 HD
BRANCH   3   5
HETATM    5  C5  UNL     1       3.692   0.612  -0.021  1.00  0.00     0.028 A 
HETATM    6  C4  UNL     1       4.135  -0.648  -0.365  1.00  0.00     0.030 A 
HETATM    7  C3  UNL     1       5.385  -0.923  -0.846  1.00  0.00     0.017 A 
HETATM    8  C2  UNL     1       6.259   0.152  -0.994  1.00  0.00     0.002 A 
HETATM    9  C16 UNL     1       5.882   1.423  -0.671  1.00  0.00     0.017 A 
HETATM   10  C15 UNL     1       4.606   1.650  -0.188  1.00  0.00     0.030 A 
BRANCH   8  11
HETATM   11  C1  UNL     1       7.596  -0.144  -1.509  1.00  0.00     0.269 C 
HETATM   12  O1  UNL     1       8.422   0.790  -1.661  1.00  0.00    -0.301 OA
ENDBRANCH   8  11
ENDBRANCH   3   5
ENDBRANCH   2   3
ENDBRANCH   1   2
BRANCH   1  13
HETATM   13  C8  UNL     1      -0.677  -1.150   1.251  1.00  0.00     0.115 C 
BRANCH  13  14
HETATM   14  N2  UNL     1      -1.995  -0.920   1.747  1.00  0.00    -0.417 N 
ATOM     15  H2  UNL     1      -2.304  -1.253   2.660  1.00  0.00     0.153 HD
BRANCH  14  16
HETATM   16  C9  UNL     1      -2.846  -0.189   0.869  1.00  0.00     0.076 C 
HETATM   17  C10 UNL     1      -3.085  -0.923  -0.420  1.00  0.00     0.027 C 
HETATM   18  C11 UNL     1      -4.022  -0.270  -1.365  1.00  0.00     0.034 C 
HETATM   19  C12 UNL     1      -5.074   0.604  -0.798  1.00  0.00     0.118 C 
HETATM   20  C13 UNL     1      -4.856   1.108   0.587  1.00  0.00     0.034 C 
HETATM   21  C14 UNL     1      -4.225   0.055   1.479  1.00  0.00     0.027 C 
BRANCH  19  22
HETATM   22  O2  UNL     1      -6.357   0.031  -0.870  1.00  0.00    -0.396 OA
ATOM     23  H2  UNL     1      -7.032   0.592  -0.506  1.00  0.00     0.210 HD
ENDBRANCH  19  22
ENDBRANCH  14  16
ENDBRANCH  13  14
ENDBRANCH   1  13
TORSDOF 8
