REMARK  7 active torsions:
REMARK  status: ('A' for Active; 'I' for Inactive)
REMARK    1  A    between atoms: O1_1  and  C1_3 
REMARK    2  A    between atoms: N1_9  and  O2_11 
REMARK    3  A    between atoms: O2_11  and  C7_12 
REMARK    4  A    between atoms: C7_12  and  C8_13 
REMARK    5  A    between atoms: C8_13  and  S1_14 
REMARK    6  A    between atoms: S1_14  and  C9_15 
REMARK    7  A    between atoms: C9_15  and  C10_16 
ROOT
HETATM    1  O2  UNL     1      -0.736   0.014  -1.027  1.00  0.00    -0.280 OA
ENDROOT
BRANCH   1   2
HETATM    2  N1  UNL     1      -1.527  -0.765  -0.369  1.00  0.00    -0.272 N 
HETATM    3  C6  UNL     1      -2.813  -0.656   0.072  1.00  0.00     0.038 C 
HETATM    4  C1  UNL     1      -3.913  -0.460  -0.968  1.00  0.00     0.165 C 
HETATM    5  C5  UNL     1      -2.993   0.223   1.289  1.00  0.00     0.057 C 
HETATM    6  C2  UNL     1      -5.207  -0.845  -0.271  1.00  0.00     0.038 C 
HETATM    7  C3  UNL     1      -5.448   0.181   0.820  1.00  0.00     0.003 C 
HETATM    8  C4  UNL     1      -4.355   0.154   1.869  1.00  0.00     0.006 C 
ATOM      9  H1  UNL     1      -1.096  -1.657  -0.126  1.00  0.00     0.193 HD
BRANCH   4  10
HETATM   10  O1  UNL     1      -4.010   0.873  -1.341  1.00  0.00    -0.390 OA
ATOM     11  H1  UNL     1      -3.201   1.114  -1.777  1.00  0.00     0.210 HD
ENDBRANCH   4  10
ENDBRANCH   1   2
BRANCH   1  12
HETATM   12  C7  UNL     1       0.083   0.823  -0.236  1.00  0.00     0.211 C 
BRANCH  12  13
HETATM   13  C8  UNL     1       1.122  -0.153   0.438  1.00  0.00     0.103 C 
BRANCH  13  14
HETATM   14  S1  UNL     1       2.320   0.975   1.215  1.00  0.00    -0.162 SA
BRANCH  14  15
HETATM   15  C9  UNL     1       3.335   1.559  -0.184  1.00  0.00     0.112 C 
BRANCH  15  16
HETATM   16  C10 UNL     1       4.433   0.554  -0.353  1.00  0.00    -0.049 A 
HETATM   17  C11 UNL     1       5.546   0.970  -1.053  1.00  0.00     0.008 A 
HETATM   18  C12 UNL     1       6.651   0.176  -1.134  1.00  0.00     0.001 A 
HETATM   19  C13 UNL     1       6.669  -1.062  -0.526  1.00  0.00     0.000 A 
HETATM   20  C14 UNL     1       5.582  -1.485   0.173  1.00  0.00     0.001 A 
HETATM   21  C15 UNL     1       4.474  -0.666   0.245  1.00  0.00     0.008 A 
ENDBRANCH  15  16
ENDBRANCH  14  15
ENDBRANCH  13  14
ENDBRANCH  12  13
ENDBRANCH   1  12
TORSDOF 7
