REMARK  8 active torsions:
REMARK  status: ('A' for Active; 'I' for Inactive)
REMARK    1  A    between atoms: C3_8  and  C4_9 
REMARK    2  A    between atoms: C5_10  and  C6_11 
REMARK    3  A    between atoms: C6_11  and  C7_12 
REMARK    4  A    between atoms: C7_12  and  C8_13 
REMARK    5  A    between atoms: C8_13  and  C9_14 
REMARK    6  A    between atoms: C9_14  and  N3_15 
REMARK    7  A    between atoms: N3_15  and  C10_18 
REMARK    8  A    between atoms: C15_23  and  O1_24 
ROOT
HETATM    1  C7  UNL     1       1.168  -1.026  -1.092  1.00  0.00     0.005 C 
ENDROOT
BRANCH   1   2
HETATM    2  C6  UNL     1       1.746   0.171  -0.379  1.00  0.00     0.027 C 
BRANCH   2   3
HETATM    3  C5  UNL     1       3.040  -0.262   0.224  1.00  0.00    -0.026 C 
HETATM    4  C4  UNL     1       4.145   0.351  -0.130  1.00  0.00     0.011 C 
BRANCH   4   5
HETATM    5  C3  UNL     1       5.463  -0.016   0.420  1.00  0.00     0.002 A 
HETATM    6  C2  UNL     1       5.632  -1.028   1.333  1.00  0.00     0.104 A 
HETATM    7  N2  UNL     1       6.845  -1.316   1.802  1.00  0.00    -0.332 N 
HETATM    8  C1  UNL     1       7.898  -0.604   1.369  1.00  0.00     0.221 A 
ATOM      9  H2  UNL     1       6.972  -2.067   2.481  1.00  0.00     0.168 HD
HETATM   10  N1  UNL     1       9.099  -0.869   1.817  1.00  0.00    -0.365 N 
HETATM   11  O2  UNL     1       7.757   0.365   0.498  1.00  0.00    -0.291 OA
ATOM     12  H12 UNL     1       9.209  -1.623   2.495  1.00  0.00     0.159 HD
ATOM     13  H11 UNL     1       9.899  -0.328   1.488  1.00  0.00     0.159 HD
HETATM   14  C16 UNL     1       6.598   0.680   0.015  1.00  0.00     0.158 A 
ENDBRANCH   4   5
ENDBRANCH   2   3
ENDBRANCH   1   2
BRANCH   1  15
HETATM   15  C8  UNL     1      -0.129  -0.662  -1.746  1.00  0.00     0.028 C 
BRANCH  15  16
HETATM   16  C9  UNL     1      -1.125  -0.192  -0.732  1.00  0.00     0.233 C 
BRANCH  16  17
HETATM   17  N3  UNL     1      -2.395   0.156  -1.355  1.00  0.00    -0.069 N 
ATOM     18  H32 UNL     1      -2.285   0.832  -2.111  1.00  0.00     0.277 HD
ATOM     19  H31 UNL     1      -2.781  -0.611  -1.905  1.00  0.00     0.277 HD
BRANCH  17  20
HETATM   20  C10 UNL     1      -3.306   0.614  -0.338  1.00  0.00     0.214 C 
HETATM   21  C11 UNL     1      -3.576  -0.506   0.629  1.00  0.00     0.036 C 
HETATM   22  C12 UNL     1      -4.969  -0.549   1.153  1.00  0.00     0.002 C 
HETATM   23  C13 UNL     1      -5.621   0.789   1.356  1.00  0.00     0.003 C 
HETATM   24  C14 UNL     1      -5.458   1.702   0.168  1.00  0.00     0.034 C 
HETATM   25  C15 UNL     1      -4.625   1.065  -0.921  1.00  0.00     0.148 C 
BRANCH  25  26
HETATM   26  O1  UNL     1      -4.305   1.995  -1.919  1.00  0.00    -0.393 OA
ATOM     27  H1  UNL     1      -5.134   2.279  -2.286  1.00  0.00     0.210 HD
ENDBRANCH  25  26
ENDBRANCH  17  20
ENDBRANCH  16  17
ENDBRANCH  15  16
ENDBRANCH   1  15
TORSDOF 8
