REMARK  6 active torsions:
REMARK  status: ('A' for Active; 'I' for Inactive)
REMARK    1  A    between atoms: O1_2  and  C2_3 
REMARK    2  A    between atoms: C2_3  and  C3_5 
REMARK    3  A    between atoms: C3_5  and  N1_6 
REMARK    4  A    between atoms: C6_9  and  N2_10 
REMARK    5  A    between atoms: C25_42  and  C26_43 
REMARK    6  A    between atoms: C26_43  and  N7_44 
ROOT
HETATM    1  N2  UNL     1       2.246   0.733  -0.472  1.00  0.00    -0.378 N 
HETATM    2  C7  UNL     1       1.753   2.037  -0.254  1.00  0.00     0.150 C 
HETATM    3  C8  UNL     1       1.926   2.621   1.103  1.00  0.00     0.252 C 
HETATM    4  N3  UNL     1       0.701   3.238   1.575  1.00  0.00    -0.074 N 
ATOM      5  H31 UNL     1       0.849   3.714   2.465  1.00  0.00     0.277 HD
ATOM      6  H32 UNL     1       0.028   2.533   1.876  1.00  0.00     0.277 HD
HETATM    7  C9  UNL     1       0.116   4.133   0.595  1.00  0.00     0.234 C 
HETATM    8  C10 UNL     1      -1.325   3.702   0.389  1.00  0.00     0.055 C 
HETATM    9  C11 UNL     1      -2.276   4.885   0.554  1.00  0.00     0.234 C 
HETATM   10  N4  UNL     1      -3.573   4.475   1.070  1.00  0.00    -0.073 N 
ATOM     11  H41 UNL     1      -3.900   5.072   1.830  1.00  0.00     0.277 HD
ATOM     12  H42 UNL     1      -3.529   3.599   1.591  1.00  0.00     0.277 HD
HETATM   13  C12 UNL     1      -4.502   4.420  -0.032  1.00  0.00     0.259 C 
HETATM   14  C13 UNL     1      -4.762   3.023  -0.528  1.00  0.00     0.259 C 
HETATM   15  N5  UNL     1      -5.715   2.341   0.332  1.00  0.00    -0.073 N 
ATOM     16  H51 UNL     1      -6.549   2.064  -0.185  1.00  0.00     0.277 HD
ATOM     17  H52 UNL     1      -6.144   2.987   0.995  1.00  0.00     0.277 HD
HETATM   18  C14 UNL     1      -5.111   1.198   1.018  1.00  0.00     0.234 C 
HETATM   19  C15 UNL     1      -5.540  -0.109   0.381  1.00  0.00     0.055 C 
HETATM   20  C16 UNL     1      -5.259  -1.225   1.353  1.00  0.00     0.233 C 
HETATM   21  N6  UNL     1      -4.934  -2.456   0.644  1.00  0.00    -0.075 N 
ATOM     22  H61 UNL     1      -3.944  -2.528   0.411  1.00  0.00     0.277 HD
ATOM     23  H62 UNL     1      -5.299  -2.472  -0.308  1.00  0.00     0.277 HD
HETATM   24  C17 UNL     1      -5.403  -3.564   1.441  1.00  0.00     0.234 C 
HETATM   25  C18 UNL     1      -4.164  -4.296   1.943  1.00  0.00     0.054 C 
HETATM   26  C19 UNL     1      -3.218  -4.504   0.776  1.00  0.00     0.177 C 
HETATM   27  O3  UNL     1      -1.948  -4.088   1.170  1.00  0.00    -0.350 OA
HETATM   28  C20 UNL     1      -1.048  -3.254   0.449  1.00  0.00     0.076 A 
HETATM   29  C21 UNL     1      -1.026  -1.976   0.950  1.00  0.00     0.038 A 
HETATM   30  C22 UNL     1      -0.215  -0.942   0.417  1.00  0.00     0.015 A 
HETATM   31  C23 UNL     1       0.601  -1.195  -0.650  1.00  0.00    -0.020 A 
HETATM   32  C24 UNL     1       0.575  -2.468  -1.149  1.00  0.00     0.024 A 
HETATM   33  C25 UNL     1      -0.245  -3.538  -0.621  1.00  0.00     0.001 A 
HETATM   34  C27 UNL     1       1.505  -0.143  -1.272  1.00  0.00     0.097 C 
ENDROOT
BRANCH   1  35
HETATM   35  C6  UNL     1       3.568   0.505  -0.123  1.00  0.00     0.124 C 
HETATM   36  C5  UNL     1       3.799  -0.709   0.749  1.00  0.00     0.051 C 
HETATM   37  C4  UNL     1       5.123  -1.230   0.281  1.00  0.00     0.130 C 
HETATM   38  N1  UNL     1       5.458  -0.577  -0.963  1.00  0.00    -0.363 N 
HETATM   39  C28 UNL     1       4.602   0.500  -1.214  1.00  0.00     0.088 C 
BRANCH  38  40
HETATM   40  C3  UNL     1       6.841  -0.500  -1.219  1.00  0.00     0.172 C 
BRANCH  40  41
HETATM   41  C2  UNL     1       7.592   0.360  -0.286  1.00  0.00     0.298 C 
HETATM   42  O2  UNL     1       7.050   1.292   0.318  1.00  0.00    -0.259 OA
BRANCH  41  43
HETATM   43  O1  UNL     1       8.966   0.127  -0.058  1.00  0.00    -0.322 OA
HETATM   44  C1  UNL     1       9.714   0.934   0.857  1.00  0.00     0.213 C 
ENDBRANCH  41  43
ENDBRANCH  40  41
ENDBRANCH  38  40
ENDBRANCH   1  35
BRANCH  33  45
HETATM   45  C26 UNL     1       0.002  -4.835  -1.379  1.00  0.00     0.271 C 
BRANCH  45  46
HETATM   46  N7  UNL     1       0.972  -4.638  -2.495  1.00  0.00    -0.075 N 
ATOM     47  H73 UNL     1       0.674  -3.890  -3.121  1.00  0.00     0.274 HD
ATOM     48  H72 UNL     1       1.845  -4.227  -2.163  1.00  0.00     0.274 HD
ATOM     49  H71 UNL     1       1.137  -5.507  -3.003  1.00  0.00     0.274 HD
ENDBRANCH  45  46
ENDBRANCH  33  45
TORSDOF 6
