REMARK  8 active torsions:
REMARK  status: ('A' for Active; 'I' for Inactive)
REMARK    1  A    between atoms: N3_19  and  C16_20 
REMARK    2  A    between atoms: C19_24  and  O2_25 
REMARK    3  A    between atoms: O2_25  and  C20_26 
REMARK    4  A    between atoms: C21_28  and  C22_29 
REMARK    5  A    between atoms: C22_29  and  O4_30 
REMARK    6  A    between atoms: C23_32  and  O5_33 
REMARK    7  A    between atoms: C24_35  and  O6_36 
REMARK    8  A    between atoms: C25_38  and  O7_39 
ROOT
HETATM    1  C1  UNL     1      -1.525   3.917  -1.794  1.00  0.00     0.309 C 
HETATM    2  N1  UNL     1      -2.061   2.885  -0.943  1.00  0.00     0.085 N 
HETATM    3  C2  UNL     1      -3.478   3.131  -0.775  1.00  0.00     0.272 C 
HETATM    4  C3  UNL     1      -3.994   2.595   0.541  1.00  0.00     0.030 C 
HETATM    5  C4  UNL     1      -4.670   1.279   0.320  1.00  0.00     0.002 C 
HETATM    6  C5  UNL     1      -6.083   1.230   0.802  1.00  0.00     0.012 C 
HETATM    7  C6  UNL     1      -6.212   0.352   2.032  1.00  0.00     0.094 C 
HETATM    8  C7  UNL     1      -5.923  -1.003   1.822  1.00  0.00    -0.102 C 
HETATM    9  C8  UNL     1      -5.681  -2.079   1.636  1.00  0.00    -0.079 C 
HETATM   10  C9  UNL     1      -5.367  -3.406   1.382  1.00  0.00     0.062 C 
HETATM   11  C10 UNL     1      -4.753  -3.875   0.307  1.00  0.00     0.001 C 
HETATM   12  C11 UNL     1      -4.294  -3.060  -0.817  1.00  0.00     0.142 C 
HETATM   13  N2  UNL     1      -3.247  -2.145  -0.523  1.00  0.00    -0.418 N 
ATOM     14  H2  UNL     1      -3.366  -1.139  -0.641  1.00  0.00     0.153 HD
HETATM   15  C12 UNL     1      -2.029  -2.702  -0.058  1.00  0.00     0.114 C 
HETATM   16  C13 UNL     1      -1.229  -1.776   0.821  1.00  0.00     0.024 C 
HETATM   17  C14 UNL     1       0.212  -1.654   0.408  1.00  0.00     0.046 C 
HETATM   18  C15 UNL     1       0.346  -0.836  -0.868  1.00  0.00     0.061 C 
HETATM   19  N3  UNL     1       0.219   0.544  -0.727  1.00  0.00    -0.364 N 
HETATM   20  C26 UNL     1      -0.473   1.213  -1.812  1.00  0.00     0.154 C 
HETATM   21  C27 UNL     1      -1.892   1.551  -1.498  1.00  0.00     0.291 C 
ENDROOT
BRANCH  19  22
HETATM   22  C16 UNL     1       0.988   1.331   0.087  1.00  0.00     0.251 C 
HETATM   23  O1  UNL     1       0.924   1.132   1.466  1.00  0.00    -0.364 OA
HETATM   24  C17 UNL     1       1.579   2.270   1.936  1.00  0.00     0.173 C 
HETATM   25  C18 UNL     1       2.667   2.617   0.928  1.00  0.00     0.063 C 
HETATM   26  C19 UNL     1       2.454   1.479  -0.104  1.00  0.00     0.175 C 
BRANCH  26  27
HETATM   27  O2  UNL     1       3.270   0.486   0.324  1.00  0.00    -0.349 OA
BRANCH  27  28
HETATM   28  C20 UNL     1       4.247   0.082  -0.556  1.00  0.00     0.292 C 
HETATM   29  O3  UNL     1       4.048  -1.214  -0.926  1.00  0.00    -0.348 OA
HETATM   30  C21 UNL     1       4.936  -2.153  -0.501  1.00  0.00     0.179 C 
HETATM   31  C23 UNL     1       6.384  -1.831  -0.658  1.00  0.00     0.180 C 
HETATM   32  C24 UNL     1       6.573  -0.392  -1.038  1.00  0.00     0.183 C 
HETATM   33  C25 UNL     1       5.647   0.409  -0.109  1.00  0.00     0.204 C 
BRANCH  30  34
HETATM   34  C22 UNL     1       4.693  -2.652   0.913  1.00  0.00     0.198 C 
BRANCH  34  35
HETATM   35  O4  UNL     1       3.435  -3.239   1.037  1.00  0.00    -0.398 OA
ATOM     36  H4  UNL     1       3.283  -3.551   1.921  1.00  0.00     0.209 HD
ENDBRANCH  34  35
ENDBRANCH  30  34
BRANCH  31  37
HETATM   37  O5  UNL     1       7.079  -2.016   0.560  1.00  0.00    -0.390 OA
ATOM     38  H5  UNL     1       8.001  -1.811   0.460  1.00  0.00     0.210 HD
ENDBRANCH  31  37
BRANCH  32  39
HETATM   39  O6  UNL     1       7.862  -0.006  -0.769  1.00  0.00    -0.390 OA
ATOM     40  H6  UNL     1       7.982   0.905  -1.010  1.00  0.00     0.210 HD
ENDBRANCH  32  39
BRANCH  33  41
HETATM   41  O7  UNL     1       5.985   1.749  -0.347  1.00  0.00    -0.388 OA
ATOM     42  H7  UNL     1       6.868   1.955  -0.065  1.00  0.00     0.210 HD
ENDBRANCH  33  41
ENDBRANCH  27  28
ENDBRANCH  26  27
ENDBRANCH  19  22
TORSDOF 8
