REMARK  7 active torsions:
REMARK  status: ('A' for Active; 'I' for Inactive)
REMARK       I    between atoms: C1_2  and  N3_4 
REMARK       I    between atoms: N3_4  and  C2_6 
REMARK    1  A    between atoms: C2_6  and  C3_8 
REMARK    2  A    between atoms: C3_8  and  N4_9 
REMARK    3  A    between atoms: C10_18  and  N5_19 
REMARK    4  A    between atoms: N5_19  and  C11_21 
REMARK    5  A    between atoms: C17_30  and  O4_31 
REMARK    6  A    between atoms: N7_33  and  C18_34 
REMARK    7  A    between atoms: C18_34  and  C19_35 
ROOT
HETATM    1  N4  UNL     1      -4.147   0.809   0.608  1.00  0.00    -0.317 N 
HETATM    2  C4  UNL     1      -4.300   0.113  -0.651  1.00  0.00     0.154 C 
HETATM    3  C5  UNL     1      -4.989  -1.236  -0.483  1.00  0.00     0.187 C 
HETATM    4  O2  UNL     1      -4.570  -2.026  -1.576  1.00  0.00    -0.387 OA
HETATM    5  C6  UNL     1      -3.713  -3.042  -1.185  1.00  0.00     0.193 C 
HETATM    6  C7  UNL     1      -2.394  -2.923  -1.919  1.00  0.00     0.193 C 
HETATM    7  O3  UNL     1      -1.347  -3.494  -1.242  1.00  0.00    -0.389 OA
HETATM    8  C8  UNL     1      -0.926  -2.808  -0.135  1.00  0.00     0.169 C 
HETATM    9  C9  UNL     1      -0.049  -1.640  -0.490  1.00  0.00     0.053 C 
HETATM   10  C10 UNL     1       0.175  -0.703   0.651  1.00  0.00     0.109 C 
HETATM   11  C22 UNL     1      -0.934   0.359   0.688  1.00  0.00     0.205 C 
HETATM   12  O5  UNL     1      -2.028  -0.160   1.384  1.00  0.00    -0.302 OA
HETATM   13  C23 UNL     1      -3.241   0.407   1.628  1.00  0.00     0.363 C 
HETATM   14  O6  UNL     1      -3.668   0.625   2.820  1.00  0.00    -0.238 OA
ENDROOT
BRANCH  10  15
HETATM   15  N5  UNL     1       1.447  -0.055   0.519  1.00  0.00    -0.369 N 
ATOM     16  H5  UNL     1       1.436   0.912   0.193  1.00  0.00     0.161 HD
BRANCH  15  17
HETATM   17  C11 UNL     1       2.583  -0.559   0.765  1.00  0.00     0.103 A 
HETATM   18  C12 UNL     1       3.704   0.231   0.576  1.00  0.00     0.078 A 
HETATM   19  C13 UNL     1       4.983  -0.271   0.830  1.00  0.00     0.053 A 
HETATM   20  C14 UNL     1       5.070  -1.584   1.277  1.00  0.00     0.028 A 
HETATM   21  N7  UNL     1       6.202   0.286   0.726  1.00  0.00    -0.325 N 
HETATM   22  C15 UNL     1       3.948  -2.357   1.460  1.00  0.00     0.105 A 
HETATM   23  C16 UNL     1       6.438  -1.811   1.445  1.00  0.00     0.076 A 
HETATM   24  N6  UNL     1       2.751  -1.824   1.200  1.00  0.00    -0.352 N 
ATOM     25  H6  UNL     1       1.923  -2.403   1.337  1.00  0.00     0.166 HD
HETATM   26  S1  UNL     1       7.130  -3.354   2.010  1.00  0.00    -0.047 SA
HETATM   27  C17 UNL     1       7.096  -0.647   1.100  1.00  0.00     0.161 A 
BRANCH  27  28
HETATM   28  O4  UNL     1       8.476  -0.499   1.143  1.00  0.00    -0.345 OA
ATOM     29  H4  UNL     1       8.929   0.302   0.906  1.00  0.00     0.219 HD
ENDBRANCH  27  28
BRANCH  21  30
HETATM   30  C18 UNL     1       6.484   1.641   0.291  1.00  0.00     0.136 C 
BRANCH  30  31
HETATM   31  C19 UNL     1       6.676   1.684  -1.193  1.00  0.00     0.004 A 
HETATM   32  C20 UNL     1       6.979   3.094  -1.729  1.00  0.00     0.007 A 
HETATM   33  C21 UNL     1       7.988   2.004  -1.796  1.00  0.00     0.007 A 
ENDBRANCH  30  31
ENDBRANCH  21  30
ENDBRANCH  15  17
ENDBRANCH  10  15
BRANCH   1  34
HETATM   34  C3  UNL     1      -4.978   1.978   0.817  1.00  0.00     0.231 C 
BRANCH  34  35
HETATM   35  C2  UNL     1      -6.266   1.647   1.449  1.00  0.00     0.241 C 
HETATM   36  N3  UNL     1      -7.196   2.677   1.722  1.00  0.00    -0.302 N 
HETATM   37  C1  UNL     1      -7.916   3.134   0.753  1.00  0.00     0.203 C 
ATOM     38  H3  UNL     1      -7.296   3.051   2.666  1.00  0.00     0.171 HD
HETATM   39  N1  UNL     1      -8.843   4.162   1.029  1.00  0.00    -0.066 NA
HETATM   40  N2  UNL     1      -7.822   2.652  -0.581  1.00  0.00    -0.066 NA
HETATM   41  O1  UNL     1      -6.563   0.472   1.755  1.00  0.00    -0.271 OA
ENDBRANCH  34  35
ENDBRANCH   1  34
TORSDOF 7
