REMARK  9 active torsions:
REMARK  status: ('A' for Active; 'I' for Inactive)
REMARK    1  A    between atoms: N1_1  and  C1_5 
REMARK    2  A    between atoms: C3_7  and  O1_8 
REMARK    3  A    between atoms: C4_10  and  N2_11 
REMARK    4  A    between atoms: C7_16  and  N4_17 
REMARK    5  A    between atoms: N4_17  and  C8_19 
REMARK    6  A    between atoms: C11_22  and  N5_23 
REMARK    7  A    between atoms: N6_26  and  C14_27 
REMARK    8  A    between atoms: C26_43  and  O2_44 
REMARK    9  A    between atoms: C27_46  and  O3_47 
ROOT
HETATM    1  N2  UNL     1       5.910  -0.108   0.139  1.00  0.00    -0.317 N 
HETATM    2  C5  UNL     1       5.642  -1.066   1.045  1.00  0.00     0.185 A 
HETATM    3  N3  UNL     1       4.322  -1.384   1.038  1.00  0.00    -0.346 N 
ATOM      4  H3  UNL     1       3.860  -2.077   1.627  1.00  0.00     0.167 HD
HETATM    5  C6  UNL     1       3.752  -0.621   0.120  1.00  0.00     0.122 A 
HETATM    6  C7  UNL     1       2.393  -0.555  -0.285  1.00  0.00     0.133 A 
HETATM    7  N7  UNL     1       2.167   0.346  -1.256  1.00  0.00    -0.337 N 
ATOM      8  H7  UNL     1       1.211   0.448  -1.598  1.00  0.00     0.168 HD
HETATM    9  C24 UNL     1       3.123   1.126  -1.810  1.00  0.00     0.183 A 
HETATM   10  N8  UNL     1       4.399   1.046  -1.410  1.00  0.00    -0.336 N 
ATOM     11  H8  UNL     1       5.117   1.637  -1.829  1.00  0.00     0.168 HD
HETATM   12  C25 UNL     1       4.705   0.171  -0.447  1.00  0.00     0.141 A 
ENDROOT
BRANCH   6  13
HETATM   13  N4  UNL     1       1.561  -1.296   0.264  1.00  0.00    -0.370 N 
ATOM     14  H4  UNL     1       2.070  -1.848   0.954  1.00  0.00     0.161 HD
BRANCH  13  15
HETATM   15  C8  UNL     1       0.257  -1.685   0.336  1.00  0.00     0.083 C 
HETATM   16  C9  UNL     1      -0.413  -1.210   1.644  1.00  0.00     0.027 C 
HETATM   17  C10 UNL     1      -1.869  -0.904   1.432  1.00  0.00     0.038 C 
HETATM   18  C11 UNL     1      -2.586  -1.859   0.535  1.00  0.00     0.223 C 
HETATM   19  C22 UNL     1      -1.850  -2.105  -0.777  1.00  0.00     0.038 C 
HETATM   20  C23 UNL     1      -0.579  -1.251  -0.842  1.00  0.00     0.027 C 
BRANCH  18  21
HETATM   21  N5  UNL     1      -3.884  -1.310   0.196  1.00  0.00     0.096 N 
HETATM   22  C12 UNL     1      -4.706  -2.227  -0.552  1.00  0.00     0.303 C 
HETATM   23  C13 UNL     1      -5.854  -1.429  -1.145  1.00  0.00     0.303 C 
HETATM   24  N6  UNL     1      -6.616  -0.880  -0.012  1.00  0.00     0.096 N 
HETATM   25  C20 UNL     1      -5.804   0.003   0.754  1.00  0.00     0.303 C 
HETATM   26  C21 UNL     1      -4.619  -0.800   1.305  1.00  0.00     0.303 C 
BRANCH  24  27
HETATM   27  C14 UNL     1      -7.802  -0.277  -0.554  1.00  0.00     0.223 C 
HETATM   28  C15 UNL     1      -7.588   0.869  -1.473  1.00  0.00     0.036 C 
HETATM   29  C16 UNL     1      -8.220   2.135  -0.878  1.00  0.00     0.002 C 
HETATM   30  C17 UNL     1      -9.701   1.874  -0.776  1.00  0.00     0.000 C 
HETATM   31  C18 UNL     1     -10.000   0.599  -0.010  1.00  0.00     0.002 C 
HETATM   32  C19 UNL     1      -8.700   0.121   0.599  1.00  0.00     0.036 C 
ENDBRANCH  24  27
ENDBRANCH  18  21
ENDBRANCH  13  15
ENDBRANCH   6  13
BRANCH   1  33
HETATM   33  C4  UNL     1       7.192   0.502  -0.154  1.00  0.00     0.152 C 
HETATM   34  C3  UNL     1       8.254  -0.470  -0.550  1.00  0.00     0.146 C 
HETATM   35  C2  UNL     1       9.611   0.200  -0.396  1.00  0.00     0.069 C 
HETATM   36  C1  UNL     1       9.488   1.689  -0.668  1.00  0.00     0.217 C 
HETATM   37  C27 UNL     1       8.675   2.390   0.390  1.00  0.00     0.179 C 
HETATM   38  C26 UNL     1       7.612   1.467   0.933  1.00  0.00     0.174 C 
BRANCH  34  39
HETATM   39  O1  UNL     1       8.202  -1.695   0.067  1.00  0.00    -0.393 OA
ATOM     40  H1  UNL     1       7.355  -2.113  -0.029  1.00  0.00     0.210 HD
ENDBRANCH  34  39
BRANCH  36  41
HETATM   41  N1  UNL     1      10.825   2.266  -0.725  1.00  0.00    -0.072 N 
ATOM     42  H13 UNL     1      11.372   2.066   0.112  1.00  0.00     0.274 HD
ATOM     43  H12 UNL     1      11.425   1.794  -1.401  1.00  0.00     0.274 HD
ATOM     44  H11 UNL     1      10.742   3.266  -0.908  1.00  0.00     0.274 HD
ENDBRANCH  36  41
BRANCH  37  45
HETATM   45  O3  UNL     1       8.036   3.526  -0.104  1.00  0.00    -0.391 OA
ATOM     46  H3  UNL     1       7.524   3.968   0.563  1.00  0.00     0.210 HD
ENDBRANCH  37  45
BRANCH  38  47
HETATM   47  O2  UNL     1       8.031   0.876   2.092  1.00  0.00    -0.391 OA
ATOM     48  H2  UNL     1       8.295   1.482   2.775  1.00  0.00     0.210 HD
ENDBRANCH  38  47
ENDBRANCH   1  33
TORSDOF 9
