REMARK  6 active torsions:
REMARK  status: ('A' for Active; 'I' for Inactive)
REMARK    1  A    between atoms: C4_7  and  C5_8 
REMARK    2  A    between atoms: N6_22  and  C13_24 
REMARK    3  A    between atoms: C14_27  and  N8_28 
REMARK    4  A    between atoms: N8_28  and  C15_30 
REMARK    5  A    between atoms: C20_36  and  N9_37 
REMARK    6  A    between atoms: C25_45  and  N11_46 
ROOT
HETATM    1  N1  UNL     1       1.554   0.254  -5.932  1.00  0.00    -0.191 NA
HETATM    2  C1  UNL     1       2.144   0.085  -4.965  1.00  0.00     0.104 C 
HETATM    3  C2  UNL     1       2.894  -0.129  -3.760  1.00  0.00     0.104 A 
HETATM    4  C3  UNL     1       4.113  -0.803  -3.842  1.00  0.00     0.116 A 
HETATM    5  N2  UNL     1       4.817  -1.001  -2.712  1.00  0.00    -0.349 N 
ATOM      6  H2  UNL     1       5.710  -1.491  -2.758  1.00  0.00     0.167 HD
HETATM    7  C4  UNL     1       4.363  -0.564  -1.524  1.00  0.00     0.134 A 
HETATM    8  N5  UNL     1       3.183   0.087  -1.450  1.00  0.00    -0.325 N 
ATOM      9  H5  UNL     1       2.850   0.413  -0.543  1.00  0.00     0.169 HD
HETATM   10  C12 UNL     1       2.440   0.315  -2.538  1.00  0.00     0.144 A 
HETATM   11  N6  UNL     1       1.316   0.937  -2.513  1.00  0.00    -0.174 N 
ATOM     12  H6  UNL     1       0.810   1.077  -3.387  1.00  0.00     0.186 HD
ENDROOT
BRANCH  11  13
HETATM   13  C13 UNL     1       0.752   1.440  -1.298  1.00  0.00     0.713 A 
HETATM   14  N7  UNL     1      -0.559   1.130  -1.072  1.00  0.00    -0.021 N 
HETATM   15  C14 UNL     1      -1.178   1.556   0.027  1.00  0.00     0.707 A 
ATOM     16  H7  UNL     1      -1.069   0.566  -1.752  1.00  0.00     0.203 HD
HETATM   17  N10 UNL     1      -0.483   2.308   0.928  1.00  0.00    -0.022 N 
HETATM   18  C25 UNL     1       0.798   2.612   0.710  1.00  0.00     0.705 A 
ATOM     19  H10 UNL     1      -0.946   2.640   1.774  1.00  0.00     0.203 HD
HETATM   20  N12 UNL     1       1.435   2.182  -0.408  1.00  0.00    -0.021 N 
ATOM     21  H12 UNL     1       2.414   2.417  -0.571  1.00  0.00     0.203 HD
BRANCH  15  22
HETATM   22  N8  UNL     1      -2.395   1.349   0.351  1.00  0.00    -0.218 N 
ATOM     23  H8  UNL     1      -2.688   1.757   1.239  1.00  0.00     0.178 HD
BRANCH  22  24
HETATM   24  C15 UNL     1      -3.402   0.627  -0.355  1.00  0.00     0.124 C 
HETATM   25  C16 UNL     1      -3.263   0.929  -1.838  1.00  0.00     0.054 C 
HETATM   26  C17 UNL     1      -4.620   1.076  -2.494  1.00  0.00     0.169 C 
HETATM   27  O1  UNL     1      -5.058  -0.194  -2.832  1.00  0.00    -0.391 OA
HETATM   28  C18 UNL     1      -5.288  -0.911  -1.683  1.00  0.00     0.169 C 
HETATM   29  C19 UNL     1      -4.064  -1.601  -1.126  1.00  0.00     0.053 C 
HETATM   30  C20 UNL     1      -3.392  -0.816  -0.015  1.00  0.00     0.108 C 
BRANCH  30  31
HETATM   31  N9  UNL     1      -3.832  -1.110   1.260  1.00  0.00    -0.383 N 
HETATM   32  C21 UNL     1      -3.160  -0.683   2.427  1.00  0.00     0.148 C 
HETATM   33  C22 UNL     1      -4.049   0.322   3.181  1.00  0.00     0.187 C 
HETATM   34  O2  UNL     1      -5.329   0.334   2.686  1.00  0.00    -0.385 OA
HETATM   35  C23 UNL     1      -5.871  -0.934   2.472  1.00  0.00     0.212 C 
HETATM   36  C24 UNL     1      -5.027  -1.783   1.535  1.00  0.00     0.084 C 
ENDBRANCH  30  31
ENDBRANCH  22  24
ENDBRANCH  15  22
BRANCH  18  37
HETATM   37  N11 UNL     1       1.465   3.319   1.544  1.00  0.00    -0.234 N 
ATOM     38 2H11 UNL     1       0.986   3.642   2.385  1.00  0.00     0.174 HD
ATOM     39 1H11 UNL     1       2.444   3.551   1.377  1.00  0.00     0.174 HD
ENDBRANCH  18  37
ENDBRANCH  11  13
BRANCH   7  40
HETATM   40  C5  UNL     1       5.170  -0.800  -0.336  1.00  0.00     0.079 A 
HETATM   41  C6  UNL     1       4.870  -0.424   0.941  1.00  0.00     0.065 A 
HETATM   42  C7  UNL     1       5.909  -0.843   1.775  1.00  0.00     0.061 A 
HETATM   43  N3  UNL     1       6.134  -0.739   3.107  1.00  0.00    -0.364 N 
HETATM   44  C11 UNL     1       6.821  -1.470   0.960  1.00  0.00     0.059 A 
HETATM   45  C8  UNL     1       7.253  -1.247   3.651  1.00  0.00     0.088 A 
ATOM     46  H3  UNL     1       5.449  -0.272   3.701  1.00  0.00     0.165 HD
HETATM   47  C9  UNL     1       8.199  -1.883   2.887  1.00  0.00     0.019 A 
HETATM   48  C10 UNL     1       7.967  -1.992   1.507  1.00  0.00     0.033 A 
HETATM   49  N4  UNL     1       6.370  -1.442  -0.310  1.00  0.00    -0.351 N 
ATOM     50  H4  UNL     1       6.849  -1.837  -1.119  1.00  0.00     0.166 HD
ENDBRANCH   7  40
TORSDOF 6
