REMARK  11 active torsions:
REMARK  status: ('A' for Active; 'I' for Inactive)
REMARK    1  A    between atoms: N1_2  and  C1_4 
REMARK    2  A    between atoms: C1_4  and  C2_6 
REMARK    3  A    between atoms: C2_6  and  C3_8 
REMARK    4  A    between atoms: C3_8  and  C4_9 
REMARK    5  A    between atoms: C4_9  and  C5_10 
REMARK    6  A    between atoms: C5_10  and  C6_11 
REMARK    7  A    between atoms: C6_11  and  C7_12 
REMARK    8  A    between atoms: C7_12  and  N2_14 
REMARK    9  A    between atoms: N2_14  and  C8_16 
REMARK   10  A    between atoms: C11_20  and  S2_21 
REMARK   11  A    between atoms: S2_21  and  C12_22 
ROOT
HETATM    1  N2  UNL     1       0.887   1.257  -0.067  1.00  0.00    -0.348 N 
ATOM      2  H2  UNL     1       0.536   1.706  -0.913  1.00  0.00     0.166 HD
ENDROOT
BRANCH   1   3
HETATM    3  C7  UNL     1       0.023   1.042   1.029  1.00  0.00     0.078 C 
HETATM    4  S1  UNL     1       0.605   0.369   2.397  1.00  0.00    -0.065 SA
BRANCH   3   5
HETATM    5  C6  UNL     1      -1.410   1.450   1.010  1.00  0.00     0.069 C 
BRANCH   5   6
HETATM    6  C5  UNL     1      -2.225   0.632   1.974  1.00  0.00     0.007 C 
BRANCH   6   7
HETATM    7  C4  UNL     1      -2.320  -0.813   1.665  1.00  0.00     0.002 C 
BRANCH   7   8
HETATM    8  C3  UNL     1      -2.976  -1.225   0.399  1.00  0.00     0.024 C 
BRANCH   8   9
HETATM    9  C2  UNL     1      -4.414  -0.943   0.217  1.00  0.00     0.126 C 
HETATM   10 CL2  UNL     1      -4.820   0.769   0.162  1.00  0.00    -0.121 Cl
BRANCH   9  11
HETATM   11  C1  UNL     1      -4.819  -1.499  -1.173  1.00  0.00     0.269 C 
HETATM   12 CL1  UNL     1      -3.867  -0.585  -2.360  1.00  0.00    -0.094 Cl
BRANCH  11  13
HETATM   13  N1  UNL     1      -6.217  -1.305  -1.396  1.00  0.00    -0.134 N 
HETATM   14  O1  UNL     1      -6.945  -2.277  -1.650  1.00  0.00    -0.535 OA
HETATM   15  O2  UNL     1      -6.818  -0.064  -1.343  1.00  0.00    -0.535 OA
ENDBRANCH  11  13
ENDBRANCH   9  11
ENDBRANCH   8   9
ENDBRANCH   7   8
ENDBRANCH   6   7
ENDBRANCH   5   6
ENDBRANCH   3   5
ENDBRANCH   1   3
BRANCH   1  16
HETATM   16  C8  UNL     1       2.236   0.850   0.008  1.00  0.00     0.077 A 
HETATM   17  C9  UNL     1       2.648  -0.412  -0.377  1.00  0.00     0.063 A 
HETATM   18 CL3  UNL     1       1.407  -1.527  -0.974  1.00  0.00    -0.082 Cl
HETATM   19  C10 UNL     1       3.963  -0.776  -0.296  1.00  0.00     0.045 A 
HETATM   20  C11 UNL     1       4.895   0.118   0.174  1.00  0.00     0.012 A 
HETATM   21  C13 UNL     1       4.488   1.375   0.558  1.00  0.00     0.045 A 
HETATM   22  C14 UNL     1       3.171   1.763   0.485  1.00  0.00     0.063 A 
HETATM   23 CL4  UNL     1       2.630   3.373   0.973  1.00  0.00    -0.082 Cl
BRANCH  20  24
HETATM   24  S2  UNL     1       6.611  -0.309   0.296  1.00  0.00    -0.016 SA
BRANCH  24  25
HETATM   25  C12 UNL     1       7.426   0.116  -1.253  1.00  0.00     0.448 C 
HETATM   26  F1  UNL     1       7.448   1.479  -1.468  1.00  0.00    -0.160 F 
HETATM   27  F2  UNL     1       8.718  -0.372  -1.194  1.00  0.00    -0.160 F 
HETATM   28  F3  UNL     1       6.777  -0.530  -2.283  1.00  0.00    -0.160 F 
ENDBRANCH  24  25
ENDBRANCH  20  24
ENDBRANCH   1  16
TORSDOF 11
