REMARK  11 active torsions:
REMARK  status: ('A' for Active; 'I' for Inactive)
REMARK    1  A    between atoms: C6_6  and  C7_7 
REMARK    2  A    between atoms: C8_11  and  C9_12 
REMARK    3  A    between atoms: C9_12  and  C10_13 
REMARK    4  A    between atoms: C10_13  and  C11_14 
REMARK    5  A    between atoms: C11_14  and  C12_15 
REMARK    6  A    between atoms: C12_15  and  C13_17 
REMARK    7  A    between atoms: C12_15  and  C14_20 
REMARK    8  A    between atoms: C14_20  and  C15_21 
REMARK    9  A    between atoms: C14_20  and  N1_30 
REMARK   10  A    between atoms: C15_21  and  C16_22 
REMARK   11  A    between atoms: C18_24  and  C19_25 
ROOT
HETATM    1  C12 UNL     1       1.423  -0.844  -0.450  1.00  0.00     0.151 C 
HETATM    2 CL1  UNL     1       1.200  -2.494   0.165  1.00  0.00    -0.105 Cl
ENDROOT
BRANCH   1   3
HETATM    3  C11 UNL     1       0.441   0.132   0.071  1.00  0.00     0.039 C 
BRANCH   3   4
HETATM    4  C10 UNL     1      -0.995  -0.160  -0.251  1.00  0.00     0.003 C 
BRANCH   4   5
HETATM    5  C9  UNL     1      -1.924   0.906   0.357  1.00  0.00     0.006 C 
BRANCH   5   6
HETATM    6  C8  UNL     1      -3.346   0.577   0.021  1.00  0.00     0.002 C 
HETATM    7  C2  UNL     1      -3.791  -0.768   0.541  1.00  0.00    -0.014 C 
HETATM    8  C1  UNL     1      -3.365  -1.094   1.930  1.00  0.00     0.010 C 
HETATM    9  C3  UNL     1      -5.256  -1.041   0.404  1.00  0.00     0.005 C 
HETATM   10  C4  UNL     1      -5.825  -0.142  -0.655  1.00  0.00     0.001 C 
HETATM   11  C5  UNL     1      -5.669   1.317  -0.315  1.00  0.00     0.014 C 
HETATM   12  C6  UNL     1      -4.305   1.689   0.160  1.00  0.00     0.098 C 
BRANCH  12  13
HETATM   13  C7  UNL     1      -4.399   2.381   1.473  1.00  0.00     0.391 C 
HETATM   14  F1  UNL     1      -4.986   1.596   2.446  1.00  0.00    -0.171 F 
HETATM   15  F2  UNL     1      -5.216   3.503   1.382  1.00  0.00    -0.171 F 
HETATM   16  F3  UNL     1      -3.210   2.830   1.984  1.00  0.00    -0.171 F 
ENDBRANCH  12  13
ENDBRANCH   5   6
ENDBRANCH   4   5
ENDBRANCH   3   4
ENDBRANCH   1   3
BRANCH   1  17
HETATM   17  C13 UNL     1       1.282  -0.978  -1.950  1.00  0.00     0.200 C 
HETATM   18  O1  UNL     1       2.070  -0.447  -2.759  1.00  0.00    -0.646 OA
HETATM   19  O2  UNL     1       0.234  -1.718  -2.473  1.00  0.00    -0.646 OA
ENDBRANCH   1  17
BRANCH   1  20
HETATM   20  C14 UNL     1       2.835  -0.420  -0.141  1.00  0.00     0.196 C 
BRANCH  20  21
HETATM   21  C15 UNL     1       3.874  -1.387  -0.601  1.00  0.00     0.099 C 
BRANCH  21  22
HETATM   22  C16 UNL     1       5.261  -0.907  -0.282  1.00  0.00     0.055 A 
HETATM   23  C17 UNL     1       6.031  -0.094  -1.116  1.00  0.00     0.047 A 
HETATM   24  C18 UNL     1       7.229   0.123  -0.484  1.00  0.00     0.030 A 
HETATM   25  C20 UNL     1       7.157  -0.560   0.711  1.00  0.00     0.154 A 
HETATM   26  O3  UNL     1       5.986  -1.142   0.774  1.00  0.00    -0.326 OA
BRANCH  24  27
HETATM   27  C19 UNL     1       8.366   0.942  -1.007  1.00  0.00     0.388 C 
HETATM   28  F4  UNL     1       8.801   0.448  -2.229  1.00  0.00    -0.209 F 
HETATM   29  F5  UNL     1       7.983   2.264  -1.169  1.00  0.00    -0.209 F 
ENDBRANCH  24  27
ENDBRANCH  21  22
ENDBRANCH  20  21
BRANCH  20  30
HETATM   30  N1  UNL     1       3.015   0.069   1.205  1.00  0.00    -0.148 N 
HETATM   31  O4  UNL     1       3.600  -0.546   2.121  1.00  0.00    -0.536 OA
HETATM   32  O5  UNL     1       2.510   1.309   1.602  1.00  0.00    -0.536 OA
ENDBRANCH  20  30
ENDBRANCH   1  20
TORSDOF 11
