REMARK  4 active torsions:
REMARK  status: ('A' for Active; 'I' for Inactive)
REMARK    1  A    between atoms: N1_1  and  C1_5 
REMARK    2  A    between atoms: C5_9  and  N2_10 
REMARK    3  A    between atoms: N2_10  and  C6_12 
REMARK    4  A    between atoms: C9_16  and  O2_17 
ROOT
HETATM    1  C1  UNL     1      -1.994  -0.058  -0.058  1.00  0.00     0.212 C 
HETATM    2  C2  UNL     1      -1.455   0.839  -1.124  1.00  0.00     0.040 C 
HETATM    3  C3  UNL     1      -0.229   1.573  -0.579  1.00  0.00    -0.010 C 
HETATM    4  C4  UNL     1       0.994   0.757  -0.997  1.00  0.00     0.030 C 
HETATM    5  C5  UNL     1       1.517   0.116   0.268  1.00  0.00     0.090 C 
HETATM    6  C7  UNL     1       0.257  -0.005   1.071  1.00  0.00     0.039 C 
HETATM    7  C8  UNL     1      -0.208   1.460   0.936  1.00  0.00     0.014 C 
HETATM    8  C9  UNL     1      -0.815  -0.853   0.522  1.00  0.00     0.154 C 
ENDROOT
BRANCH   1   9
HETATM    9  N1  UNL     1      -2.865  -1.051  -0.710  1.00  0.00    -0.073 N 
ATOM     10  H13 UNL     1      -3.597  -0.625  -1.278  1.00  0.00     0.274 HD
ATOM     11  H12 UNL     1      -2.395  -1.561  -1.458  1.00  0.00     0.274 HD
ATOM     12  H11 UNL     1      -3.233  -1.663   0.018  1.00  0.00     0.274 HD
ENDBRANCH   1   9
BRANCH   8  13
HETATM   13  O2  UNL     1      -0.471  -1.763  -0.441  1.00  0.00    -0.393 OA
ATOM     14  H2  UNL     1       0.258  -2.255  -0.082  1.00  0.00     0.210 HD
ENDBRANCH   8  13
BRANCH   5  15
HETATM   15  N2  UNL     1       2.295  -1.050   0.087  1.00  0.00    -0.363 N 
ATOM     16  H2  UNL     1       1.894  -1.870  -0.369  1.00  0.00     0.162 HD
BRANCH  15  17
HETATM   17  C6  UNL     1       3.636  -1.071   0.544  1.00  0.00     0.348 C 
HETATM   18  O1  UNL     1       4.129  -0.066   1.104  1.00  0.00    -0.284 OA
ENDBRANCH  15  17
ENDBRANCH   5  15
TORSDOF 4
