REMARK  7 active torsions:
REMARK  status: ('A' for Active; 'I' for Inactive)
REMARK    1  A    between atoms: C1_2  and  N1_3 
REMARK    2  A    between atoms: N1_3  and  C2_4 
REMARK    3  A    between atoms: N1_3  and  C6_10 
REMARK    4  A    between atoms: C2_4  and  C3_5 
REMARK    5  A    between atoms: C4_6  and  C5_7 
REMARK    6  A    between atoms: C5_7  and  O2_8 
REMARK    7  A    between atoms: C10_14  and  O3_15 
ROOT
HETATM    1  N1  UNL     1      -0.291  -0.378   0.884  1.00  0.00    -0.341 N 
ENDROOT
BRANCH   1   2
HETATM    2  C1  UNL     1      -0.416   0.583   1.901  1.00  0.00     0.352 C 
HETATM    3  O1  UNL     1      -1.262   1.495   1.815  1.00  0.00    -0.283 OA
ENDBRANCH   1   2
BRANCH   1   4
HETATM    4  C2  UNL     1       0.720  -1.412   1.038  1.00  0.00     0.220 C 
BRANCH   4   5
HETATM    5  C3  UNL     1       1.946  -0.881   0.420  1.00  0.00    -0.085 C 
HETATM    6  C4  UNL     1       2.950  -0.434  -0.069  1.00  0.00    -0.079 C 
BRANCH   6   7
HETATM    7  C5  UNL     1       4.181   0.113  -0.645  1.00  0.00     0.257 C 
BRANCH   7   8
HETATM    8  O2  UNL     1       4.590   1.149   0.184  1.00  0.00    -0.389 OA
ATOM      9  H2  UNL     1       5.388   1.504  -0.190  1.00  0.00     0.210 HD
ENDBRANCH   7   8
ENDBRANCH   6   7
ENDBRANCH   4   5
ENDBRANCH   1   4
BRANCH   1  10
HETATM   10  C6  UNL     1      -1.102  -0.425  -0.316  1.00  0.00     0.123 A 
HETATM   11  C7  UNL     1      -1.019   0.856  -1.053  1.00  0.00     0.055 A 
HETATM   12  C8  UNL     1      -2.345   1.464  -1.042  1.00  0.00    -0.026 A 
HETATM   13  C9  UNL     1      -3.204   0.652  -0.479  1.00  0.00     0.003 A 
HETATM   14  C10 UNL     1      -2.571  -0.605  -0.041  1.00  0.00     0.164 A 
BRANCH  14  15
HETATM   15  O3  UNL     1      -2.768  -0.873   1.300  1.00  0.00    -0.390 OA
ATOM     16  H3  UNL     1      -3.695  -0.987   1.474  1.00  0.00     0.210 HD
ENDBRANCH  14  15
ENDBRANCH   1  10
TORSDOF 7
