REMARK  5 active torsions:
REMARK  status: ('A' for Active; 'I' for Inactive)
REMARK    1  A    between atoms: C6_6  and  O1_7 
REMARK    2  A    between atoms: O1_7  and  C7_8 
REMARK    3  A    between atoms: C7_8  and  C8_9 
REMARK    4  A    between atoms: C8_9  and  N1_10 
REMARK    5  A    between atoms: N2_14  and  N3_16 
ROOT
HETATM    1  C1  UNL     1      -4.587  -0.066   0.785  1.00  0.00     0.012 C 
HETATM    2  C2  UNL     1      -3.629  -0.133   0.064  1.00  0.00    -0.112 C 
HETATM    3  C3  UNL     1      -2.452  -0.213  -0.793  1.00  0.00     0.075 C 
HETATM    4  C4  UNL     1      -1.917  -1.597  -0.995  1.00  0.00     0.005 C 
HETATM    5  C5  UNL     1      -0.675  -1.379  -1.818  1.00  0.00     0.039 C 
HETATM    6  C6  UNL     1      -0.143  -0.115  -1.114  1.00  0.00     0.136 C 
HETATM    7  C9  UNL     1      -1.141  -0.007  -0.019  1.00  0.00     0.032 C 
HETATM    8  C10 UNL     1      -1.342  -1.458   0.423  1.00  0.00     0.014 C 
ENDROOT
BRANCH   6   9
HETATM    9  O1  UNL     1       1.182  -0.319  -0.674  1.00  0.00    -0.331 OA
BRANCH   9  10
HETATM   10  C7  UNL     1       1.801   0.733  -0.019  1.00  0.00     0.158 C 
HETATM   11  N2  UNL     1       1.165   1.855   0.147  1.00  0.00    -0.289 N 
ATOM     12  H2  UNL     1       0.214   1.933  -0.215  1.00  0.00     0.188 HD
BRANCH  10  13
HETATM   13  C8  UNL     1       3.182   0.650   0.517  1.00  0.00     0.314 C 
BRANCH  13  14
HETATM   14  N1  UNL     1       3.349  -0.377   1.505  1.00  0.00    -0.072 N 
ATOM     15  H13 UNL     1       2.674  -0.265   2.261  1.00  0.00     0.274 HD
ATOM     16  H12 UNL     1       3.047  -1.281   1.142  1.00  0.00     0.274 HD
ATOM     17  H11 UNL     1       4.298  -0.434   1.873  1.00  0.00     0.274 HD
ENDBRANCH  13  14
ENDBRANCH  10  13
BRANCH  11  18
HETATM   18  N3  UNL     1       1.714   2.944   0.788  1.00  0.00    -0.343 N 
ATOM     19  H32 UNL     1       2.665   2.849   1.143  1.00  0.00     0.176 HD
ATOM     20  H31 UNL     1       1.215   3.824   0.918  1.00  0.00     0.176 HD
ENDBRANCH  11  18
ENDBRANCH   9  10
ENDBRANCH   6   9
TORSDOF 5
