REMARK  3 active torsions:
REMARK  status: ('A' for Active; 'I' for Inactive)
REMARK    1  A    between atoms: C2_3  and  C3_4 
REMARK    2  A    between atoms: C3_4  and  C4_5 
REMARK    3  A    between atoms: C4_5  and  O1_6 
ROOT
HETATM    1  N1  UNL     1       5.714  -0.335   0.910  1.00  0.00    -0.197 NA
HETATM    2  C1  UNL     1       4.647  -0.589   0.537  1.00  0.00     0.059 C 
HETATM    3  C2  UNL     1       3.288  -0.905   0.086  1.00  0.00     0.127 C 
ENDROOT
BRANCH   3   4
HETATM    4  C3  UNL     1       2.462   0.342   0.262  1.00  0.00     0.054 C 
BRANCH   4   5
HETATM    5  C4  UNL     1       1.022   0.153  -0.170  1.00  0.00     0.080 C 
HETATM    6  C5  UNL     1       0.303   1.449   0.076  1.00  0.00     0.040 C 
HETATM    7  C6  UNL     1      -0.751   1.752  -0.954  1.00  0.00     0.003 C 
HETATM    8  C7  UNL     1      -2.151   1.462  -0.467  1.00  0.00     0.000 C 
HETATM    9  C8  UNL     1      -2.611   0.067  -0.832  1.00  0.00     0.002 C 
HETATM   10  C9  UNL     1      -2.989  -0.666   0.450  1.00  0.00     0.026 C 
HETATM   11  C10 UNL     1      -1.759  -1.483   0.838  1.00  0.00     0.167 C 
HETATM   12  O2  UNL     1      -0.789  -0.560   1.223  1.00  0.00    -0.388 OA
HETATM   13  C11 UNL     1       0.446  -0.962   0.693  1.00  0.00     0.205 C 
BRANCH   5  14
HETATM   14  O1  UNL     1       1.050  -0.195  -1.518  1.00  0.00    -0.388 OA
ATOM     15  H1  UNL     1       0.147  -0.313  -1.789  1.00  0.00     0.210 HD
ENDBRANCH   5  14
ENDBRANCH   4   5
ENDBRANCH   3   4
TORSDOF 3
