REMARK  3 active torsions:
REMARK  status: ('A' for Active; 'I' for Inactive)
REMARK    1  A    between atoms: C2_3  and  C3_4 
REMARK    2  A    between atoms: C2_3  and  C4_7 
REMARK    3  A    between atoms: C3_4  and  O1_5 
ROOT
HETATM    1  N1  UNL     1       3.312  -2.959   0.743  1.00  0.00    -0.196 NA
HETATM    2  C1  UNL     1       2.998  -1.828   0.797  1.00  0.00     0.072 C 
HETATM    3  C2  UNL     1       2.607  -0.443   0.866  1.00  0.00     0.161 C 
ENDROOT
BRANCH   3   4
HETATM    4  C3  UNL     1       3.571   0.341  -0.032  1.00  0.00     0.189 C 
BRANCH   4   5
HETATM    5  O1  UNL     1       3.275   1.685  -0.030  1.00  0.00    -0.399 OA
ATOM      6  H1  UNL     1       3.872   2.171  -0.586  1.00  0.00     0.209 HD
ENDBRANCH   4   5
ENDBRANCH   3   4
BRANCH   3   7
HETATM    7  C4  UNL     1       1.198  -0.286   0.360  1.00  0.00     0.003 C 
HETATM    8  N2  UNL     1       0.216   0.164   1.040  1.00  0.00    -0.386 N 
HETATM    9  C5  UNL     1      -1.003   0.200   0.294  1.00  0.00     0.030 C 
ATOM     10  H2  UNL     1       0.293   0.466   2.011  1.00  0.00     0.160 HD
HETATM   11  C6  UNL     1      -1.883   1.363   0.609  1.00  0.00     0.031 C 
HETATM   12  C9  UNL     1      -1.878  -0.986   0.467  1.00  0.00     0.031 C 
HETATM   13  C10 UNL     1      -0.483   0.267  -1.152  1.00  0.00     0.036 C 
HETATM   14  C7  UNL     1      -3.176   0.977  -0.120  1.00  0.00     0.002 C 
HETATM   15  C8  UNL     1      -3.227  -0.514  -0.035  1.00  0.00     0.002 C 
HETATM   16  C11 UNL     1       0.717  -0.635  -1.000  1.00  0.00     0.056 C 
ENDBRANCH   3   7
TORSDOF 3
