REMARK  3 active torsions:
REMARK  status: ('A' for Active; 'I' for Inactive)
REMARK    1  A    between atoms: N1_9  and  C9_10 
REMARK    2  A    between atoms: C9_10  and  C10_11 
REMARK    3  A    between atoms: N2_12  and  O1_14 
ROOT
HETATM    1  C1  UNL     1      -2.052   2.157  -0.431  1.00  0.00     0.012 C 
HETATM    2  C2  UNL     1      -1.289   0.909  -0.686  1.00  0.00     0.015 C 
HETATM    3  C3  UNL     1      -2.168  -0.306  -0.675  1.00  0.00     0.008 C 
HETATM    4  C4  UNL     1      -1.311  -1.479  -1.104  1.00  0.00     0.036 C 
HETATM    5  C5  UNL     1      -0.074  -1.509  -0.242  1.00  0.00     0.224 C 
HETATM    6  C6  UNL     1      -0.496  -1.457   1.231  1.00  0.00     0.038 C 
HETATM    7  C7  UNL     1      -0.485   0.004   1.521  1.00  0.00     0.038 C 
HETATM    8  C8  UNL     1      -0.129   0.699   0.238  1.00  0.00     0.227 C 
HETATM    9  N1  UNL     1       0.727  -0.286  -0.387  1.00  0.00     0.102 N 
ENDROOT
BRANCH   9  10
HETATM   10  C9  UNL     1       1.959  -0.527   0.310  1.00  0.00     0.320 C 
BRANCH  10  11
HETATM   11  C10 UNL     1       2.770   0.671   0.577  1.00  0.00     0.116 C 
HETATM   12  N2  UNL     1       3.838   1.054  -0.008  1.00  0.00    -0.283 N 
ATOM     13  H2  UNL     1       4.276   1.919   0.309  1.00  0.00     0.192 HD
BRANCH  12  14
HETATM   14  O1  UNL     1       4.428   0.372  -1.034  1.00  0.00    -0.291 OA
ATOM     15  H1  UNL     1       5.223   0.657  -1.469  1.00  0.00     0.244 HD
ENDBRANCH  12  14
ENDBRANCH  10  11
ENDBRANCH   9  10
TORSDOF 3
