REMARK  2 active torsions:
REMARK  status: ('A' for Active; 'I' for Inactive)
REMARK    1  A    between atoms: C2_2  and  S1_3 
REMARK    2  A    between atoms: S1_3  and  C3_4 
ROOT
HETATM    1  C3  UNL     1       1.105  -0.371  -0.148  1.00  0.00     0.071 C 
HETATM    2  C4  UNL     1       0.357  -1.622  -0.497  1.00  0.00     0.183 C 
HETATM    3  O1  UNL     1      -0.971  -1.415  -0.812  1.00  0.00    -0.384 OA
HETATM    4  C5  UNL     1      -1.686  -0.867   0.263  1.00  0.00     0.128 C 
HETATM    5  C6  UNL     1      -3.128  -0.860  -0.126  1.00  0.00     0.051 C 
HETATM    6  C7  UNL     1      -3.795   0.464  -0.157  1.00  0.00     0.116 C 
HETATM    7  N1  UNL     1      -3.021   1.560  -0.645  1.00  0.00    -0.421 N 
ATOM      8  H1  UNL     1      -3.429   2.472  -0.849  1.00  0.00     0.153 HD
HETATM    9  C8  UNL     1      -1.623   1.281  -0.827  1.00  0.00     0.120 C 
HETATM   10  C9  UNL     1      -1.177   0.534   0.423  1.00  0.00     0.033 C 
HETATM   11  C10 UNL     1       0.301   0.639   0.611  1.00  0.00     0.026 C 
ENDROOT
BRANCH   1  12
HETATM   12  S1  UNL     1       2.487  -0.856   0.939  1.00  0.00    -0.163 SA
BRANCH  12  13
HETATM   13  C2  UNL     1       4.079  -0.732   0.111  1.00  0.00     0.070 C 
HETATM   14  C1  UNL     1       4.627   0.688   0.121  1.00  0.00     0.016 C 
ENDBRANCH  12  13
ENDBRANCH   1  12
TORSDOF 2
