REMARK  13 active torsions:
REMARK  status: ('A' for Active; 'I' for Inactive)
REMARK    1  A    between atoms: C2_2  and  N1_3 
REMARK    2  A    between atoms: N1_3  and  C3_4 
REMARK    3  A    between atoms: N1_3  and  N8_28 
REMARK    4  A    between atoms: C3_4  and  C4_5 
REMARK    5  A    between atoms: C4_5  and  C5_6 
REMARK    6  A    between atoms: C5_6  and  C6_7 
REMARK    7  A    between atoms: C6_7  and  N2_8 
REMARK    8  A    between atoms: N2_8  and  C7_10 
REMARK    9  A    between atoms: C8_13  and  N4_14 
REMARK   10  A    between atoms: C10_19  and  N6_20 
REMARK   11  A    between atoms: N6_20  and  C11_22 
REMARK   12  A    between atoms: C11_22  and  C12_23 
REMARK   13  A    between atoms: C12_23  and  O1_24 
ROOT
HETATM    1  C7  UNL     1       2.004   1.542   0.064  1.00  0.00     0.707 A 
HETATM    2  N3  UNL     1       2.833   2.575   0.306  1.00  0.00    -0.022 N 
ATOM      3  H3  UNL     1       2.453   3.506   0.476  1.00  0.00     0.203 HD
HETATM    4  C8  UNL     1       4.163   2.378   0.323  1.00  0.00     0.706 A 
HETATM    5  N5  UNL     1       4.617   1.142   0.097  1.00  0.00    -0.022 N 
ATOM      6  H5  UNL     1       5.625   0.987   0.110  1.00  0.00     0.203 HD
HETATM    7  C10 UNL     1       3.807   0.085  -0.149  1.00  0.00     0.707 A 
HETATM    8  N7  UNL     1       2.470   0.303  -0.163  1.00  0.00    -0.022 N 
ATOM      9  H7  UNL     1       1.824  -0.466  -0.344  1.00  0.00     0.203 HD
ENDROOT
BRANCH   1  10
HETATM   10  N2  UNL     1       0.744   1.780   0.059  1.00  0.00    -0.225 N 
ATOM     11  H2  UNL     1       0.466   2.744   0.241  1.00  0.00     0.177 HD
BRANCH  10  12
HETATM   12  C6  UNL     1      -0.313   0.850  -0.172  1.00  0.00     0.138 C 
BRANCH  12  13
HETATM   13  C5  UNL     1      -0.913   0.366   1.125  1.00  0.00     0.021 C 
BRANCH  13  14
HETATM   14  C4  UNL     1      -2.034  -0.627   0.928  1.00  0.00     0.018 C 
BRANCH  14  15
HETATM   15  C3  UNL     1      -3.127   0.006   0.135  1.00  0.00     0.113 C 
BRANCH  15  16
HETATM   16  N1  UNL     1      -4.257  -0.873  -0.106  1.00  0.00    -0.237 NA
BRANCH  16  17
HETATM   17  C2  UNL     1      -5.208  -0.059  -0.886  1.00  0.00     0.109 C 
HETATM   18  C1  UNL     1      -5.774   1.060  -0.028  1.00  0.00     0.022 C 
ENDBRANCH  16  17
BRANCH  16  19
HETATM   19  N8  UNL     1      -3.892  -1.922  -0.926  1.00  0.00    -0.359 N 
HETATM   20  C13 UNL     1      -4.815  -3.008  -0.987  1.00  0.00     0.161 C 
ATOM     21  H8  UNL     1      -3.019  -1.921  -1.454  1.00  0.00     0.173 HD
ENDBRANCH  16  19
ENDBRANCH  15  16
ENDBRANCH  14  15
ENDBRANCH  13  14
ENDBRANCH  12  13
ENDBRANCH  10  12
ENDBRANCH   1  10
BRANCH   4  22
HETATM   22  N4  UNL     1       4.993   3.352   0.553  1.00  0.00    -0.229 N 
HETATM   23  C9  UNL     1       4.548   4.702   0.804  1.00  0.00     0.165 C 
ATOM     24  H4  UNL     1       5.994   3.155   0.556  1.00  0.00     0.177 HD
ENDBRANCH   4  22
BRANCH   7  25
HETATM   25  N6  UNL     1       4.264  -1.097  -0.365  1.00  0.00    -0.223 N 
ATOM     26  H6  UNL     1       5.269  -1.269  -0.356  1.00  0.00     0.177 HD
BRANCH  25  27
HETATM   27  C11 UNL     1       3.347  -2.175  -0.619  1.00  0.00     0.164 C 
BRANCH  27  28
HETATM   28  C12 UNL     1       4.139  -3.432  -0.851  1.00  0.00     0.184 C 
BRANCH  28  29
HETATM   29  O1  UNL     1       4.925  -3.784   0.224  1.00  0.00    -0.399 OA
ATOM     30  H1  UNL     1       5.425  -4.578   0.077  1.00  0.00     0.209 HD
ENDBRANCH  28  29
ENDBRANCH  27  28
ENDBRANCH  25  27
ENDBRANCH   7  25
TORSDOF 13
