REMARK  13 active torsions:
REMARK  status: ('A' for Active; 'I' for Inactive)
REMARK    1  A    between atoms: N1_1  and  C1_5 
REMARK    2  A    between atoms: C1_5  and  C2_6 
REMARK    3  A    between atoms: C2_6  and  N2_7 
REMARK    4  A    between atoms: N2_7  and  C3_9 
REMARK    5  A    between atoms: C5_16  and  N5_17 
REMARK    6  A    between atoms: N5_17  and  C6_19 
REMARK    7  A    between atoms: C6_19  and  C7_20 
REMARK    8  A    between atoms: C7_20  and  C8_21 
REMARK    9  A    between atoms: C8_21  and  C9_22 
REMARK   10  A    between atoms: C9_22  and  C10_23 
REMARK   11  A    between atoms: C10_23  and  C11_24 
REMARK   12  A    between atoms: C11_24  and  C12_25 
REMARK   13  A    between atoms: C12_25  and  N6_26 
ROOT
HETATM    1  C3  UNL     1       4.117   1.629  -1.203  1.00  0.00     0.696 A 
HETATM    2  N3  UNL     1       4.817   2.736  -1.506  1.00  0.00    -0.140 N 
ATOM      3  H3  UNL     1       5.764   2.644  -1.873  1.00  0.00     0.189 HD
HETATM    4  C4  UNL     1       4.292   3.962  -1.335  1.00  0.00     0.352 A 
HETATM    5  O1  UNL     1       5.002   4.974  -1.639  1.00  0.00    -0.246 OA
HETATM    6  N4  UNL     1       3.064   4.121  -0.861  1.00  0.00    -0.140 N 
ATOM      7  H4  UNL     1       2.673   5.055  -0.734  1.00  0.00     0.189 HD
HETATM    8  C5  UNL     1       2.334   3.015  -0.547  1.00  0.00     0.696 A 
HETATM    9  N9  UNL     1       2.868   1.816  -0.722  1.00  0.00    -0.022 N 
ATOM     10  H9  UNL     1       2.311   0.996  -0.483  1.00  0.00     0.203 HD
ENDROOT
BRANCH   8  11
HETATM   11  N5  UNL     1       1.161   3.243  -0.097  1.00  0.00    -0.225 N 
ATOM     12  H5  UNL     1       0.840   4.206   0.001  1.00  0.00     0.177 HD
BRANCH  11  13
HETATM   13  C6  UNL     1       0.283   2.163   0.275  1.00  0.00     0.138 C 
BRANCH  13  14
HETATM   14  C7  UNL     1      -0.396   1.677  -0.959  1.00  0.00     0.020 C 
BRANCH  14  15
HETATM   15  C8  UNL     1      -1.369   0.519  -0.700  1.00  0.00     0.002 C 
BRANCH  15  16
HETATM   16  C9  UNL     1      -0.687  -0.650  -0.120  1.00  0.00     0.000 C 
BRANCH  16  17
HETATM   17  C10 UNL     1      -1.435  -1.895   0.147  1.00  0.00     0.002 C 
BRANCH  17  18
HETATM   18  C11 UNL     1      -2.554  -1.965   1.082  1.00  0.00     0.020 C 
BRANCH  18  19
HETATM   19  C12 UNL     1      -3.797  -1.205   0.867  1.00  0.00     0.122 C 
BRANCH  19  20
HETATM   20  N6  UNL     1      -4.689  -1.581   2.007  1.00  0.00    -0.367 N 
HETATM   21  C13 UNL     1      -5.955  -1.466   1.871  1.00  0.00     0.196 C 
HETATM   22  N7  UNL     1      -6.500  -0.990   0.661  1.00  0.00    -0.067 NA
HETATM   23  N8  UNL     1      -6.802  -1.819   2.942  1.00  0.00    -0.067 NA
ATOM     24  H6  UNL     1      -4.292  -1.925   2.882  1.00  0.00     0.161 HD
ENDBRANCH  19  20
ENDBRANCH  18  19
ENDBRANCH  17  18
ENDBRANCH  16  17
ENDBRANCH  15  16
ENDBRANCH  14  15
ENDBRANCH  13  14
ENDBRANCH  11  13
ENDBRANCH   8  11
BRANCH   1  25
HETATM   25  N2  UNL     1       4.617   0.473  -1.366  1.00  0.00    -0.224 N 
ATOM     26  H2  UNL     1       5.566   0.402  -1.734  1.00  0.00     0.177 HD
BRANCH  25  27
HETATM   27  C2  UNL     1       3.912  -0.736  -1.058  1.00  0.00     0.165 C 
BRANCH  27  28
HETATM   28  C1  UNL     1       4.826  -1.939  -1.046  1.00  0.00     0.249 C 
BRANCH  28  29
HETATM   29  N1  UNL     1       4.052  -3.122  -0.729  1.00  0.00    -0.078 N 
ATOM     30  H13 UNL     1       3.532  -3.022   0.143  1.00  0.00     0.274 HD
ATOM     31  H12 UNL     1       3.258  -3.245  -1.357  1.00  0.00     0.274 HD
ATOM     32  H11 UNL     1       4.669  -3.934  -0.721  1.00  0.00     0.274 HD
ENDBRANCH  28  29
ENDBRANCH  27  28
ENDBRANCH  25  27
ENDBRANCH   1  25
TORSDOF 13
