REMARK  5 active torsions:
REMARK  status: ('A' for Active; 'I' for Inactive)
REMARK    1  A    between atoms: N1_2  and  C3_4 
REMARK    2  A    between atoms: N1_2  and  C4_6 
REMARK    3  A    between atoms: C5_8  and  O3_9 
REMARK    4  A    between atoms: C6_11  and  O4_12 
REMARK    5  A    between atoms: C7_14  and  O5_15 
ROOT
HETATM    1  C4  UNL     1      -0.066   0.163  -0.326  1.00  0.00     0.367 C 
HETATM    2  O2  UNL     1       0.598  -0.916  -0.854  1.00  0.00    -0.323 OA
HETATM    3  C5  UNL     1       1.941  -0.659  -0.724  1.00  0.00     0.291 C 
HETATM    4  C6  UNL     1       2.124   0.401   0.321  1.00  0.00     0.206 C 
HETATM    5  C7  UNL     1       0.716   0.424   0.941  1.00  0.00     0.209 C 
ENDROOT
BRANCH   1   6
HETATM    6  N1  UNL     1      -1.452   0.036  -0.168  1.00  0.00     0.008 N 
HETATM    7  C1  UNL     1      -1.930  -1.194   0.370  1.00  0.00     0.285 C 
HETATM    8  C2  UNL     1      -1.933   1.128   0.682  1.00  0.00     0.285 C 
BRANCH   6   9
HETATM    9  C3  UNL     1      -2.077   0.254  -1.452  1.00  0.00     0.461 C 
HETATM   10  O1  UNL     1      -3.226  -0.141  -1.621  1.00  0.00    -0.275 OA
ENDBRANCH   6   9
ENDBRANCH   1   6
BRANCH   5  11
HETATM   11  O5  UNL     1       0.675  -0.667   1.810  1.00  0.00    -0.388 OA
ATOM     12  H5  UNL     1       1.166  -0.503   2.606  1.00  0.00     0.210 HD
ENDBRANCH   5  11
BRANCH   3  13
HETATM   13  O3  UNL     1       2.537  -0.276  -1.925  1.00  0.00    -0.368 OA
ATOM     14  H3  UNL     1       3.466  -0.098  -1.835  1.00  0.00     0.212 HD
ENDBRANCH   3  13
BRANCH   4  15
HETATM   15  O4  UNL     1       3.092   0.126   1.243  1.00  0.00    -0.388 OA
ATOM     16  H4  UNL     1       3.208   0.797   1.905  1.00  0.00     0.210 HD
ENDBRANCH   4  15
TORSDOF 5
