REMARK  5 active torsions:
REMARK  status: ('A' for Active; 'I' for Inactive)
REMARK    1  A    between atoms: O1_2  and  C2_3 
REMARK    2  A    between atoms: C3_4  and  C4_5 
REMARK    3  A    between atoms: C4_5  and  S1_6 
REMARK    4  A    between atoms: C5_12  and  O4_13 
REMARK    5  A    between atoms: C6_15  and  O5_16 
ROOT
HETATM    1  C2  UNL     1      -0.957   0.307  -0.092  1.00  0.00     0.185 C 
HETATM    2  C3  UNL     1       0.498   0.578  -0.447  1.00  0.00     0.235 C 
HETATM    3  N1  UNL     1       0.684  -0.219  -1.617  1.00  0.00    -0.039 N 
ATOM      4  H11 UNL     1       1.663  -0.355  -1.869  1.00  0.00     0.281 HD
ATOM      5  H12 UNL     1       0.402   0.247  -2.479  1.00  0.00     0.281 HD
HETATM    6  C5  UNL     1      -0.028  -1.452  -1.362  1.00  0.00     0.350 C 
HETATM    7  C6  UNL     1      -1.136  -1.122  -0.398  1.00  0.00     0.205 C 
ENDROOT
BRANCH   2   8
HETATM    8  C4  UNL     1       1.351   0.176   0.713  1.00  0.00     0.193 C 
BRANCH   8   9
HETATM    9  S1  UNL     1       3.065   0.447   0.415  1.00  0.00     0.252 S 
HETATM   10  O2  UNL     1       3.924  -0.037   1.773  1.00  0.00    -0.212 OA
HETATM   11  O3  UNL     1       3.337   2.037   0.041  1.00  0.00    -0.212 OA
ENDBRANCH   8   9
ENDBRANCH   2   8
BRANCH   1  12
HETATM   12  O1  UNL     1      -1.210   0.763   1.133  1.00  0.00    -0.386 OA
HETATM   13  C1  UNL     1      -2.088   1.807   1.279  1.00  0.00     0.202 C 
ENDBRANCH   1  12
BRANCH   7  14
HETATM   14  O5  UNL     1      -1.118  -1.984   0.675  1.00  0.00    -0.389 OA
ATOM     15  H5  UNL     1      -1.233  -2.906   0.478  1.00  0.00     0.210 HD
ENDBRANCH   7  14
BRANCH   6  16
HETATM   16  O4  UNL     1       0.857  -2.399  -0.845  1.00  0.00    -0.368 OA
ATOM     17  H4  UNL     1       0.389  -3.209  -0.678  1.00  0.00     0.212 HD
ENDBRANCH   6  16
TORSDOF 5
