REMARK  7 active torsions:
REMARK  status: ('A' for Active; 'I' for Inactive)
REMARK    1  A    between atoms: C2_2  and  N1_3 
REMARK    2  A    between atoms: C2_2  and  N2_7 
REMARK    3  A    between atoms: N2_7  and  C3_8 
REMARK    4  A    between atoms: N2_7  and  N6_16 
REMARK    5  A    between atoms: C3_8  and  N3_9 
REMARK    6  A    between atoms: N6_16  and  O1_17 
REMARK    7  A    between atoms: N7_19  and  N8_21 
ROOT
HETATM    1  N2  UNL     1      -0.537  -0.563  -0.050  1.00  0.00    -0.235 N 
ENDROOT
BRANCH   1   2
HETATM    2  C2  UNL     1      -1.602  -1.539  -0.064  1.00  0.00     0.300 C 
HETATM    3  C1  UNL     1      -2.142  -1.569  -1.492  1.00  0.00     0.065 C 
BRANCH   2   4
HETATM    4  N1  UNL     1      -2.663  -1.223   0.859  1.00  0.00    -0.057 N 
ATOM      5  H13 UNL     1      -3.138  -0.355   0.612  1.00  0.00     0.276 HD
ATOM      6  H12 UNL     1      -3.455  -1.859   0.763  1.00  0.00     0.276 HD
ATOM      7  H11 UNL     1      -2.302  -1.203   1.813  1.00  0.00     0.276 HD
ENDBRANCH   2   4
ENDBRANCH   1   2
BRANCH   1   8
HETATM    8  C3  UNL     1       0.589  -0.788  -0.925  1.00  0.00     0.298 C 
BRANCH   8   9
HETATM    9  N3  UNL     1       1.583   0.268  -0.809  1.00  0.00    -0.267 N 
HETATM   10  C4  UNL     1       2.638   0.344   0.015  1.00  0.00     0.203 A 
HETATM   11  N4  UNL     1       3.306   1.512  -0.214  1.00  0.00    -0.346 N 
HETATM   12  C5  UNL     1       2.640   2.151  -1.193  1.00  0.00     0.198 A 
ATOM     13  H4  UNL     1       4.146   1.837   0.264  1.00  0.00     0.167 HD
HETATM   14  N5  UNL     1       1.604   1.374  -1.531  1.00  0.00    -0.292 N 
ATOM     15  H5  UNL     1       0.920   1.606  -2.252  1.00  0.00     0.188 HD
ENDBRANCH   8   9
ENDBRANCH   1   8
BRANCH   1  16
HETATM   16  N6  UNL     1      -0.643   0.530   0.791  1.00  0.00    -0.079 N 
HETATM   17  N7  UNL     1       0.007   0.553   1.876  1.00  0.00    -0.207 N 
ATOM     18  H7  UNL     1       0.603  -0.239   2.116  1.00  0.00     0.212 HD
BRANCH  16  19
HETATM   19  O1  UNL     1      -1.435   1.628   0.509  1.00  0.00    -0.252 OA
ATOM     20  H1  UNL     1      -1.508   2.379   1.087  1.00  0.00     0.248 HD
ENDBRANCH  16  19
BRANCH  17  21
HETATM   21  N8  UNL     1      -0.071   1.633   2.751  1.00  0.00    -0.328 N 
ATOM     22  H82 UNL     1      -0.672   2.417   2.496  1.00  0.00     0.178 HD
ATOM     23  H81 UNL     1       0.453   1.652   3.626  1.00  0.00     0.178 HD
ENDBRANCH  17  21
ENDBRANCH   1  16
TORSDOF 7
