REMARK  6 active torsions:
REMARK  status: ('A' for Active; 'I' for Inactive)
REMARK    1  A    between atoms: O1_2  and  C2_3 
REMARK    2  A    between atoms: C3_7  and  C4_8 
REMARK    3  A    between atoms: C4_8  and  S1_9 
REMARK    4  A    between atoms: S1_9  and  N2_10 
REMARK    5  A    between atoms: C5_14  and  O3_15 
REMARK    6  A    between atoms: C6_17  and  O4_18 
ROOT
HETATM    1  C2  UNL     1      -1.559   0.448   0.151  1.00  0.00     0.352 C 
HETATM    2  N1  UNL     1      -0.416   0.991   0.817  1.00  0.00    -0.039 N 
ATOM      3  H11 UNL     1      -0.432   0.822   1.823  1.00  0.00     0.281 HD
ATOM      4  H12 UNL     1      -0.428   2.010   0.847  1.00  0.00     0.281 HD
HETATM    5  C3  UNL     1       0.760   0.474   0.192  1.00  0.00     0.233 C 
HETATM    6  C5  UNL     1       0.339  -0.304  -1.018  1.00  0.00     0.182 C 
HETATM    7  C6  UNL     1      -1.062  -0.742  -0.676  1.00  0.00     0.205 C 
ENDROOT
BRANCH   5   8
HETATM    8  C4  UNL     1       1.609  -0.378   1.104  1.00  0.00     0.167 C 
BRANCH   8   9
HETATM    9  S1  UNL     1       3.010  -0.930   0.176  1.00  0.00     0.109 S 
HETATM   10  O2  UNL     1       3.874  -2.120   0.939  1.00  0.00    -0.236 OA
BRANCH   9  11
HETATM   11  N2  UNL     1       3.970   0.346  -0.418  1.00  0.00    -0.350 NA
ATOM     12  H22 UNL     1       3.438   1.079  -0.888  1.00  0.00     0.166 HD
ATOM     13  H21 UNL     1       4.778   0.028  -0.953  1.00  0.00     0.166 HD
ENDBRANCH   9  11
ENDBRANCH   8   9
ENDBRANCH   5   8
BRANCH   6  14
HETATM   14  O3  UNL     1       0.291   0.565  -2.114  1.00  0.00    -0.391 OA
ATOM     15  H3  UNL     1       0.024   0.072  -2.881  1.00  0.00     0.210 HD
ENDBRANCH   6  14
BRANCH   1  16
HETATM   16  O1  UNL     1      -2.507   0.022   1.079  1.00  0.00    -0.362 OA
HETATM   17  C1  UNL     1      -3.725   0.636   0.856  1.00  0.00     0.204 C 
ENDBRANCH   1  16
BRANCH   7  18
HETATM   18  O4  UNL     1      -1.070  -1.901   0.105  1.00  0.00    -0.389 OA
ATOM     19  H4  UNL     1      -0.762  -2.639  -0.408  1.00  0.00     0.210 HD
ENDBRANCH   7  18
TORSDOF 6
