REMARK  7 active torsions:
REMARK  status: ('A' for Active; 'I' for Inactive)
REMARK    1  A    between atoms: O1_1  and  O2_3 
REMARK    2  A    between atoms: O2_3  and  C1_4 
REMARK    3  A    between atoms: C1_4  and  C2_5 
REMARK    4  A    between atoms: C2_5  and  S1_6 
REMARK    5  A    between atoms: C4_8  and  O3_9 
REMARK    6  A    between atoms: C5_11  and  C6_12 
REMARK    7  A    between atoms: C6_12  and  O4_13 
ROOT
HETATM    1  S1  UNL     1       0.708   0.279   0.177  1.00  0.00    -0.084 SA
HETATM    2  C3  UNL     1      -0.165  -1.279   0.262  1.00  0.00     0.126 C 
HETATM    3  C4  UNL     1      -1.344  -0.728   1.101  1.00  0.00     0.161 C 
HETATM    4  C5  UNL     1      -1.577   0.622   0.599  1.00  0.00     0.189 C 
HETATM    5  O5  UNL     1      -0.397   1.373   0.557  1.00  0.00    -0.321 OA
ENDROOT
BRANCH   1   6
HETATM    6  C2  UNL     1       1.930   0.413  -1.035  1.00  0.00     0.121 C 
BRANCH   6   7
HETATM    7  C1  UNL     1       3.188  -0.427  -0.604  1.00  0.00     0.221 C 
BRANCH   7   8
HETATM    8  O2  UNL     1       3.844   0.680   0.122  1.00  0.00    -0.243 OA
BRANCH   8   9
HETATM    9  O1  UNL     1       4.198   0.386   1.337  1.00  0.00    -0.251 OA
ATOM     10  H1  UNL     1       4.620   1.098   1.804  1.00  0.00     0.253 HD
ENDBRANCH   8   9
ENDBRANCH   7   8
ENDBRANCH   6   7
ENDBRANCH   1   6
BRANCH   3  11
HETATM   11  O3  UNL     1      -0.872  -0.778   2.415  1.00  0.00    -0.392 OA
ATOM     12  H3  UNL     1      -1.595  -0.440   2.930  1.00  0.00     0.210 HD
ENDBRANCH   3  11
BRANCH   4  13
HETATM   13  C6  UNL     1      -2.346   0.580  -0.673  1.00  0.00     0.199 C 
BRANCH  13  14
HETATM   14  O4  UNL     1      -3.322   1.574  -0.788  1.00  0.00    -0.398 OA
ATOM     15  H4  UNL     1      -3.813   1.547  -1.601  1.00  0.00     0.209 HD
ENDBRANCH  13  14
ENDBRANCH   4  13
TORSDOF 7
