REMARK  10 active torsions:
REMARK  status: ('A' for Active; 'I' for Inactive)
REMARK    1  A    between atoms: C2_2  and  C5_5 
REMARK    2  A    between atoms: N1_8  and  C8_9 
REMARK    3  A    between atoms: C8_9  and  C9_10 
REMARK    4  A    between atoms: C9_10  and  C10_11 
REMARK    5  A    between atoms: C10_11  and  C11_12 
REMARK    6  A    between atoms: C11_12  and  O1_13 
REMARK    7  A    between atoms: O1_13  and  C12_14 
REMARK    8  A    between atoms: N3_21  and  C16_23 
REMARK    9  A    between atoms: C16_23  and  C17_24 
REMARK   10  A    between atoms: C17_24  and  C18_25 
ROOT
HETATM    1  C12 UNL     1       0.617  -0.743  -0.103  1.00  0.00     0.160 A 
HETATM    2  C13 UNL     1       1.046  -1.375  -1.306  1.00  0.00     0.099 A 
HETATM    3  C14 UNL     1       2.354  -1.621  -1.525  1.00  0.00     0.123 A 
HETATM    4 CL1  UNL     1       2.924  -2.414  -2.994  1.00  0.00    -0.064 Cl
HETATM    5  N2  UNL     1       3.224  -1.243  -0.571  1.00  0.00    -0.181 N 
ATOM      6  H2  UNL     1       4.215  -1.426  -0.727  1.00  0.00     0.185 HD
HETATM    7  C15 UNL     1       2.865  -0.639   0.575  1.00  0.00     0.681 A 
HETATM    8  N3  UNL     1       3.713  -0.185   1.390  1.00  0.00    -0.226 N 
ATOM      9  H3  UNL     1       3.295   0.242   2.217  1.00  0.00     0.177 HD
HETATM   10  N4  UNL     1       1.537  -0.399   0.793  1.00  0.00    -0.171 N 
ATOM     11  H4  UNL     1       1.246   0.053   1.660  1.00  0.00     0.186 HD
ENDROOT
BRANCH   1  12
HETATM   12  O1  UNL     1      -0.691  -0.548  -0.009  1.00  0.00    -0.335 OA
BRANCH  12  13
HETATM   13  C11 UNL     1      -1.696  -0.107   0.751  1.00  0.00     0.177 C 
BRANCH  13  14
HETATM   14  C10 UNL     1      -2.975  -0.051  -0.104  1.00  0.00     0.028 C 
BRANCH  14  15
HETATM   15  C9  UNL     1      -3.231  -1.385  -0.722  1.00  0.00     0.024 C 
BRANCH  15  16
HETATM   16  C8  UNL     1      -4.396  -1.442  -1.644  1.00  0.00     0.148 C 
BRANCH  16  17
HETATM   17  N1  UNL     1      -5.709  -1.217  -1.073  1.00  0.00    -0.303 N 
HETATM   18  C7  UNL     1      -6.542  -2.210  -0.637  1.00  0.00     0.112 A 
HETATM   19  C6  UNL     1      -7.693  -1.652  -0.164  1.00  0.00     0.046 A 
HETATM   20  C5  UNL     1      -7.533  -0.276  -0.325  1.00  0.00     0.035 A 
HETATM   21  N5  UNL     1      -6.324  -0.085  -0.875  1.00  0.00    -0.302 N 
ATOM     22  H5  UNL     1      -5.936   0.829  -1.108  1.00  0.00     0.186 HD
BRANCH  20  23
HETATM   23  C2  UNL     1      -8.553   0.742   0.087  1.00  0.00    -0.007 C 
HETATM   24  C1  UNL     1      -9.644   0.788  -0.939  1.00  0.00     0.021 C 
HETATM   25  C3  UNL     1      -9.162   0.328   1.420  1.00  0.00     0.021 C 
HETATM   26  C4  UNL     1      -7.944   2.110   0.238  1.00  0.00     0.021 C 
ENDBRANCH  20  23
ENDBRANCH  16  17
ENDBRANCH  15  16
ENDBRANCH  14  15
ENDBRANCH  13  14
ENDBRANCH  12  13
ENDBRANCH   1  12
BRANCH   8  27
HETATM   27  C16 UNL     1       5.136  -0.148   1.389  1.00  0.00     0.138 C 
BRANCH  27  28
HETATM   28  C17 UNL     1       5.669   0.728   0.308  1.00  0.00     0.025 C 
BRANCH  28  29
HETATM   29  C18 UNL     1       7.118   0.941   0.172  1.00  0.00    -0.013 C 
HETATM   30  C19 UNL     1       7.814   1.640   1.327  1.00  0.00     0.005 C 
HETATM   31  C20 UNL     1       9.071   2.259   0.659  1.00  0.00     0.000 C 
HETATM   32  C21 UNL     1       9.880   1.170   0.037  1.00  0.00     0.000 C 
HETATM   33  C22 UNL     1       9.333  -0.199   0.346  1.00  0.00     0.000 C 
HETATM   34  C23 UNL     1       7.875  -0.356  -0.109  1.00  0.00     0.005 C 
ENDBRANCH  28  29
ENDBRANCH  27  28
ENDBRANCH   8  27
TORSDOF 10
