REMARK  9 active torsions:
REMARK  status: ('A' for Active; 'I' for Inactive)
REMARK    1  A    between atoms: C3_4  and  S1_5 
REMARK    2  A    between atoms: S1_5  and  C4_6 
REMARK    3  A    between atoms: C4_6  and  C5_7 
REMARK    4  A    between atoms: C5_7  and  C6_8 
REMARK    5  A    between atoms: C6_8  and  N1_9 
REMARK    6  A    between atoms: N1_9  and  C7_11 
REMARK    7  A    between atoms: C7_11  and  C8_12 
REMARK    8  A    between atoms: C8_12  and  N2_13 
REMARK    9  A    between atoms: N4_27  and  C20_28 
ROOT
HETATM    1  F1  UNL     1       3.506  -4.344  -1.512  1.00  0.00    -0.206 F 
HETATM    2  C1  UNL     1       3.532  -3.106  -0.963  1.00  0.00     0.119 A 
HETATM    3  C2  UNL     1       2.382  -2.458  -0.553  1.00  0.00     0.061 A 
HETATM    4  C3  UNL     1       2.437  -1.195  -0.005  1.00  0.00     0.017 A 
HETATM    5  C14 UNL     1       3.702  -0.617   0.109  1.00  0.00     0.020 A 
HETATM    6  C15 UNL     1       4.088   0.605   0.610  1.00  0.00     0.007 A 
HETATM    7  C16 UNL     1       3.410   1.664   1.156  1.00  0.00     0.031 A 
HETATM    8  C17 UNL     1       4.118   2.765   1.573  1.00  0.00     0.088 A 
HETATM    9  N3  UNL     1       5.475   2.790   1.443  1.00  0.00    -0.373 N 
ATOM     10  H3  UNL     1       5.989   3.613   1.757  1.00  0.00     0.164 HD
HETATM   11  C18 UNL     1       6.151   1.761   0.913  1.00  0.00     0.118 A 
HETATM   12  C19 UNL     1       5.479   0.650   0.484  1.00  0.00     0.062 A 
HETATM   13  N4  UNL     1       5.939  -0.481  -0.065  1.00  0.00    -0.339 N 
HETATM   14  C23 UNL     1       4.861  -1.255  -0.295  1.00  0.00     0.050 A 
HETATM   15  C24 UNL     1       4.768  -2.514  -0.837  1.00  0.00     0.072 A 
ENDROOT
BRANCH   4  16
HETATM   16  S1  UNL     1       0.947  -0.429   0.556  1.00  0.00    -0.129 SA
BRANCH  16  17
HETATM   17  C4  UNL     1       0.014   0.455  -0.689  1.00  0.00     0.085 C 
BRANCH  17  18
HETATM   18  C5  UNL     1      -0.931   1.383   0.098  1.00  0.00     0.055 C 
BRANCH  18  19
HETATM   19  C6  UNL     1      -1.766   2.230  -0.744  1.00  0.00     0.061 C 
BRANCH  19  20
HETATM   20  N1  UNL     1      -2.749   1.770  -1.609  1.00  0.00    -0.381 N 
ATOM     21  H1  UNL     1      -2.581   1.831  -2.613  1.00  0.00     0.164 HD
BRANCH  20  22
HETATM   22  C7  UNL     1      -3.960   1.227  -1.166  1.00  0.00     0.090 C 
BRANCH  22  23
HETATM   23  C8  UNL     1      -3.952  -0.132  -0.602  1.00  0.00     0.316 C 
BRANCH  23  24
HETATM   24  N2  UNL     1      -5.234  -0.578  -0.078  1.00  0.00     0.093 N 
HETATM   25  C9  UNL     1      -5.547   0.119   1.167  1.00  0.00     0.273 C 
HETATM   26  C10 UNL     1      -6.834  -0.448   1.709  1.00  0.00     0.030 C 
HETATM   27  C11 UNL     1      -7.946  -0.156   0.731  1.00  0.00     0.003 C 
HETATM   28  C12 UNL     1      -7.609  -0.847  -0.575  1.00  0.00     0.030 C 
HETATM   29  C13 UNL     1      -6.271  -0.314  -1.061  1.00  0.00     0.273 C 
ENDBRANCH  23  24
ENDBRANCH  22  23
ENDBRANCH  20  22
ENDBRANCH  19  20
ENDBRANCH  18  19
ENDBRANCH  17  18
ENDBRANCH  16  17
ENDBRANCH   4  16
BRANCH  13  30
HETATM   30  C20 UNL     1       7.346  -0.809  -0.339  1.00  0.00     0.090 A 
HETATM   31  C21 UNL     1       7.963  -2.024   0.264  1.00  0.00     0.028 A 
HETATM   32  C22 UNL     1       8.270  -0.747   0.925  1.00  0.00     0.028 A 
ENDBRANCH  13  30
TORSDOF 9
