REMARK  9 active torsions:
REMARK  status: ('A' for Active; 'I' for Inactive)
REMARK    1  A    between atoms: C2_2  and  C3_3 
REMARK    2  A    between atoms: C3_3  and  C4_4 
REMARK    3  A    between atoms: C4_4  and  N1_5 
REMARK    4  A    between atoms: N1_5  and  C5_6 
REMARK    5  A    between atoms: N1_5  and  C9_10 
REMARK    6  A    between atoms: C5_6  and  C6_7 
REMARK    7  A    between atoms: C6_7  and  C7_8 
REMARK    8  A    between atoms: N4_27  and  C22_28 
REMARK    9  A    between atoms: C22_28  and  C23_29 
ROOT
HETATM    1  C9  UNL     1      -0.628   0.497   0.203  1.00  0.00     0.065 A 
HETATM    2  C10 UNL     1      -0.520   1.424  -0.793  1.00  0.00     0.058 A 
HETATM    3  C11 UNL     1      -1.534   1.829  -1.619  1.00  0.00     0.131 A 
HETATM    4  F1  UNL     1      -2.730   1.284  -1.482  1.00  0.00    -0.205 F 
HETATM    5  C12 UNL     1      -1.423   2.768  -2.638  1.00  0.00     0.044 A 
HETATM    6  C13 UNL     1      -0.191   3.340  -2.840  1.00  0.00     0.012 A 
HETATM    7  C14 UNL     1       0.879   2.984  -2.054  1.00  0.00    -0.034 A 
HETATM    8  C15 UNL     1       2.203   3.605  -2.274  1.00  0.00     0.050 C 
HETATM    9  C16 UNL     1       0.722   2.052  -1.059  1.00  0.00     0.055 A 
HETATM   10  N2  UNL     1       1.787   1.745  -0.345  1.00  0.00    -0.340 N 
ATOM     11  H2  UNL     1       2.671   2.210  -0.552  1.00  0.00     0.167 HD
HETATM   12  C17 UNL     1       1.746   0.850   0.634  1.00  0.00     0.122 A 
HETATM   13  C18 UNL     1       0.534   0.214   0.918  1.00  0.00     0.058 A 
HETATM   14  C19 UNL     1       0.789  -0.625   1.929  1.00  0.00     0.076 A 
HETATM   15  C20 UNL     1      -0.064  -1.536   2.600  1.00  0.00     0.102 C 
HETATM   16  N3  UNL     1      -0.742  -2.309   3.177  1.00  0.00    -0.191 NA
HETATM   17  C21 UNL     1       2.158  -0.480   2.243  1.00  0.00     0.116 A 
HETATM   18  N4  UNL     1       2.721   0.429   1.436  1.00  0.00    -0.341 N 
ENDROOT
BRANCH   1  19
HETATM   19  N1  UNL     1      -1.872  -0.106   0.537  1.00  0.00    -0.359 N 
BRANCH  19  20
HETATM   20  C4  UNL     1      -2.383  -1.322  -0.044  1.00  0.00     0.128 C 
BRANCH  20  21
HETATM   21  C3  UNL     1      -1.480  -1.990  -1.058  1.00  0.00     0.020 C 
BRANCH  21  22
HETATM   22  C2  UNL     1      -2.091  -3.256  -1.601  1.00  0.00    -0.003 C 
HETATM   23  C1  UNL     1      -2.358  -4.287  -0.562  1.00  0.00     0.005 C 
ENDBRANCH  21  22
ENDBRANCH  20  21
ENDBRANCH  19  20
BRANCH  19  24
HETATM   24  C5  UNL     1      -2.623   0.503   1.593  1.00  0.00     0.064 C 
BRANCH  24  25
HETATM   25  C6  UNL     1      -3.887   1.178   1.582  1.00  0.00     0.044 C 
BRANCH  25  26
HETATM   26  C7  UNL     1      -5.123   0.441   1.149  1.00  0.00     0.001 C 
HETATM   27  C8  UNL     1      -6.352   1.386   1.273  1.00  0.00     0.005 C 
ENDBRANCH  25  26
ENDBRANCH  24  25
ENDBRANCH  19  24
ENDBRANCH   1  19
BRANCH  18  28
HETATM   28  C22 UNL     1       4.112   0.834   1.478  1.00  0.00     0.136 C 
BRANCH  28  29
HETATM   29  C23 UNL     1       5.056   0.047   0.660  1.00  0.00     0.031 C 
HETATM   30  C24 UNL     1       5.133  -1.425   1.007  1.00  0.00     0.035 C 
HETATM   31  C25 UNL     1       4.590  -2.097  -0.225  1.00  0.00     0.232 C 
HETATM   32  N5  UNL     1       4.069  -1.067  -1.105  1.00  0.00    -0.075 N 
HETATM   33  C26 UNL     1       4.889   0.100  -0.820  1.00  0.00     0.238 C 
ATOM     34  H52 UNL     1       4.048  -1.331  -2.090  1.00  0.00     0.277 HD
ATOM     35  H51 UNL     1       3.066  -0.905  -1.010  1.00  0.00     0.277 HD
ENDBRANCH  28  29
ENDBRANCH  18  28
TORSDOF 9
