REMARK  10 active torsions:
REMARK  status: ('A' for Active; 'I' for Inactive)
REMARK    1  A    between atoms: O1_2  and  C2_3 
REMARK    2  A    between atoms: C6_7  and  C7_8 
REMARK    3  A    between atoms: C7_8  and  N1_9 
REMARK    4  A    between atoms: N2_12  and  C10_13 
REMARK    5  A    between atoms: C10_13  and  C11_14 
REMARK    6  A    between atoms: C11_14  and  C12_15 
REMARK    7  A    between atoms: C12_15  and  C13_16 
REMARK    8  A    between atoms: C13_16  and  C14_17 
REMARK    9  A    between atoms: C14_17  and  C15_18 
REMARK   10  A    between atoms: N3_28  and  O2_29 
ROOT
HETATM    1  N1  UNL     1       2.133  -1.782  -0.819  1.00  0.00     0.099 N 
HETATM    2  C8  UNL     1       1.931  -2.382   0.450  1.00  0.00     0.303 C 
HETATM    3  C9  UNL     1       0.519  -2.895   0.641  1.00  0.00     0.306 C 
HETATM    4  N2  UNL     1      -0.521  -1.943   0.365  1.00  0.00     0.125 N 
HETATM    5  C21 UNL     1      -0.256  -1.210  -0.857  1.00  0.00     0.432 C 
HETATM    6  F1  UNL     1      -0.011   0.118  -0.604  1.00  0.00    -0.214 F 
HETATM    7  C22 UNL     1       0.934  -1.741  -1.629  1.00  0.00     0.342 C 
ENDROOT
BRANCH   1   8
HETATM    8  C7  UNL     1       2.861  -0.570  -0.859  1.00  0.00     0.313 C 
BRANCH   8   9
HETATM    9  C6  UNL     1       4.271  -0.720  -0.432  1.00  0.00     0.000 A 
HETATM   10  C5  UNL     1       5.175   0.361  -0.362  1.00  0.00     0.003 A 
HETATM   11  C4  UNL     1       5.033   1.703  -0.637  1.00  0.00     0.017 A 
HETATM   12  C24 UNL     1       6.405  -0.066   0.064  1.00  0.00     0.075 A 
HETATM   13  C3  UNL     1       6.070   2.593  -0.495  1.00  0.00     0.038 A 
HETATM   14  C2  UNL     1       7.315   2.135  -0.058  1.00  0.00     0.070 A 
HETATM   15  C25 UNL     1       7.465   0.800   0.218  1.00  0.00     0.069 A 
HETATM   16  N3  UNL     1       6.292  -1.393   0.262  1.00  0.00    -0.235 N 
HETATM   17  C23 UNL     1       5.016  -1.794  -0.034  1.00  0.00     0.133 A 
BRANCH  14  18
HETATM   18  O1  UNL     1       8.327   3.067   0.071  1.00  0.00    -0.356 OA
HETATM   19  C1  UNL     1       9.633   2.826   0.491  1.00  0.00     0.210 C 
ENDBRANCH  14  18
BRANCH  16  20
HETATM   20  O2  UNL     1       7.256  -2.264   0.688  1.00  0.00    -0.283 OA
ATOM     21  H2  UNL     1       8.141  -1.986   0.893  1.00  0.00     0.245 HD
ENDBRANCH  16  20
ENDBRANCH   8   9
ENDBRANCH   1   8
BRANCH   4  22
HETATM   22  C10 UNL     1      -0.711  -1.054   1.462  1.00  0.00     0.276 C 
BRANCH  22  23
HETATM   23  C11 UNL     1      -2.016  -0.258   1.363  1.00  0.00     0.030 C 
BRANCH  23  24
HETATM   24  C12 UNL     1      -3.172  -1.228   1.362  1.00  0.00     0.002 C 
BRANCH  24  25
HETATM   25  C13 UNL     1      -4.475  -0.499   1.306  1.00  0.00     0.001 C 
BRANCH  25  26
HETATM   26  C14 UNL     1      -4.577   0.286   0.029  1.00  0.00     0.009 C 
BRANCH  26  27
HETATM   27  C15 UNL     1      -5.894   1.039  -0.058  1.00  0.00    -0.044 C 
HETATM   28  C16 UNL     1      -6.040   2.015   1.090  1.00  0.00     0.015 C 
HETATM   29  C17 UNL     1      -5.860   1.841  -1.348  1.00  0.00     0.009 C 
HETATM   30  C18 UNL     1      -7.331   1.759  -1.803  1.00  0.00     0.001 C 
HETATM   31  C19 UNL     1      -7.587   0.296  -1.547  1.00  0.00     0.001 C 
HETATM   32  C20 UNL     1      -7.009   0.071  -0.174  1.00  0.00     0.009 C 
ENDBRANCH  26  27
ENDBRANCH  25  26
ENDBRANCH  24  25
ENDBRANCH  23  24
ENDBRANCH  22  23
ENDBRANCH   4  22
TORSDOF 10
