REMARK  6 active torsions:
REMARK  status: ('A' for Active; 'I' for Inactive)
REMARK    1  A    between atoms: C3_3  and  C4_4 
REMARK    2  A    between atoms: C4_4  and  C5_5 
REMARK    3  A    between atoms: C5_5  and  C7_7 
REMARK    4  A    between atoms: C7_7  and  C8_8 
REMARK       I    between atoms: C8_8  and  N1_10 
REMARK    5  A    between atoms: N1_10  and  C9_12 
REMARK    6  A    between atoms: C22_34  and  C23_35 
ROOT
HETATM    1  C9  UNL     1       0.948  -0.088  -1.707  1.00  0.00     0.176 C 
HETATM    2  C10 UNL     1       1.342   0.294  -3.149  1.00  0.00     0.036 C 
HETATM    3  C11 UNL     1       1.681   1.767  -3.206  1.00  0.00     0.022 C 
HETATM    4  C12 UNL     1       0.509   2.638  -2.881  1.00  0.00     0.125 C 
HETATM    5  N2  UNL     1       0.737   3.982  -3.422  1.00  0.00    -0.337 N 
ATOM      6  H2  UNL     1       1.132   4.081  -4.357  1.00  0.00     0.164 HD
HETATM    7  C13 UNL     1       0.422   5.151  -2.677  1.00  0.00     0.360 C 
HETATM    8  O2  UNL     1       0.876   6.254  -3.147  1.00  0.00    -0.239 OA
HETATM    9  O3  UNL     1      -0.321   5.072  -1.532  1.00  0.00    -0.304 OA
HETATM   10  C14 UNL     1      -1.601   4.546  -1.363  1.00  0.00     0.180 C 
HETATM   11  C15 UNL     1      -1.757   4.183   0.120  1.00  0.00     0.027 C 
HETATM   12  C16 UNL     1      -3.182   3.856   0.464  1.00  0.00     0.008 C 
HETATM   13  C17 UNL     1      -3.525   2.451   0.026  1.00  0.00     0.079 C 
HETATM   14  C18 UNL     1      -2.796   1.414   0.861  1.00  0.00     0.246 C 
HETATM   15  F1  UNL     1      -3.744   0.482   1.240  1.00  0.00    -0.206 F 
HETATM   16  F2  UNL     1      -2.324   1.955   2.041  1.00  0.00    -0.206 F 
HETATM   17  C19 UNL     1      -1.691   0.779   0.027  1.00  0.00     0.113 C 
HETATM   18  C20 UNL     1      -1.996  -0.683  -0.228  1.00  0.00     0.185 C 
HETATM   19  C21 UNL     1      -1.651  -1.446   0.998  1.00  0.00     0.241 C 
HETATM   20  O4  UNL     1      -0.434  -1.294   1.379  1.00  0.00    -0.271 OA
HETATM   21  N3  UNL     1      -2.493  -2.277   1.743  1.00  0.00    -0.346 N 
ATOM     22  H3  UNL     1      -2.489  -2.111   2.749  1.00  0.00     0.163 HD
HETATM   23  C22 UNL     1      -3.355  -3.320   1.304  1.00  0.00     0.180 C 
HETATM   24  C26 UNL     1      -4.196  -3.044   0.140  1.00  0.00     0.243 C 
HETATM   25  O5  UNL     1      -5.301  -2.435   0.367  1.00  0.00    -0.271 OA
HETATM   26  N4  UNL     1      -3.940  -3.366  -1.202  1.00  0.00    -0.327 N 
ATOM     27  H4  UNL     1      -4.732  -3.669  -1.768  1.00  0.00     0.165 HD
HETATM   28  C27 UNL     1      -2.644  -3.304  -1.852  1.00  0.00     0.289 C 
HETATM   29  F3  UNL     1      -1.665  -3.891  -1.094  1.00  0.00    -0.225 F 
HETATM   30  C28 UNL     1      -2.310  -1.923  -2.335  1.00  0.00     0.185 C 
HETATM   31  N5  UNL     1      -1.379  -1.230  -1.420  1.00  0.00    -0.332 N 
HETATM   32  C29 UNL     1      -0.036  -1.186  -1.773  1.00  0.00     0.243 C 
HETATM   33  O6  UNL     1       0.464  -2.275  -2.243  1.00  0.00    -0.271 OA
ENDROOT
BRANCH   1  34
HETATM   34  N1  UNL     1       2.204  -0.595  -1.126  1.00  0.00    -0.348 N 
HETATM   35  C8  UNL     1       2.854   0.053  -0.054  1.00  0.00     0.218 C 
HETATM   36  O1  UNL     1       2.355   1.100   0.430  1.00  0.00    -0.274 OA
ATOM     37  H1  UNL     1       2.618  -1.444  -1.512  1.00  0.00     0.163 HD
BRANCH  35  38
HETATM   38  C7  UNL     1       4.100  -0.500   0.479  1.00  0.00     0.107 C 
BRANCH  38  39
HETATM   39  C5  UNL     1       4.612   0.369   1.655  1.00  0.00    -0.007 C 
HETATM   40  C6  UNL     1       3.552   0.146   2.785  1.00  0.00     0.011 C 
BRANCH  39  41
HETATM   41  C4  UNL     1       5.890  -0.170   2.182  1.00  0.00     0.031 C 
BRANCH  41  42
HETATM   42  C3  UNL     1       7.074   0.018   1.332  1.00  0.00    -0.031 C 
HETATM   43  C2  UNL     1       7.080   0.683   0.214  1.00  0.00    -0.035 C 
HETATM   44  C1  UNL     1       8.328   0.816  -0.580  1.00  0.00     0.036 C 
ENDBRANCH  41  42
ENDBRANCH  39  41
ENDBRANCH  38  39
ENDBRANCH  35  38
ENDBRANCH   1  34
BRANCH  23  45
HETATM   45  C23 UNL     1      -4.298  -3.740   2.433  1.00  0.00     0.009 C 
HETATM   46  C24 UNL     1      -5.221  -4.848   1.978  1.00  0.00     0.012 C 
HETATM   47  C25 UNL     1      -3.569  -4.124   3.679  1.00  0.00     0.012 C 
ENDBRANCH  23  45
TORSDOF 6
