REMARK  8 active torsions:
REMARK  status: ('A' for Active; 'I' for Inactive)
REMARK    1  A    between atoms: O1_2  and  C2_3 
REMARK    2  A    between atoms: C4_6  and  O2_7 
REMARK    3  A    between atoms: C6_11  and  O3_12 
REMARK    4  A    between atoms: O3_12  and  C7_13 
REMARK    5  A    between atoms: C7_13  and  C8_14 
REMARK       I    between atoms: C8_14  and  N1_16 
REMARK    6  A    between atoms: N1_16  and  N2_18 
REMARK       I    between atoms: N2_18  and  C9_20 
REMARK    7  A    between atoms: C9_20  and  C10_22 
REMARK    8  A    between atoms: C16_31  and  C17_32 
ROOT
HETATM    1  C7  UNL     1       1.370  -1.999   0.666  1.00  0.00     0.280 C 
ENDROOT
BRANCH   1   2
HETATM    2  O3  UNL     1       1.850  -0.950  -0.113  1.00  0.00    -0.340 OA
BRANCH   2   3
HETATM    3  C6  UNL     1       3.115  -0.795  -0.595  1.00  0.00     0.102 A 
HETATM    4  C5  UNL     1       3.500  -1.283  -1.804  1.00  0.00     0.079 A 
HETATM    5  C4  UNL     1       4.789  -1.111  -2.267  1.00  0.00     0.106 A 
HETATM    6 BR2  UNL     1       2.287  -2.242  -2.950  1.00  0.00    -0.045 Br
HETATM    7  C3  UNL     1       5.724  -0.436  -1.517  1.00  0.00     0.079 A 
HETATM    8  C2  UNL     1       5.321   0.072  -0.264  1.00  0.00     0.101 A 
HETATM    9 BR1  UNL     1       7.517  -0.181  -2.130  1.00  0.00    -0.045 Br
HETATM   10  C16 UNL     1       4.056  -0.093   0.211  1.00  0.00     0.034 A 
BRANCH   5  11
HETATM   11  O2  UNL     1       5.160  -1.611  -3.484  1.00  0.00    -0.358 OA
ATOM     12  H2  UNL     1       4.514  -2.077  -4.002  1.00  0.00     0.217 HD
ENDBRANCH   5  11
BRANCH   8  13
HETATM   13  O1  UNL     1       6.322   0.764   0.429  1.00  0.00    -0.354 OA
HETATM   14  C1  UNL     1       6.474   2.172   0.157  1.00  0.00     0.210 C 
ENDBRANCH   8  13
BRANCH  10  15
HETATM   15  C17 UNL     1       3.614   0.230   1.517  1.00  0.00     0.024 C 
HETATM   16  C18 UNL     1       4.180   0.249   2.660  1.00  0.00     0.057 C 
HETATM   17 BR3  UNL     1       5.941  -0.174   3.182  1.00  0.00    -0.064 Br
ENDBRANCH  10  15
ENDBRANCH   2   3
ENDBRANCH   1   2
BRANCH   1  18
HETATM   18  C8  UNL     1      -0.062  -1.762   0.964  1.00  0.00     0.260 C 
HETATM   19  O4  UNL     1      -0.689  -2.594   1.658  1.00  0.00    -0.269 OA
HETATM   20  N1  UNL     1      -0.714  -0.612   0.472  1.00  0.00    -0.266 N 
ATOM     21  H1  UNL     1      -0.178   0.049  -0.091  1.00  0.00     0.190 HD
BRANCH  20  22
HETATM   22  N2  UNL     1      -2.077  -0.335   0.724  1.00  0.00    -0.267 N 
HETATM   23  C9  UNL     1      -3.086  -0.705  -0.195  1.00  0.00     0.243 C 
HETATM   24  O5  UNL     1      -2.757  -1.291  -1.251  1.00  0.00    -0.271 OA
ATOM     25  H2  UNL     1      -2.338   0.142   1.587  1.00  0.00     0.190 HD
BRANCH  23  26
HETATM   26  C10 UNL     1      -4.487  -0.404   0.089  1.00  0.00     0.115 C 
HETATM   27  C11 UNL     1      -5.381  -1.023  -1.002  1.00  0.00     0.119 C 
HETATM   28  C12 UNL     1      -5.376   0.003  -2.054  1.00  0.00     0.219 C 
HETATM   29  O6  UNL     1      -5.576  -0.126  -3.303  1.00  0.00    -0.274 OA
HETATM   30  N3  UNL     1      -5.096   1.254  -1.430  1.00  0.00    -0.352 N 
HETATM   31  C13 UNL     1      -4.877   1.032  -0.005  1.00  0.00     0.038 C 
ATOM     32  H3  UNL     1      -5.055   2.157  -1.903  1.00  0.00     0.163 HD
HETATM   33  C14 UNL     1      -6.206   1.208   0.719  1.00  0.00     0.039 C 
HETATM   34  C15 UNL     1      -3.886   2.016   0.509  1.00  0.00     0.039 C 
ENDBRANCH  23  26
ENDBRANCH  20  22
ENDBRANCH   1  18
TORSDOF 8
