REMARK  7 active torsions:
REMARK  status: ('A' for Active; 'I' for Inactive)
REMARK    1  A    between atoms: O1_2  and  C2_3 
REMARK    2  A    between atoms: C5_7  and  C6_8 
REMARK    3  A    between atoms: C6_8  and  C7_9 
REMARK    4  A    between atoms: C8_11  and  C9_12 
REMARK    5  A    between atoms: C9_12  and  O3_13 
REMARK    6  A    between atoms: C10_15  and  N1_16 
REMARK       I    between atoms: N1_16  and  C11_18 
REMARK    7  A    between atoms: C11_18  and  C12_20 
REMARK       I    between atoms: N2_27  and  C19_28 
REMARK       I    between atoms: N5_34  and  C21_35 
ROOT
HETATM    1  C7  UNL     1       2.713   0.873  -0.050  1.00  0.00     0.230 C 
HETATM    2  O2  UNL     1       2.013  -0.238   0.325  1.00  0.00    -0.357 OA
HETATM    3  C8  UNL     1       0.772   0.030   0.888  1.00  0.00     0.172 C 
HETATM    4  C10 UNL     1      -0.182   0.703  -0.037  1.00  0.00     0.133 C 
HETATM    5  C20 UNL     1       0.603   1.078  -1.302  1.00  0.00     0.156 C 
HETATM    6  N5  UNL     1       1.794   1.759  -0.789  1.00  0.00    -0.323 N 
HETATM    7  C21 UNL     1       2.037   3.132  -0.984  1.00  0.00     0.217 C 
HETATM    8  C22 UNL     1       1.032   3.913  -1.748  1.00  0.00     0.117 C 
HETATM    9  O5  UNL     1       3.082   3.636  -0.510  1.00  0.00    -0.274 OA
ENDROOT
BRANCH   4  10
HETATM   10  N1  UNL     1      -1.370  -0.017  -0.330  1.00  0.00    -0.350 N 
HETATM   11  C11 UNL     1      -2.691   0.456  -0.131  1.00  0.00     0.241 C 
HETATM   12  O4  UNL     1      -2.818   1.613   0.345  1.00  0.00    -0.271 OA
ATOM     13  H1  UNL     1      -1.264  -0.955  -0.717  1.00  0.00     0.163 HD
BRANCH  11  14
HETATM   14  C12 UNL     1      -3.890  -0.348  -0.459  1.00  0.00     0.183 C 
HETATM   15  C13 UNL     1      -3.940  -1.619   0.401  1.00  0.00     0.018 C 
HETATM   16  C14 UNL     1      -4.417  -1.234   1.794  1.00  0.00     0.009 C 
HETATM   17  C18 UNL     1      -5.012  -2.499  -0.204  1.00  0.00     0.009 C 
HETATM   18  C15 UNL     1      -5.911  -0.937   1.748  1.00  0.00     0.026 C 
HETATM   19  C16 UNL     1      -6.212  -0.448   0.345  1.00  0.00     0.088 C 
HETATM   20  C17 UNL     1      -6.256  -1.702  -0.538  1.00  0.00     0.026 C 
HETATM   21  N2  UNL     1      -5.120   0.352  -0.195  1.00  0.00    -0.337 N 
HETATM   22  C19 UNL     1      -5.329   1.740  -0.426  1.00  0.00     0.185 C 
HETATM   23  N3  UNL     1      -5.875   2.443   0.502  1.00  0.00    -0.374 N 
HETATM   24  N4  UNL     1      -4.977   2.402  -1.608  1.00  0.00    -0.064 NA
ATOM     25  H32 UNL     1      -6.132   1.961   1.363  1.00  0.00     0.158 HD
ATOM     26  H31 UNL     1      -6.025   3.438   0.336  1.00  0.00     0.158 HD
ENDBRANCH  11  14
ENDBRANCH   4  10
BRANCH   3  27
HETATM   27  C9  UNL     1       0.961   0.892   2.129  1.00  0.00     0.198 C 
BRANCH  27  28
HETATM   28  O3  UNL     1      -0.319   1.143   2.680  1.00  0.00    -0.398 OA
ATOM     29  H3  UNL     1      -0.201   1.681   3.454  1.00  0.00     0.209 HD
ENDBRANCH  27  28
ENDBRANCH   3  27
BRANCH   1  30
HETATM   30  C6  UNL     1       3.831   0.603  -0.984  1.00  0.00     0.094 C 
BRANCH  30  31
HETATM   31  C5  UNL     1       4.889  -0.299  -0.523  1.00  0.00    -0.029 A 
HETATM   32  C4  UNL     1       6.078   0.223   0.009  1.00  0.00     0.031 A 
HETATM   33  C3  UNL     1       7.093  -0.582   0.478  1.00  0.00     0.046 A 
HETATM   34  C2  UNL     1       6.979  -1.955   0.442  1.00  0.00     0.109 A 
HETATM   35 BR1  UNL     1       8.700   0.151   1.198  1.00  0.00    -0.048 Br
HETATM   36  C24 UNL     1       5.823  -2.486  -0.075  1.00  0.00     0.090 A 
HETATM   37  C23 UNL     1       4.793  -1.666  -0.552  1.00  0.00     0.065 A 
HETATM   38 CL2  UNL     1       5.664  -4.240  -0.127  1.00  0.00    -0.079 Cl
HETATM   39 CL1  UNL     1       3.369  -2.446  -1.227  1.00  0.00    -0.082 Cl
BRANCH  34  40
HETATM   40  O1  UNL     1       8.017  -2.768   0.923  1.00  0.00    -0.353 OA
HETATM   41  C1  UNL     1       9.016  -3.159   0.006  1.00  0.00     0.210 C 
ENDBRANCH  34  40
ENDBRANCH  30  31
ENDBRANCH   1  30
TORSDOF 7
