REMARK  4 active torsions:
REMARK  status: ('A' for Active; 'I' for Inactive)
REMARK    1  A    between atoms: C8_10  and  C10_12 
REMARK    2  A    between atoms: C10_12  and  C11_14 
REMARK    3  A    between atoms: C11_14  and  O4_15 
REMARK    4  A    between atoms: C15_20  and  O5_21 
ROOT
HETATM    1  C1  UNL     1       3.575  -0.886  -0.730  1.00  0.00     0.014 C 
HETATM    2  C2  UNL     1       2.661  -0.503   0.420  1.00  0.00     0.028 C 
HETATM    3  C3  UNL     1       3.358   0.648   1.154  1.00  0.00     0.118 C 
HETATM    4  C4  UNL     1       2.482   1.185   2.209  1.00  0.00     0.259 C 
HETATM    5  O1  UNL     1       2.974   1.594   3.276  1.00  0.00    -0.265 OA
HETATM    6  O2  UNL     1       1.122   1.236   2.014  1.00  0.00    -0.312 OA
HETATM    7  C5  UNL     1       0.501   0.401   1.081  1.00  0.00     0.171 C 
HETATM    8  C6  UNL     1      -0.830   1.008   0.670  1.00  0.00     0.030 C 
HETATM    9  C7  UNL     1      -0.610   2.426   0.225  1.00  0.00     0.014 C 
HETATM   10  C8  UNL     1      -1.554   0.166  -0.337  1.00  0.00     0.028 C 
HETATM   11  C9  UNL     1      -1.750   0.974  -1.598  1.00  0.00     0.024 C 
HETATM   12  C12 UNL     1      -0.802  -1.112  -0.616  1.00  0.00     0.000 C 
HETATM   13  C13 UNL     1      -1.474  -1.927  -1.674  1.00  0.00     0.011 C 
HETATM   14  C14 UNL     1       0.626  -0.906  -0.986  1.00  0.00     0.046 C 
HETATM   15  C15 UNL     1       1.350   0.077  -0.109  1.00  0.00     0.089 C 
ENDROOT
BRANCH  10  16
HETATM   16  C10 UNL     1      -2.914  -0.243   0.137  1.00  0.00     0.159 C 
HETATM   17  O3  UNL     1      -3.893   0.091  -0.506  1.00  0.00    -0.295 OA
BRANCH  16  18
HETATM   18  C11 UNL     1      -3.131  -1.042   1.363  1.00  0.00     0.243 C 
BRANCH  18  19
HETATM   19  O4  UNL     1      -4.478  -1.257   1.535  1.00  0.00    -0.394 OA
ATOM     20  H4  UNL     1      -4.617  -1.770   2.322  1.00  0.00     0.209 HD
ENDBRANCH  18  19
ENDBRANCH  16  18
ENDBRANCH  10  16
BRANCH  15  21
HETATM   21  O5  UNL     1       1.706   1.243  -0.780  1.00  0.00    -0.387 OA
ATOM     22  H5  UNL     1       0.891   1.604  -1.109  1.00  0.00     0.210 HD
ENDBRANCH  15  21
TORSDOF 4
