REMARK  4 active torsions:
REMARK  status: ('A' for Active; 'I' for Inactive)
REMARK    1  A    between atoms: O1_2  and  C2_3 
REMARK    2  A    between atoms: C2_3  and  C4_5 
REMARK    3  A    between atoms: C2_3  and  C13_19 
REMARK    4  A    between atoms: C13_19  and  O4_22 
ROOT
HETATM    1  C4  UNL     1      -0.105  -0.395   0.010  1.00  0.00     0.170 C 
HETATM    2  O2  UNL     1       0.229   0.469   1.013  1.00  0.00    -0.324 OA
HETATM    3  C5  UNL     1       1.406   1.124   0.904  1.00  0.00     0.335 C 
HETATM    4  C6  UNL     1       1.394   2.315   1.866  1.00  0.00     0.114 C 
HETATM    5  N1  UNL     1       2.581   0.335   1.203  1.00  0.00    -0.007 N 
ATOM      6  H11 UNL     1       2.458  -0.321   1.974  1.00  0.00     0.284 HD
ATOM      7  H12 UNL     1       3.343   0.865   1.627  1.00  0.00     0.284 HD
HETATM    8  C7  UNL     1       2.925  -0.293  -0.065  1.00  0.00     0.154 C 
HETATM    9  C8  UNL     1       4.365  -0.110  -0.427  1.00  0.00     0.049 C 
HETATM   10  C9  UNL     1       2.510  -1.737  -0.100  1.00  0.00     0.042 C 
HETATM   11  C10 UNL     1       1.514  -1.829  -1.256  1.00  0.00     0.012 C 
HETATM   12  C11 UNL     1       0.844  -0.452  -1.136  1.00  0.00     0.050 C 
HETATM   13  C12 UNL     1       2.026   0.446  -1.029  1.00  0.00     0.169 C 
HETATM   14  O3  UNL     1       1.629   1.615  -0.384  1.00  0.00    -0.325 OA
ENDROOT
BRANCH   1  15
HETATM   15  C2  UNL     1      -1.519  -0.009  -0.471  1.00  0.00     0.113 C 
HETATM   16  C3  UNL     1      -1.927  -0.977  -1.603  1.00  0.00     0.052 C 
BRANCH  15  17
HETATM   17  O1  UNL     1      -1.433   1.263  -0.904  1.00  0.00    -0.380 OA
HETATM   18  C1  UNL     1      -2.479   1.919  -1.428  1.00  0.00     0.202 C 
ENDBRANCH  15  17
BRANCH  15  19
HETATM   19  C13 UNL     1      -2.542  -0.198   0.587  1.00  0.00     0.084 C 
HETATM   20  C14 UNL     1      -2.349   0.716   1.779  1.00  0.00     0.049 C 
HETATM   21  C15 UNL     1      -2.695  -1.643   1.026  1.00  0.00     0.049 C 
BRANCH  19  22
HETATM   22  O4  UNL     1      -3.786   0.126   0.048  1.00  0.00    -0.387 OA
ATOM     23  H4  UNL     1      -4.441   0.005   0.725  1.00  0.00     0.210 HD
ENDBRANCH  19  22
ENDBRANCH  15  19
ENDBRANCH   1  15
TORSDOF 4
