REMARK  4 active torsions:
REMARK  status: ('A' for Active; 'I' for Inactive)
REMARK    1  A    between atoms: C2_2  and  C4_4 
REMARK    2  A    between atoms: C4_4  and  C5_5 
REMARK    3  A    between atoms: C13_13  and  O1_14 
REMARK    4  A    between atoms: N1_20  and  O4_21 
ROOT
HETATM    1  C5  UNL     1       1.649   0.375   0.196  1.00  0.00     0.043 C 
HETATM    2  C6  UNL     1       0.963   0.400   1.314  1.00  0.00     0.006 C 
HETATM    3  C7  UNL     1      -0.176  -0.342   1.860  1.00  0.00     0.039 C 
HETATM    4  C8  UNL     1      -0.965  -1.139   0.887  1.00  0.00     0.044 C 
HETATM    5  C9  UNL     1      -2.378  -1.285   1.382  1.00  0.00     0.011 C 
HETATM    6  C10 UNL     1      -3.394  -0.469   0.676  1.00  0.00     0.033 C 
HETATM    7  C11 UNL     1      -2.958   0.085  -0.643  1.00  0.00     0.087 C 
HETATM    8  C12 UNL     1      -4.096   0.470  -1.532  1.00  0.00     0.040 C 
HETATM    9  C13 UNL     1      -2.027   1.254  -0.368  1.00  0.00     0.284 C 
HETATM   10  O2  UNL     1      -0.786   0.731  -0.631  1.00  0.00    -0.329 OA
HETATM   11  C14 UNL     1      -0.876  -0.656  -0.531  1.00  0.00     0.168 C 
HETATM   12  C15 UNL     1       0.318  -1.259  -1.231  1.00  0.00     0.232 C 
HETATM   13  O3  UNL     1       1.441  -0.461  -0.874  1.00  0.00    -0.351 OA
HETATM   14  N1  UNL     1      -2.097  -0.939  -1.255  1.00  0.00    -0.148 NA
ENDROOT
BRANCH   1  15
HETATM   15  C4  UNL     1       2.772   1.371   0.099  1.00  0.00     0.068 C 
BRANCH  15  16
HETATM   16  C2  UNL     1       4.099   0.687  -0.091  1.00  0.00    -0.017 C 
HETATM   17  C1  UNL     1       4.155  -0.145  -1.338  1.00  0.00     0.010 C 
HETATM   18  C3  UNL     1       4.449  -0.119   1.129  1.00  0.00     0.010 C 
ENDBRANCH  15  16
ENDBRANCH   1  15
BRANCH  14  19
HETATM   19  O4  UNL     1      -1.952  -0.730  -2.570  1.00  0.00    -0.309 OA
ATOM     20  H4  UNL     1      -1.396  -1.391  -2.965  1.00  0.00     0.237 HD
ENDBRANCH  14  19
BRANCH   9  21
HETATM   21  O1  UNL     1      -2.351   2.344  -1.168  1.00  0.00    -0.369 OA
ATOM     22  H1  UNL     1      -1.769   3.075  -0.996  1.00  0.00     0.212 HD
ENDBRANCH   9  21
TORSDOF 4
