REMARK  4 active torsions:
REMARK  status: ('A' for Active; 'I' for Inactive)
REMARK    1  A    between atoms: C2_2  and  O1_3 
REMARK    2  A    between atoms: C2_2  and  C3_5 
REMARK    3  A    between atoms: C3_5  and  O2_6 
REMARK    4  A    between atoms: C3_5  and  C4_8 
ROOT
HETATM    1  C4  UNL     1       1.841  -0.569   0.851  1.00  0.00     0.264 C 
HETATM    2  O3  UNL     1       1.585  -1.194  -0.372  1.00  0.00    -0.224 OA
HETATM    3  O4  UNL     1       0.596  -0.599  -0.951  1.00  0.00    -0.220 OA
HETATM    4  C5  UNL     1      -0.343  -0.267   0.026  1.00  0.00     0.167 C 
HETATM    5  C6  UNL     1      -1.025   1.048  -0.340  1.00  0.00     0.059 C 
HETATM    6  C7  UNL     1      -2.521   0.955  -0.138  1.00  0.00    -0.041 C 
HETATM    7  C8  UNL     1      -3.089   2.346  -0.270  1.00  0.00     0.015 C 
HETATM    8  C9  UNL     1      -3.050   0.017  -1.202  1.00  0.00     0.010 C 
HETATM    9  C10 UNL     1      -2.221  -1.255  -1.148  1.00  0.00     0.013 C 
HETATM   10  C11 UNL     1      -1.408  -1.302   0.151  1.00  0.00    -0.002 C 
HETATM   11  C12 UNL     1      -0.897  -2.697   0.343  1.00  0.00     0.019 C 
HETATM   12  C13 UNL     1      -2.295  -0.981   1.333  1.00  0.00     0.013 C 
HETATM   13  C14 UNL     1      -2.888   0.379   1.199  1.00  0.00     0.010 C 
HETATM   14  C15 UNL     1       0.492  -0.069   1.215  1.00  0.00     0.199 C 
HETATM   15  O5  UNL     1       0.218   0.394   2.296  1.00  0.00    -0.291 OA
ENDROOT
BRANCH   1  16
HETATM   16  C3  UNL     1       2.799   0.573   0.566  1.00  0.00     0.186 C 
BRANCH  16  17
HETATM   17  C2  UNL     1       4.047   0.026  -0.123  1.00  0.00     0.145 C 
HETATM   18  C1  UNL     1       4.953   1.194  -0.459  1.00  0.00     0.042 C 
BRANCH  17  19
HETATM   19  O1  UNL     1       4.699  -0.899   0.686  1.00  0.00    -0.393 OA
ATOM     20  H1  UNL     1       4.131  -1.631   0.897  1.00  0.00     0.210 HD
ENDBRANCH  17  19
ENDBRANCH  16  17
BRANCH  16  21
HETATM   21  O2  UNL     1       2.235   1.480  -0.329  1.00  0.00    -0.390 OA
ATOM     22  H2  UNL     1       1.459   1.820   0.100  1.00  0.00     0.210 HD
ENDBRANCH  16  21
ENDBRANCH   1  16
TORSDOF 4
