REMARK  5 active torsions:
REMARK  status: ('A' for Active; 'I' for Inactive)
REMARK    1  A    between atoms: C2_2  and  O1_3 
REMARK    2  A    between atoms: O1_3  and  C3_4 
REMARK    3  A    between atoms: C3_4  and  C4_6 
REMARK    4  A    between atoms: C4_6  and  O3_7 
REMARK    5  A    between atoms: C10_15  and  N1_16 
ROOT
HETATM    1  C4  UNL     1       0.972   0.576  -0.241  1.00  0.00     0.258 C 
HETATM    2  O4  UNL     1       0.989   1.926  -0.267  1.00  0.00    -0.338 OA
HETATM    3  C5  UNL     1      -0.028   2.485  -1.021  1.00  0.00     0.144 C 
HETATM    4  C6  UNL     1       0.348   3.856  -1.550  1.00  0.00     0.044 C 
HETATM    5  C7  UNL     1      -1.209   2.553  -0.141  1.00  0.00     0.001 C 
HETATM    6  C8  UNL     1      -1.577   1.682   0.763  1.00  0.00    -0.021 C 
HETATM    7  C9  UNL     1      -1.081   0.396   1.285  1.00  0.00     0.048 C 
HETATM    8  C10 UNL     1      -2.258  -0.556   1.146  1.00  0.00     0.193 C 
HETATM    9  C12 UNL     1      -2.076  -1.509  -0.011  1.00  0.00     0.034 C 
HETATM   10  C13 UNL     1      -0.905  -2.344   0.398  1.00  0.00     0.003 C 
HETATM   11  C14 UNL     1       0.340  -1.583   0.590  1.00  0.00     0.011 C 
HETATM   12  C15 UNL     1       0.216  -0.099   0.873  1.00  0.00     0.068 C 
ENDROOT
BRANCH   1  13
HETATM   13  C3  UNL     1       2.415   0.172  -0.155  1.00  0.00     0.322 C 
HETATM   14  O2  UNL     1       3.087   0.447   0.889  1.00  0.00    -0.259 OA
BRANCH  13  15
HETATM   15  O1  UNL     1       3.050  -0.487  -1.160  1.00  0.00    -0.318 OA
BRANCH  15  16
HETATM   16  C2  UNL     1       4.399  -0.898  -1.151  1.00  0.00     0.174 C 
HETATM   17  C1  UNL     1       4.708  -1.854  -0.021  1.00  0.00     0.034 C 
ENDBRANCH  15  16
ENDBRANCH  13  15
ENDBRANCH   1  13
BRANCH   1  18
HETATM   18  O3  UNL     1       0.559   0.126  -1.496  1.00  0.00    -0.357 OA
ATOM     19  H3  UNL     1      -0.354   0.382  -1.550  1.00  0.00     0.213 HD
ENDBRANCH   1  18
BRANCH   8  20
HETATM   20  N1  UNL     1      -3.513   0.138   0.947  1.00  0.00    -0.074 N 
HETATM   21  C11 UNL     1      -4.568  -0.856   0.887  1.00  0.00     0.267 C 
ATOM     22  H12 UNL     1      -3.685   0.854   1.653  1.00  0.00     0.277 HD
ATOM     23  H11 UNL     1      -3.501   0.751   0.132  1.00  0.00     0.277 HD
ENDBRANCH   8  20
TORSDOF 5
