REMARK  11 active torsions:
REMARK  status: ('A' for Active; 'I' for Inactive)
REMARK    1  A    between atoms: C2_2  and  C4_4 
REMARK    2  A    between atoms: C4_4  and  N1_5 
REMARK    3  A    between atoms: N1_5  and  C6_7 
REMARK    4  A    between atoms: C6_7  and  C7_8 
REMARK    5  A    between atoms: C7_8  and  C8_9 
REMARK    6  A    between atoms: C8_9  and  N2_10 
REMARK    7  A    between atoms: N2_10  and  C9_12 
REMARK    8  A    between atoms: C9_12  and  N3_14 
REMARK    9  A    between atoms: N3_14  and  C10_16 
REMARK   10  A    between atoms: C10_16  and  C11_17 
REMARK   11  A    between atoms: C11_17  and  C12_18 
ROOT
HETATM    1  C9  UNL     1       0.862  -1.065   2.145  1.00  0.00     0.171 C 
HETATM    2  S1  UNL     1       0.133  -1.491   3.650  1.00  0.00    -0.041 SA
ENDROOT
BRANCH   1   3
HETATM    3  N2  UNL     1       0.258  -1.686   1.067  1.00  0.00    -0.367 N 
ATOM      4  H2  UNL     1      -0.454  -2.364   1.338  1.00  0.00     0.161 HD
BRANCH   3   5
HETATM    5  C8  UNL     1       0.422  -1.577  -0.330  1.00  0.00     0.123 C 
BRANCH   5   6
HETATM    6  C7  UNL     1      -0.331  -0.270  -0.792  1.00  0.00     0.050 C 
BRANCH   6   7
HETATM    7  C6  UNL     1      -1.725  -0.524  -0.362  1.00  0.00     0.274 C 
BRANCH   7   8
HETATM    8  N1  UNL     1      -2.723   0.474  -0.596  1.00  0.00     0.088 N 
HETATM    9  C5  UNL     1      -2.339   1.785  -0.173  1.00  0.00     0.310 C 
BRANCH   8  10
HETATM   10  C4  UNL     1      -3.963  -0.010  -0.024  1.00  0.00     0.305 C 
BRANCH  10  11
HETATM   11  C2  UNL     1      -5.175   0.674  -0.458  1.00  0.00    -0.065 C 
HETATM   12  C1  UNL     1      -6.094  -0.028  -1.112  1.00  0.00     0.015 C 
HETATM   13  C3  UNL     1      -5.473   2.098  -0.155  1.00  0.00     0.044 C 
ENDBRANCH  10  11
ENDBRANCH   8  10
ENDBRANCH   7   8
ENDBRANCH   6   7
ENDBRANCH   5   6
ENDBRANCH   3   5
ENDBRANCH   1   3
BRANCH   1  14
HETATM   14  N3  UNL     1       1.909  -0.189   2.225  1.00  0.00    -0.347 N 
ATOM     15  H3  UNL     1       2.074   0.160   3.169  1.00  0.00     0.167 HD
BRANCH  14  16
HETATM   16  C10 UNL     1       2.805   0.330   1.273  1.00  0.00     0.068 C 
BRANCH  16  17
HETATM   17  C11 UNL     1       3.810  -0.773   0.961  1.00  0.00     0.090 C 
BRANCH  17  18
HETATM   18  C12 UNL     1       4.795  -0.303  -0.059  1.00  0.00    -0.011 A 
HETATM   19  C13 UNL     1       5.880  -1.012  -0.476  1.00  0.00     0.017 A 
HETATM   20  C14 UNL     1       6.661  -0.446  -1.419  1.00  0.00     0.028 A 
HETATM   21  C15 UNL     1       6.291   0.792  -1.873  1.00  0.00     0.051 A 
HETATM   22 BR1  UNL     1       7.194   1.850  -3.210  1.00  0.00    -0.043 Br
HETATM   23  S2  UNL     1       4.881   1.131  -0.982  1.00  0.00    -0.087 SA
ENDBRANCH  17  18
ENDBRANCH  16  17
ENDBRANCH  14  16
ENDBRANCH   1  14
TORSDOF 11
