REMARK  9 active torsions:
REMARK  status: ('A' for Active; 'I' for Inactive)
REMARK    1  A    between atoms: C2_2  and  N1_4 
REMARK       I    between atoms: N1_4  and  C4_6 
REMARK    2  A    between atoms: C4_6  and  C5_8 
REMARK    3  A    between atoms: C5_8  and  C7_10 
REMARK    4  A    between atoms: C5_8  and  N2_18 
REMARK    5  A    between atoms: C7_10  and  C8_11 
REMARK    6  A    between atoms: C8_11  and  C9_12 
REMARK       I    between atoms: N2_18  and  C15_20 
REMARK    7  A    between atoms: C15_20  and  C16_22 
REMARK    8  A    between atoms: C16_22  and  C17_23 
REMARK    9  A    between atoms: C16_22  and  N3_26 
ROOT
HETATM    1  C5  UNL     1       0.123   1.025   0.602  1.00  0.00     0.110 C 
HETATM    2  C6  UNL     1       1.365   1.461   1.401  1.00  0.00     0.049 C 
ENDROOT
BRANCH   1   3
HETATM    3  C4  UNL     1      -0.597   2.290   0.288  1.00  0.00     0.246 C 
HETATM    4  N1  UNL     1      -0.087   3.284  -0.556  1.00  0.00    -0.355 N 
ATOM      5  H1  UNL     1       0.827   3.154  -0.989  1.00  0.00     0.162 HD
HETATM    6  O1  UNL     1      -1.722   2.456   0.817  1.00  0.00    -0.271 OA
BRANCH   4   7
HETATM    7  C2  UNL     1      -0.832   4.485  -0.822  1.00  0.00     0.076 C 
HETATM    8  C1  UNL     1      -1.111   4.553  -2.324  1.00  0.00     0.032 C 
HETATM    9  C3  UNL     1      -0.069   5.733  -0.434  1.00  0.00     0.032 C 
ENDBRANCH   4   7
ENDBRANCH   1   3
BRANCH   1  10
HETATM   10  C7  UNL     1       0.640   0.370  -0.657  1.00  0.00     0.041 C 
BRANCH  10  11
HETATM   11  C8  UNL     1       1.362  -0.871  -0.296  1.00  0.00     0.007 C 
BRANCH  11  12
HETATM   12  C9  UNL     1       1.950  -1.658  -1.410  1.00  0.00    -0.014 C 
HETATM   13  C10 UNL     1       2.641  -2.880  -0.853  1.00  0.00     0.004 C 
HETATM   14  C11 UNL     1       4.133  -2.882  -1.118  1.00  0.00     0.000 C 
HETATM   15  C12 UNL     1       4.683  -1.548  -0.684  1.00  0.00     0.000 C 
HETATM   16  C13 UNL     1       4.129  -0.415  -1.498  1.00  0.00     0.000 C 
HETATM   17  C14 UNL     1       2.927  -0.898  -2.264  1.00  0.00     0.004 C 
ENDBRANCH  11  12
ENDBRANCH  10  11
ENDBRANCH   1  10
BRANCH   1  18
HETATM   18  N2  UNL     1      -0.665   0.150   1.439  1.00  0.00    -0.339 N 
HETATM   19  C15 UNL     1      -1.921  -0.404   1.082  1.00  0.00     0.261 C 
HETATM   20  O2  UNL     1      -2.393  -0.135  -0.048  1.00  0.00    -0.267 OA
ATOM     21  H2  UNL     1      -0.289  -0.088   2.357  1.00  0.00     0.164 HD
BRANCH  19  22
HETATM   22  C16 UNL     1      -2.701  -1.271   1.963  1.00  0.00     0.073 C 
BRANCH  22  23
HETATM   23  C17 UNL     1      -2.004  -2.452   2.533  1.00  0.00     0.128 C 
HETATM   24  C18 UNL     1      -1.474  -3.393   1.487  1.00  0.00     0.033 C 
HETATM   25 CL1  UNL     1      -3.256  -3.376   3.448  1.00  0.00    -0.119 Cl
ENDBRANCH  22  23
BRANCH  22  26
HETATM   26  N3  UNL     1      -4.005  -1.609   1.520  1.00  0.00    -0.289 NA
HETATM   27  C19 UNL     1      -4.876  -0.437   1.418  1.00  0.00     0.116 C 
HETATM   28  C20 UNL     1      -4.140  -2.471   0.403  1.00  0.00     0.116 C 
ENDBRANCH  22  26
ENDBRANCH  19  22
ENDBRANCH   1  18
TORSDOF 9
