REMARK  11 active torsions:
REMARK  status: ('A' for Active; 'I' for Inactive)
REMARK    1  A    between atoms: C2_2  and  N1_3 
REMARK    2  A    between atoms: N1_3  and  C3_4 
REMARK    3  A    between atoms: N1_3  and  C13_17 
REMARK    4  A    between atoms: C3_4  and  C4_5 
REMARK    5  A    between atoms: C4_5  and  N2_6 
REMARK    6  A    between atoms: N2_6  and  C5_9 
REMARK    7  A    between atoms: C13_17  and  N3_19 
REMARK    8  A    between atoms: N3_19  and  C14_21 
REMARK    9  A    between atoms: C14_21  and  C15_22 
REMARK   10  A    between atoms: C15_22  and  C16_23 
REMARK   11  A    between atoms: C16_23  and  N4_24 
ROOT
HETATM    1  N1  UNL     1      -0.576   1.418   0.235  1.00  0.00    -0.357 N 
ENDROOT
BRANCH   1   2
HETATM    2  C2  UNL     1      -1.225   2.410   1.086  1.00  0.00     0.120 C 
HETATM    3  C1  UNL     1      -1.223   3.791   0.434  1.00  0.00     0.026 C 
ENDBRANCH   1   2
BRANCH   1   4
HETATM    4  C3  UNL     1      -1.127   0.997  -1.002  1.00  0.00     0.152 C 
BRANCH   4   5
HETATM    5  C4  UNL     1      -2.308   0.093  -0.902  1.00  0.00     0.253 C 
BRANCH   5   6
HETATM    6  N2  UNL     1      -3.412   0.624  -0.179  1.00  0.00    -0.065 N 
ATOM      7  H22 UNL     1      -3.257   0.611   0.829  1.00  0.00     0.278 HD
ATOM      8  H21 UNL     1      -3.504   1.633  -0.298  1.00  0.00     0.278 HD
BRANCH   6   9
HETATM    9  C5  UNL     1      -4.640  -0.100  -0.566  1.00  0.00     0.218 C 
HETATM   10  C6  UNL     1      -5.757   0.926  -0.652  1.00  0.00    -0.057 C 
HETATM   11  C7  UNL     1      -5.487   2.196  -1.412  1.00  0.00     0.045 C 
HETATM   12  C8  UNL     1      -6.930   0.774  -0.097  1.00  0.00    -0.022 C 
HETATM   13  C9  UNL     1      -7.305  -0.450   0.700  1.00  0.00     0.028 C 
HETATM   14  C10 UNL     1      -6.416  -1.569   0.178  1.00  0.00     0.010 C 
HETATM   15  C11 UNL     1      -4.971  -1.141   0.454  1.00  0.00     0.016 C 
HETATM   16  C12 UNL     1      -4.041  -2.307   0.371  1.00  0.00     0.012 C 
ENDBRANCH   6   9
ENDBRANCH   5   6
ENDBRANCH   4   5
ENDBRANCH   1   4
BRANCH   1  17
HETATM   17  C13 UNL     1       0.704   0.880   0.649  1.00  0.00     0.169 C 
HETATM   18  S1  UNL     1       1.389   1.430   2.043  1.00  0.00    -0.041 SA
BRANCH  17  19
HETATM   19  N3  UNL     1       1.346  -0.095  -0.120  1.00  0.00    -0.367 N 
ATOM     20  H3  UNL     1       0.941  -0.476  -0.975  1.00  0.00     0.161 HD
BRANCH  19  21
HETATM   21  C14 UNL     1       2.667  -0.533   0.408  1.00  0.00     0.123 C 
BRANCH  21  22
HETATM   22  C15 UNL     1       3.162  -1.636  -0.441  1.00  0.00     0.050 C 
BRANCH  22  23
HETATM   23  C16 UNL     1       4.482  -2.240  -0.097  1.00  0.00     0.274 C 
BRANCH  23  24
HETATM   24  N4  UNL     1       5.552  -1.304  -0.162  1.00  0.00     0.088 N 
HETATM   25  C17 UNL     1       6.843  -2.057  -0.372  1.00  0.00     0.272 C 
HETATM   26  C18 UNL     1       7.910  -1.008  -0.345  1.00  0.00     0.030 C 
HETATM   27  C19 UNL     1       7.361   0.401  -0.471  1.00  0.00     0.003 C 
HETATM   28  C20 UNL     1       6.385   0.748   0.633  1.00  0.00     0.030 C 
HETATM   29  C21 UNL     1       5.794  -0.569   1.090  1.00  0.00     0.272 C 
ENDBRANCH  23  24
ENDBRANCH  22  23
ENDBRANCH  21  22
ENDBRANCH  19  21
ENDBRANCH  17  19
ENDBRANCH   1  17
TORSDOF 11
