REMARK  11 active torsions:
REMARK  status: ('A' for Active; 'I' for Inactive)
REMARK    1  A    between atoms: C2_2  and  C3_3 
REMARK    2  A    between atoms: C3_3  and  C4_4 
REMARK    3  A    between atoms: C4_4  and  C5_5 
REMARK    4  A    between atoms: C5_5  and  C6_6 
REMARK    5  A    between atoms: C6_6  and  C7_7 
REMARK    6  A    between atoms: C7_7  and  C8_8 
REMARK    7  A    between atoms: C7_7  and  N3_24 
REMARK    8  A    between atoms: C8_8  and  O1_9 
REMARK    9  A    between atoms: C8_8  and  C9_11 
REMARK   10  A    between atoms: C9_11  and  N1_13 
REMARK   11  A    between atoms: N1_13  and  C11_15 
ROOT
HETATM    1  C8  UNL     1      -0.566  -1.029   0.342  1.00  0.00     0.162 C 
ENDROOT
BRANCH   1   2
HETATM    2  C7  UNL     1       0.733  -1.580   0.021  1.00  0.00     0.109 C 
BRANCH   2   3
HETATM    3  C6  UNL     1       1.969  -1.109   0.697  1.00  0.00     0.027 C 
BRANCH   3   4
HETATM    4  C5  UNL     1       2.525   0.244   0.538  1.00  0.00     0.002 C 
BRANCH   4   5
HETATM    5  C4  UNL     1       3.039   0.509  -0.877  1.00  0.00     0.000 C 
BRANCH   5   6
HETATM    6  C3  UNL     1       3.594   1.908  -0.938  1.00  0.00    -0.000 C 
BRANCH   6   7
HETATM    7  C2  UNL     1       4.660   2.158   0.086  1.00  0.00    -0.005 C 
HETATM    8  C1  UNL     1       5.848   1.256   0.020  1.00  0.00     0.005 C 
ENDBRANCH   6   7
ENDBRANCH   5   6
ENDBRANCH   4   5
ENDBRANCH   3   4
ENDBRANCH   2   3
BRANCH   2   9
HETATM    9  N3  UNL     1       0.756  -3.032   0.218  1.00  0.00    -0.414 N 
HETATM   10  C17 UNL     1       0.386  -3.842  -0.847  1.00  0.00     0.143 C 
HETATM   11  C18 UNL     1       1.104  -3.512   1.465  1.00  0.00     0.143 C 
ENDBRANCH   2   9
ENDBRANCH   1   2
BRANCH   1  12
HETATM   12  O1  UNL     1      -0.870  -1.187   1.729  1.00  0.00    -0.391 OA
ATOM     13  H1  UNL     1      -1.723  -0.825   1.940  1.00  0.00     0.210 HD
ENDBRANCH   1  12
BRANCH   1  14
HETATM   14  C9  UNL     1      -1.206   0.211  -0.126  1.00  0.00     0.110 C 
HETATM   15  C10 UNL     1      -0.858   1.462   0.663  1.00  0.00     0.035 C 
BRANCH  14  16
HETATM   16  N1  UNL     1      -2.674   0.065   0.091  1.00  0.00    -0.369 N 
ATOM     17  H1  UNL     1      -3.004  -0.744   0.617  1.00  0.00     0.161 HD
BRANCH  16  18
HETATM   18  C11 UNL     1      -3.527   0.881  -0.336  1.00  0.00     0.107 A 
HETATM   19  N2  UNL     1      -3.299   2.003  -1.049  1.00  0.00    -0.351 N 
HETATM   20  C12 UNL     1      -4.315   2.839  -1.379  1.00  0.00     0.108 A 
ATOM     21  H2  UNL     1      -2.349   2.226  -1.344  1.00  0.00     0.166 HD
HETATM   22  C13 UNL     1      -5.593   2.586  -1.008  1.00  0.00     0.027 A 
HETATM   23 BR1  UNL     1      -7.040   3.791  -1.472  1.00  0.00    -0.050 Br
HETATM   24  C14 UNL     1      -5.870   1.449  -0.277  1.00  0.00     0.031 A 
HETATM   25  C15 UNL     1      -4.847   0.603   0.056  1.00  0.00    -0.017 A 
HETATM   26  C16 UNL     1      -5.119  -0.614   0.849  1.00  0.00     0.052 C 
ENDBRANCH  16  18
ENDBRANCH  14  16
ENDBRANCH   1  14
TORSDOF 11
