REMARK  2 active torsions:
REMARK  status: ('A' for Active; 'I' for Inactive)
REMARK    1  A    between atoms: C2_2  and  O1_3 
REMARK    2  A    between atoms: O1_3  and  C3_4 
ROOT
HETATM    1  C3  UNL     1      -0.352   0.061   0.179  1.00  0.00     0.124 C 
HETATM    2  C4  UNL     1       0.582   1.186   0.569  1.00  0.00     0.059 C 
HETATM    3  C5  UNL     1       1.640   0.625   1.460  1.00  0.00     0.235 C 
HETATM    4  N1  UNL     1       1.968  -0.741   1.181  1.00  0.00    -0.071 N 
ATOM      5  H11 UNL     1       1.441  -1.367   1.790  1.00  0.00     0.277 HD
ATOM      6  H12 UNL     1       2.916  -0.953   1.494  1.00  0.00     0.277 HD
HETATM    7  C6  UNL     1       1.796  -1.115  -0.197  1.00  0.00     0.184 C 
HETATM    8  C7  UNL     1       2.773  -0.408  -1.113  1.00  0.00     0.040 C 
HETATM    9  C8  UNL     1       0.369  -0.963  -0.677  1.00  0.00     0.064 C 
ENDROOT
BRANCH   1  10
HETATM   10  O1  UNL     1      -1.509   0.519  -0.416  1.00  0.00    -0.386 OA
BRANCH  10  11
HETATM   11  C2  UNL     1      -2.588   0.159   0.383  1.00  0.00     0.163 C 
HETATM   12  C1  UNL     1      -3.906   0.620  -0.190  1.00  0.00     0.033 C 
ENDBRANCH  10  11
ENDBRANCH   1  10
TORSDOF 2
