REMARK  1 active torsions:
REMARK  status: ('A' for Active; 'I' for Inactive)
REMARK    1  A    between atoms: C2_2  and  C3_3 
ROOT
HETATM    1  C3  UNL     1       0.703   0.376  -0.463  1.00  0.00     0.203 C 
HETATM    2  C4  UNL     1      -0.077   1.622  -0.717  1.00  0.00     0.146 C 
HETATM    3  N1  UNL     1      -1.482   1.485  -0.753  1.00  0.00    -0.417 N 
ATOM      4  H1  UNL     1      -2.067   2.007  -1.406  1.00  0.00     0.153 HD
HETATM    5  C5  UNL     1      -2.030   0.551   0.203  1.00  0.00     0.146 C 
HETATM    6  C6  UNL     1      -1.294  -0.774  -0.040  1.00  0.00     0.199 C 
HETATM    7  C7  UNL     1      -2.007  -1.864   0.711  1.00  0.00     0.041 C 
HETATM    8  N2  UNL     1       0.054  -0.551   0.435  1.00  0.00    -0.064 N 
ATOM      9  H21 UNL     1       0.082  -0.242   1.407  1.00  0.00     0.278 HD
ATOM     10  H22 UNL     1       0.578  -1.418   0.551  1.00  0.00     0.278 HD
ENDROOT
BRANCH   1  11
HETATM   11  C2  UNL     1       2.044   0.790   0.115  1.00  0.00     0.030 C 
HETATM   12  C1  UNL     1       2.923  -0.392   0.414  1.00  0.00     0.007 C 
ENDBRANCH   1  11
TORSDOF 1
