REMARK  1 active torsions:
REMARK  status: ('A' for Active; 'I' for Inactive)
REMARK    1  A    between atoms: C2_2  and  C3_3 
ROOT
HETATM    1  C3  UNL     1      -0.514   0.367   0.545  1.00  0.00     0.384 C 
HETATM    2  N1  UNL     1       0.652  -0.203   1.130  1.00  0.00    -0.039 N 
ATOM      3  H11 UNL     1       0.480  -1.131   1.518  1.00  0.00     0.280 HD
ATOM      4  H12 UNL     1       0.922   0.264   1.996  1.00  0.00     0.280 HD
HETATM    5  C4  UNL     1       1.704  -0.203   0.156  1.00  0.00     0.229 C 
HETATM    6  C5  UNL     1       2.628   0.970   0.421  1.00  0.00     0.043 C 
HETATM    7  C6  UNL     1       0.979  -0.015  -1.171  1.00  0.00     0.324 C 
HETATM    8  C7  UNL     1       0.663  -1.299  -1.780  1.00  0.00     0.095 C 
HETATM    9  N2  UNL     1       0.427  -2.332  -2.277  1.00  0.00    -0.195 NA
HETATM   10  N3  UNL     1      -0.209   0.728  -0.812  1.00  0.00    -0.028 N 
ATOM     11  H31 UNL     1      -0.116   1.734  -0.953  1.00  0.00     0.281 HD
ATOM     12  H32 UNL     1      -0.988   0.583  -1.455  1.00  0.00     0.281 HD
ENDROOT
BRANCH   1  13
HETATM   13  C2  UNL     1      -1.696  -0.578   0.523  1.00  0.00     0.058 C 
HETATM   14  C1  UNL     1      -2.892   0.099  -0.112  1.00  0.00     0.009 C 
ENDBRANCH   1  13
TORSDOF 1
