REMARK  2 active torsions:
REMARK  status: ('A' for Active; 'I' for Inactive)
REMARK    1  A    between atoms: C2_2  and  N1_5 
REMARK    2  A    between atoms: N1_5  and  C5_7 
ROOT
HETATM    1  C5  UNL     1       0.794   0.346  -0.080  1.00  0.00     0.104 C 
HETATM    2  C6  UNL     1       1.894   0.268   1.003  1.00  0.00     0.054 C 
HETATM    3  C7  UNL     1       3.194   0.386   0.285  1.00  0.00     0.234 C 
HETATM    4  N2  UNL     1       2.910   0.547  -1.118  1.00  0.00    -0.073 N 
ATOM      5  H21 UNL     1       3.576   0.059  -1.716  1.00  0.00     0.277 HD
ATOM      6  H22 UNL     1       3.095   1.492  -1.454  1.00  0.00     0.277 HD
HETATM    7  C8  UNL     1       1.537   0.126  -1.340  1.00  0.00     0.256 C 
ENDROOT
BRANCH   1   8
HETATM    8  N1  UNL     1      -0.124  -0.686   0.237  1.00  0.00    -0.408 N 
ATOM      9  H1  UNL     1       0.199  -1.612   0.517  1.00  0.00     0.154 HD
BRANCH   8  10
HETATM   10  C2  UNL     1      -1.517  -0.383   0.151  1.00  0.00     0.015 C 
HETATM   11  C1  UNL     1      -2.056  -0.186  -1.232  1.00  0.00     0.037 C 
HETATM   12  C3  UNL     1      -1.842   0.912   0.906  1.00  0.00     0.037 C 
HETATM   13  C4  UNL     1      -2.303  -1.470   0.836  1.00  0.00     0.037 C 
ENDBRANCH   8  10
ENDBRANCH   1   8
TORSDOF 2
