REMARK  1 active torsions:
REMARK  status: ('A' for Active; 'I' for Inactive)
REMARK    1  A    between atoms: N1_2  and  C2_5 
ROOT
HETATM    1  C2  UNL     1       0.426   0.268   0.097  1.00  0.00     0.204 C 
HETATM    2  C3  UNL     1      -0.013   0.781   1.461  1.00  0.00     0.036 C 
HETATM    3  C4  UNL     1      -1.192  -0.183   1.408  1.00  0.00     0.025 C 
HETATM    4  C5  UNL     1      -0.960  -0.234  -0.095  1.00  0.00     0.043 C 
HETATM    5  C6  UNL     1      -1.817   0.826  -0.780  1.00  0.00     0.030 C 
HETATM    6  S1  UNL     1      -1.191  -1.858  -0.797  1.00  0.00    -0.085 SA
ENDROOT
BRANCH   1   7
HETATM    7  N1  UNL     1       1.502  -0.671   0.097  1.00  0.00    -0.073 N 
HETATM    8  C1  UNL     1       2.267  -0.479  -1.135  1.00  0.00     0.267 C 
ATOM      9  H12 UNL     1       1.187  -1.633   0.220  1.00  0.00     0.277 HD
ATOM     10  H11 UNL     1       2.080  -0.609   0.935  1.00  0.00     0.277 HD
ENDBRANCH   1   7
TORSDOF 1
