REMARK  1 active torsions:
REMARK  status: ('A' for Active; 'I' for Inactive)
REMARK    1  A    between atoms: C4_4  and  N1_5 
ROOT
HETATM    1  N1  UNL     1       2.256  -0.269   0.742  1.00  0.00    -0.384 N 
ATOM      2  H1  UNL     1       2.592  -1.080   1.261  1.00  0.00     0.160 HD
HETATM    3  C5  UNL     1       2.723   0.897   0.943  1.00  0.00     0.166 C 
HETATM    4  S1  UNL     1       3.338   2.403   1.075  1.00  0.00    -0.075 SA
ENDROOT
BRANCH   1   5
HETATM    5  C4  UNL     1       1.209  -0.383  -0.276  1.00  0.00     0.109 C 
HETATM    6  C3  UNL     1       0.226   0.735   0.008  1.00  0.00     0.059 C 
HETATM    7  C2  UNL     1      -0.948  -0.036   0.609  1.00  0.00     0.184 C 
HETATM    8  C1  UNL     1      -2.184   0.793   0.337  1.00  0.00     0.040 C 
HETATM    9  N2  UNL     1      -0.930  -1.246  -0.180  1.00  0.00    -0.069 N 
HETATM   10  C6  UNL     1       0.464  -1.668  -0.204  1.00  0.00     0.257 C 
ATOM     11  H22 UNL     1      -1.572  -1.965   0.154  1.00  0.00     0.277 HD
ATOM     12  H21 UNL     1      -1.344  -1.139  -1.106  1.00  0.00     0.277 HD
ENDBRANCH   1   5
TORSDOF 1
