REMARK  3 active torsions:
REMARK  status: ('A' for Active; 'I' for Inactive)
REMARK    1  A    between atoms: N1_1  and  N2_4 
REMARK    2  A    between atoms: N2_4  and  C1_5 
REMARK    3  A    between atoms: C1_5  and  C2_6 
ROOT
HETATM    1  C2  UNL     1       0.187  -0.080   0.061  1.00  0.00    -0.023 A 
HETATM    2  C3  UNL     1      -0.429   1.095  -0.285  1.00  0.00     0.054 A 
HETATM    3  C4  UNL     1      -1.761   1.157  -0.621  1.00  0.00     0.118 A 
HETATM    4  N3  UNL     1      -2.384   2.400  -0.980  1.00  0.00    -0.083 NA
HETATM    5  N4  UNL     1      -2.471   0.017  -0.606  1.00  0.00    -0.329 N 
ATOM      6  H4  UNL     1      -3.460   0.045  -0.853  1.00  0.00     0.168 HD
HETATM    7  C5  UNL     1      -1.913  -1.161  -0.274  1.00  0.00     0.133 A 
HETATM    8  N5  UNL     1      -2.418  -2.427  -0.187  1.00  0.00    -0.285 N 
ATOM      9  H5  UNL     1      -3.381  -2.706  -0.376  1.00  0.00     0.188 HD
HETATM   10  N6  UNL     1      -1.432  -3.225   0.187  1.00  0.00    -0.309 N 
ATOM     11  H6  UNL     1      -1.526  -4.230   0.331  1.00  0.00     0.186 HD
HETATM   12  C6  UNL     1      -0.301  -2.544   0.351  1.00  0.00     0.123 A 
HETATM   13  C7  UNL     1      -0.580  -1.232   0.065  1.00  0.00     0.034 A 
ENDROOT
BRANCH   1  14
HETATM   14  C1  UNL     1       1.608  -0.200   0.430  1.00  0.00     0.173 C 
BRANCH  14  15
HETATM   15  N2  UNL     1       2.255   1.102   0.372  1.00  0.00    -0.144 NA
BRANCH  15  16
HETATM   16  N1  UNL     1       3.602   0.985   0.722  1.00  0.00    -0.348 N 
ATOM     17  H12 UNL     1       4.052   0.107   0.979  1.00  0.00     0.172 HD
ATOM     18  H11 UNL     1       4.056   1.898   0.681  1.00  0.00     0.172 HD
ENDBRANCH  15  16
ENDBRANCH  14  15
ENDBRANCH   1  14
TORSDOF 3
