REMARK  4 active torsions:
REMARK  status: ('A' for Active; 'I' for Inactive)
REMARK    1  A    between atoms: N1_1  and  N2_4 
REMARK    2  A    between atoms: N2_4  and  N3_5 
REMARK    3  A    between atoms: N2_4  and  C1_8 
REMARK    4  A    between atoms: C3_12  and  C4_13 
ROOT
HETATM    1  C1  UNL     1      -1.428  -0.116   0.213  1.00  0.00     0.161 A 
HETATM    2  C2  UNL     1      -1.274   0.490   1.435  1.00  0.00     0.141 A 
HETATM    3  N4  UNL     1       0.047   0.552   1.640  1.00  0.00    -0.348 N 
ATOM      4  H4  UNL     1       0.488   0.953   2.468  1.00  0.00     0.166 HD
HETATM    5  C3  UNL     1       0.718   0.007   0.592  1.00  0.00     0.140 A 
HETATM    6  N6  UNL     1      -0.203  -0.406  -0.287  1.00  0.00    -0.325 N 
ATOM      7  H6  UNL     1      -0.015  -0.861  -1.180  1.00  0.00     0.169 HD
ENDROOT
BRANCH   1   8
HETATM    8  N2  UNL     1      -2.705  -0.367  -0.369  1.00  0.00    -0.192 N 
BRANCH   8   9
HETATM    9  N1  UNL     1      -3.071  -1.702  -0.566  1.00  0.00    -0.323 N 
ATOM     10  H12 UNL     1      -3.985  -1.882  -0.982  1.00  0.00     0.179 HD
ATOM     11  H11 UNL     1      -2.453  -2.472  -0.311  1.00  0.00     0.179 HD
ENDBRANCH   8   9
BRANCH   8  12
HETATM   12  N3  UNL     1      -3.540   0.673  -0.713  1.00  0.00    -0.323 N 
ATOM     13  H32 UNL     1      -4.454   0.493  -1.129  1.00  0.00     0.179 HD
ATOM     14  H31 UNL     1      -3.273   1.647  -0.569  1.00  0.00     0.179 HD
ENDBRANCH   8  12
ENDBRANCH   1   8
BRANCH   5  15
HETATM   15  C4  UNL     1       2.196  -0.082   0.483  1.00  0.00     0.393 C 
HETATM   16  N5  UNL     1       2.759   0.178  -0.802  1.00  0.00    -0.021 N 
HETATM   17  C5  UNL     1       3.734   0.958  -0.069  1.00  0.00     0.406 C 
ATOM     18  H52 UNL     1       3.028  -0.570  -1.441  1.00  0.00     0.283 HD
ATOM     19  H51 UNL     1       2.212   0.570  -1.568  1.00  0.00     0.283 HD
HETATM   20  O1  UNL     1       2.773   1.139   0.910  1.00  0.00    -0.326 OA
ENDBRANCH   5  15
TORSDOF 4
