REMARK  4 active torsions:
REMARK  status: ('A' for Active; 'I' for Inactive)
REMARK    1  A    between atoms: N1_1  and  C1_4 
REMARK    2  A    between atoms: C5_14  and  C6_15 
REMARK    3  A    between atoms: C6_15  and  C7_16 
REMARK    4  A    between atoms: C7_16  and  N5_17 
ROOT
HETATM    1  C1  UNL     1      -1.377   1.660  -0.520  1.00  0.00     0.223 A 
HETATM    2  N2  UNL     1      -2.433   0.873  -0.254  1.00  0.00    -0.306 N 
ATOM      3  H2  UNL     1      -3.372   1.269  -0.297  1.00  0.00     0.171 HD
HETATM    4  C2  UNL     1      -2.283  -0.412   0.065  1.00  0.00     0.137 A 
HETATM    5  N3  UNL     1      -3.154  -1.389   0.368  1.00  0.00    -0.285 N 
ATOM      6  H3  UNL     1      -4.170  -1.306   0.409  1.00  0.00     0.188 HD
HETATM    7  N4  UNL     1      -2.442  -2.478   0.603  1.00  0.00    -0.309 N 
ATOM      8  H4  UNL     1      -2.836  -3.383   0.859  1.00  0.00     0.186 HD
HETATM    9  C3  UNL     1      -1.128  -2.232   0.459  1.00  0.00     0.125 A 
HETATM   10  C4  UNL     1      -0.979  -0.906   0.111  1.00  0.00     0.056 A 
HETATM   11  C5  UNL     1       0.101  -0.084  -0.165  1.00  0.00     0.073 A 
HETATM   12  O1  UNL     1      -0.168   1.150  -0.464  1.00  0.00    -0.283 OA
ENDROOT
BRANCH  11  13
HETATM   13  C6  UNL     1       1.457  -0.683  -0.095  1.00  0.00     0.093 C 
BRANCH  13  14
HETATM   14  C7  UNL     1       2.533   0.321  -0.415  1.00  0.00     0.236 C 
BRANCH  14  15
HETATM   15  N5  UNL     1       2.495   1.426   0.518  1.00  0.00    -0.079 N 
ATOM     16  H53 UNL     1       1.572   1.859   0.554  1.00  0.00     0.274 HD
ATOM     17  H52 UNL     1       2.552   1.106   1.485  1.00  0.00     0.274 HD
ATOM     18  H51 UNL     1       3.224   2.106   0.301  1.00  0.00     0.274 HD
ENDBRANCH  14  15
ENDBRANCH  13  14
ENDBRANCH  11  13
BRANCH   1  19
HETATM   19  N1  UNL     1      -1.541   2.924  -0.833  1.00  0.00    -0.365 N 
ATOM     20  H12 UNL     1      -2.480   3.320  -0.876  1.00  0.00     0.159 HD
ATOM     21  H11 UNL     1      -0.739   3.521  -1.035  1.00  0.00     0.159 HD
ENDBRANCH   1  19
TORSDOF 4
