REMARK  6 active torsions:
REMARK  status: ('A' for Active; 'I' for Inactive)
REMARK    1  A    between atoms: N1_2  and  C3_4 
REMARK    2  A    between atoms: C3_4  and  C4_5 
REMARK    3  A    between atoms: C4_5  and  N2_6 
REMARK    4  A    between atoms: N2_6  and  C5_8 
REMARK    5  A    between atoms: C6_13  and  N5_14 
REMARK    6  A    between atoms: C7_19  and  N7_20 
ROOT
HETATM    1  C5  UNL     1       1.256   0.736  -0.309  1.00  0.00     0.161 A 
HETATM    2  N3  UNL     1       1.648  -0.479  -0.748  1.00  0.00    -0.268 N 
ATOM      3  H3  UNL     1       1.003  -0.998  -1.344  1.00  0.00     0.189 HD
HETATM    4  N4  UNL     1       2.789  -1.036  -0.466  1.00  0.00    -0.131 N 
ATOM      5  H4  UNL     1       3.009  -1.960  -0.839  1.00  0.00     0.205 HD
HETATM    6  C6  UNL     1       3.670  -0.407   0.306  1.00  0.00     0.692 A 
HETATM    7  N6  UNL     1       3.353   0.812   0.785  1.00  0.00    -0.172 N 
ATOM      8  H6  UNL     1       4.020   1.305   1.379  1.00  0.00     0.186 HD
HETATM    9  C7  UNL     1       2.157   1.399   0.491  1.00  0.00     0.160 A 
ENDROOT
BRANCH   1  10
HETATM   10  N2  UNL     1       0.001   1.277  -0.665  1.00  0.00    -0.370 N 
ATOM     11  H2  UNL     1      -0.230   2.205  -0.309  1.00  0.00     0.161 HD
BRANCH  10  12
HETATM   12  C4  UNL     1      -0.979   0.617  -1.494  1.00  0.00     0.151 C 
BRANCH  12  13
HETATM   13  C3  UNL     1      -1.538  -0.642  -0.934  1.00  0.00     0.290 C 
BRANCH  13  14
HETATM   14  N1  UNL     1      -2.205  -0.511   0.317  1.00  0.00     0.081 N 
HETATM   15  C1  UNL     1      -2.695  -1.801   0.744  1.00  0.00     0.309 C 
HETATM   16  C2  UNL     1      -3.188   0.512   0.390  1.00  0.00     0.309 C 
ENDBRANCH  13  14
ENDBRANCH  12  13
ENDBRANCH  10  12
ENDBRANCH   1  10
BRANCH   9  17
HETATM   17  N7  UNL     1       1.934   2.545   0.980  1.00  0.00    -0.382 N 
ATOM     18  H72 UNL     1       1.040   2.984   0.760  1.00  0.00     0.157 HD
ATOM     19  H71 UNL     1       2.602   3.037   1.573  1.00  0.00     0.157 HD
ENDBRANCH   9  17
BRANCH   6  20
HETATM   20  N5  UNL     1       4.807  -0.910   0.615  1.00  0.00    -0.233 N 
ATOM     21  H52 UNL     1       5.047  -1.833   0.252  1.00  0.00     0.174 HD
ATOM     22  H51 UNL     1       5.483  -0.427   1.207  1.00  0.00     0.174 HD
ENDBRANCH   6  20
TORSDOF 6
