REMARK  5 active torsions:
REMARK  status: ('A' for Active; 'I' for Inactive)
REMARK    1  A    between atoms: N1_1  and  C1_5 
REMARK    2  A    between atoms: C1_5  and  C2_6 
REMARK    3  A    between atoms: C2_6  and  C3_7 
REMARK    4  A    between atoms: C3_7  and  N2_8 
REMARK    5  A    between atoms: C5_17  and  N6_18 
ROOT
HETATM    1  N2  UNL     1       0.644  -0.146   0.754  1.00  0.00    -0.312 N 
HETATM    2  C4  UNL     1       1.182  -1.412   1.094  1.00  0.00     0.192 C 
HETATM    3  S1  UNL     1       0.445  -2.442   2.112  1.00  0.00    -0.039 SA
HETATM    4  N3  UNL     1       2.449  -1.710   0.474  1.00  0.00    -0.262 N 
ATOM      5  H3  UNL     1       2.761  -2.680   0.424  1.00  0.00     0.191 HD
HETATM    6  N4  UNL     1       3.250  -0.718  -0.053  1.00  0.00    -0.242 N 
ATOM      7  H4  UNL     1       4.245  -0.854  -0.233  1.00  0.00     0.208 HD
HETATM    8  N5  UNL     1       2.615   0.454  -0.315  1.00  0.00    -0.275 N 
ATOM      9  H5  UNL     1       2.813   0.976  -1.169  1.00  0.00     0.185 HD
HETATM   10  C5  UNL     1       1.668   0.936   0.628  1.00  0.00     0.406 C 
ENDROOT
BRANCH   1  11
HETATM   11  C3  UNL     1      -0.729   0.121   0.575  1.00  0.00     0.131 C 
BRANCH  11  12
HETATM   12  C2  UNL     1      -1.690  -0.976   0.384  1.00  0.00     0.047 C 
BRANCH  12  13
HETATM   13  C1  UNL     1      -3.077  -0.282   0.199  1.00  0.00     0.231 C 
BRANCH  13  14
HETATM   14  N1  UNL     1      -2.970   0.580  -0.939  1.00  0.00    -0.079 N 
ATOM     15  H13 UNL     1      -2.198   1.243  -0.867  1.00  0.00     0.274 HD
ATOM     16  H12 UNL     1      -2.650   0.096  -1.778  1.00  0.00     0.274 HD
ATOM     17  H11 UNL     1      -3.876   1.033  -1.060  1.00  0.00     0.274 HD
ENDBRANCH  13  14
ENDBRANCH  12  13
ENDBRANCH  11  12
ENDBRANCH   1  11
BRANCH  10  18
HETATM   18  N6  UNL     1       0.972   2.087   0.080  1.00  0.00    -0.039 N 
ATOM     19  H63 UNL     1       0.482   1.888  -0.792  1.00  0.00     0.279 HD
ATOM     20  H62 UNL     1       0.154   2.363   0.623  1.00  0.00     0.279 HD
ATOM     21  H61 UNL     1       1.671   2.825  -0.006  1.00  0.00     0.279 HD
ENDBRANCH  10  18
TORSDOF 5
