REMARK  1 active torsions:
REMARK  status: ('A' for Active; 'I' for Inactive)
REMARK    1  A    between atoms: C3_4  and  O2_5 
ROOT
HETATM    1  C1  UNL     1      -4.301  -1.784   0.739  1.00  0.00     0.077 C 
HETATM    2  C2  UNL     1      -3.640  -0.698  -0.066  1.00  0.00     0.060 A 
HETATM    3  O1  UNL     1      -4.176   0.077  -0.957  1.00  0.00    -0.291 OA
HETATM    4  C3  UNL     1      -3.301   0.910  -1.460  1.00  0.00     0.211 A 
HETATM    5  C4  UNL     1      -2.080   0.673  -0.854  1.00  0.00     0.096 A 
HETATM    6  C5  UNL     1      -2.304  -0.357   0.036  1.00  0.00     0.003 A 
HETATM    7  C6  UNL     1      -1.198  -0.909   0.899  1.00  0.00     0.050 C 
HETATM    8  C7  UNL     1       0.100  -0.576   0.260  1.00  0.00     0.014 C 
HETATM    9  C8  UNL     1       1.292  -0.736   1.163  1.00  0.00     0.024 C 
HETATM   10  C9  UNL     1       2.351   0.066   0.419  1.00  0.00     0.019 C 
HETATM   11  C10 UNL     1       3.219   0.824   1.337  1.00  0.00     0.094 C 
HETATM   12  N1  UNL     1       4.343   1.269   0.843  1.00  0.00    -0.295 N 
ATOM     13  H1  UNL     1       5.010   1.804   1.399  1.00  0.00     0.187 HD
HETATM   14  N2  UNL     1       4.569   0.957  -0.515  1.00  0.00    -0.208 N 
ATOM     15  H2  UNL     1       5.055   1.641  -1.095  1.00  0.00     0.216 HD
HETATM   16  O3  UNL     1       4.176  -0.193  -1.080  1.00  0.00    -0.264 OA
HETATM   17  C11 UNL     1       3.221  -0.880  -0.376  1.00  0.00     0.218 C 
HETATM   18  C12 UNL     1       1.617   1.033  -0.465  1.00  0.00     0.043 C 
HETATM   19  C13 UNL     1       0.205   0.929  -0.029  1.00  0.00     0.087 C 
HETATM   20  N3  UNL     1      -0.774   1.272  -1.003  1.00  0.00    -0.381 N 
ATOM     21  H3  UNL     1      -0.564   1.911  -1.770  1.00  0.00     0.160 HD
ENDROOT
BRANCH   4  22
HETATM   22  O2  UNL     1      -3.511   1.895  -2.445  1.00  0.00    -0.339 OA
ATOM     23  H2  UNL     1      -2.876   2.500  -2.810  1.00  0.00     0.220 HD
ENDBRANCH   4  22
TORSDOF 1
