REMARK  5 active torsions:
REMARK  status: ('A' for Active; 'I' for Inactive)
REMARK    1  A    between atoms: O1_2  and  C2_3 
REMARK    2  A    between atoms: C2_3  and  O3_5 
REMARK    3  A    between atoms: O3_5  and  C3_6 
REMARK    4  A    between atoms: C5_8  and  O4_9 
REMARK    5  A    between atoms: C7_14  and  N2_15 
ROOT
HETATM    1  C3  UNL     1       0.476   0.021  -0.791  1.00  0.00     0.149 C 
HETATM    2  C4  UNL     1      -0.419   1.104  -1.276  1.00  0.00     0.072 C 
HETATM    3  C5  UNL     1      -1.869   0.768  -1.281  1.00  0.00     0.171 C 
HETATM    4  C6  UNL     1      -2.255   0.500   0.179  1.00  0.00     0.054 A 
HETATM    5  N1  UNL     1      -3.273   0.965   0.881  1.00  0.00    -0.337 N 
ATOM      6  H1  UNL     1      -3.947   1.604   0.460  1.00  0.00     0.168 HD
HETATM    7  C7  UNL     1      -3.400   0.583   2.148  1.00  0.00     0.142 A 
HETATM    8  S1  UNL     1      -2.073  -0.450   2.382  1.00  0.00    -0.056 SA
HETATM    9  C8  UNL     1      -1.394  -0.351   0.817  1.00  0.00     0.022 A 
HETATM   10  C9  UNL     1      -0.188  -0.959   0.131  1.00  0.00     0.015 C 
HETATM   11  C10 UNL     1       0.766  -1.301   1.289  1.00  0.00     0.023 C 
HETATM   12  C11 UNL     1      -0.525  -2.273  -0.518  1.00  0.00     0.023 C 
ENDROOT
BRANCH   1  13
HETATM   13  O3  UNL     1       1.564   0.604  -0.104  1.00  0.00    -0.291 OA
BRANCH  13  14
HETATM   14  C2  UNL     1       2.879   0.478  -0.512  1.00  0.00     0.406 C 
HETATM   15  O2  UNL     1       3.133  -0.179  -1.533  1.00  0.00    -0.230 OA
BRANCH  14  16
HETATM   16  O1  UNL     1       3.902   1.068   0.197  1.00  0.00    -0.303 OA
HETATM   17  C1  UNL     1       5.270   0.952  -0.204  1.00  0.00     0.215 C 
ENDBRANCH  14  16
ENDBRANCH  13  14
ENDBRANCH   1  13
BRANCH   3  18
HETATM   18  O4  UNL     1      -2.250  -0.256  -2.105  1.00  0.00    -0.389 OA
ATOM     19  H4  UNL     1      -3.175  -0.470  -2.108  1.00  0.00     0.210 HD
ENDBRANCH   3  18
BRANCH   7  20
HETATM   20  N2  UNL     1      -4.346   0.946   2.988  1.00  0.00    -0.380 N 
ATOM     21  H22 UNL     1      -5.143   1.567   2.847  1.00  0.00     0.158 HD
ATOM     22  H21 UNL     1      -4.443   0.653   3.960  1.00  0.00     0.158 HD
ENDBRANCH   7  20
TORSDOF 5
