REMARK  7 active torsions:
REMARK  status: ('A' for Active; 'I' for Inactive)
REMARK    1  A    between atoms: C2_2  and  C4_4 
REMARK    2  A    between atoms: C4_4  and  C5_5 
REMARK    3  A    between atoms: C5_5  and  C6_6 
REMARK    4  A    between atoms: C6_6  and  C8_8 
REMARK    5  A    between atoms: C16_19  and  O2_20 
REMARK    6  A    between atoms: C18_24  and  C19_25 
REMARK    7  A    between atoms: C19_25  and  O4_26 
ROOT
HETATM    1  C8  UNL     1       0.489   0.344   0.084  1.00  0.00     0.090 C 
HETATM    2  C9  UNL     1      -0.237   1.073  -0.979  1.00  0.00     0.136 C 
HETATM    3  O1  UNL     1       0.143   1.076  -2.129  1.00  0.00    -0.297 OA
HETATM    4  C10 UNL     1      -1.480   1.870  -0.800  1.00  0.00     0.107 C 
HETATM    5  C11 UNL     1      -2.631   0.911  -1.131  1.00  0.00     0.125 C 
HETATM    6  N1  UNL     1      -3.799   1.595  -1.471  1.00  0.00    -0.394 N 
ATOM      7  H1  UNL     1      -3.975   1.851  -2.443  1.00  0.00     0.159 HD
HETATM    8  C12 UNL     1      -4.728   1.930  -0.482  1.00  0.00     0.056 C 
HETATM    9  C13 UNL     1      -4.571   1.283   0.842  1.00  0.00     0.052 C 
HETATM   10  C14 UNL     1      -4.031  -0.077   0.703  1.00  0.00     0.032 C 
HETATM   11  C15 UNL     1      -4.571  -1.001  -0.317  1.00  0.00     0.043 C 
HETATM   12  C16 UNL     1      -3.118  -1.435  -0.576  1.00  0.00     0.155 C 
HETATM   13  C17 UNL     1      -2.689  -0.116  -0.045  1.00  0.00     0.112 C 
HETATM   14  O3  UNL     1      -1.691   0.012   0.840  1.00  0.00    -0.367 OA
HETATM   15  C18 UNL     1      -0.507  -0.640   0.674  1.00  0.00     0.158 C 
ENDROOT
BRANCH   1  16
HETATM   16  C6  UNL     1       1.793  -0.224  -0.279  1.00  0.00    -0.005 C 
HETATM   17  C7  UNL     1       1.790  -1.349  -1.257  1.00  0.00     0.011 C 
BRANCH  16  18
HETATM   18  C5  UNL     1       2.815   0.792  -0.738  1.00  0.00     0.005 C 
BRANCH  18  19
HETATM   19  C4  UNL     1       4.205   0.221  -0.816  1.00  0.00     0.004 C 
BRANCH  19  20
HETATM   20  C2  UNL     1       4.743  -0.303   0.465  1.00  0.00    -0.023 C 
HETATM   21  C1  UNL     1       6.156  -0.831   0.162  1.00  0.00     0.009 C 
HETATM   22  C3  UNL     1       4.936   0.845   1.433  1.00  0.00     0.009 C 
ENDBRANCH  19  20
ENDBRANCH  18  19
ENDBRANCH  16  18
ENDBRANCH   1  16
BRANCH  15  23
HETATM   23  C19 UNL     1       0.001  -0.960   2.089  1.00  0.00     0.197 C 
BRANCH  23  24
HETATM   24  O4  UNL     1      -0.908  -1.762   2.784  1.00  0.00    -0.398 OA
ATOM     25  H4  UNL     1      -0.594  -1.960   3.659  1.00  0.00     0.209 HD
ENDBRANCH  23  24
ENDBRANCH  15  23
BRANCH  12  26
HETATM   26  O2  UNL     1      -2.862  -2.574   0.132  1.00  0.00    -0.392 OA
ATOM     27  H2  UNL     1      -1.965  -2.842  -0.028  1.00  0.00     0.210 HD
ENDBRANCH  12  26
TORSDOF 7
