REMARK  5 active torsions:
REMARK  status: ('A' for Active; 'I' for Inactive)
REMARK    1  A    between atoms: C2_2  and  C4_4 
REMARK    2  A    between atoms: C4_4  and  C5_5 
REMARK    3  A    between atoms: C4_4  and  S1_17 
REMARK    4  A    between atoms: S1_17  and  C10_18 
REMARK    5  A    between atoms: C10_18  and  C11_19 
ROOT
HETATM    1  C4  UNL     1      -0.677  -0.879   0.383  1.00  0.00     0.074 C 
ENDROOT
BRANCH   1   2
HETATM    2  C2  UNL     1      -0.704  -2.386   0.399  1.00  0.00    -0.005 C 
HETATM    3  C1  UNL     1       0.432  -3.072   1.059  1.00  0.00     0.011 C 
HETATM    4  C3  UNL     1      -1.985  -2.883   1.086  1.00  0.00     0.011 C 
ENDBRANCH   1   2
BRANCH   1   5
HETATM    5  C5  UNL     1      -1.913  -0.361  -0.299  1.00  0.00     0.011 C 
HETATM    6  C6  UNL     1      -2.452   0.805  -0.204  1.00  0.00     0.097 A 
HETATM    7  C7  UNL     1      -1.944   1.869   0.610  1.00  0.00     0.264 A 
HETATM    8  C9  UNL     1      -3.685   1.100  -0.969  1.00  0.00     0.264 A 
HETATM    9  O1  UNL     1      -0.927   1.769   1.302  1.00  0.00    -0.267 OA
HETATM   10  N1  UNL     1      -2.605   3.152   0.671  1.00  0.00    -0.275 N 
HETATM   11  C8  UNL     1      -3.785   3.387  -0.081  1.00  0.00     0.329 A 
ATOM     12  H1  UNL     1      -2.221   3.893   1.258  1.00  0.00     0.173 HD
HETATM   13  O2  UNL     1      -4.330   4.528   0.003  1.00  0.00    -0.246 OA
HETATM   14  N2  UNL     1      -4.304   2.356  -0.889  1.00  0.00    -0.275 N 
ATOM     15  H2  UNL     1      -5.152   2.527  -1.430  1.00  0.00     0.173 HD
HETATM   16  O3  UNL     1      -4.174   0.201  -1.700  1.00  0.00    -0.267 OA
ENDBRANCH   1   5
BRANCH   1  17
HETATM   17  S1  UNL     1       0.784  -0.158  -0.372  1.00  0.00    -0.154 SA
BRANCH  17  18
HETATM   18  C10 UNL     1       2.238  -0.346   0.617  1.00  0.00     0.133 C 
BRANCH  18  19
HETATM   19  C11 UNL     1       3.444   0.317  -0.007  1.00  0.00     0.036 A 
HETATM   20  C12 UNL     1       4.354  -0.238  -0.873  1.00  0.00     0.116 A 
HETATM   21  N3  UNL     1       5.302   0.674  -1.214  1.00  0.00    -0.341 N 
HETATM   22  C13 UNL     1       4.959   1.806  -0.541  1.00  0.00     0.176 A 
ATOM     23  H3  UNL     1       6.097   0.539  -1.838  1.00  0.00     0.167 HD
HETATM   24  S2  UNL     1       5.824   3.185  -0.647  1.00  0.00    -0.041 SA
HETATM   25  N4  UNL     1       3.844   1.580   0.179  1.00  0.00    -0.335 N 
ATOM     26  H4  UNL     1       3.377   2.265   0.773  1.00  0.00     0.168 HD
ENDBRANCH  18  19
ENDBRANCH  17  18
ENDBRANCH   1  17
TORSDOF 5
