REMARK  8 active torsions:
REMARK  status: ('A' for Active; 'I' for Inactive)
REMARK    1  A    between atoms: C2_2  and  O1_3 
REMARK    2  A    between atoms: O1_3  and  C3_4 
REMARK       I    between atoms: C3_4  and  N1_6 
REMARK    3  A    between atoms: C5_8  and  O3_9 
REMARK    4  A    between atoms: C5_8  and  C6_11 
REMARK    5  A    between atoms: C11_17  and  C12_18 
REMARK    6  A    between atoms: C12_18  and  C13_19 
REMARK    7  A    between atoms: C14_20  and  C15_21 
REMARK    8  A    between atoms: C17_25  and  N4_26 
ROOT
HETATM    1  C6  UNL     1      -2.401  -2.607   0.489  1.00  0.00     0.164 C 
HETATM    2  C7  UNL     1      -1.826  -3.879   0.090  1.00  0.00     0.062 C 
HETATM    3  N2  UNL     1      -1.379  -4.917  -0.214  1.00  0.00    -0.197 NA
ENDROOT
BRANCH   1   4
HETATM    4  C5  UNL     1      -1.397  -1.519   0.716  1.00  0.00     0.095 C 
HETATM    5  C4  UNL     1      -2.055  -0.235   1.140  1.00  0.00     0.168 C 
HETATM    6  N1  UNL     1      -1.668   0.774   0.213  1.00  0.00    -0.319 N 
HETATM    7  C3  UNL     1      -2.310   2.004  -0.003  1.00  0.00     0.363 C 
HETATM    8  C11 UNL     1      -0.494   0.303  -0.465  1.00  0.00     0.103 C 
HETATM    9  O2  UNL     1      -3.339   2.315   0.654  1.00  0.00    -0.238 OA
HETATM   10  C8  UNL     1      -0.557  -1.172  -0.493  1.00  0.00     0.007 C 
HETATM   11  C9  UNL     1      -1.294  -1.601  -1.781  1.00  0.00     0.020 C 
HETATM   12  C10 UNL     1       0.735  -1.900  -0.507  1.00  0.00     0.020 C 
BRANCH   7  13
HETATM   13  O1  UNL     1      -1.828   2.899  -0.940  1.00  0.00    -0.304 OA
BRANCH  13  14
HETATM   14  C2  UNL     1      -2.439   4.153  -1.195  1.00  0.00     0.176 C 
HETATM   15  C1  UNL     1      -3.859   3.923  -1.657  1.00  0.00     0.034 C 
ENDBRANCH  13  14
ENDBRANCH   7  13
BRANCH   8  16
HETATM   16  C12 UNL     1       0.772   0.956   0.011  1.00  0.00     0.053 C 
BRANCH  16  17
HETATM   17  C13 UNL     1       1.097   0.795   1.410  1.00  0.00    -0.022 C 
HETATM   18  C14 UNL     1       2.173   0.389   1.981  1.00  0.00     0.027 C 
BRANCH  18  19
HETATM   19  C15 UNL     1       3.454  -0.054   1.508  1.00  0.00     0.064 A 
HETATM   20  C16 UNL     1       4.491  -0.491   2.357  1.00  0.00     0.136 A 
HETATM   21  N3  UNL     1       5.563  -0.826   1.625  1.00  0.00    -0.200 N 
HETATM   22  C17 UNL     1       5.266  -0.628   0.357  1.00  0.00     0.676 A 
ATOM     23  H3  UNL     1       6.452  -1.173   1.986  1.00  0.00     0.183 HD
HETATM   24  N5  UNL     1       3.993  -0.162   0.295  1.00  0.00    -0.191 N 
ATOM     25  H5  UNL     1       3.510   0.076  -0.571  1.00  0.00     0.184 HD
BRANCH  22  26
HETATM   26  N4  UNL     1       6.051  -0.840  -0.645  1.00  0.00    -0.234 N 
ATOM     27  H42 UNL     1       7.008  -1.190  -0.598  1.00  0.00     0.174 HD
ATOM     28  H41 UNL     1       5.821  -0.687  -1.627  1.00  0.00     0.174 HD
ENDBRANCH  22  26
ENDBRANCH  18  19
ENDBRANCH  16  17
ENDBRANCH   8  16
BRANCH   4  29
HETATM   29  O3  UNL     1      -0.599  -1.942   1.799  1.00  0.00    -0.386 OA
ATOM     30  H3  UNL     1      -0.183  -2.753   1.531  1.00  0.00     0.210 HD
ENDBRANCH   4  29
ENDBRANCH   1   4
TORSDOF 8
