REMARK  8 active torsions:
REMARK  status: ('A' for Active; 'I' for Inactive)
REMARK    1  A    between atoms: C4_4  and  C5_5 
REMARK    2  A    between atoms: C5_5  and  O1_6 
REMARK    3  A    between atoms: C5_5  and  C6_8 
REMARK    4  A    between atoms: C6_8  and  C8_10 
REMARK    5  A    between atoms: C8_10  and  C9_11 
REMARK    6  A    between atoms: C13_15  and  O2_16 
REMARK    7  A    between atoms: C15_21  and  O3_22 
REMARK    8  A    between atoms: O3_22  and  C16_23 
ROOT
HETATM    1  C9  UNL     1       0.556  -0.206   1.513  1.00  0.00    -0.010 C 
HETATM    2  C10 UNL     1       1.749   0.013   1.012  1.00  0.00     0.023 A 
HETATM    3  C11 UNL     1       2.708   0.634   1.828  1.00  0.00     0.003 A 
HETATM    4  C12 UNL     1       2.347   1.026   3.241  1.00  0.00     0.054 C 
HETATM    5  C13 UNL     1       3.955   0.873   1.328  1.00  0.00     0.147 A 
HETATM    6  N1  UNL     1       4.259   0.519   0.072  1.00  0.00    -0.332 N 
ATOM      7  H1  UNL     1       5.197   0.706  -0.283  1.00  0.00     0.168 HD
HETATM    8  C14 UNL     1       3.365  -0.074  -0.730  1.00  0.00     0.108 A 
HETATM    9  C15 UNL     1       3.692  -0.419  -1.983  1.00  0.00     0.182 C 
HETATM   10  C17 UNL     1       2.086  -0.339  -0.271  1.00  0.00     0.211 A 
HETATM   11  O6  UNL     1       1.282  -0.905  -1.081  1.00  0.00    -0.285 OA
ENDROOT
BRANCH   1  12
HETATM   12  C8  UNL     1      -0.600  -0.822   0.891  1.00  0.00     0.035 C 
BRANCH  12  13
HETATM   13  C6  UNL     1      -1.521   0.160   0.162  1.00  0.00     0.017 C 
HETATM   14  C7  UNL     1      -2.174   1.107   1.151  1.00  0.00     0.013 C 
BRANCH  13  15
HETATM   15  C5  UNL     1      -2.647  -0.672  -0.414  1.00  0.00     0.145 C 
BRANCH  15  16
HETATM   16  C4  UNL     1      -3.632   0.205  -1.088  1.00  0.00     0.007 C 
HETATM   17  C2  UNL     1      -4.838  -0.216  -1.388  1.00  0.00    -0.089 C 
HETATM   18  C1  UNL     1      -5.237  -1.600  -1.050  1.00  0.00     0.042 C 
HETATM   19  C3  UNL     1      -5.846   0.646  -2.066  1.00  0.00     0.042 C 
ENDBRANCH  15  16
BRANCH  15  20
HETATM   20  O1  UNL     1      -3.198  -1.413   0.623  1.00  0.00    -0.391 OA
ATOM     21  H1  UNL     1      -2.566  -1.976   1.055  1.00  0.00     0.210 HD
ENDBRANCH  15  20
ENDBRANCH  13  15
ENDBRANCH  12  13
ENDBRANCH   1  12
BRANCH   5  22
HETATM   22  O2  UNL     1       4.904   1.495   2.158  1.00  0.00    -0.346 OA
ATOM     23  H2  UNL     1       5.772   1.661   1.810  1.00  0.00     0.219 HD
ENDBRANCH   5  22
BRANCH   9  24
HETATM   24  O3  UNL     1       4.969  -0.145  -2.414  1.00  0.00    -0.263 OA
BRANCH  24  25
HETATM   25  C16 UNL     1       5.985  -1.079  -2.245  1.00  0.00     0.337 C 
HETATM   26  O4  UNL     1       5.745  -2.189  -1.693  1.00  0.00    -0.623 OA
HETATM   27  O5  UNL     1       7.254  -0.795  -2.679  1.00  0.00    -0.623 OA
ENDBRANCH  24  25
ENDBRANCH   9  24
TORSDOF 8
