REMARK  8 active torsions:
REMARK  status: ('A' for Active; 'I' for Inactive)
REMARK    1  A    between atoms: C2_2  and  C3_3 
REMARK    2  A    between atoms: C6_10  and  C7_11 
REMARK    3  A    between atoms: C7_11  and  C8_12 
REMARK    4  A    between atoms: C8_12  and  N3_15 
REMARK    5  A    between atoms: N3_15  and  C11_17 
REMARK    6  A    between atoms: C11_17  and  O1_18 
REMARK    7  A    between atoms: C12_20  and  N4_22 
REMARK       I    between atoms: N4_22  and  C14_24 
REMARK    8  A    between atoms: C14_24  and  C15_26 
ROOT
HETATM    1  C11 UNL     1      -0.696   1.024  -0.263  1.00  0.00     0.159 C 
HETATM    2  C12 UNL     1       0.583   0.830  -0.734  1.00  0.00     0.059 C 
HETATM    3  C13 UNL     1       1.157   2.419  -0.068  1.00  0.00     0.072 C 
ENDROOT
BRANCH   1   4
HETATM    4  N3  UNL     1      -1.596   0.025   0.158  1.00  0.00    -0.357 N 
ATOM      5  H3  UNL     1      -1.510  -0.952  -0.123  1.00  0.00     0.162 HD
BRANCH   4   6
HETATM    6  C8  UNL     1      -2.717   0.531   1.076  1.00  0.00     0.044 C 
HETATM    7  C9  UNL     1      -2.781   2.048   1.272  1.00  0.00     0.042 C 
HETATM    8  C10 UNL     1      -1.858   0.199   2.444  1.00  0.00     0.042 C 
BRANCH   6   9
HETATM    9  C7  UNL     1      -3.894  -0.198   1.276  1.00  0.00     0.020 C 
BRANCH   9  10
HETATM   10  C6  UNL     1      -4.952   0.083   0.284  1.00  0.00     0.026 A 
HETATM   11  C3  UNL     1      -5.176  -0.823  -0.761  1.00  0.00     0.038 A 
HETATM   12  N1  UNL     1      -6.040  -0.239  -1.575  1.00  0.00    -0.301 N 
HETATM   13  N2  UNL     1      -6.379   0.964  -1.096  1.00  0.00    -0.284 N 
ATOM     14  H1  UNL     1      -6.395  -0.646  -2.440  1.00  0.00     0.187 HD
HETATM   15  C4  UNL     1      -7.230   2.015  -1.679  1.00  0.00     0.179 C 
HETATM   16  C5  UNL     1      -5.691   1.156   0.081  1.00  0.00     0.132 A 
HETATM   17 CL1  UNL     1      -6.027   2.581   1.116  1.00  0.00    -0.062 Cl
BRANCH  11  18
HETATM   18  C2  UNL     1      -4.752  -2.302  -0.847  1.00  0.00     0.055 C 
HETATM   19  C1  UNL     1      -5.519  -2.928  -2.016  1.00  0.00     0.011 C 
ENDBRANCH  11  18
ENDBRANCH   9  10
ENDBRANCH   6   9
ENDBRANCH   4   6
ENDBRANCH   1   4
BRANCH   1  20
HETATM   20  O1  UNL     1      -1.104   2.300  -0.107  1.00  0.00    -0.345 OA
ATOM     21  H1  UNL     1      -0.497   2.974  -0.391  1.00  0.00     0.219 HD
ENDBRANCH   1  20
BRANCH   2  22
HETATM   22  N4  UNL     1       1.907   0.582  -1.179  1.00  0.00    -0.327 N 
HETATM   23  C14 UNL     1       2.308  -0.801  -0.873  1.00  0.00     0.231 C 
HETATM   24  O2  UNL     1       1.500  -1.597  -0.778  1.00  0.00    -0.272 OA
ATOM     25  H4  UNL     1       2.500   1.268  -1.647  1.00  0.00     0.168 HD
BRANCH  23  26
HETATM   26  C15 UNL     1       3.837  -0.804  -0.710  1.00  0.00     0.046 C 
HETATM   27  C16 UNL     1       4.571   0.305  -1.279  1.00  0.00     0.024 C 
HETATM   28  C17 UNL     1       6.007   0.293  -0.914  1.00  0.00    -0.009 C 
HETATM   29  C18 UNL     1       6.191   0.535   0.586  1.00  0.00     0.037 C 
HETATM   30  C22 UNL     1       6.688  -1.032  -1.260  1.00  0.00     0.037 C 
HETATM   31  C19 UNL     1       5.468  -0.676   1.202  1.00  0.00     0.123 C 
HETATM   32  C20 UNL     1       4.033  -0.495   0.925  1.00  0.00     0.051 C 
HETATM   33  O3  UNL     1       6.017  -1.876   0.834  1.00  0.00    -0.381 OA
HETATM   34  C21 UNL     1       5.916  -2.100  -0.539  1.00  0.00     0.123 C 
HETATM   35  C23 UNL     1       4.534  -2.116  -0.996  1.00  0.00     0.051 C 
ENDBRANCH  23  26
ENDBRANCH   2  22
TORSDOF 8
