REMARK  10 active torsions:
REMARK  status: ('A' for Active; 'I' for Inactive)
REMARK    1  A    between atoms: C2_2  and  C3_3 
REMARK    2  A    between atoms: C3_3  and  N1_4 
REMARK       I    between atoms: C4_6  and  N3_8 
REMARK    3  A    between atoms: C5_10  and  O1_11 
REMARK    4  A    between atoms: C5_10  and  C19_30 
REMARK    5  A    between atoms: O1_11  and  C6_12 
REMARK    6  A    between atoms: C6_12  and  C7_13 
REMARK    7  A    between atoms: C7_13  and  O2_14 
REMARK    8  A    between atoms: C7_13  and  C8_16 
REMARK    9  A    between atoms: C8_16  and  N4_17 
REMARK   10  A    between atoms: N5_20  and  C11_21 
ROOT
HETATM    1  C7  UNL     1       0.779  -0.060  -0.861  1.00  0.00     0.160 C 
ENDROOT
BRANCH   1   2
HETATM    2  C6  UNL     1      -0.697   0.140  -1.129  1.00  0.00     0.210 C 
BRANCH   2   3
HETATM    3  O1  UNL     1      -1.315   0.311   0.134  1.00  0.00    -0.336 OA
BRANCH   3   4
HETATM    4  C5  UNL     1      -2.730   0.521   0.207  1.00  0.00     0.127 C 
HETATM    5  N3  UNL     1      -3.356   0.100  -0.776  1.00  0.00    -0.314 N 
HETATM    6  C4  UNL     1      -4.663   0.040  -1.209  1.00  0.00     0.189 C 
ATOM      7  H3  UNL     1      -2.725  -0.322  -1.458  1.00  0.00     0.170 HD
HETATM    8  N1  UNL     1      -5.557  -0.782  -0.775  1.00  0.00    -0.364 N 
HETATM    9  N2  UNL     1      -5.069   0.944  -2.228  1.00  0.00    -0.063 NA
ATOM     10  H1  UNL     1      -5.327  -1.456  -0.045  1.00  0.00     0.162 HD
BRANCH   8  11
HETATM   11  C3  UNL     1      -6.883  -0.738  -1.333  1.00  0.00     0.122 C 
BRANCH  11  12
HETATM   12  C2  UNL     1      -7.329  -2.095  -1.841  1.00  0.00     0.015 C 
HETATM   13  C1  UNL     1      -7.334  -3.102  -0.690  1.00  0.00     0.006 C 
ENDBRANCH  11  12
ENDBRANCH   8  11
BRANCH   4  14
HETATM   14  C19 UNL     1      -3.171   1.197   1.436  1.00  0.00     0.014 C 
HETATM   15  C20 UNL     1      -2.498   2.578   1.576  1.00  0.00     0.023 C 
HETATM   16  C21 UNL     1      -2.698   0.443   2.684  1.00  0.00     0.023 C 
HETATM   17  C22 UNL     1      -4.648   1.459   1.524  1.00  0.00     0.023 C 
ENDBRANCH   4  14
ENDBRANCH   3   4
ENDBRANCH   2   3
ENDBRANCH   1   2
BRANCH   1  18
HETATM   18  O2  UNL     1       0.900  -1.195  -0.064  1.00  0.00    -0.392 OA
ATOM     19  H2  UNL     1       1.827  -1.321   0.104  1.00  0.00     0.210 HD
ENDBRANCH   1  18
BRANCH   1  20
HETATM   20  C8  UNL     1       1.340   1.158  -0.198  1.00  0.00     0.150 C 
BRANCH  20  21
HETATM   21  N4  UNL     1       2.718   1.118   0.132  1.00  0.00    -0.407 N 
HETATM   22  C9  UNL     1       3.125   0.222   1.155  1.00  0.00     0.136 C 
HETATM   23  C10 UNL     1       4.209  -0.743   0.696  1.00  0.00     0.142 C 
HETATM   24  N5  UNL     1       5.322   0.025   0.144  1.00  0.00    -0.378 N 
HETATM   25  C17 UNL     1       5.036   1.332  -0.395  1.00  0.00     0.142 C 
HETATM   26  C18 UNL     1       3.613   1.225  -0.972  1.00  0.00     0.136 C 
BRANCH  24  27
HETATM   27  C11 UNL     1       6.622  -0.482   0.125  1.00  0.00     0.031 A 
HETATM   28  C12 UNL     1       6.819  -1.817   0.431  1.00  0.00     0.029 A 
HETATM   29  C13 UNL     1       8.100  -2.313   0.421  1.00  0.00     0.004 A 
HETATM   30  C14 UNL     1       9.190  -1.540   0.120  1.00  0.00     0.024 A 
HETATM   31  C15 UNL     1       8.981  -0.215  -0.182  1.00  0.00     0.036 A 
HETATM   32 CL1  UNL     1      10.310   0.845  -0.578  1.00  0.00    -0.084 Cl
HETATM   33  C16 UNL     1       7.702   0.318  -0.181  1.00  0.00     0.053 A 
ENDBRANCH  24  27
ENDBRANCH  20  21
ENDBRANCH   1  20
TORSDOF 10
