REMARK  22 active torsions:
REMARK  status: ('A' for Active; 'I' for Inactive)
REMARK    1  A    between atoms: C2_2  and  C3_3 
REMARK    2  A    between atoms: C9_10  and  O2_11 
REMARK    3  A    between atoms: C9_10  and  C10_13 
REMARK    4  A    between atoms: C10_13  and  O3_14 
REMARK    5  A    between atoms: C10_13  and  C11_16 
REMARK    6  A    between atoms: C11_16  and  C13_18 
REMARK    7  A    between atoms: C13_18  and  C15_20 
REMARK    8  A    between atoms: C15_20  and  C16_21 
REMARK    9  A    between atoms: C15_20  and  C31_43 
REMARK   10  A    between atoms: C16_21  and  C17_22 
REMARK   11  A    between atoms: C17_22  and  C18_23 
REMARK   12  A    between atoms: C18_23  and  C20_25 
REMARK   13  A    between atoms: C20_25  and  C21_26 
REMARK   14  A    between atoms: C21_26  and  C22_27 
REMARK   15  A    between atoms: C22_27  and  C23_28 
REMARK   16  A    between atoms: C23_28  and  C25_31 
REMARK   17  A    between atoms: C27_33  and  O4_34 
REMARK   18  A    between atoms: C28_36  and  O5_37 
REMARK   19  A    between atoms: C31_43  and  C32_44 
REMARK   20  A    between atoms: C32_44  and  O8_45 
REMARK   21  A    between atoms: C32_44  and  C33_47 
REMARK   22  A    between atoms: C33_47  and  O9_50 
ROOT
HETATM    1  C23 UNL     1       5.334   1.243   1.838  1.00  0.00     0.144 C 
HETATM    2  C24 UNL     1       5.336   2.257   2.897  1.00  0.00     0.070 C 
HETATM    3  N1  UNL     1       5.348   3.065   3.721  1.00  0.00    -0.197 NA
ENDROOT
BRANCH   1   4
HETATM    4  C22 UNL     1       5.376  -0.122   2.374  1.00  0.00    -0.005 C 
BRANCH   4   5
HETATM    5  C21 UNL     1       4.451  -1.051   2.228  1.00  0.00    -0.002 C 
BRANCH   5   6
HETATM    6  C20 UNL     1       3.230  -0.877   1.507  1.00  0.00     0.006 C 
BRANCH   6   7
HETATM    7  C18 UNL     1       2.330  -1.825   1.385  1.00  0.00    -0.062 C 
HETATM    8  C19 UNL     1       2.424  -3.183   1.951  1.00  0.00     0.048 C 
BRANCH   7   9
HETATM    9  C17 UNL     1       1.076  -1.539   0.604  1.00  0.00     0.007 C 
BRANCH   9  10
HETATM   10  C16 UNL     1       0.187  -2.470   0.487  1.00  0.00     0.008 C 
BRANCH  10  11
HETATM   11  C15 UNL     1      -1.104  -2.459  -0.205  1.00  0.00    -0.055 C 
BRANCH  11  12
HETATM   12  C13 UNL     1      -1.664  -1.344  -0.966  1.00  0.00     0.021 C 
HETATM   13  C14 UNL     1      -0.656  -0.718  -1.878  1.00  0.00     0.015 C 
BRANCH  12  14
HETATM   14  C11 UNL     1      -2.456  -0.348  -0.196  1.00  0.00     0.024 C 
HETATM   15  C12 UNL     1      -1.692   0.377   0.812  1.00  0.00     0.013 C 
BRANCH  14  16
HETATM   16  C10 UNL     1      -3.193   0.564  -1.202  1.00  0.00     0.185 C 
BRANCH  16  17
HETATM   17  C9  UNL     1      -4.173   1.501  -0.602  1.00  0.00     0.196 C 
HETATM   18  C3  UNL     1      -4.138   2.936  -0.909  1.00  0.00     0.073 C 
HETATM   19  C4  UNL     1      -5.576   3.441  -0.677  1.00  0.00    -0.018 C 
HETATM   20  C5  UNL     1      -6.339   2.791   0.140  1.00  0.00     0.007 C 
HETATM   21  C6  UNL     1      -5.941   1.574   0.888  1.00  0.00     0.075 C 
HETATM   22  C7  UNL     1      -5.960   1.967   2.373  1.00  0.00     0.050 C 
HETATM   23  C8  UNL     1      -7.037   0.541   0.707  1.00  0.00     0.050 C 
HETATM   24  O1  UNL     1      -4.705   1.127   0.580  1.00  0.00    -0.338 OA
BRANCH  18  25
HETATM   25  C2  UNL     1      -3.315   3.905  -0.153  1.00  0.00     0.009 C 
HETATM   26  C1  UNL     1      -1.849   3.827  -0.191  1.00  0.00     0.006 C 
ENDBRANCH  18  25
BRANCH  17  27
HETATM   27  O2  UNL     1      -5.429   1.162  -1.467  1.00  0.00    -0.363 OA
ATOM     28  H2  UNL     1      -5.452   0.233  -1.268  1.00  0.00     0.213 HD
ENDBRANCH  17  27
ENDBRANCH  16  17
BRANCH  16  29
HETATM   29  O3  UNL     1      -4.017  -0.472  -1.839  1.00  0.00    -0.390 OA
ATOM     30  H3  UNL     1      -3.389  -1.072  -2.223  1.00  0.00     0.210 HD
ENDBRANCH  16  29
ENDBRANCH  14  16
ENDBRANCH  12  14
ENDBRANCH  11  12
BRANCH  11  31
HETATM   31  C31 UNL     1      -1.754  -3.641  -0.144  1.00  0.00     0.015 C 
BRANCH  31  32
HETATM   32  C32 UNL     1      -3.002  -4.044  -0.738  1.00  0.00     0.175 C 
BRANCH  32  33
HETATM   33  O8  UNL     1      -3.843  -4.458   0.349  1.00  0.00    -0.389 OA
ATOM     34  H8  UNL     1      -4.667  -4.724  -0.043  1.00  0.00     0.210 HD
ENDBRANCH  32  33
BRANCH  32  35
HETATM   35  C33 UNL     1      -2.877  -5.288  -1.611  1.00  0.00     0.080 C 
HETATM   36  C34 UNL     1      -4.256  -5.689  -2.090  1.00  0.00     0.048 C 
HETATM   37  C35 UNL     1      -2.042  -4.999  -2.848  1.00  0.00     0.048 C 
BRANCH  35  38
HETATM   38  O9  UNL     1      -2.312  -6.342  -0.912  1.00  0.00    -0.388 OA
ATOM     39  H9  UNL     1      -2.234  -7.117  -1.456  1.00  0.00     0.210 HD
ENDBRANCH  35  38
ENDBRANCH  32  35
ENDBRANCH  31  32
ENDBRANCH  11  31
ENDBRANCH  10  11
ENDBRANCH   9  10
ENDBRANCH   7   9
ENDBRANCH   6   7
ENDBRANCH   5   6
ENDBRANCH   4   5
ENDBRANCH   1   4
BRANCH   1  40
HETATM   40  C25 UNL     1       6.518   1.454   0.916  1.00  0.00     0.148 C 
HETATM   41  C26 UNL     1       6.526   2.852   0.334  1.00  0.00     0.068 C 
HETATM   42  C27 UNL     1       7.925   3.371   0.121  1.00  0.00     0.152 C 
HETATM   43  C28 UNL     1       8.537   2.878  -1.179  1.00  0.00     0.180 C 
HETATM   44  C29 UNL     1       7.713   1.740  -1.660  1.00  0.00     0.211 A 
HETATM   45  O6  UNL     1       8.184   0.494  -1.926  1.00  0.00    -0.346 OA
HETATM   46  C30 UNL     1       7.875   0.622  -0.616  1.00  0.00     0.292 A 
HETATM   47  O7  UNL     1       6.624   0.467  -0.061  1.00  0.00    -0.352 OA
BRANCH  42  48
HETATM   48  O4  UNL     1       7.855   4.762   0.053  1.00  0.00    -0.393 OA
ATOM     49  H4  UNL     1       8.737   5.089  -0.081  1.00  0.00     0.210 HD
ENDBRANCH  42  48
BRANCH  43  50
HETATM   50  O5  UNL     1       9.814   2.378  -0.837  1.00  0.00    -0.390 OA
ATOM     51  H5  UNL     1      10.197   2.070  -1.650  1.00  0.00     0.210 HD
ENDBRANCH  43  50
ENDBRANCH   1  40
TORSDOF 22
