REMARK  15 active torsions:
REMARK  status: ('A' for Active; 'I' for Inactive)
REMARK    1  A    between atoms: C4_4  and  O1_5 
REMARK    2  A    between atoms: O1_5  and  C5_6 
REMARK    3  A    between atoms: C5_6  and  C6_8 
REMARK    4  A    between atoms: C11_13  and  C12_14 
REMARK    5  A    between atoms: C20_27  and  O8_28 
REMARK    6  A    between atoms: C21_30  and  O9_31 
REMARK    7  A    between atoms: C22_33  and  C23_34 
REMARK    8  A    between atoms: C23_34  and  C24_35 
REMARK    9  A    between atoms: C24_35  and  N1_36 
REMARK       I    between atoms: N1_36  and  C25_38 
REMARK   10  A    between atoms: C25_38  and  C26_40 
REMARK   11  A    between atoms: C26_40  and  C27_41 
REMARK   12  A    between atoms: C27_41  and  C28_42 
REMARK   13  A    between atoms: C28_42  and  C29_43 
REMARK   14  A    between atoms: C29_43  and  C30_44 
REMARK   15  A    between atoms: C30_44  and  C31_45 
ROOT
HETATM    1  C1  UNL     1      -5.937  -2.450  -0.729  1.00  0.00     0.040 C 
HETATM    2  C2  UNL     1      -4.403  -2.616  -0.682  1.00  0.00     0.130 C 
HETATM    3  C3  UNL     1      -3.725  -1.463   0.028  1.00  0.00     0.065 C 
HETATM    4  C4  UNL     1      -2.703  -0.689  -0.686  1.00  0.00     0.146 C 
HETATM    5  C13 UNL     1      -1.249  -1.070  -0.747  1.00  0.00     0.028 C 
HETATM    6  C14 UNL     1      -0.678  -1.543   0.534  1.00  0.00     0.098 C 
HETATM    7  C15 UNL     1      -0.281  -2.980   0.659  1.00  0.00     0.146 C 
HETATM    8  O5  UNL     1       0.846  -3.393   0.775  1.00  0.00    -0.294 OA
HETATM    9  C16 UNL     1      -1.370  -3.926   0.635  1.00  0.00     0.024 C 
HETATM   10  C17 UNL     1      -1.314  -5.357   0.923  1.00  0.00     0.041 C 
HETATM   11  C18 UNL     1      -2.751  -5.793   0.520  1.00  0.00     0.115 C 
HETATM   12  C19 UNL     1      -3.754  -4.698   0.732  1.00  0.00     0.259 C 
HETATM   13  O6  UNL     1      -4.144  -4.699   1.971  1.00  0.00    -0.265 OA
HETATM   14  O7  UNL     1      -4.172  -3.862  -0.215  1.00  0.00    -0.316 OA
HETATM   15  C20 UNL     1      -0.946  -1.932  -1.982  1.00  0.00     0.159 C 
HETATM   16  C21 UNL     1      -0.706  -0.675  -2.817  1.00  0.00     0.152 C 
HETATM   17  C22 UNL     1      -0.515   0.032  -1.493  1.00  0.00     0.032 C 
ENDROOT
BRANCH   4  18
HETATM   18  O1  UNL     1      -2.751   0.593  -0.061  1.00  0.00    -0.315 OA
BRANCH  18  19
HETATM   19  C5  UNL     1      -3.351   1.705  -0.621  1.00  0.00     0.264 C 
HETATM   20  O2  UNL     1      -3.885   1.538  -1.746  1.00  0.00    -0.265 OA
BRANCH  19  21
HETATM   21  C6  UNL     1      -3.323   2.981   0.123  1.00  0.00     0.100 C 
HETATM   22  C7  UNL     1      -4.014   2.926   1.443  1.00  0.00     0.015 C 
HETATM   23  C8  UNL     1      -5.498   2.907   1.371  1.00  0.00     0.001 C 
HETATM   24  C9  UNL     1      -6.074   3.370   0.070  1.00  0.00     0.001 C 
HETATM   25  C10 UNL     1      -5.249   4.404  -0.634  1.00  0.00     0.016 C 
HETATM   26  C11 UNL     1      -3.796   4.150  -0.664  1.00  0.00     0.100 C 
BRANCH  26  27
HETATM   27  C12 UNL     1      -3.047   5.362  -0.191  1.00  0.00     0.177 C 
HETATM   28  O3  UNL     1      -2.186   5.285   0.727  1.00  0.00    -0.648 OA
HETATM   29  O4  UNL     1      -3.269   6.616  -0.743  1.00  0.00    -0.648 OA
ENDBRANCH  26  27
ENDBRANCH  19  21
ENDBRANCH  18  19
ENDBRANCH   4  18
BRANCH  15  30
HETATM   30  O8  UNL     1       0.195  -2.669  -2.008  1.00  0.00    -0.392 OA
ATOM     31  H8  UNL     1       0.382  -3.202  -2.772  1.00  0.00     0.210 HD
ENDBRANCH  15  30
BRANCH  17  32
HETATM   32  C23 UNL     1       0.793   0.522  -1.127  1.00  0.00     0.028 C 
BRANCH  32  33
HETATM   33  C24 UNL     1       2.034  -0.264  -1.114  1.00  0.00     0.123 C 
BRANCH  33  34
HETATM   34  N1  UNL     1       3.182   0.544  -0.680  1.00  0.00    -0.361 N 
HETATM   35  C25 UNL     1       4.492   0.050  -0.570  1.00  0.00     0.217 C 
HETATM   36  O10 UNL     1       4.705  -1.161  -0.860  1.00  0.00    -0.274 OA
ATOM     37  H1  UNL     1       3.018   1.523  -0.444  1.00  0.00     0.162 HD
BRANCH  35  38
HETATM   38  C26 UNL     1       5.641   0.861  -0.136  1.00  0.00     0.103 C 
BRANCH  38  39
HETATM   39  C27 UNL     1       6.918   0.097  -0.075  1.00  0.00     0.009 C 
BRANCH  39  40
HETATM   40  C28 UNL     1       7.999   1.088   0.390  1.00  0.00     0.001 C 
BRANCH  40  41
HETATM   41  C29 UNL     1       9.335   0.401   0.487  1.00  0.00     0.010 C 
BRANCH  41  42
HETATM   42  C30 UNL     1      10.379   1.365   0.931  1.00  0.00     0.113 C 
BRANCH  42  43
HETATM   43  C31 UNL     1      10.045   1.916   2.243  1.00  0.00     0.172 C 
HETATM   44  O11 UNL     1       9.317   2.933   2.428  1.00  0.00    -0.648 OA
HETATM   45  O12 UNL     1      10.531   1.323   3.411  1.00  0.00    -0.648 OA
ENDBRANCH  42  43
ENDBRANCH  41  42
ENDBRANCH  40  41
ENDBRANCH  39  40
ENDBRANCH  38  39
ENDBRANCH  35  38
ENDBRANCH  33  34
ENDBRANCH  32  33
ENDBRANCH  17  32
BRANCH  16  46
HETATM   46  O9  UNL     1       0.345  -0.703  -3.683  1.00  0.00    -0.393 OA
ATOM     47  H9  UNL     1       0.494   0.078  -4.202  1.00  0.00     0.210 HD
ENDBRANCH  16  46
TORSDOF 15
