REMARK  18 active torsions:
REMARK  status: ('A' for Active; 'I' for Inactive)
REMARK    1  A    between atoms: C2_2  and  C3_3 
REMARK    2  A    between atoms: C2_2  and  C8_12 
REMARK    3  A    between atoms: C3_3  and  C4_4 
REMARK    4  A    between atoms: C4_4  and  C5_5 
REMARK    5  A    between atoms: C5_5  and  O1_7 
REMARK    6  A    between atoms: C5_5  and  C7_9 
REMARK    7  A    between atoms: C7_9  and  O2_10 
REMARK    8  A    between atoms: C8_12  and  C9_14 
REMARK    9  A    between atoms: C9_14  and  C10_15 
REMARK   10  A    between atoms: C10_15  and  C11_16 
REMARK   11  A    between atoms: C11_16  and  C13_18 
REMARK   12  A    between atoms: C13_18  and  C15_20 
REMARK   13  A    between atoms: C21_26  and  O4_27 
REMARK   14  A    between atoms: O4_27  and  C22_28 
REMARK   15  A    between atoms: C26_34  and  O7_35 
REMARK   16  A    between atoms: C28_38  and  O8_39 
REMARK   17  A    between atoms: C29_41  and  O9_42 
REMARK   18  A    between atoms: C30_44  and  O10_45 
ROOT
HETATM    1  C15 UNL     1      -0.930  -0.850  -0.561  1.00  0.00    -0.002 C 
HETATM    2  C16 UNL     1      -1.058  -2.228   0.178  1.00  0.00     0.006 C 
HETATM    3  C17 UNL     1       0.367  -2.657   0.447  1.00  0.00     0.006 C 
HETATM    4  C18 UNL     1       1.160  -1.460   0.053  1.00  0.00     0.000 C 
HETATM    5  C19 UNL     1       2.526  -1.349   0.546  1.00  0.00     0.015 C 
HETATM    6  C20 UNL     1       2.701  -2.094   1.854  1.00  0.00     0.013 C 
HETATM    7  C21 UNL     1       3.112   0.020   0.613  1.00  0.00     0.129 C 
HETATM    8  C31 UNL     1       2.118   1.110   0.783  1.00  0.00     0.033 C 
HETATM    9  C32 UNL     1       0.832   0.911   0.026  1.00  0.00     0.012 C 
HETATM   10  C33 UNL     1       0.169  -0.338   0.382  1.00  0.00    -0.036 C 
HETATM   11  C34 UNL     1      -0.363  -0.434   1.768  1.00  0.00     0.016 C 
ENDROOT
BRANCH   7  12
HETATM   12  O4  UNL     1       3.985   0.361  -0.367  1.00  0.00    -0.353 OA
BRANCH  12  13
HETATM   13  C22 UNL     1       5.277   0.618  -0.091  1.00  0.00     0.294 C 
HETATM   14  O5  UNL     1       6.044  -0.378  -0.749  1.00  0.00    -0.328 OA
HETATM   15  C23 UNL     1       7.329  -0.433  -0.350  1.00  0.00     0.272 C 
HETATM   16  O6  UNL     1       7.639  -1.442   0.565  1.00  0.00    -0.353 OA
HETATM   17  C27 UNL     1       7.939   0.753   0.292  1.00  0.00     0.104 C 
HETATM   18  C24 UNL     1       9.044  -1.305   0.639  1.00  0.00     0.150 C 
HETATM   19  C25 UNL     1       9.706  -1.884  -0.583  1.00  0.00     0.042 C 
HETATM   20  C26 UNL     1       9.329   0.185   0.638  1.00  0.00     0.158 C 
HETATM   21  C28 UNL     1       8.055   1.910  -0.638  1.00  0.00     0.161 C 
HETATM   22  C29 UNL     1       6.851   1.959  -1.516  1.00  0.00     0.181 C 
HETATM   23  C30 UNL     1       5.620   1.982  -0.643  1.00  0.00     0.204 C 
BRANCH  20  24
HETATM   24  O7  UNL     1       9.779   0.633   1.856  1.00  0.00    -0.392 OA
ATOM     25  H7  UNL     1       9.957   1.566   1.855  1.00  0.00     0.210 HD
ENDBRANCH  20  24
BRANCH  21  26
HETATM   26  O8  UNL     1       9.252   1.943  -1.345  1.00  0.00    -0.392 OA
ATOM     27  H8  UNL     1       9.326   2.681  -1.938  1.00  0.00     0.210 HD
ENDBRANCH  21  26
BRANCH  22  28
HETATM   28  O9  UNL     1       6.805   1.041  -2.529  1.00  0.00    -0.390 OA
ATOM     29  H9  UNL     1       6.038   1.072  -3.088  1.00  0.00     0.210 HD
ENDBRANCH  22  28
BRANCH  23  30
HETATM   30  O10 UNL     1       4.588   2.460  -1.487  1.00  0.00    -0.388 OA
ATOM     31  H10 UNL     1       4.804   3.318  -1.834  1.00  0.00     0.210 HD
ENDBRANCH  23  30
ENDBRANCH  12  13
ENDBRANCH   7  12
BRANCH   1  32
HETATM   32  C13 UNL     1      -2.221  -0.135  -0.519  1.00  0.00    -0.010 C 
HETATM   33  C14 UNL     1      -2.130   1.103  -1.384  1.00  0.00     0.011 C 
BRANCH  32  34
HETATM   34  C11 UNL     1      -3.356  -0.968  -1.090  1.00  0.00    -0.014 C 
HETATM   35  C12 UNL     1      -3.040  -1.366  -2.539  1.00  0.00     0.010 C 
BRANCH  34  36
HETATM   36  C10 UNL     1      -4.710  -0.445  -1.056  1.00  0.00     0.012 C 
BRANCH  36  37
HETATM   37  C9  UNL     1      -5.171   0.716  -1.814  1.00  0.00     0.084 C 
BRANCH  37  38
HETATM   38  C8  UNL     1      -6.651   0.957  -1.579  1.00  0.00     0.154 C 
HETATM   39  O3  UNL     1      -7.465   0.440  -2.381  1.00  0.00    -0.293 OA
BRANCH  38  40
HETATM   40  C2  UNL     1      -7.131   1.753  -0.473  1.00  0.00    -0.022 C 
HETATM   41  C1  UNL     1      -6.257   2.293   0.368  1.00  0.00     0.022 C 
BRANCH  40  42
HETATM   42  C3  UNL     1      -8.537   2.076  -0.269  1.00  0.00     0.044 C 
BRANCH  42  43
HETATM   43  C4  UNL     1      -9.227   1.388   0.820  1.00  0.00     0.044 C 
BRANCH  43  44
HETATM   44  C5  UNL     1      -9.381  -0.075   0.880  1.00  0.00     0.075 C 
HETATM   45  C6  UNL     1     -10.090  -0.726  -0.262  1.00  0.00     0.048 C 
BRANCH  44  46
HETATM   46  O1  UNL     1     -10.327  -0.248   2.001  1.00  0.00    -0.388 OA
ATOM     47  H1  UNL     1     -10.426  -1.192   2.040  1.00  0.00     0.210 HD
ENDBRANCH  44  46
BRANCH  44  48
HETATM   48  C7  UNL     1      -8.195  -0.868   1.360  1.00  0.00     0.201 C 
BRANCH  48  49
HETATM   49  O2  UNL     1      -8.593  -2.212   1.575  1.00  0.00    -0.398 OA
ATOM     50  H2  UNL     1      -7.844  -2.712   1.878  1.00  0.00     0.209 HD
ENDBRANCH  48  49
ENDBRANCH  44  48
ENDBRANCH  43  44
ENDBRANCH  42  43
ENDBRANCH  40  42
ENDBRANCH  38  40
ENDBRANCH  37  38
ENDBRANCH  36  37
ENDBRANCH  34  36
ENDBRANCH  32  34
ENDBRANCH   1  32
TORSDOF 18
