REMARK  8 active torsions:
REMARK  status: ('A' for Active; 'I' for Inactive)
REMARK       I    between atoms: C1_4  and  N2_5 
REMARK       I    between atoms: C1_4  and  N5_18 
REMARK    1  A    between atoms: N2_5  and  N3_7 
REMARK    2  A    between atoms: N3_7  and  C2_9 
REMARK    3  A    between atoms: C5_12  and  N4_13 
REMARK    4  A    between atoms: N5_18  and  C8_20 
REMARK    5  A    between atoms: C8_20  and  C9_21 
REMARK    6  A    between atoms: C8_20  and  C10_25 
REMARK    7  A    between atoms: C9_21  and  O3_22 
REMARK    8  A    between atoms: C10_25  and  C11_27 
ROOT
HETATM    1  N1  UNL     1      -0.398  -0.408   2.899  1.00  0.00    -0.234 N 
ATOM      2  H11 UNL     1      -1.133  -0.661   3.560  1.00  0.00     0.174 HD
ATOM      3  H12 UNL     1       0.543  -0.769   3.053  1.00  0.00     0.174 HD
HETATM    4  C1  UNL     1      -0.694   0.351   1.872  1.00  0.00     0.686 C 
HETATM    5  N2  UNL     1       0.330   0.704   0.951  1.00  0.00    -0.132 N 
ATOM      6  H2  UNL     1       0.103   0.949  -0.013  1.00  0.00     0.205 HD
HETATM    7  N5  UNL     1      -1.998   0.851   1.658  1.00  0.00    -0.214 N 
ATOM      8  H5  UNL     1      -2.525   1.276   2.421  1.00  0.00     0.178 HD
ENDROOT
BRANCH   5   9
HETATM    9  N3  UNL     1       1.638   0.708   1.392  1.00  0.00    -0.287 N 
ATOM     10  H3  UNL     1       1.855   1.043   2.331  1.00  0.00     0.187 HD
BRANCH   9  11
HETATM   11  C2  UNL     1       2.684   0.249   0.547  1.00  0.00     0.048 A 
HETATM   12  C3  UNL     1       4.000   0.245   0.970  1.00  0.00     0.033 A 
HETATM   13  C4  UNL     1       5.032  -0.193   0.175  1.00  0.00     0.038 A 
HETATM   14  C5  UNL     1       4.786  -0.656  -1.100  1.00  0.00     0.103 A 
HETATM   15  C6  UNL     1       3.481  -0.663  -1.548  1.00  0.00     0.038 A 
HETATM   16  C7  UNL     1       2.446  -0.215  -0.730  1.00  0.00     0.033 A 
BRANCH  14  17
HETATM   17  N4  UNL     1       5.845  -1.113  -1.934  1.00  0.00    -0.116 N 
HETATM   18  O1  UNL     1       5.574  -1.525  -3.088  1.00  0.00    -0.532 OA
HETATM   19  O2  UNL     1       7.119  -1.090  -1.456  1.00  0.00    -0.532 OA
ENDBRANCH  14  17
ENDBRANCH   9  11
ENDBRANCH   5   9
BRANCH   7  20
HETATM   20  C8  UNL     1      -2.579   0.746   0.314  1.00  0.00     0.186 C 
BRANCH  20  21
HETATM   21  C9  UNL     1      -3.836   1.646   0.390  1.00  0.00     0.329 C 
HETATM   22  F1  UNL     1      -3.342   2.919   0.686  1.00  0.00    -0.218 F 
BRANCH  21  23
HETATM   23  O3  UNL     1      -4.556   1.716  -0.751  1.00  0.00    -0.365 OA
ATOM     24  H3  UNL     1      -5.327   2.268  -0.704  1.00  0.00     0.213 HD
ENDBRANCH  21  23
ENDBRANCH  20  21
BRANCH  20  25
HETATM   25  C10 UNL     1      -3.022  -0.680   0.089  1.00  0.00     0.199 C 
HETATM   26 CL1  UNL     1      -1.583  -1.740   0.284  1.00  0.00    -0.113 Cl
BRANCH  25  27
HETATM   27  C11 UNL     1      -3.390  -0.866  -1.360  1.00  0.00     0.251 C 
HETATM   28  N6  UNL     1      -4.175  -1.985  -1.752  1.00  0.00    -0.061 NA
HETATM   29  O4  UNL     1      -2.983  -0.021  -2.182  1.00  0.00    -0.275 OA
ENDBRANCH  25  27
ENDBRANCH  20  25
ENDBRANCH   7  20
TORSDOF 8
