REMARK  8 active torsions:
REMARK  status: ('A' for Active; 'I' for Inactive)
REMARK    1  A    between atoms: C2_2  and  N1_3 
REMARK    2  A    between atoms: C2_2  and  C5_13 
REMARK       I    between atoms: N1_3  and  C3_5 
REMARK       I    between atoms: C3_5  and  N3_9 
REMARK    3  A    between atoms: C5_13  and  N5_14 
REMARK    4  A    between atoms: C5_13  and  C11_24 
REMARK       I    between atoms: N5_14  and  C6_16 
REMARK    5  A    between atoms: C6_16  and  C7_18 
REMARK    6  A    between atoms: C11_24  and  C12_26 
REMARK    7  A    between atoms: C12_26  and  O2_27 
REMARK    8  A    between atoms: C12_26  and  O3_29 
ROOT
HETATM    1  N1  UNL     1       2.812  -0.232  -0.247  1.00  0.00    -0.218 N 
ATOM      2  H1  UNL     1       2.988  -1.212  -0.024  1.00  0.00     0.178 HD
HETATM    3  C3  UNL     1       3.884   0.667  -0.502  1.00  0.00     0.698 C 
HETATM    4  N2  UNL     1       4.798   0.822   0.394  1.00  0.00    -0.131 N 
ATOM      5  H2  UNL     1       5.559   1.471   0.192  1.00  0.00     0.199 HD
HETATM    6 CL1  UNL     1       4.817   0.004   1.910  1.00  0.00     0.026 Cl
HETATM    7  N3  UNL     1       4.005   1.409  -1.700  1.00  0.00    -0.125 N 
ATOM      8  H3  UNL     1       3.632   0.996  -2.555  1.00  0.00     0.197 HD
HETATM    9  C4  UNL     1       4.601   2.669  -1.791  1.00  0.00     0.196 C 
HETATM   10  N4  UNL     1       5.112   3.704  -1.872  1.00  0.00    -0.171 NA
ENDROOT
BRANCH   1  11
HETATM   11  C2  UNL     1       1.470   0.286  -0.314  1.00  0.00     0.121 C 
HETATM   12  C1  UNL     1       1.305   1.399   0.705  1.00  0.00     0.035 C 
BRANCH  11  13
HETATM   13  C5  UNL     1       0.434  -0.763   0.033  1.00  0.00     0.146 C 
BRANCH  13  14
HETATM   14  N5  UNL     1      -0.860  -0.097  -0.068  1.00  0.00    -0.346 N 
HETATM   15  C6  UNL     1      -1.737   0.033   1.032  1.00  0.00     0.268 C 
HETATM   16  O1  UNL     1      -1.387  -0.445   2.136  1.00  0.00    -0.266 OA
ATOM     17  H5  UNL     1      -1.143   0.290  -0.968  1.00  0.00     0.163 HD
BRANCH  15  18
HETATM   18  C7  UNL     1      -3.014   0.711   0.860  1.00  0.00     0.100 A 
HETATM   19  C8  UNL     1      -3.937   0.889   1.861  1.00  0.00     0.036 A 
HETATM   20  C9  UNL     1      -5.007   1.576   1.286  1.00  0.00     0.019 A 
HETATM   21  C10 UNL     1      -4.718   1.798  -0.036  1.00  0.00     0.088 A 
HETATM   22  N6  UNL     1      -3.502   1.258  -0.253  1.00  0.00    -0.361 N 
ATOM     23  H6  UNL     1      -3.019   1.267  -1.151  1.00  0.00     0.165 HD
ENDBRANCH  15  18
ENDBRANCH  13  14
BRANCH  13  24
HETATM   24  C11 UNL     1       0.418  -1.889  -0.978  1.00  0.00     0.249 C 
HETATM   25  F1  UNL     1       0.124  -1.423  -2.242  1.00  0.00    -0.242 F 
BRANCH  24  26
HETATM   26  C12 UNL     1      -0.659  -2.869  -0.583  1.00  0.00     0.289 C 
BRANCH  26  27
HETATM   27  O2  UNL     1      -0.738  -3.941  -1.470  1.00  0.00    -0.368 OA
ATOM     28  H2  UNL     1      -1.416  -4.558  -1.221  1.00  0.00     0.212 HD
ENDBRANCH  26  27
BRANCH  26  29
HETATM   29  O3  UNL     1      -0.367  -3.394   0.674  1.00  0.00    -0.368 OA
ATOM     30  H3  UNL     1      -1.045  -4.011   0.923  1.00  0.00     0.212 HD
ENDBRANCH  26  29
ENDBRANCH  24  26
ENDBRANCH  13  24
ENDBRANCH  11  13
ENDBRANCH   1  11
TORSDOF 8
