REMARK  9 active torsions:
REMARK  status: ('A' for Active; 'I' for Inactive)
REMARK    1  A    between atoms: C1_4  and  C2_5 
REMARK    2  A    between atoms: C1_4  and  C6_23 
REMARK       I    between atoms: C2_5  and  N2_7 
REMARK    3  A    between atoms: N2_7  and  N3_9 
REMARK    4  A    between atoms: N3_9  and  C3_10 
REMARK    5  A    between atoms: C3_10  and  C4_11 
REMARK    6  A    between atoms: C4_11  and  C5_13 
REMARK    7  A    between atoms: C5_13  and  N5_18 
REMARK    8  A    between atoms: N4_14  and  O2_16 
REMARK    9  A    between atoms: N5_18  and  N6_20 
ROOT
HETATM    1  C2  UNL     1      -1.092   0.019  -0.275  1.00  0.00     0.283 C 
HETATM    2  O1  UNL     1      -1.049  -1.216  -0.388  1.00  0.00    -0.265 OA
HETATM    3  N2  UNL     1       0.197   0.672  -0.311  1.00  0.00    -0.269 N 
ATOM      4  H2  UNL     1       0.288   1.685  -0.228  1.00  0.00     0.185 HD
ENDROOT
BRANCH   3   5
HETATM    5  N3  UNL     1       1.319  -0.163  -0.466  1.00  0.00    -0.137 NA
BRANCH   5   6
HETATM    6  C3  UNL     1       2.409   0.679  -0.913  1.00  0.00     0.163 C 
BRANCH   6   7
HETATM    7  C4  UNL     1       3.687  -0.065  -1.128  1.00  0.00     0.169 C 
HETATM    8 CL1  UNL     1       3.488  -1.324  -2.351  1.00  0.00    -0.115 Cl
BRANCH   7   9
HETATM    9  C5  UNL     1       4.127  -0.638   0.170  1.00  0.00     0.135 C 
HETATM   10  N4  UNL     1       4.261  -1.896   0.254  1.00  0.00    -0.254 N 
ATOM     11  H4  UNL     1       4.054  -2.431  -0.590  1.00  0.00     0.195 HD
BRANCH  10  12
HETATM   12  O2  UNL     1       4.648  -2.609   1.336  1.00  0.00    -0.288 OA
ATOM     13  H2  UNL     1       4.748  -3.552   1.399  1.00  0.00     0.244 HD
ENDBRANCH  10  12
BRANCH   9  14
HETATM   14  N5  UNL     1       4.381   0.230   1.266  1.00  0.00    -0.293 N 
ATOM     15  H5  UNL     1       3.921   0.015   2.151  1.00  0.00     0.187 HD
BRANCH  14  16
HETATM   16  N6  UNL     1       5.199   1.339   1.230  1.00  0.00    -0.344 N 
ATOM     17  H62 UNL     1       5.650   1.538   0.337  1.00  0.00     0.176 HD
ATOM     18  H61 UNL     1       5.381   1.962   2.017  1.00  0.00     0.176 HD
ENDBRANCH  14  16
ENDBRANCH   9  14
ENDBRANCH   7   9
ENDBRANCH   6   7
ENDBRANCH   5   6
ENDBRANCH   3   5
BRANCH   1  19
HETATM   19  C1  UNL     1      -2.303   0.761  -0.121  1.00  0.00     0.106 C 
HETATM   20  N1  UNL     1      -2.282   2.074  -0.007  1.00  0.00    -0.394 N 
ATOM     21  H12 UNL     1      -1.348   2.483  -0.039  1.00  0.00     0.156 HD
ATOM     22  H11 UNL     1      -3.147   2.604   0.103  1.00  0.00     0.156 HD
BRANCH  19  23
HETATM   23  C6  UNL     1      -3.629   0.181  -0.075  1.00  0.00    -0.003 A 
HETATM   24  C7  UNL     1      -4.749   1.000   0.081  1.00  0.00     0.014 A 
HETATM   25  C8  UNL     1      -6.010   0.478   0.127  1.00  0.00     0.003 A 
HETATM   26  C9  UNL     1      -6.217  -0.865   0.021  1.00  0.00     0.024 A 
HETATM   27  C10 UNL     1      -5.151  -1.708  -0.133  1.00  0.00     0.035 A 
HETATM   28 CL2  UNL     1      -5.388  -3.443  -0.272  1.00  0.00    -0.084 Cl
HETATM   29  C11 UNL     1      -3.861  -1.165  -0.179  1.00  0.00     0.037 A 
ENDBRANCH  19  23
ENDBRANCH   1  19
TORSDOF 9
