REMARK  8 active torsions:
REMARK  status: ('A' for Active; 'I' for Inactive)
REMARK    1  A    between atoms: C2_2  and  C3_3 
REMARK    2  A    between atoms: C2_2  and  C10_14 
REMARK    3  A    between atoms: C3_3  and  N1_4 
REMARK    4  A    between atoms: N1_4  and  C4_6 
REMARK    5  A    between atoms: C10_14  and  N2_15 
REMARK    6  A    between atoms: C10_14  and  C11_19 
REMARK       I    between atoms: C11_19  and  N3_21 
REMARK    7  A    between atoms: N3_21  and  N4_23 
REMARK       I    between atoms: N4_23  and  C12_25 
REMARK    8  A    between atoms: N6_27  and  N7_29 
ROOT
HETATM    1  C10 UNL     1      -0.837   0.168  -0.873  1.00  0.00     0.281 C 
ENDROOT
BRANCH   1   2
HETATM    2  C2  UNL     1       0.125  -0.211   0.214  1.00  0.00     0.039 C 
HETATM    3  C1  UNL     1       0.023  -1.607   0.702  1.00  0.00     0.014 C 
BRANCH   2   4
HETATM    4  C3  UNL     1       1.522   0.070  -0.261  1.00  0.00     0.126 C 
BRANCH   4   5
HETATM    5  N1  UNL     1       2.528  -0.084   0.756  1.00  0.00    -0.389 N 
ATOM      6  H1  UNL     1       2.297  -0.520   1.649  1.00  0.00     0.159 HD
BRANCH   5   7
HETATM    7  C4  UNL     1       3.837   0.375   0.504  1.00  0.00     0.029 A 
HETATM    8  C5  UNL     1       4.207   0.981  -0.677  1.00  0.00     0.031 A 
HETATM    9  C6  UNL     1       5.462   1.465  -0.931  1.00  0.00     0.028 A 
HETATM   10  C7  UNL     1       6.441   1.366   0.012  1.00  0.00     0.055 A 
HETATM   11 CL1  UNL     1       8.057   1.979  -0.284  1.00  0.00    -0.083 Cl
HETATM   12  C8  UNL     1       6.108   0.761   1.212  1.00  0.00     0.058 A 
HETATM   13 CL2  UNL     1       7.398   0.657   2.397  1.00  0.00    -0.082 Cl
HETATM   14  C9  UNL     1       4.844   0.272   1.470  1.00  0.00     0.054 A 
ENDBRANCH   5   7
ENDBRANCH   4   5
ENDBRANCH   2   4
ENDBRANCH   1   2
BRANCH   1  15
HETATM   15  N2  UNL     1      -0.704  -0.645  -2.040  1.00  0.00    -0.066 N 
ATOM     16  H23 UNL     1       0.256  -0.636  -2.383  1.00  0.00     0.275 HD
ATOM     17  H22 UNL     1      -0.788  -1.634  -1.807  1.00  0.00     0.275 HD
ATOM     18  H21 UNL     1      -1.358  -0.387  -2.779  1.00  0.00     0.275 HD
ENDBRANCH   1  15
BRANCH   1  19
HETATM   19  C11 UNL     1      -2.208   0.384  -0.391  1.00  0.00     0.267 C 
HETATM   20  O1  UNL     1      -2.489   0.970   0.675  1.00  0.00    -0.269 OA
HETATM   21  N3  UNL     1      -3.294  -0.090  -1.161  1.00  0.00    -0.266 N 
ATOM     22  H3  UNL     1      -3.073  -0.567  -2.035  1.00  0.00     0.190 HD
BRANCH  21  23
HETATM   23  N4  UNL     1      -4.643   0.039  -0.828  1.00  0.00    -0.270 N 
HETATM   24  C12 UNL     1      -5.260  -0.704   0.195  1.00  0.00     0.221 C 
HETATM   25  N5  UNL     1      -5.306  -2.124   0.058  1.00  0.00    -0.061 NA
HETATM   26  N6  UNL     1      -5.784  -0.170   1.217  1.00  0.00    -0.279 N 
ATOM     27  H6  UNL     1      -6.199  -0.810   1.894  1.00  0.00     0.189 HD
ATOM     28  H4  UNL     1      -5.210   0.705  -1.352  1.00  0.00     0.189 HD
BRANCH  26  29
HETATM   29  N7  UNL     1      -5.862   1.174   1.526  1.00  0.00    -0.343 N 
ATOM     30  H72 UNL     1      -5.442   1.798   0.837  1.00  0.00     0.176 HD
ATOM     31  H71 UNL     1      -6.284   1.604   2.349  1.00  0.00     0.176 HD
ENDBRANCH  26  29
ENDBRANCH  21  23
ENDBRANCH   1  19
TORSDOF 8
