REMARK  7 active torsions:
REMARK  status: ('A' for Active; 'I' for Inactive)
REMARK    1  A    between atoms: C2_2  and  C3_3 
REMARK    2  A    between atoms: C2_2  and  C25_37 
REMARK    3  A    between atoms: C7_7  and  N1_8 
REMARK    4  A    between atoms: N3_13  and  C9_14 
REMARK    5  A    between atoms: C16_23  and  C17_24 
REMARK    6  A    between atoms: C20_29  and  C21_30 
REMARK    7  A    between atoms: C21_30  and  C22_31 
ROOT
HETATM    1  N1  UNL     1       0.926   0.310   1.094  1.00  0.00    -0.341 N 
ATOM      2  H1  UNL     1       1.185   1.262   1.352  1.00  0.00     0.167 HD
HETATM    3  C8  UNL     1      -0.235   0.136   0.593  1.00  0.00     0.136 A 
HETATM    4  N2  UNL     1      -0.842  -0.985   0.167  1.00  0.00    -0.280 N 
ATOM      5  H2  UNL     1      -0.426  -1.916   0.187  1.00  0.00     0.189 HD
HETATM    6  N3  UNL     1      -2.054  -0.710  -0.282  1.00  0.00    -0.269 N 
HETATM    7  C15 UNL     1      -2.303   0.614  -0.173  1.00  0.00     0.140 A 
HETATM    8  N4  UNL     1      -3.359   1.391  -0.480  1.00  0.00    -0.330 N 
ATOM      9  H4  UNL     1      -4.205   0.993  -0.888  1.00  0.00     0.168 HD
HETATM   10  C16 UNL     1      -3.261   2.709  -0.230  1.00  0.00     0.086 A 
HETATM   11  N5  UNL     1      -2.157   3.257   0.307  1.00  0.00    -0.348 N 
ATOM     12  H5  UNL     1      -2.122   4.261   0.481  1.00  0.00     0.167 HD
HETATM   13  C20 UNL     1      -1.099   2.488   0.616  1.00  0.00     0.036 A 
HETATM   14  C23 UNL     1      -1.144   1.152   0.385  1.00  0.00     0.078 A 
ENDROOT
BRANCH   1  15
HETATM   15  C7  UNL     1       1.880  -0.700   1.321  1.00  0.00     0.034 A 
HETATM   16  C6  UNL     1       1.599  -1.766   2.146  1.00  0.00     0.029 A 
HETATM   17  C5  UNL     1       2.546  -2.740   2.354  1.00  0.00     0.003 A 
HETATM   18  C4  UNL     1       3.795  -2.657   1.733  1.00  0.00     0.012 A 
HETATM   19  C3  UNL     1       4.112  -1.608   0.903  1.00  0.00    -0.027 A 
HETATM   20  C24 UNL     1       3.128  -0.650   0.722  1.00  0.00     0.041 A 
BRANCH  19  21
HETATM   21  C2  UNL     1       5.402  -1.511   0.253  1.00  0.00    -0.034 C 
HETATM   22  C1  UNL     1       6.322  -2.431   0.402  1.00  0.00     0.022 C 
BRANCH  21  23
HETATM   23  C25 UNL     1       5.753  -0.356  -0.622  1.00  0.00     0.057 C 
HETATM   24  C26 UNL     1       7.181  -0.513  -1.179  1.00  0.00     0.037 C 
HETATM   25  C27 UNL     1       5.793   0.946   0.151  1.00  0.00     0.037 C 
HETATM   26 CL1  UNL     1       4.724  -0.264  -2.073  1.00  0.00    -0.115 Cl
ENDBRANCH  21  23
ENDBRANCH  19  21
ENDBRANCH   1  15
BRANCH   6  27
HETATM   27  C9  UNL     1      -2.996  -1.685  -0.822  1.00  0.00     0.110 C 
HETATM   28  C10 UNL     1      -3.499  -2.518   0.311  1.00  0.00     0.027 C 
HETATM   29  C11 UNL     1      -3.403  -4.001  -0.020  1.00  0.00     0.002 C 
HETATM   30  C12 UNL     1      -4.021  -4.176  -1.404  1.00  0.00     0.000 C 
HETATM   31  C13 UNL     1      -3.067  -3.608  -2.425  1.00  0.00     0.002 C 
HETATM   32  C14 UNL     1      -2.229  -2.489  -1.853  1.00  0.00     0.027 C 
ENDBRANCH   6  27
BRANCH  13  33
HETATM   33  C21 UNL     1       0.106   3.099   1.202  1.00  0.00     0.175 C 
BRANCH  33  34
HETATM   34  C22 UNL     1      -0.072   4.605   1.388  1.00  0.00     0.393 C 
HETATM   35  F1  UNL     1       1.061   5.171   1.938  1.00  0.00    -0.171 F 
HETATM   36  F2  UNL     1      -1.099   4.836   2.299  1.00  0.00    -0.171 F 
HETATM   37  F3  UNL     1      -0.304   5.244   0.194  1.00  0.00    -0.171 F 
ENDBRANCH  33  34
ENDBRANCH  13  33
BRANCH  10  38
HETATM   38  C17 UNL     1      -4.446   3.575  -0.574  1.00  0.00     0.045 C 
HETATM   39  C18 UNL     1      -4.950   4.310   0.633  1.00  0.00     0.017 C 
HETATM   40  C19 UNL     1      -4.070   4.577  -1.648  1.00  0.00     0.017 C 
ENDBRANCH  10  38
TORSDOF 7
