REMARK  7 active torsions:
REMARK  status: ('A' for Active; 'I' for Inactive)
REMARK    1  A    between atoms: C2_2  and  O1_3 
REMARK    2  A    between atoms: O1_3  and  C3_4 
REMARK    3  A    between atoms: C3_4  and  C4_6 
REMARK    4  A    between atoms: C9_13  and  C10_14 
REMARK       I    between atoms: C10_14  and  N2_16 
REMARK    5  A    between atoms: N2_16  and  C11_18 
REMARK    6  A    between atoms: C14_21  and  C15_22 
REMARK    7  A    between atoms: C18_29  and  C19_30 
ROOT
HETATM    1  C4  UNL     1      -1.158   1.802  -0.959  1.00  0.00     0.045 C 
HETATM    2  C5  UNL     1      -1.102   1.885  -2.267  1.00  0.00     0.018 C 
HETATM    3  C6  UNL     1      -1.766   3.069  -2.926  1.00  0.00     0.069 C 
HETATM    4  N1  UNL     1      -0.360   1.008  -3.115  1.00  0.00    -0.366 N 
ATOM      5  H1  UNL     1      -0.369   1.129  -4.128  1.00  0.00     0.165 HD
HETATM    6  C7  UNL     1       0.323   0.058  -2.570  1.00  0.00    -0.004 C 
HETATM    7  C8  UNL     1       1.093  -0.850  -3.498  1.00  0.00     0.064 C 
HETATM    8  C9  UNL     1       0.403  -0.158  -1.124  1.00  0.00     0.132 C 
HETATM    9  C18 UNL     1      -0.578   0.592  -0.302  1.00  0.00     0.049 C 
ENDROOT
BRANCH   8  10
HETATM   10  C10 UNL     1       1.814   0.173  -0.689  1.00  0.00     0.232 C 
HETATM   11  O3  UNL     1       2.019   1.364  -0.343  1.00  0.00    -0.272 OA
HETATM   12  N2  UNL     1       2.841  -0.786  -0.675  1.00  0.00    -0.325 N 
ATOM     13  H2  UNL     1       2.567  -1.722  -0.974  1.00  0.00     0.169 HD
BRANCH  12  14
HETATM   14  C11 UNL     1       4.177  -0.644  -0.313  1.00  0.00     0.056 A 
HETATM   15  C12 UNL     1       4.734   0.574  -0.010  1.00  0.00     0.032 A 
HETATM   16  C13 UNL     1       6.072   0.659   0.351  1.00  0.00     0.018 A 
HETATM   17  C14 UNL     1       6.866  -0.457   0.414  1.00  0.00     0.049 A 
HETATM   18  C16 UNL     1       6.345  -1.691   0.116  1.00  0.00     0.042 A 
HETATM   19  C17 UNL     1       5.009  -1.750  -0.239  1.00  0.00     0.061 A 
HETATM   20 CL1  UNL     1       4.316  -3.320  -0.618  1.00  0.00    -0.082 Cl
BRANCH  17  21
HETATM   21  C15 UNL     1       8.289  -0.349   0.806  1.00  0.00     0.417 C 
HETATM   22  F1  UNL     1       9.089  -1.022  -0.085  1.00  0.00    -0.166 F 
HETATM   23  F2  UNL     1       8.637   0.992   0.825  1.00  0.00    -0.166 F 
HETATM   24  F3  UNL     1       8.424  -0.891   2.093  1.00  0.00    -0.166 F 
ENDBRANCH  17  21
ENDBRANCH  12  14
ENDBRANCH   8  10
BRANCH   9  25
HETATM   25  C19 UNL     1      -1.646  -0.302   0.302  1.00  0.00    -0.005 C 
HETATM   26  C20 UNL     1      -2.592  -0.927  -0.643  1.00  0.00     0.005 C 
HETATM   27  C21 UNL     1      -4.028  -0.898  -0.226  1.00  0.00     0.000 C 
HETATM   28  C22 UNL     1      -4.464  -1.909   0.781  1.00  0.00     0.000 C 
HETATM   29  C23 UNL     1      -3.720  -3.180   0.855  1.00  0.00     0.000 C 
HETATM   30  C24 UNL     1      -2.544  -3.225   1.754  1.00  0.00     0.000 C 
HETATM   31  C25 UNL     1      -2.005  -1.907   2.211  1.00  0.00     0.000 C 
HETATM   32  C26 UNL     1      -1.024  -1.322   1.199  1.00  0.00     0.005 C 
ENDBRANCH   9  25
BRANCH   1  33
HETATM   33  C3  UNL     1      -1.823   2.814  -0.098  1.00  0.00     0.291 C 
HETATM   34  O2  UNL     1      -2.404   3.825  -0.515  1.00  0.00    -0.260 OA
BRANCH  33  35
HETATM   35  O1  UNL     1      -1.821   2.675   1.281  1.00  0.00    -0.318 OA
BRANCH  35  36
HETATM   36  C2  UNL     1      -2.365   3.507   2.235  1.00  0.00     0.174 C 
HETATM   37  C1  UNL     1      -3.824   3.788   2.182  1.00  0.00     0.034 C 
ENDBRANCH  35  36
ENDBRANCH  33  35
ENDBRANCH   1  33
TORSDOF 7
