REMARK  7 active torsions:
REMARK  status: ('A' for Active; 'I' for Inactive)
REMARK    1  A    between atoms: C3_3  and  N1_4 
REMARK    2  A    between atoms: C7_10  and  C8_11 
REMARK    3  A    between atoms: C8_11  and  O1_12 
REMARK    4  A    between atoms: C8_11  and  C9_14 
REMARK    5  A    between atoms: C8_11  and  C16_21 
REMARK    6  A    between atoms: C9_14  and  C10_15 
REMARK    7  A    between atoms: C10_15  and  C11_16 
ROOT
HETATM    1  N1  UNL     1      -2.998   0.004  -0.701  1.00  0.00    -0.346 N 
HETATM    2  C4  UNL     1      -2.787  -0.142  -2.112  1.00  0.00     0.132 C 
HETATM    3  C5  UNL     1      -1.742  -1.103  -2.529  1.00  0.00     0.079 C 
HETATM    4  C6  UNL     1      -0.567  -1.007  -1.634  1.00  0.00     0.037 A 
HETATM    5  N2  UNL     1       0.764  -1.269  -1.846  1.00  0.00    -0.345 N 
ATOM      6  H2  UNL     1       1.173  -1.565  -2.732  1.00  0.00     0.167 HD
HETATM    7  C7  UNL     1       1.434  -1.077  -0.719  1.00  0.00     0.126 A 
HETATM    8  N3  UNL     1       0.558  -0.690   0.209  1.00  0.00    -0.343 N 
ATOM      9  H3  UNL     1       0.788  -0.466   1.177  1.00  0.00     0.167 HD
HETATM   10  C17 UNL     1      -0.686  -0.640  -0.330  1.00  0.00     0.061 A 
HETATM   11  C18 UNL     1      -2.001  -0.316   0.267  1.00  0.00     0.071 C 
HETATM   12  C19 UNL     1      -1.790   0.841   1.236  1.00  0.00     0.045 C 
HETATM   13  C20 UNL     1      -2.363  -1.533   1.130  1.00  0.00     0.045 C 
ENDROOT
BRANCH   7  14
HETATM   14  C8  UNL     1       2.920  -1.383  -0.473  1.00  0.00     0.214 C 
BRANCH  14  15
HETATM   15  O1  UNL     1       3.101  -2.041   0.733  1.00  0.00    -0.374 OA
ATOM     16  H1  UNL     1       4.019  -2.230   0.885  1.00  0.00     0.211 HD
ENDBRANCH  14  15
BRANCH  14  17
HETATM   17  C9  UNL     1       3.755  -0.151  -0.514  1.00  0.00     0.056 C 
BRANCH  17  18
HETATM   18  C10 UNL     1       5.187  -0.381  -0.225  1.00  0.00     0.008 C 
BRANCH  18  19
HETATM   19  C11 UNL     1       6.124   0.791  -0.286  1.00  0.00    -0.014 C 
HETATM   20  C12 UNL     1       7.512   0.201   0.042  1.00  0.00     0.004 C 
HETATM   21  C13 UNL     1       7.799   0.719   1.456  1.00  0.00     0.000 C 
HETATM   22  C14 UNL     1       7.312   2.175   1.277  1.00  0.00     0.000 C 
HETATM   23  C15 UNL     1       5.902   1.876   0.708  1.00  0.00     0.004 C 
ENDBRANCH  18  19
ENDBRANCH  17  18
ENDBRANCH  14  17
BRANCH  14  24
HETATM   24  C16 UNL     1       3.294  -2.364  -1.594  1.00  0.00     0.425 C 
HETATM   25  F1  UNL     1       4.541  -2.805  -1.540  1.00  0.00    -0.167 F 
HETATM   26  F2  UNL     1       2.378  -3.421  -1.491  1.00  0.00    -0.167 F 
HETATM   27  F3  UNL     1       2.981  -1.766  -2.827  1.00  0.00    -0.167 F 
ENDBRANCH  14  24
ENDBRANCH   7  14
BRANCH   1  28
HETATM   28  C3  UNL     1      -4.294   0.489  -0.301  1.00  0.00     0.154 A 
HETATM   29  C2  UNL     1      -5.407  -0.274  -0.066  1.00  0.00     0.002 A 
HETATM   30  C1  UNL     1      -5.587  -1.740  -0.179  1.00  0.00     0.054 C 
HETATM   31  C26 UNL     1      -6.443   0.592   0.310  1.00  0.00     0.010 A 
HETATM   32  C21 UNL     1      -5.894   1.843   0.281  1.00  0.00     0.088 A 
HETATM   33  C25 UNL     1      -7.760   0.350   0.655  1.00  0.00     0.038 A 
HETATM   34  O2  UNL     1      -4.632   1.741  -0.083  1.00  0.00    -0.293 OA
HETATM   35  C22 UNL     1      -6.708   2.904   0.612  1.00  0.00     0.040 A 
HETATM   36  C23 UNL     1      -8.032   2.702   0.965  1.00  0.00     0.026 A 
HETATM   37  C24 UNL     1      -8.572   1.431   0.990  1.00  0.00     0.035 A 
HETATM   38 CL1  UNL     1     -10.246   1.220   1.445  1.00  0.00    -0.084 Cl
ENDBRANCH   1  28
TORSDOF 7
