REMARK  7 active torsions:
REMARK  status: ('A' for Active; 'I' for Inactive)
REMARK    1  A    between atoms: C4_7  and  C5_8 
REMARK    2  A    between atoms: C5_8  and  C6_9 
REMARK    3  A    between atoms: C6_9  and  C7_10 
REMARK    4  A    between atoms: C7_10  and  N2_11 
REMARK    5  A    between atoms: N2_11  and  C9_13 
REMARK    6  A    between atoms: C9_13  and  C10_14 
REMARK    7  A    between atoms: C10_14  and  O2_15 
ROOT
HETATM    1  N2  UNL     1      -1.553  -1.005  -0.251  1.00  0.00     0.089 N 
HETATM    2  C8  UNL     1      -1.663  -2.290  -0.953  1.00  0.00     0.310 C 
ENDROOT
BRANCH   1   3
HETATM    3  C7  UNL     1      -0.351  -0.883   0.481  1.00  0.00     0.276 C 
BRANCH   3   4
HETATM    4  C6  UNL     1       0.883  -0.800  -0.419  1.00  0.00     0.060 C 
BRANCH   4   5
HETATM    5  C5  UNL     1       2.097  -0.672   0.421  1.00  0.00     0.010 C 
BRANCH   5   6
HETATM    6  C4  UNL     1       3.260  -0.213   0.002  1.00  0.00     0.098 A 
HETATM    7  C3  UNL     1       3.662   0.241  -1.224  1.00  0.00     0.273 A 
HETATM    8  N1  UNL     1       4.971   0.621  -1.152  1.00  0.00    -0.308 N 
HETATM    9  O1  UNL     1       2.930   0.298  -2.259  1.00  0.00    -0.266 OA
HETATM   10  C2  UNL     1       5.381   0.406   0.101  1.00  0.00     0.098 A 
ATOM     11  H1  UNL     1       5.533   0.999  -1.915  1.00  0.00     0.170 HD
HETATM   12  C1  UNL     1       6.591   0.652   0.573  1.00  0.00     0.063 C 
HETATM   13  N5  UNL     1       4.345  -0.097   0.793  1.00  0.00    -0.339 N 
ATOM     14  H5  UNL     1       4.375  -0.355   1.779  1.00  0.00     0.167 HD
ENDBRANCH   5   6
ENDBRANCH   4   5
ENDBRANCH   3   4
ENDBRANCH   1   3
BRANCH   1  15
HETATM   15  C9  UNL     1      -2.781  -0.788   0.401  1.00  0.00     0.343 C 
BRANCH  15  16
HETATM   16  C10 UNL     1      -3.139   0.583   0.839  1.00  0.00     0.245 C 
HETATM   17  N3  UNL     1      -4.498   0.559   1.416  1.00  0.00    -0.301 N 
HETATM   18  C11 UNL     1      -5.049   1.840   1.166  1.00  0.00     0.325 C 
ATOM     19  H3  UNL     1      -4.948  -0.220   1.896  1.00  0.00     0.167 HD
HETATM   20  O3  UNL     1      -6.012   2.347   1.798  1.00  0.00    -0.247 OA
HETATM   21  N4  UNL     1      -4.336   2.445   0.094  1.00  0.00    -0.275 N 
HETATM   22  C12 UNL     1      -3.345   1.515  -0.304  1.00  0.00     0.283 C 
ATOM     23  H4  UNL     1      -4.505   3.367  -0.309  1.00  0.00     0.173 HD
HETATM   24  O4  UNL     1      -2.732   1.439  -1.381  1.00  0.00    -0.267 OA
BRANCH  16  25
HETATM   25  O2  UNL     1      -2.302   1.187   1.740  1.00  0.00    -0.362 OA
ATOM     26  H2  UNL     1      -2.531   2.065   2.021  1.00  0.00     0.213 HD
ENDBRANCH  16  25
ENDBRANCH  15  16
ENDBRANCH   1  15
TORSDOF 7
