REMARK  9 active torsions:
REMARK  status: ('A' for Active; 'I' for Inactive)
REMARK    1  A    between atoms: C4_4  and  C5_5 
REMARK       I    between atoms: C5_5  and  N1_7 
REMARK    2  A    between atoms: N1_7  and  C6_9 
REMARK    3  A    between atoms: C6_9  and  C7_10 
REMARK    4  A    between atoms: C7_10  and  C8_11 
REMARK    5  A    between atoms: C8_11  and  N2_12 
REMARK    6  A    between atoms: N2_12  and  C9_14 
REMARK    7  A    between atoms: C10_17  and  N4_18 
REMARK    8  A    between atoms: C11_23  and  N6_24 
REMARK    9  A    between atoms: N7_27  and  O2_28 
ROOT
HETATM    1  C1  UNL     1       8.942  -1.367  -0.251  1.00  0.00     0.017 C 
HETATM    2  C2  UNL     1       8.001  -0.621  -0.146  1.00  0.00    -0.089 C 
HETATM    3  C3  UNL     1       6.874   0.290   0.002  1.00  0.00     0.069 C 
HETATM    4  C4  UNL     1       5.666  -0.177   0.114  1.00  0.00     0.083 C 
ENDROOT
BRANCH   4   5
HETATM    5  C5  UNL     1       4.543   0.733   0.262  1.00  0.00     0.241 C 
HETATM    6  O1  UNL     1       4.718   1.976   0.284  1.00  0.00    -0.269 OA
HETATM    7  N1  UNL     1       3.210   0.241   0.386  1.00  0.00    -0.358 N 
ATOM      8  H1  UNL     1       3.056  -0.767   0.369  1.00  0.00     0.162 HD
BRANCH   7   9
HETATM    9  C6  UNL     1       2.073   1.112   0.534  1.00  0.00     0.124 C 
BRANCH   9  10
HETATM   10  C7  UNL     1       0.797   0.306   0.640  1.00  0.00     0.040 C 
BRANCH  10  11
HETATM   11  C8  UNL     1       0.562  -0.551  -0.593  1.00  0.00     0.139 C 
BRANCH  11  12
HETATM   12  N2  UNL     1      -0.656  -1.281  -0.423  1.00  0.00    -0.224 N 
ATOM     13  H2  UNL     1      -0.560  -2.267  -0.179  1.00  0.00     0.177 HD
BRANCH  12  14
HETATM   14  C9  UNL     1      -1.842  -0.846  -0.540  1.00  0.00     0.709 C 
HETATM   15  N3  UNL     1      -2.822  -1.759  -0.324  1.00  0.00    -0.021 N 
HETATM   16  C10 UNL     1      -4.112  -1.580   0.025  1.00  0.00     0.705 C 
ATOM     17  H3  UNL     1      -2.539  -2.732  -0.444  1.00  0.00     0.203 HD
HETATM   18  N5  UNL     1      -4.718  -0.394   0.232  1.00  0.00    -0.019 N 
HETATM   19  C11 UNL     1      -4.300   0.833  -0.161  1.00  0.00     0.734 C 
ATOM     20  H5  UNL     1      -5.598  -0.424   0.747  1.00  0.00     0.203 HD
HETATM   21  N7  UNL     1      -3.079   1.209  -0.603  1.00  0.00     0.031 N 
HETATM   22  N8  UNL     1      -2.022   0.458  -0.863  1.00  0.00    -0.090 N 
ATOM     23  H8  UNL     1      -1.257   0.911  -1.363  1.00  0.00     0.209 HD
BRANCH  16  24
HETATM   24  N4  UNL     1      -4.856  -2.635   0.180  1.00  0.00    -0.234 N 
ATOM     25  H42 UNL     1      -4.397  -3.533   0.023  1.00  0.00     0.174 HD
ATOM     26  H41 UNL     1      -5.832  -2.500   0.444  1.00  0.00     0.174 HD
ENDBRANCH  16  24
BRANCH  19  27
HETATM   27  N6  UNL     1      -5.197   1.749  -0.100  1.00  0.00    -0.227 N 
HETATM   28  C12 UNL     1      -6.527   1.442   0.359  1.00  0.00     0.165 C 
ATOM     29  H6  UNL     1      -4.966   2.702  -0.379  1.00  0.00     0.177 HD
ENDBRANCH  19  27
BRANCH  21  30
HETATM   30  O2  UNL     1      -2.930   2.429  -0.791  1.00  0.00    -0.254 OA
ATOM     31  H2  UNL     1      -2.072   2.693  -1.102  1.00  0.00     0.247 HD
ENDBRANCH  21  30
ENDBRANCH  12  14
ENDBRANCH  11  12
ENDBRANCH  10  11
ENDBRANCH   9  10
ENDBRANCH   7   9
ENDBRANCH   4   5
TORSDOF 9
