REMARK  7 active torsions:
REMARK  status: ('A' for Active; 'I' for Inactive)
REMARK    1  A    between atoms: N1_2  and  C3_4 
REMARK    2  A    between atoms: C3_4  and  C4_5 
REMARK    3  A    between atoms: C6_10  and  C7_11 
REMARK    4  A    between atoms: C7_11  and  C8_12 
REMARK    5  A    between atoms: C8_12  and  C9_13 
REMARK    6  A    between atoms: C9_13  and  C10_14 
REMARK    7  A    between atoms: C10_14  and  N3_15 
REMARK       I    between atoms: C11_17  and  N5_19 
ROOT
HETATM    1  N3  UNL     1       4.797  -0.915   0.167  1.00  0.00    -0.364 N 
ATOM      2  H3  UNL     1       5.134  -1.762   0.624  1.00  0.00     0.162 HD
HETATM    3  C11 UNL     1       5.627   0.005  -0.173  1.00  0.00     0.197 C 
HETATM    4  N4  UNL     1       5.259   1.210  -0.810  1.00  0.00    -0.063 NA
HETATM    5  N5  UNL     1       6.999  -0.208   0.110  1.00  0.00    -0.268 N 
ATOM      6  H5  UNL     1       7.381  -0.021   1.037  1.00  0.00     0.180 HD
HETATM    7  C12 UNL     1       7.810  -0.682  -0.921  1.00  0.00     0.184 C 
HETATM    8  N6  UNL     1       8.496  -1.083  -1.773  1.00  0.00    -0.172 NA
ENDROOT
BRANCH   1   9
HETATM    9  C10 UNL     1       3.374  -0.748  -0.101  1.00  0.00     0.122 C 
BRANCH   9  10
HETATM   10  C9  UNL     1       2.640  -2.067  -0.010  1.00  0.00     0.023 C 
BRANCH  10  11
HETATM   11  C8  UNL     1       1.170  -1.804  -0.303  1.00  0.00     0.030 C 
BRANCH  11  12
HETATM   12  C7  UNL     1       0.639  -0.862   0.690  1.00  0.00    -0.004 C 
BRANCH  12  13
HETATM   13  C6  UNL     1      -0.574  -0.331   0.677  1.00  0.00     0.096 A 
HETATM   14  C5  UNL     1      -0.982   0.555   1.667  1.00  0.00     0.262 A 
HETATM   15  N2  UNL     1      -2.210   1.108   1.678  1.00  0.00    -0.307 N 
HETATM   16  O1  UNL     1      -0.128   0.820   2.571  1.00  0.00    -0.267 OA
HETATM   17  C4  UNL     1      -3.109   0.827   0.723  1.00  0.00     0.126 A 
ATOM     18  H2  UNL     1      -2.461   1.753   2.427  1.00  0.00     0.170 HD
HETATM   19  N7  UNL     1      -2.747  -0.025  -0.248  1.00  0.00    -0.307 N 
HETATM   20  C13 UNL     1      -1.512  -0.606  -0.294  1.00  0.00     0.262 A 
ATOM     21  H7  UNL     1      -3.421  -0.248  -0.981  1.00  0.00     0.170 HD
HETATM   22  O2  UNL     1      -1.230  -1.394  -1.224  1.00  0.00    -0.267 OA
BRANCH  17  23
HETATM   23  C3  UNL     1      -4.329   1.363   0.715  1.00  0.00     0.133 C 
BRANCH  23  24
HETATM   24  N1  UNL     1      -5.284   1.077  -0.282  1.00  0.00    -0.395 N 
HETATM   25  C1  UNL     1      -6.324   0.126   0.002  1.00  0.00     0.148 C 
HETATM   26  C2  UNL     1      -5.219   1.721  -1.557  1.00  0.00     0.148 C 
ENDBRANCH  23  24
ENDBRANCH  17  23
ENDBRANCH  12  13
ENDBRANCH  11  12
ENDBRANCH  10  11
ENDBRANCH   9  10
ENDBRANCH   1   9
TORSDOF 7
