REMARK  9 active torsions:
REMARK  status: ('A' for Active; 'I' for Inactive)
REMARK    1  A    between atoms: C3_5  and  O1_6 
REMARK    2  A    between atoms: C4_8  and  C5_9 
REMARK    3  A    between atoms: C5_9  and  C6_10 
REMARK    4  A    between atoms: C6_10  and  N2_11 
REMARK    5  A    between atoms: C6_10  and  C7_16 
REMARK    6  A    between atoms: N2_11  and  N3_13 
REMARK       I    between atoms: C7_16  and  N4_18 
REMARK    7  A    between atoms: N4_18  and  C8_20 
REMARK    8  A    between atoms: C8_20  and  C9_21 
REMARK    9  A    between atoms: C9_21  and  N5_22 
ROOT
HETATM    1  C6  UNL     1      -1.286  -0.749  -0.065  1.00  0.00     0.116 C 
ENDROOT
BRANCH   1   2
HETATM    2  C5  UNL     1      -1.991   0.371   0.484  1.00  0.00     0.060 C 
BRANCH   2   3
HETATM    3  C4  UNL     1      -3.260   0.695   0.379  1.00  0.00     0.060 A 
HETATM    4  C3  UNL     1      -4.373   0.206  -0.211  1.00  0.00     0.158 A 
HETATM    5  N1  UNL     1      -5.512   0.849  -0.078  1.00  0.00    -0.331 N 
HETATM    6  C2  UNL     1      -5.549   1.959   0.629  1.00  0.00     0.067 A 
ATOM      7  H1  UNL     1      -6.359   0.491  -0.519  1.00  0.00     0.168 HD
HETATM    8  C1  UNL     1      -6.610   2.757   0.882  1.00  0.00     0.051 C 
HETATM    9  S1  UNL     1      -3.944   2.142   1.144  1.00  0.00    -0.069 SA
BRANCH   4  10
HETATM   10  O1  UNL     1      -4.359  -0.892  -0.916  1.00  0.00    -0.345 OA
ATOM     11  H1  UNL     1      -3.536  -1.357  -1.012  1.00  0.00     0.219 HD
ENDBRANCH   4  10
ENDBRANCH   2   3
ENDBRANCH   1   2
BRANCH   1  12
HETATM   12  N2  UNL     1      -1.789  -1.627  -0.756  1.00  0.00    -0.302 N 
ATOM     13  H2  UNL     1      -2.783  -1.434  -0.878  1.00  0.00     0.186 HD
BRANCH  12  14
HETATM   14  N3  UNL     1      -1.473  -2.753  -1.404  1.00  0.00    -0.345 N 
ATOM     15  H32 UNL     1      -0.477  -2.922  -1.266  1.00  0.00     0.176 HD
ATOM     16  H31 UNL     1      -1.892  -3.484  -1.979  1.00  0.00     0.176 HD
ENDBRANCH  12  14
ENDBRANCH   1  12
BRANCH   1  17
HETATM   17  C7  UNL     1       0.167  -0.795   0.265  1.00  0.00     0.269 C 
HETATM   18  O2  UNL     1       0.638   0.154   0.993  1.00  0.00    -0.266 OA
HETATM   19  N4  UNL     1       1.082  -1.767  -0.136  1.00  0.00    -0.354 N 
ATOM     20  H4  UNL     1       0.749  -2.541  -0.711  1.00  0.00     0.162 HD
BRANCH  19  21
HETATM   21  C8  UNL     1       2.482  -1.729   0.225  1.00  0.00     0.142 C 
BRANCH  21  22
HETATM   22  C9  UNL     1       3.241  -0.551  -0.273  1.00  0.00     0.141 C 
BRANCH  22  23
HETATM   23  N5  UNL     1       4.641  -0.590   0.121  1.00  0.00    -0.365 N 
HETATM   24  C10 UNL     1       5.306   0.499   0.100  1.00  0.00     0.197 C 
HETATM   25  N6  UNL     1       4.679   1.700  -0.299  1.00  0.00    -0.067 NA
HETATM   26  N7  UNL     1       6.673   0.499   0.477  1.00  0.00    -0.067 NA
ATOM     27  H5  UNL     1       5.080  -1.465   0.407  1.00  0.00     0.161 HD
ENDBRANCH  22  23
ENDBRANCH  21  22
ENDBRANCH  19  21
ENDBRANCH   1  17
TORSDOF 9
