REMARK  8 active torsions:
REMARK  status: ('A' for Active; 'I' for Inactive)
REMARK    1  A    between atoms: N1_1  and  C1_4 
REMARK    2  A    between atoms: N4_13  and  C6_14 
REMARK    3  A    between atoms: C6_14  and  C7_15 
REMARK    4  A    between atoms: C7_15  and  O1_16 
REMARK    5  A    between atoms: C8_19  and  N6_20 
REMARK    6  A    between atoms: N6_20  and  C9_22 
REMARK    7  A    between atoms: C9_22  and  C10_23 
REMARK    8  A    between atoms: C10_23  and  N7_24 
ROOT
HETATM    1  C1  UNL     1       0.884  -2.644  -0.295  1.00  0.00     0.160 A 
HETATM    2  N2  UNL     1       1.989  -3.252  -0.742  1.00  0.00    -0.281 N 
ATOM      3  H2  UNL     1       1.918  -4.182  -1.155  1.00  0.00     0.188 HD
HETATM    4  N3  UNL     1       3.159  -2.674  -0.658  1.00  0.00    -0.282 N 
ATOM      5  H3  UNL     1       3.976  -3.172  -1.011  1.00  0.00     0.188 HD
HETATM    6  C2  UNL     1       3.331  -1.445  -0.123  1.00  0.00     0.143 A 
HETATM    7  C3  UNL     1       4.615  -0.946  -0.072  1.00  0.00     0.053 A 
HETATM    8  C4  UNL     1       4.817   0.288   0.481  1.00  0.00     0.023 A 
HETATM    9  C5  UNL     1       3.714   0.931   0.943  1.00  0.00     0.111 A 
HETATM   10  N4  UNL     1       2.427   0.414   0.883  1.00  0.00    -0.291 N 
HETATM   11  N5  UNL     1       2.225  -0.774   0.352  1.00  0.00    -0.217 N 
HETATM   12  C8  UNL     1       1.018  -1.372   0.264  1.00  0.00     0.174 A 
ENDROOT
BRANCH  12  13
HETATM   13  N6  UNL     1       0.001  -0.810   0.693  1.00  0.00    -0.350 N 
ATOM     14  H6  UNL     1       0.232   0.108   1.074  1.00  0.00     0.166 HD
BRANCH  13  15
HETATM   15  C9  UNL     1      -1.369  -1.060   0.810  1.00  0.00     0.092 C 
BRANCH  15  16
HETATM   16  C10 UNL     1      -2.294  -0.656  -0.273  1.00  0.00     0.319 C 
BRANCH  16  17
HETATM   17  N7  UNL     1      -2.353   0.758  -0.577  1.00  0.00     0.120 N 
HETATM   18  C11 UNL     1      -3.235   0.846  -1.756  1.00  0.00     0.302 C 
HETATM   19  C12 UNL     1      -4.596   1.122  -1.230  1.00  0.00     0.264 C 
HETATM   20  N8  UNL     1      -4.500   1.051   0.189  1.00  0.00    -0.047 N 
HETATM   21  C13 UNL     1      -3.123   1.411   0.468  1.00  0.00     0.503 C 
ATOM     22  H82 UNL     1      -5.189   1.617   0.684  1.00  0.00     0.279 HD
ATOM     23  H81 UNL     1      -4.787   0.155   0.584  1.00  0.00     0.279 HD
ENDBRANCH  16  17
ENDBRANCH  15  16
ENDBRANCH  13  15
ENDBRANCH  12  13
BRANCH   1  24
HETATM   24  N1  UNL     1      -0.260  -3.252  -0.389  1.00  0.00    -0.381 N 
ATOM     25  H12 UNL     1      -0.358  -4.181  -0.797  1.00  0.00     0.157 HD
ATOM     26  H11 UNL     1      -1.102  -2.789  -0.048  1.00  0.00     0.157 HD
ENDBRANCH   1  24
BRANCH  10  27
HETATM   27  C6  UNL     1       1.388   1.217   1.430  1.00  0.00     0.175 C 
BRANCH  27  28
HETATM   28  C7  UNL     1       0.962   2.170   0.326  1.00  0.00     0.185 C 
BRANCH  28  29
HETATM   29  O1  UNL     1       2.040   2.989  -0.067  1.00  0.00    -0.399 OA
ATOM     30  H1  UNL     1       1.774   3.585  -0.757  1.00  0.00     0.209 HD
ENDBRANCH  28  29
ENDBRANCH  27  28
ENDBRANCH  10  27
TORSDOF 8
