REMARK  6 active torsions:
REMARK  status: ('A' for Active; 'I' for Inactive)
REMARK    1  A    between atoms: N3_4  and  C2_6 
REMARK    2  A    between atoms: C2_6  and  C3_7 
REMARK    3  A    between atoms: C3_7  and  C4_8 
REMARK    4  A    between atoms: C4_8  and  C5_9 
REMARK    5  A    between atoms: N6_19  and  S1_20 
REMARK    6  A    between atoms: S1_20  and  N7_21 
ROOT
HETATM    1  C5  UNL     1      -1.152   0.243  -0.594  1.00  0.00     0.205 C 
HETATM    2  N4  UNL     1      -1.212   1.649  -0.740  1.00  0.00    -0.320 N 
ATOM      3  H4  UNL     1      -0.541   2.056  -1.391  1.00  0.00     0.166 HD
HETATM    4  C6  UNL     1      -2.083   2.565  -0.100  1.00  0.00     0.324 C 
HETATM    5  O1  UNL     1      -1.769   3.800  -0.086  1.00  0.00    -0.247 OA
HETATM    6  N5  UNL     1      -3.309   2.220   0.544  1.00  0.00    -0.275 N 
ATOM      7  H5  UNL     1      -4.009   2.961   0.580  1.00  0.00     0.173 HD
HETATM    8  C7  UNL     1      -3.692   0.984   1.144  1.00  0.00     0.265 C 
HETATM    9  O2  UNL     1      -4.705   1.006   1.885  1.00  0.00    -0.267 OA
HETATM   10  C8  UNL     1      -2.969  -0.296   0.939  1.00  0.00     0.181 C 
HETATM   11  N6  UNL     1      -2.312  -0.463  -0.271  1.00  0.00    -0.242 N 
ENDROOT
BRANCH   1  12
HETATM   12  C4  UNL     1      -0.101  -0.063   0.483  1.00  0.00     0.050 C 
BRANCH  12  13
HETATM   13  C3  UNL     1       1.206   0.502  -0.011  1.00  0.00     0.023 C 
BRANCH  13  14
HETATM   14  C2  UNL     1       2.313   0.241   1.005  1.00  0.00     0.122 C 
BRANCH  14  15
HETATM   15  N3  UNL     1       3.571   0.781   0.536  1.00  0.00    -0.367 N 
HETATM   16  C1  UNL     1       4.582   0.039   0.247  1.00  0.00     0.196 C 
HETATM   17  N1  UNL     1       5.781   0.637  -0.206  1.00  0.00    -0.067 NA
HETATM   18  N2  UNL     1       4.480  -1.352   0.385  1.00  0.00    -0.067 NA
ATOM     19  H3  UNL     1       3.660   1.792   0.430  1.00  0.00     0.161 HD
ENDBRANCH  14  15
ENDBRANCH  13  14
ENDBRANCH  12  13
ENDBRANCH   1  12
BRANCH  11  20
HETATM   20  S1  UNL     1      -2.415  -2.058  -0.855  1.00  0.00     0.320 S 
HETATM   21  O3  UNL     1      -3.733  -2.657  -0.409  1.00  0.00    -0.182 OA
HETATM   22  O4  UNL     1      -1.332  -2.957  -0.332  1.00  0.00    -0.182 OA
BRANCH  20  23
HETATM   23  N7  UNL     1      -2.384  -2.143  -2.578  1.00  0.00    -0.311 N 
ATOM     24  H72 UNL     1      -2.311  -1.315  -3.170  1.00  0.00     0.170 HD
ATOM     25  H71 UNL     1      -2.446  -3.099  -2.928  1.00  0.00     0.170 HD
ENDBRANCH  20  23
ENDBRANCH  11  20
TORSDOF 6
