REMARK  8 active torsions:
REMARK  status: ('A' for Active; 'I' for Inactive)
REMARK    1  A    between atoms: N1_2  and  C2_4 
REMARK    2  A    between atoms: C3_7  and  N3_8 
REMARK    3  A    between atoms: N3_8  and  N4_10 
REMARK    4  A    between atoms: C4_15  and  N6_16 
REMARK    5  A    between atoms: N6_16  and  C5_18 
REMARK    6  A    between atoms: C5_18  and  C6_19 
REMARK    7  A    between atoms: C6_19  and  N7_20 
REMARK    8  A    between atoms: C9_26  and  O1_27 
ROOT
HETATM    1  C2  UNL     1      -3.195   1.238  -0.215  1.00  0.00     0.706 A 
HETATM    2  N2  UNL     1      -4.207   0.391   0.073  1.00  0.00    -0.020 N 
ATOM      3  H2  UNL     1      -5.166   0.735   0.117  1.00  0.00     0.203 HD
HETATM    4  C3  UNL     1      -3.945  -0.902   0.301  1.00  0.00     0.725 A 
HETATM    5  N5  UNL     1      -2.692  -1.362   0.246  1.00  0.00    -0.020 N 
ATOM      6  H5  UNL     1      -2.516  -2.351   0.423  1.00  0.00     0.203 HD
HETATM    7  C4  UNL     1      -1.655  -0.548  -0.039  1.00  0.00     0.707 A 
HETATM    8  N9  UNL     1      -1.934   0.764  -0.269  1.00  0.00    -0.022 N 
ATOM      9  H9  UNL     1      -1.171   1.404  -0.488  1.00  0.00     0.203 HD
ENDROOT
BRANCH   7  10
HETATM   10  N6  UNL     1      -0.438  -0.897  -0.099  1.00  0.00    -0.220 N 
ATOM     11  H6  UNL     1       0.218  -0.150  -0.328  1.00  0.00     0.178 HD
BRANCH  10  12
HETATM   12  C5  UNL     1       0.150  -2.181   0.106  1.00  0.00     0.182 C 
BRANCH  12  13
HETATM   13  C6  UNL     1       1.407  -2.085   0.915  1.00  0.00     0.078 C 
BRANCH  13  14
HETATM   14  N7  UNL     1       2.461  -1.328   0.405  1.00  0.00    -0.386 N 
HETATM   15  C7  UNL     1       3.153  -1.782  -0.748  1.00  0.00     0.149 C 
HETATM   16  C8  UNL     1       4.509  -1.135  -0.918  1.00  0.00     0.255 C 
HETATM   17  N8  UNL     1       4.745  -0.299   0.242  1.00  0.00    -0.046 N 
HETATM   18  C9  UNL     1       3.699   0.739   0.224  1.00  0.00     0.338 C 
ATOM     19  H82 UNL     1       4.782  -0.822   1.117  1.00  0.00     0.280 HD
ATOM     20  H81 UNL     1       5.691   0.080   0.282  1.00  0.00     0.280 HD
HETATM   21  C11 UNL     1       2.348   0.087   0.517  1.00  0.00     0.183 C 
BRANCH  18  22
HETATM   22  O1  UNL     1       3.973   1.728   1.143  1.00  0.00    -0.363 OA
HETATM   23  C10 UNL     1       4.200   2.962   0.492  1.00  0.00     0.204 C 
ENDBRANCH  18  22
ENDBRANCH  13  14
ENDBRANCH  12  13
ENDBRANCH  10  12
ENDBRANCH   7  10
BRANCH   4  24
HETATM   24  N3  UNL     1      -4.896  -1.721   0.573  1.00  0.00    -0.138 N 
ATOM     25  H3  UNL     1      -4.691  -2.705   0.745  1.00  0.00     0.205 HD
BRANCH  24  26
HETATM   26  N4  UNL     1      -6.210  -1.259   0.632  1.00  0.00    -0.331 N 
ATOM     27  H42 UNL     1      -6.398  -0.272   0.457  1.00  0.00     0.177 HD
ATOM     28  H41 UNL     1      -6.965  -1.910   0.848  1.00  0.00     0.177 HD
ENDBRANCH  24  26
ENDBRANCH   4  24
BRANCH   1  29
HETATM   29  N1  UNL     1      -3.408   2.482  -0.429  1.00  0.00    -0.229 N 
HETATM   30  C1  UNL     1      -4.737   3.038  -0.374  1.00  0.00     0.165 C 
ATOM     31  H1  UNL     1      -2.620   3.093  -0.643  1.00  0.00     0.177 HD
ENDBRANCH   1  29
TORSDOF 8
