REMARK  6 active torsions:
REMARK  status: ('A' for Active; 'I' for Inactive)
REMARK    1  A    between atoms: N2_5  and  C4_6 
REMARK    2  A    between atoms: C4_6  and  C5_7 
REMARK    3  A    between atoms: C6_10  and  N4_11 
REMARK    4  A    between atoms: N4_11  and  C7_13 
REMARK    5  A    between atoms: C7_13  and  C8_14 
REMARK    6  A    between atoms: C8_14  and  O1_15 
ROOT
HETATM    1  C5  UNL     1      -0.252  -0.212   1.111  1.00  0.00     0.112 C 
HETATM    2  N3  UNL     1      -1.242  -0.335   0.172  1.00  0.00    -0.188 N 
ATOM      3  H3  UNL     1      -1.299  -1.234  -0.306  1.00  0.00     0.184 HD
HETATM    4  C6  UNL     1      -2.163   0.605  -0.200  1.00  0.00     0.682 C 
HETATM    5  N5  UNL     1      -2.039   1.937   0.002  1.00  0.00    -0.141 N 
ATOM      6  H5  UNL     1      -2.648   2.516  -0.576  1.00  0.00     0.189 HD
HETATM    7  C9  UNL     1      -1.238   2.622   0.846  1.00  0.00     0.341 C 
HETATM    8  O2  UNL     1      -1.141   3.871   0.731  1.00  0.00    -0.246 OA
HETATM    9  N6  UNL     1      -0.486   2.093   1.855  1.00  0.00    -0.273 N 
ATOM     10  H6  UNL     1      -0.145   2.752   2.555  1.00  0.00     0.173 HD
HETATM   11  C10 UNL     1      -0.140   0.801   2.037  1.00  0.00     0.274 C 
HETATM   12  O3  UNL     1       0.325   0.518   3.171  1.00  0.00    -0.266 OA
ENDROOT
BRANCH   1  13
HETATM   13  C4  UNL     1       0.805  -1.229   1.160  1.00  0.00     0.191 C 
BRANCH  13  14
HETATM   14  N2  UNL     1       2.042  -0.787   0.495  1.00  0.00    -0.361 N 
HETATM   15  C3  UNL     1       3.024  -0.154   1.127  1.00  0.00     0.092 A 
HETATM   16  C2  UNL     1       4.160   0.251   0.481  1.00  0.00     0.043 A 
HETATM   17  C1  UNL     1       4.318   0.008  -0.861  1.00  0.00     0.049 A 
HETATM   18  N1  UNL     1       5.514   0.439  -1.535  1.00  0.00    -0.102 NA
HETATM   19  C12 UNL     1       3.310  -0.649  -1.536  1.00  0.00     0.043 A 
HETATM   20  C11 UNL     1       2.194  -1.028  -0.827  1.00  0.00     0.092 A 
ENDBRANCH  13  14
ENDBRANCH   1  13
BRANCH   4  21
HETATM   21  N4  UNL     1      -3.224   0.231  -0.786  1.00  0.00    -0.224 N 
ATOM     22  H4  UNL     1      -3.882   0.966  -1.045  1.00  0.00     0.177 HD
BRANCH  21  23
HETATM   23  C7  UNL     1      -3.598  -1.100  -1.122  1.00  0.00     0.164 C 
BRANCH  23  24
HETATM   24  C8  UNL     1      -4.930  -1.513  -0.568  1.00  0.00     0.184 C 
BRANCH  24  25
HETATM   25  O1  UNL     1      -5.981  -0.718  -1.011  1.00  0.00    -0.399 OA
ATOM     26  H1  UNL     1      -6.824  -0.979  -0.660  1.00  0.00     0.209 HD
ENDBRANCH  24  25
ENDBRANCH  23  24
ENDBRANCH  21  23
ENDBRANCH   4  21
TORSDOF 6
