REMARK  6 active torsions:
REMARK  status: ('A' for Active; 'I' for Inactive)
REMARK    1  A    between atoms: N3_6  and  C3_8 
REMARK    2  A    between atoms: C3_8  and  C4_9 
REMARK    3  A    between atoms: C4_9  and  C5_10 
REMARK    4  A    between atoms: C5_10  and  N4_11 
REMARK    5  A    between atoms: N4_11  and  C6_13 
REMARK    6  A    between atoms: C10_22  and  N7_23 
ROOT
HETATM    1  C1  UNL     1       4.824   1.646  -0.529  1.00  0.00     0.183 C 
HETATM    2  N1  UNL     1       4.118   0.419  -0.226  1.00  0.00    -0.245 N 
HETATM    3  N2  UNL     1       2.851   0.390   0.174  1.00  0.00    -0.277 N 
ATOM      4  H2  UNL     1       2.347   1.271   0.274  1.00  0.00     0.189 HD
HETATM    5  C2  UNL     1       2.211  -0.754   0.451  1.00  0.00     0.160 A 
HETATM    6  N3  UNL     1       1.000  -0.799   0.834  1.00  0.00    -0.372 N 
ATOM      7  H3  UNL     1       0.590  -1.714   1.023  1.00  0.00     0.161 HD
HETATM    8  C10 UNL     1       2.884  -1.948   0.319  1.00  0.00     0.149 A 
HETATM    9  N8  UNL     1       4.157  -1.927  -0.082  1.00  0.00    -0.290 N 
ATOM     10  H8  UNL     1       4.673  -2.801  -0.185  1.00  0.00     0.172 HD
HETATM   11  C11 UNL     1       4.759  -0.759  -0.349  1.00  0.00     0.342 A 
HETATM   12  O2  UNL     1       5.969  -0.748  -0.730  1.00  0.00    -0.245 OA
ENDROOT
BRANCH   6  13
HETATM   13  C3  UNL     1       0.167   0.373   1.018  1.00  0.00     0.123 C 
BRANCH  13  14
HETATM   14  C4  UNL     1      -0.399   0.732  -0.357  1.00  0.00     0.039 C 
BRANCH  14  15
HETATM   15  C5  UNL     1      -1.199  -0.505  -0.793  1.00  0.00     0.123 C 
BRANCH  15  16
HETATM   16  N4  UNL     1      -2.215  -0.708   0.185  1.00  0.00    -0.375 N 
ATOM     17  H4  UNL     1      -2.001  -1.327   0.967  1.00  0.00     0.161 HD
BRANCH  16  18
HETATM   18  C6  UNL     1      -3.388  -0.165   0.155  1.00  0.00     0.115 A 
HETATM   19  C7  UNL     1      -4.285  -0.443   1.166  1.00  0.00     0.055 A 
HETATM   20  C8  UNL     1      -5.553   0.087   1.220  1.00  0.00     0.079 A 
HETATM   21  C9  UNL     1      -5.906   0.943   0.178  1.00  0.00     0.259 A 
HETATM   22  O1  UNL     1      -7.063   1.440   0.207  1.00  0.00    -0.267 OA
HETATM   23  N5  UNL     1      -5.021   1.206  -0.802  1.00  0.00    -0.265 N 
HETATM   24  N6  UNL     1      -3.795   0.670  -0.818  1.00  0.00    -0.283 N 
ATOM     25  H5  UNL     1      -5.294   1.835  -1.557  1.00  0.00     0.190 HD
ATOM     26  H6  UNL     1      -3.158   0.899  -1.581  1.00  0.00     0.188 HD
ENDBRANCH  16  18
ENDBRANCH  15  16
ENDBRANCH  14  15
ENDBRANCH  13  14
ENDBRANCH   6  13
BRANCH   8  27
HETATM   27  N7  UNL     1       2.300  -3.063   0.577  1.00  0.00    -0.382 N 
ATOM     28  H72 UNL     1       1.327  -3.079   0.883  1.00  0.00     0.157 HD
ATOM     29  H71 UNL     1       2.799  -3.947   0.479  1.00  0.00     0.157 HD
ENDBRANCH   8  27
TORSDOF 6
