REMARK  7 active torsions:
REMARK  status: ('A' for Active; 'I' for Inactive)
REMARK    1  A    between atoms: O1_2  and  C2_3 
REMARK    2  A    between atoms: N1_9  and  C8_10 
REMARK    3  A    between atoms: C8_10  and  C9_11 
REMARK    4  A    between atoms: C9_11  and  O2_12 
REMARK    5  A    between atoms: O2_12  and  C10_13 
REMARK    6  A    between atoms: C11_20  and  N5_21 
REMARK    7  A    between atoms: N6_24  and  O3_25 
ROOT
HETATM    1  C2  UNL     1      -1.479  -0.532  -0.794  1.00  0.00     0.098 A 
HETATM    2  C3  UNL     1      -2.618  -0.341  -1.557  1.00  0.00     0.039 A 
HETATM    3  C4  UNL     1      -3.637   0.458  -1.127  1.00  0.00     0.005 A 
HETATM    4  C5  UNL     1      -3.557   1.097   0.086  1.00  0.00     0.035 A 
HETATM    5  C6  UNL     1      -2.432   0.909   0.841  1.00  0.00     0.112 A 
HETATM    6  C7  UNL     1      -1.366   0.093   0.425  1.00  0.00     0.114 A 
HETATM    7  N1  UNL     1      -0.290  -0.044   1.226  1.00  0.00    -0.271 N 
HETATM    8  N4  UNL     1      -0.262   0.610   2.416  1.00  0.00    -0.128 N 
ATOM      9  H4  UNL     1       0.546   0.515   3.031  1.00  0.00     0.206 HD
HETATM   10  C11 UNL     1      -1.284   1.371   2.778  1.00  0.00     0.717 A 
HETATM   11  N6  UNL     1      -2.366   1.535   2.019  1.00  0.00    -0.049 N 
ENDROOT
BRANCH   7  12
HETATM   12  C8  UNL     1       0.856  -0.851   0.887  1.00  0.00     0.176 C 
BRANCH  12  13
HETATM   13  C9  UNL     1       1.867   0.006   0.166  1.00  0.00     0.200 C 
BRANCH  13  14
HETATM   14  O2  UNL     1       3.021  -0.765  -0.208  1.00  0.00    -0.323 OA
BRANCH  14  15
HETATM   15  C10 UNL     1       4.053  -0.177  -0.870  1.00  0.00     0.225 C 
HETATM   16  N2  UNL     1       4.074   1.081  -1.063  1.00  0.00    -0.368 N 
ATOM     17  H22 UNL     1       3.317   1.675  -0.725  1.00  0.00     0.159 HD
ATOM     18  H21 UNL     1       4.848   1.522  -1.560  1.00  0.00     0.159 HD
HETATM   19  N3  UNL     1       5.115  -1.010  -1.344  1.00  0.00    -0.057 NA
ENDBRANCH  14  15
ENDBRANCH  13  14
ENDBRANCH  12  13
ENDBRANCH   7  12
BRANCH   1  20
HETATM   20  O1  UNL     1      -0.489  -1.334  -1.259  1.00  0.00    -0.354 OA
HETATM   21  C1  UNL     1      -0.496  -2.021  -2.487  1.00  0.00     0.210 C 
ENDBRANCH   1  20
BRANCH  10  22
HETATM   22  N5  UNL     1      -1.204   1.971   3.923  1.00  0.00    -0.231 N 
ATOM     23  H52 UNL     1      -0.375   1.845   4.504  1.00  0.00     0.174 HD
ATOM     24  H51 UNL     1      -1.991   2.557   4.202  1.00  0.00     0.174 HD
ENDBRANCH  10  22
BRANCH  11  25
HETATM   25  O3  UNL     1      -3.422   2.344   2.433  1.00  0.00    -0.269 OA
ATOM     26  H3  UNL     1      -3.375   2.789   3.271  1.00  0.00     0.245 HD
ENDBRANCH  11  25
TORSDOF 7
