REMARK  7 active torsions:
REMARK  status: ('A' for Active; 'I' for Inactive)
REMARK    1  A    between atoms: N1_1  and  N2_4 
REMARK    2  A    between atoms: N2_4  and  S1_6 
REMARK    3  A    between atoms: S1_6  and  N3_9 
REMARK    4  A    between atoms: N3_9  and  C1_11 
REMARK    5  A    between atoms: C1_11  and  C2_12 
REMARK    6  A    between atoms: C7_17  and  S2_18 
REMARK    7  A    between atoms: S2_18  and  N4_19 
ROOT
HETATM    1  C2  UNL     1      -0.931  -0.550  -0.086  1.00  0.00    -0.017 A 
HETATM    2  C3  UNL     1      -0.883  -1.799   0.489  1.00  0.00     0.010 A 
HETATM    3  C4  UNL     1      -2.008  -2.425   1.017  1.00  0.00     0.001 A 
HETATM    4  C5  UNL     1      -3.220  -1.780   0.967  1.00  0.00     0.002 A 
HETATM    5  C6  UNL     1      -3.286  -0.530   0.394  1.00  0.00     0.026 A 
HETATM    6  C7  UNL     1      -2.162   0.086  -0.128  1.00  0.00     0.087 A 
ENDROOT
BRANCH   1   7
HETATM    7  C1  UNL     1       0.289   0.048  -0.624  1.00  0.00     0.173 C 
BRANCH   7   8
HETATM    8  N3  UNL     1       1.399  -0.857  -0.429  1.00  0.00    -0.297 N 
ATOM      9  H3  UNL     1       1.332  -1.771   0.018  1.00  0.00     0.174 HD
BRANCH   8  10
HETATM   10  S1  UNL     1       2.869  -0.166  -1.065  1.00  0.00     0.332 S 
HETATM   11  O1  UNL     1       2.520   0.678  -2.272  1.00  0.00    -0.181 OA
HETATM   12  O2  UNL     1       3.700  -1.318  -1.550  1.00  0.00    -0.181 OA
BRANCH  10  13
HETATM   13  N2  UNL     1       3.622   0.741   0.162  1.00  0.00    -0.217 N 
ATOM     14  H2  UNL     1       3.435   1.732   0.315  1.00  0.00     0.201 HD
BRANCH  13  15
HETATM   15  N1  UNL     1       4.516   0.010   0.939  1.00  0.00    -0.335 N 
ATOM     16  H12 UNL     1       4.693  -0.981   0.775  1.00  0.00     0.177 HD
ATOM     17  H11 UNL     1       4.967   0.554   1.675  1.00  0.00     0.177 HD
ENDBRANCH  13  15
ENDBRANCH  10  13
ENDBRANCH   8  10
ENDBRANCH   7   8
ENDBRANCH   1   7
BRANCH   6  18
HETATM   18  S2  UNL     1      -2.276   1.653  -0.839  1.00  0.00     0.257 S 
HETATM   19  O3  UNL     1      -1.969   1.652  -2.308  1.00  0.00    -0.201 OA
HETATM   20  O4  UNL     1      -3.687   2.153  -0.698  1.00  0.00    -0.201 OA
BRANCH  18  21
HETATM   21  N4  UNL     1      -1.273   2.785   0.008  1.00  0.00    -0.324 N 
ATOM     22  H42 UNL     1      -0.699   2.542   0.815  1.00  0.00     0.169 HD
ATOM     23  H41 UNL     1      -1.340   3.712  -0.413  1.00  0.00     0.169 HD
ENDBRANCH  18  21
ENDBRANCH   6  18
TORSDOF 7
