REMARK  6 active torsions:
REMARK  status: ('A' for Active; 'I' for Inactive)
REMARK    1  A    between atoms: N1_2  and  N2_3 
REMARK    2  A    between atoms: N1_2  and  C2_11 
REMARK    3  A    between atoms: N2_3  and  S1_5 
REMARK    4  A    between atoms: S1_5  and  N3_6 
REMARK    5  A    between atoms: C5_14  and  S2_15 
REMARK    6  A    between atoms: S2_15  and  N4_16 
ROOT
HETATM    1  C2  UNL     1      -0.222  -0.556   0.067  1.00  0.00     0.123 A 
HETATM    2  C3  UNL     1       0.115  -0.384  -1.256  1.00  0.00     0.053 A 
HETATM    3  C4  UNL     1       1.344   0.239  -1.372  1.00  0.00     0.047 A 
HETATM    4  C5  UNL     1       1.757   0.448  -0.059  1.00  0.00     0.150 A 
HETATM    5  N5  UNL     1       0.820  -0.028   0.759  1.00  0.00    -0.331 N 
ATOM      6  H5  UNL     1       0.878   0.001   1.777  1.00  0.00     0.168 HD
ENDROOT
BRANCH   1   7
HETATM    7  N1  UNL     1      -1.389  -1.173   0.568  1.00  0.00    -0.270 N 
HETATM    8  C1  UNL     1      -1.220  -2.567   1.037  1.00  0.00     0.180 C 
BRANCH   7   9
HETATM    9  N2  UNL     1      -2.652  -0.654   0.667  1.00  0.00    -0.207 N 
ATOM     10  H2  UNL     1      -3.463  -1.256   0.810  1.00  0.00     0.202 HD
BRANCH   9  11
HETATM   11  S1  UNL     1      -2.815   1.026   0.543  1.00  0.00     0.330 S 
HETATM   12  O1  UNL     1      -3.974   1.425   1.446  1.00  0.00    -0.181 OA
HETATM   13  O2  UNL     1      -1.593   1.785   0.923  1.00  0.00    -0.181 OA
BRANCH  11  14
HETATM   14  N3  UNL     1      -3.198   1.481  -1.093  1.00  0.00    -0.310 N 
ATOM     15  H32 UNL     1      -3.306   0.816  -1.859  1.00  0.00     0.170 HD
ATOM     16  H31 UNL     1      -3.296   2.494  -1.168  1.00  0.00     0.170 HD
ENDBRANCH  11  14
ENDBRANCH   9  11
ENDBRANCH   7   9
ENDBRANCH   1   7
BRANCH   4  17
HETATM   17  S2  UNL     1       3.299   1.221   0.325  1.00  0.00     0.272 S 
HETATM   18  O3  UNL     1       3.248   1.851   1.705  1.00  0.00    -0.199 OA
HETATM   19  O4  UNL     1       3.633   2.218  -0.742  1.00  0.00    -0.199 OA
BRANCH  17  20
HETATM   20  N4  UNL     1       4.518   0.010   0.369  1.00  0.00    -0.323 N 
ATOM     21  H42 UNL     1       4.362  -0.984   0.200  1.00  0.00     0.169 HD
ATOM     22  H41 UNL     1       5.408   0.456   0.591  1.00  0.00     0.169 HD
ENDBRANCH  17  20
ENDBRANCH   4  17
TORSDOF 6
