REMARK  6 active torsions:
REMARK  status: ('A' for Active; 'I' for Inactive)
REMARK    1  A    between atoms: C2_2  and  C3_3 
REMARK    2  A    between atoms: C3_3  and  C4_4 
REMARK    3  A    between atoms: C4_4  and  C5_5 
REMARK    4  A    between atoms: C5_5  and  N1_6 
REMARK    5  A    between atoms: N1_6  and  C6_9 
REMARK    6  A    between atoms: N2_12  and  C9_13 
ROOT
HETATM    1  C6  UNL     1      -0.005   0.275   0.555  1.00  0.00     0.189 C 
HETATM    2  C7  UNL     1      -0.912   1.111  -0.339  1.00  0.00     0.052 C 
HETATM    3  C8  UNL     1      -1.663   0.078  -1.183  1.00  0.00     0.119 C 
HETATM    4  N2  UNL     1      -2.524  -0.649  -0.310  1.00  0.00    -0.405 N 
HETATM    5  C12 UNL     1      -1.894  -1.369   0.736  1.00  0.00     0.119 C 
HETATM    6  C13 UNL     1      -0.800  -0.624   1.450  1.00  0.00     0.052 C 
ENDROOT
BRANCH   1   7
HETATM    7  N1  UNL     1       1.023  -0.421  -0.179  1.00  0.00    -0.071 N 
ATOM      8  H12 UNL     1       0.604  -1.045  -0.869  1.00  0.00     0.277 HD
ATOM      9  H11 UNL     1       1.484  -1.105   0.421  1.00  0.00     0.277 HD
BRANCH   7  10
HETATM   10  C5  UNL     1       1.986   0.421  -0.797  1.00  0.00     0.232 C 
BRANCH  10  11
HETATM   11  C4  UNL     1       2.904   1.099   0.212  1.00  0.00     0.027 C 
BRANCH  11  12
HETATM   12  C3  UNL     1       3.678   0.075   1.009  1.00  0.00     0.001 C 
BRANCH  12  13
HETATM   13  C2  UNL     1       4.545  -0.779   0.106  1.00  0.00    -0.005 C 
HETATM   14  C1  UNL     1       5.526   0.110  -0.629  1.00  0.00     0.005 C 
ENDBRANCH  12  13
ENDBRANCH  11  12
ENDBRANCH  10  11
ENDBRANCH   7  10
ENDBRANCH   1   7
BRANCH   4  15
HETATM   15  C9  UNL     1      -3.697   0.047   0.068  1.00  0.00     0.130 C 
HETATM   16  C10 UNL     1      -4.600   0.321  -1.147  1.00  0.00     0.258 C 
HETATM   17  N3  UNL     1      -5.714   0.251  -0.220  1.00  0.00    -0.071 N 
HETATM   18  C11 UNL     1      -4.903  -0.752   0.507  1.00  0.00     0.258 C 
ATOM     19  H32 UNL     1      -6.084   1.082   0.242  1.00  0.00     0.277 HD
ATOM     20  H31 UNL     1      -6.664   0.051  -0.533  1.00  0.00     0.277 HD
ENDBRANCH   4  15
TORSDOF 6
