REMARK  5 active torsions:
REMARK  status: ('A' for Active; 'I' for Inactive)
REMARK    1  A    between atoms: C4_5  and  N2_6 
REMARK    2  A    between atoms: C6_8  and  C7_9 
REMARK    3  A    between atoms: C7_9  and  C8_10 
REMARK    4  A    between atoms: C8_10  and  C9_11 
REMARK    5  A    between atoms: C9_11  and  N3_12 
ROOT
HETATM    1  N1  UNL     1      -2.018  -2.342  -0.459  1.00  0.00    -0.196 NA
HETATM    2  C1  UNL     1      -2.364  -1.320   0.012  1.00  0.00     0.077 C 
HETATM    3  C2  UNL     1      -2.831  -0.048   0.610  1.00  0.00     0.208 A 
HETATM    4  C3  UNL     1      -2.410   1.045  -0.272  1.00  0.00     0.054 A 
HETATM    5  C4  UNL     1      -1.166   1.369  -0.454  1.00  0.00     0.142 C 
HETATM    6  N5  UNL     1      -3.391   1.830  -0.960  1.00  0.00    -0.331 N 
ATOM      7  H5  UNL     1      -3.072   2.523  -1.638  1.00  0.00     0.168 HD
HETATM    8  C11 UNL     1      -4.657   1.701  -0.762  1.00  0.00     0.193 A 
HETATM    9  N6  UNL     1      -5.600   2.506  -1.464  1.00  0.00    -0.063 NA
HETATM   10  N7  UNL     1      -5.059   0.696   0.142  1.00  0.00    -0.321 N 
ATOM     11  H7  UNL     1      -6.063   0.604   0.299  1.00  0.00     0.169 HD
HETATM   12  C12 UNL     1      -4.315  -0.106   0.782  1.00  0.00     0.119 A 
HETATM   13  N8  UNL     1      -4.814  -1.098   1.689  1.00  0.00    -0.086 NA
ENDROOT
BRANCH   5  14
HETATM   14  N2  UNL     1      -0.100   0.701   0.182  1.00  0.00    -0.277 N 
HETATM   15  C5  UNL     1       0.871   0.027  -0.510  1.00  0.00     0.124 A 
HETATM   16  C6  UNL     1       1.770  -0.503   0.386  1.00  0.00    -0.024 A 
HETATM   17  C10 UNL     1       1.331  -0.142   1.638  1.00  0.00     0.116 A 
HETATM   18  N4  UNL     1       0.191   0.589   1.459  1.00  0.00    -0.306 N 
ATOM     19  H4  UNL     1      -0.361   0.994   2.215  1.00  0.00     0.186 HD
BRANCH  16  20
HETATM   20  C7  UNL     1       2.961  -1.300   0.021  1.00  0.00     0.043 C 
BRANCH  20  21
HETATM   21  C8  UNL     1       4.144  -0.370  -0.176  1.00  0.00     0.032 C 
BRANCH  21  22
HETATM   22  C9  UNL     1       5.388  -1.183  -0.555  1.00  0.00     0.230 C 
BRANCH  22  23
HETATM   23  N3  UNL     1       6.512  -0.306  -0.743  1.00  0.00    -0.079 N 
ATOM     24  H33 UNL     1       6.314   0.428  -1.423  1.00  0.00     0.274 HD
ATOM     25  H32 UNL     1       6.676   0.285   0.072  1.00  0.00     0.274 HD
ATOM     26  H31 UNL     1       7.339  -0.847  -0.995  1.00  0.00     0.274 HD
ENDBRANCH  22  23
ENDBRANCH  21  22
ENDBRANCH  20  21
ENDBRANCH  16  20
ENDBRANCH   5  14
TORSDOF 5
