REMARK  8 active torsions:
REMARK  status: ('A' for Active; 'I' for Inactive)
REMARK    1  A    between atoms: N1_2  and  C2_4 
REMARK    2  A    between atoms: C3_7  and  N3_8 
REMARK    3  A    between atoms: N3_8  and  C4_10 
REMARK    4  A    between atoms: C4_10  and  C5_11 
REMARK    5  A    between atoms: C5_11  and  C6_12 
REMARK    6  A    between atoms: C6_12  and  N4_13 
REMARK    7  A    between atoms: C9_21  and  S1_22 
REMARK    8  A    between atoms: S1_22  and  N6_23 
ROOT
HETATM    1  C2  UNL     1      -1.736   0.388   0.174  1.00  0.00     0.142 A 
HETATM    2  N2  UNL     1      -0.392   0.413   0.149  1.00  0.00    -0.175 N 
ATOM      3  H2  UNL     1       0.075   1.320   0.149  1.00  0.00     0.186 HD
HETATM    4  C3  UNL     1       0.369  -0.699   0.124  1.00  0.00     0.679 A 
HETATM    5  N5  UNL     1      -0.228  -1.903   0.125  1.00  0.00    -0.194 N 
ATOM      6  H5  UNL     1       0.346  -2.746   0.107  1.00  0.00     0.184 HD
HETATM    7  C7  UNL     1      -1.576  -2.018   0.150  1.00  0.00     0.050 A 
HETATM    8  C8  UNL     1      -2.163  -3.356   0.149  1.00  0.00     0.070 C 
HETATM    9  C9  UNL     1      -2.346  -0.849   0.175  1.00  0.00     0.146 A 
ENDROOT
BRANCH   4  10
HETATM   10  N3  UNL     1       1.668  -0.624   0.100  1.00  0.00    -0.226 N 
ATOM     11  H3  UNL     1       2.239  -1.469   0.082  1.00  0.00     0.177 HD
BRANCH  10  12
HETATM   12  C4  UNL     1       2.282   0.678   0.100  1.00  0.00     0.139 C 
BRANCH  12  13
HETATM   13  C5  UNL     1       3.783   0.481   0.162  1.00  0.00     0.047 C 
BRANCH  13  14
HETATM   14  C6  UNL     1       4.512   1.806   0.165  1.00  0.00     0.231 C 
BRANCH  14  15
HETATM   15  N4  UNL     1       5.943   1.482   0.227  1.00  0.00    -0.079 N 
ATOM     16  H43 UNL     1       6.190   0.880   1.013  1.00  0.00     0.274 HD
ATOM     17  H42 UNL     1       6.249   0.851  -0.513  1.00  0.00     0.274 HD
ATOM     18  H41 UNL     1       6.435   2.376   0.229  1.00  0.00     0.274 HD
ENDBRANCH  14  15
ENDBRANCH  13  14
ENDBRANCH  12  13
ENDBRANCH  10  12
ENDBRANCH   4  10
BRANCH   1  19
HETATM   19  N1  UNL     1      -2.457   1.475   0.197  1.00  0.00    -0.379 N 
HETATM   20  C1  UNL     1      -1.899   2.787   0.198  1.00  0.00     0.147 C 
ATOM     21  H1  UNL     1      -3.473   1.381   0.215  1.00  0.00     0.160 HD
ENDBRANCH   1  19
BRANCH   9  22
HETATM   22  S1  UNL     1      -4.074  -0.961   0.207  1.00  0.00     0.262 S 
HETATM   23  O1  UNL     1      -4.586  -2.078   1.049  1.00  0.00    -0.201 OA
HETATM   24  O2  UNL     1      -4.606   0.321   0.839  1.00  0.00    -0.201 OA
BRANCH  22  25
HETATM   25  N6  UNL     1      -4.747  -0.989  -1.395  1.00  0.00    -0.324 N 
ATOM     26  H62 UNL     1      -4.180  -0.944  -2.241  1.00  0.00     0.169 HD
ATOM     27  H61 UNL     1      -5.765  -1.055  -1.376  1.00  0.00     0.169 HD
ENDBRANCH  22  25
ENDBRANCH   9  22
TORSDOF 8
