REMARK  7 active torsions:
REMARK  status: ('A' for Active; 'I' for Inactive)
REMARK    1  A    between atoms: O1_2  and  C2_3 
REMARK    2  A    between atoms: C7_8  and  C8_9 
REMARK    3  A    between atoms: C8_9  and  C9_10 
REMARK    4  A    between atoms: C10_13  and  C11_14 
REMARK    5  A    between atoms: C11_14  and  N2_15 
REMARK    6  A    between atoms: N2_15  and  N3_17 
REMARK    7  A    between atoms: N3_17  and  N4_19 
ROOT
HETATM    1  C9  UNL     1      -0.407   0.331   1.287  1.00  0.00     0.103 A 
HETATM    2  N1  UNL     1       0.240  -0.383   0.352  1.00  0.00    -0.337 N 
ATOM      3  H1  UNL     1      -0.223  -0.922  -0.379  1.00  0.00     0.167 HD
HETATM    4  C10 UNL     1       1.571  -0.300   0.498  1.00  0.00     0.125 A 
HETATM    5  N5  UNL     1       1.766   0.503   1.575  1.00  0.00    -0.306 N 
ATOM      6  H5  UNL     1       2.676   0.768   1.953  1.00  0.00     0.170 HD
HETATM    7  C13 UNL     1       0.577   0.897   2.069  1.00  0.00     0.273 A 
HETATM    8  O2  UNL     1       0.358   1.642   3.058  1.00  0.00    -0.266 OA
ENDROOT
BRANCH   1   9
HETATM    9  C8  UNL     1      -1.728   0.476   1.445  1.00  0.00     0.049 C 
BRANCH   9  10
HETATM   10  C7  UNL     1      -2.695  -0.151   0.582  1.00  0.00    -0.001 A 
HETATM   11  C2  UNL     1      -3.657   0.583  -0.102  1.00  0.00     0.078 A 
HETATM   12  C3  UNL     1      -4.581  -0.024  -0.928  1.00  0.00     0.037 A 
HETATM   13  C4  UNL     1      -4.583  -1.389  -1.105  1.00  0.00     0.003 A 
HETATM   14  C5  UNL     1      -3.638  -2.126  -0.434  1.00  0.00     0.001 A 
HETATM   15  C6  UNL     1      -2.714  -1.518   0.391  1.00  0.00     0.014 A 
BRANCH  11  16
HETATM   16  O1  UNL     1      -3.648   1.952   0.080  1.00  0.00    -0.355 OA
HETATM   17  C1  UNL     1      -4.583   2.793  -0.569  1.00  0.00     0.210 C 
ENDBRANCH  11  16
ENDBRANCH   9  10
ENDBRANCH   1   9
BRANCH   4  18
HETATM   18  C11 UNL     1       2.530  -0.858  -0.221  1.00  0.00     0.152 C 
BRANCH  18  19
HETATM   19  N2  UNL     1       3.899  -0.651   0.091  1.00  0.00    -0.310 N 
ATOM     20  H2  UNL     1       4.173  -0.581   1.071  1.00  0.00     0.182 HD
BRANCH  19  21
HETATM   21  N3  UNL     1       4.893  -0.538  -0.900  1.00  0.00    -0.151 NA
HETATM   22  C12 UNL     1       5.681   0.664  -0.729  1.00  0.00     0.162 C 
BRANCH  21  23
HETATM   23  N4  UNL     1       5.698  -1.671  -0.970  1.00  0.00    -0.346 NA
ATOM     24  H42 UNL     1       5.143  -2.518  -1.091  1.00  0.00     0.172 HD
ATOM     25  H41 UNL     1       6.418  -1.589  -1.688  1.00  0.00     0.172 HD
ENDBRANCH  21  23
ENDBRANCH  19  21
ENDBRANCH  18  19
ENDBRANCH   4  18
TORSDOF 7
