REMARK  6 active torsions:
REMARK  status: ('A' for Active; 'I' for Inactive)
REMARK    1  A    between atoms: C2_2  and  O1_3 
REMARK    2  A    between atoms: O1_3  and  C3_4 
REMARK    3  A    between atoms: C3_4  and  C4_5 
REMARK    4  A    between atoms: C4_5  and  N1_6 
REMARK    5  A    between atoms: N1_6  and  C5_8 
REMARK    6  A    between atoms: C6_11  and  N3_12 
ROOT
HETATM    1  C5  UNL     1      -0.277  -0.166   0.177  1.00  0.00     0.680 A 
HETATM    2  N2  UNL     1      -1.210   0.804   0.165  1.00  0.00    -0.175 N 
ATOM      3  H2  UNL     1      -0.947   1.784   0.271  1.00  0.00     0.186 HD
HETATM    4  C6  UNL     1      -2.498   0.449   0.010  1.00  0.00     0.146 A 
HETATM    5  C8  UNL     1      -2.846  -0.877  -0.133  1.00  0.00     0.114 A 
HETATM    6  N4  UNL     1      -4.111  -1.256  -0.288  1.00  0.00    -0.303 N 
ATOM      7  H4  UNL     1      -4.854  -0.558  -0.304  1.00  0.00     0.171 HD
HETATM    8  C9  UNL     1      -4.410  -2.557  -0.424  1.00  0.00     0.327 A 
HETATM    9  O2  UNL     1      -5.633  -2.851  -0.568  1.00  0.00    -0.247 OA
HETATM   10  N5  UNL     1      -3.473  -3.504  -0.410  1.00  0.00    -0.274 N 
ATOM     11  H5  UNL     1      -3.741  -4.482  -0.516  1.00  0.00     0.173 HD
HETATM   12  C10 UNL     1      -2.175  -3.180  -0.257  1.00  0.00     0.279 A 
HETATM   13  O3  UNL     1      -1.297  -4.088  -0.245  1.00  0.00    -0.265 OA
HETATM   14  C11 UNL     1      -1.848  -1.848  -0.115  1.00  0.00     0.147 A 
HETATM   15  N6  UNL     1      -0.565  -1.478   0.041  1.00  0.00    -0.184 N 
ATOM     16  H6  UNL     1       0.178  -2.177   0.056  1.00  0.00     0.184 HD
ENDROOT
BRANCH   1  17
HETATM   17  N1  UNL     1       0.943   0.187   0.325  1.00  0.00    -0.224 N 
ATOM     18  H1  UNL     1       1.155   1.179   0.426  1.00  0.00     0.177 HD
BRANCH  17  19
HETATM   19  C4  UNL     1       2.040  -0.766   0.355  1.00  0.00     0.164 C 
BRANCH  19  20
HETATM   20  C3  UNL     1       3.355   0.006   0.430  1.00  0.00     0.187 C 
BRANCH  20  21
HETATM   21  O1  UNL     1       3.497   0.839  -0.677  1.00  0.00    -0.390 OA
BRANCH  21  22
HETATM   22  C2  UNL     1       4.667   1.556  -0.655  1.00  0.00     0.163 C 
HETATM   23  C1  UNL     1       4.785   2.453   0.559  1.00  0.00     0.033 C 
ENDBRANCH  21  22
ENDBRANCH  20  21
ENDBRANCH  19  20
ENDBRANCH  17  19
ENDBRANCH   1  17
BRANCH   4  24
HETATM   24  N3  UNL     1      -3.401   1.353  -0.004  1.00  0.00    -0.378 N 
HETATM   25  C7  UNL     1      -3.120   2.760   0.139  1.00  0.00     0.147 C 
ATOM     26  H3  UNL     1      -4.372   1.064  -0.123  1.00  0.00     0.160 HD
ENDBRANCH   4  24
TORSDOF 6
