REMARK  4 active torsions:
REMARK  status: ('A' for Active; 'I' for Inactive)
REMARK    1  A    between atoms: N1_1  and  C1_4 
REMARK    2  A    between atoms: C2_7  and  N3_8 
REMARK    3  A    between atoms: C7_16  and  N5_17 
REMARK    4  A    between atoms: C11_22  and  C12_23 
ROOT
HETATM    1  C1  UNL     1      -0.157  -1.546   1.206  1.00  0.00     0.129 A 
HETATM    2  N2  UNL     1       1.125  -1.169   1.219  1.00  0.00    -0.176 N 
ATOM      3  H2  UNL     1       1.780  -1.716   1.779  1.00  0.00     0.186 HD
HETATM    4  C2  UNL     1       1.606  -0.108   0.536  1.00  0.00     0.683 A 
HETATM    5  N4  UNL     1       0.746   0.610  -0.198  1.00  0.00    -0.175 N 
ATOM      6  H4  UNL     1       1.088   1.416  -0.722  1.00  0.00     0.186 HD
HETATM    7  C7  UNL     1      -0.584   0.284  -0.260  1.00  0.00     0.140 A 
HETATM    8  C11 UNL     1      -1.053  -0.802   0.443  1.00  0.00     0.063 A 
ENDROOT
BRANCH   4   9
HETATM    9  N3  UNL     1       2.992   0.241   0.590  1.00  0.00    -0.213 N 
HETATM   10  C3  UNL     1       3.909  -0.543   1.397  1.00  0.00     0.167 C 
HETATM   11  C4  UNL     1       5.284  -0.491   0.809  1.00  0.00     0.188 C 
HETATM   12  O1  UNL     1       5.663   0.860   0.738  1.00  0.00    -0.388 OA
HETATM   13  C5  UNL     1       4.976   1.407  -0.316  1.00  0.00     0.188 C 
HETATM   14  C6  UNL     1       3.480   1.358  -0.151  1.00  0.00     0.167 C 
ENDBRANCH   4   9
BRANCH   1  15
HETATM   15  N1  UNL     1      -0.641  -2.543   1.846  1.00  0.00    -0.384 N 
ATOM     16  H12 UNL     1       0.015  -3.088   2.405  1.00  0.00     0.157 HD
ATOM     17  H11 UNL     1      -1.620  -2.831   1.836  1.00  0.00     0.157 HD
ENDBRANCH   1  15
BRANCH   7  18
HETATM   18  N5  UNL     1      -1.488   1.047  -1.032  1.00  0.00    -0.302 N 
HETATM   19  C8  UNL     1      -2.764   1.687  -0.846  1.00  0.00     0.143 C 
HETATM   20  C9  UNL     1      -2.186   2.747  -1.799  1.00  0.00     0.123 C 
HETATM   21  C10 UNL     1      -1.504   1.524  -2.366  1.00  0.00     0.227 C 
HETATM   22  O2  UNL     1      -1.126   1.119  -3.498  1.00  0.00    -0.273 OA
ENDBRANCH   7  18
BRANCH   8  23
HETATM   23  C12 UNL     1      -2.464  -1.157   0.389  1.00  0.00    -0.018 A 
HETATM   24  C13 UNL     1      -3.317  -0.746   1.360  1.00  0.00     0.012 A 
HETATM   25  C14 UNL     1      -4.642  -1.090   1.307  1.00  0.00     0.001 A 
HETATM   26  C15 UNL     1      -5.085  -1.858   0.252  1.00  0.00     0.000 A 
HETATM   27  C16 UNL     1      -4.249  -2.293  -0.752  1.00  0.00     0.001 A 
HETATM   28  C17 UNL     1      -2.921  -1.925  -0.662  1.00  0.00     0.012 A 
ENDBRANCH   8  23
TORSDOF 4
