REMARK  4 active torsions:
REMARK  status: ('A' for Active; 'I' for Inactive)
REMARK    1  A    between atoms: C5_6  and  N2_7 
REMARK    2  A    between atoms: N2_7  and  C6_9 
REMARK    3  A    between atoms: N3_12  and  C9_13 
REMARK    4  A    between atoms: C12_18  and  N5_19 
ROOT
HETATM    1  N1  UNL     1       9.017   0.340  -1.475  1.00  0.00    -0.191 NA
HETATM    2  C1  UNL     1       7.966   0.080  -1.063  1.00  0.00     0.101 C 
HETATM    3  C2  UNL     1       6.649  -0.222  -0.559  1.00  0.00     0.060 A 
HETATM    4  C3  UNL     1       5.624   0.689  -0.591  1.00  0.00     0.028 A 
HETATM    5  C4  UNL     1       4.382   0.328  -0.087  1.00  0.00     0.050 A 
HETATM    6  C5  UNL     1       4.128  -0.916   0.449  1.00  0.00     0.101 A 
HETATM    7  N7  UNL     1       5.167  -1.805   0.469  1.00  0.00    -0.351 N 
ATOM      8  H7  UNL     1       5.027  -2.738   0.857  1.00  0.00     0.166 HD
HETATM    9  C17 UNL     1       6.369  -1.459  -0.018  1.00  0.00     0.112 A 
ENDROOT
BRANCH   6  10
HETATM   10  N2  UNL     1       2.988  -1.273   0.921  1.00  0.00    -0.370 N 
ATOM     11  H2  UNL     1       2.880  -2.214   1.301  1.00  0.00     0.161 HD
BRANCH  10  12
HETATM   12  C6  UNL     1       1.856  -0.378   0.928  1.00  0.00     0.103 C 
HETATM   13  C7  UNL     1       0.829  -0.833   1.962  1.00  0.00     0.047 C 
HETATM   14  C8  UNL     1      -0.360  -1.232   1.138  1.00  0.00     0.143 C 
HETATM   15  N3  UNL     1      -0.258  -0.380  -0.024  1.00  0.00    -0.216 N 
HETATM   16  C16 UNL     1       1.137  -0.365  -0.402  1.00  0.00     0.166 C 
BRANCH  15  17
HETATM   17  C9  UNL     1      -1.340   0.297  -0.649  1.00  0.00     0.681 A 
HETATM   18  N4  UNL     1      -1.095   1.065  -1.749  1.00  0.00    -0.202 N 
HETATM   19  C10 UNL     1      -2.100   1.716  -2.361  1.00  0.00     0.110 A 
ATOM     20  H4  UNL     1      -0.144   1.146  -2.109  1.00  0.00     0.183 HD
HETATM   21  C11 UNL     1      -3.402   1.640  -1.914  1.00  0.00     0.066 A 
HETATM   22  C12 UNL     1      -3.636   0.861  -0.801  1.00  0.00     0.120 A 
HETATM   23  N6  UNL     1      -2.601   0.218  -0.209  1.00  0.00    -0.177 N 
ATOM     24  H6  UNL     1      -2.793  -0.355   0.613  1.00  0.00     0.186 HD
BRANCH  22  25
HETATM   25  N5  UNL     1      -4.939   0.726  -0.275  1.00  0.00    -0.367 N 
HETATM   26  C13 UNL     1      -5.537   0.025   0.835  1.00  0.00     0.126 C 
HETATM   27  C14 UNL     1      -6.836   0.008   0.059  1.00  0.00     0.040 C 
HETATM   28  C15 UNL     1      -6.246   1.230  -0.614  1.00  0.00     0.126 C 
ENDBRANCH  22  25
ENDBRANCH  15  17
ENDBRANCH  10  12
ENDBRANCH   6  10
TORSDOF 4
