REMARK  6 active torsions:
REMARK  status: ('A' for Active; 'I' for Inactive)
REMARK    1  A    between atoms: N1_1  and  S1_4 
REMARK    2  A    between atoms: S1_4  and  C1_6 
REMARK    3  A    between atoms: C4_9  and  N2_10 
REMARK    4  A    between atoms: N2_10  and  C5_12 
REMARK    5  A    between atoms: C7_18  and  N5_19 
REMARK    6  A    between atoms: N5_19  and  C8_21 
ROOT
HETATM    1  C5  UNL     1       0.119   0.058  -0.437  1.00  0.00     0.698 A 
HETATM    2  N3  UNL     1       0.845   0.435  -1.509  1.00  0.00    -0.187 N 
ATOM      3  H3  UNL     1       1.864   0.441  -1.455  1.00  0.00     0.185 HD
HETATM    4  C6  UNL     1       0.234   0.803  -2.647  1.00  0.00     0.215 A 
HETATM    5  N4  UNL     1      -1.100   0.787  -2.691  1.00  0.00    -0.187 N 
ATOM      6  H4  UNL     1      -1.566   1.066  -3.554  1.00  0.00     0.185 HD
HETATM    7  C7  UNL     1      -1.851   0.418  -1.643  1.00  0.00     0.698 A 
HETATM    8  N7  UNL     1      -1.223   0.054  -0.516  1.00  0.00    -0.022 N 
ATOM      9  H7  UNL     1      -1.772  -0.231   0.295  1.00  0.00     0.203 HD
ENDROOT
BRANCH   1  10
HETATM   10  N2  UNL     1       0.702  -0.298   0.663  1.00  0.00    -0.191 N 
ATOM     11  H2  UNL     1       0.157  -0.584   1.476  1.00  0.00     0.184 HD
BRANCH  10  12
HETATM   12  C4  UNL     1       2.120  -0.279   0.706  1.00  0.00     0.049 A 
HETATM   13  C3  UNL     1       2.775   0.923   0.782  1.00  0.00     0.031 A 
HETATM   14  C2  UNL     1       4.191   0.954   0.827  1.00  0.00     0.025 A 
HETATM   15  C1  UNL     1       4.792  -0.226   0.791  1.00  0.00     0.052 A 
HETATM   16  C14 UNL     1       4.213  -1.426   0.715  1.00  0.00     0.025 A 
HETATM   17  C13 UNL     1       2.799  -1.468   0.670  1.00  0.00     0.031 A 
BRANCH  15  18
HETATM   18  S1  UNL     1       6.552  -0.188   1.010  1.00  0.00     0.144 S 
HETATM   19  O1  UNL     1       6.406  -0.161  -0.564  1.00  0.00    -0.230 OA
BRANCH  18  20
HETATM   20  N1  UNL     1       7.391  -0.184   1.882  1.00  0.00    -0.346 N 
ATOM     21  H12 UNL     1       8.403  -0.162   2.008  1.00  0.00     0.166 HD
ATOM     22  H11 UNL     1       7.485  -0.201   2.897  1.00  0.00     0.166 HD
ENDBRANCH  18  20
ENDBRANCH  15  18
ENDBRANCH  10  12
ENDBRANCH   1  10
BRANCH   7  23
HETATM   23  N5  UNL     1      -3.145   0.404  -1.693  1.00  0.00    -0.190 N 
ATOM     24  H5  UNL     1      -3.620   0.681  -2.552  1.00  0.00     0.184 HD
BRANCH  23  25
HETATM   25  C8  UNL     1      -3.920   0.001  -0.546  1.00  0.00     0.064 A 
HETATM   26  C9  UNL     1      -4.237   0.909   0.443  1.00  0.00     0.033 A 
HETATM   27  C10 UNL     1      -4.978   0.538   1.545  1.00  0.00     0.019 A 
HETATM   28  C11 UNL     1      -5.413  -0.766   1.666  1.00  0.00     0.088 A 
HETATM   29  N6  UNL     1      -5.082  -1.613   0.683  1.00  0.00    -0.373 N 
HETATM   30  C12 UNL     1      -4.365  -1.290  -0.401  1.00  0.00     0.117 A 
ATOM     31  H6  UNL     1      -5.400  -2.578   0.766  1.00  0.00     0.164 HD
ENDBRANCH  23  25
ENDBRANCH   7  23
TORSDOF 6
