REMARK  8 active torsions:
REMARK  status: ('A' for Active; 'I' for Inactive)
REMARK    1  A    between atoms: N1_3  and  C4_5 
REMARK    2  A    between atoms: C4_5  and  C5_6 
REMARK    3  A    between atoms: C5_6  and  N2_7 
REMARK    4  A    between atoms: N2_7  and  C7_9 
REMARK    5  A    between atoms: C7_9  and  C8_10 
REMARK    6  A    between atoms: C8_10  and  C9_11 
REMARK    7  A    between atoms: C9_11  and  N3_12 
REMARK    8  A    between atoms: C11_19  and  N6_20 
ROOT
HETATM    1  C1  UNL     1      -4.741  -1.289  -0.194  1.00  0.00     0.037 C 
HETATM    2  C2  UNL     1      -4.282  -0.177  -0.143  1.00  0.00    -0.004 C 
HETATM    3  N1  UNL     1      -3.738   1.102  -0.109  1.00  0.00    -0.345 N 
HETATM    4  C3  UNL     1      -4.372   2.133   0.681  1.00  0.00     0.160 C 
ENDROOT
BRANCH   3   5
HETATM    5  C4  UNL     1      -2.542   1.484  -0.864  1.00  0.00     0.151 C 
BRANCH   5   6
HETATM    6  C5  UNL     1      -1.878   0.363  -1.567  1.00  0.00     0.141 C 
BRANCH   6   7
HETATM    7  N2  UNL     1      -1.306  -0.664  -0.762  1.00  0.00    -0.396 N 
HETATM    8  C6  UNL     1      -0.931  -1.795  -1.481  1.00  0.00     0.148 C 
BRANCH   7   9
HETATM    9  C7  UNL     1      -0.732  -0.229   0.406  1.00  0.00     0.059 C 
BRANCH   9  10
HETATM   10  C8  UNL     1       0.279  -1.108   1.117  1.00  0.00     0.064 C 
BRANCH  10  11
HETATM   11  C9  UNL     1       1.531  -1.346   0.312  1.00  0.00     0.127 C 
BRANCH  11  12
HETATM   12  N3  UNL     1       2.166  -0.129  -0.074  1.00  0.00    -0.369 N 
HETATM   13  C10 UNL     1       3.424   0.098   0.002  1.00  0.00     0.162 A 
HETATM   14  N4  UNL     1       4.446  -0.646   0.422  1.00  0.00    -0.278 N 
HETATM   15  S1  UNL     1       4.242   1.552  -0.470  1.00  0.00    -0.016 SA
HETATM   16  N5  UNL     1       5.630  -0.173   0.380  1.00  0.00    -0.278 N 
ATOM     17  H4  UNL     1       4.283  -1.589   0.775  1.00  0.00     0.189 HD
HETATM   18  C11 UNL     1       5.823   1.058  -0.081  1.00  0.00     0.160 A 
ATOM     19  H5  UNL     1       6.421  -0.734   0.697  1.00  0.00     0.189 HD
ATOM     20  H3  UNL     1       1.573   0.617  -0.438  1.00  0.00     0.161 HD
BRANCH  18  21
HETATM   21  N6  UNL     1       6.953   1.715  -0.201  1.00  0.00    -0.379 N 
ATOM     22  H62 UNL     1       7.901   1.419   0.032  1.00  0.00     0.158 HD
ATOM     23  H61 UNL     1       7.101   2.660  -0.555  1.00  0.00     0.158 HD
ENDBRANCH  18  21
ENDBRANCH  11  12
ENDBRANCH  10  11
ENDBRANCH   9  10
ENDBRANCH   7   9
ENDBRANCH   6   7
ENDBRANCH   5   6
ENDBRANCH   3   5
TORSDOF 8
