REMARK  7 active torsions:
REMARK  status: ('A' for Active; 'I' for Inactive)
REMARK    1  A    between atoms: C2_2  and  C3_3 
REMARK    2  A    between atoms: C3_3  and  O1_4 
REMARK    3  A    between atoms: O1_4  and  C4_5 
REMARK    4  A    between atoms: C6_8  and  N1_9 
REMARK       I    between atoms: N1_9  and  C7_11 
REMARK       I    between atoms: C7_11  and  N2_12 
REMARK    5  A    between atoms: C8_16  and  O3_17 
REMARK    6  A    between atoms: C10_19  and  N4_20 
REMARK    7  A    between atoms: N4_20  and  N5_22 
ROOT
HETATM    1  C4  UNL     1       0.954  -0.099   0.376  1.00  0.00     0.286 C 
HETATM    2  O2  UNL     1      -0.022   0.792   0.805  1.00  0.00    -0.357 OA
HETATM    3  C5  UNL     1      -0.953   1.097  -0.179  1.00  0.00     0.199 C 
HETATM    4  C6  UNL     1      -1.788  -0.104  -0.569  1.00  0.00     0.139 C 
HETATM    5  C8  UNL     1      -1.053  -1.376  -0.245  1.00  0.00     0.174 C 
HETATM    6  C10 UNL     1       0.409  -1.141  -0.567  1.00  0.00     0.186 C 
ENDROOT
BRANCH   4   7
HETATM    7  N1  UNL     1      -3.109  -0.060  -0.017  1.00  0.00    -0.356 N 
HETATM    8  C7  UNL     1      -3.974   1.010  -0.335  1.00  0.00     0.182 C 
HETATM    9  N2  UNL     1      -4.499   1.089  -1.532  1.00  0.00    -0.374 N 
HETATM   10  N3  UNL     1      -4.319   2.033   0.580  1.00  0.00    -0.064 NA
ATOM     11  H22 UNL     1      -4.250   0.352  -2.191  1.00  0.00     0.158 HD
ATOM     12  H21 UNL     1      -5.124   1.862  -1.762  1.00  0.00     0.158 HD
ATOM     13  H1  UNL     1      -3.425  -0.803   0.607  1.00  0.00     0.162 HD
ENDBRANCH   4   7
BRANCH   5  14
HETATM   14  O3  UNL     1      -1.254  -1.833   1.032  1.00  0.00    -0.386 OA
HETATM   15  C9  UNL     1      -1.822  -3.128   1.031  1.00  0.00     0.202 C 
ENDBRANCH   5  14
BRANCH   6  16
HETATM   16  N4  UNL     1       1.084  -2.405  -0.472  1.00  0.00    -0.310 N 
ATOM     17  H4  UNL     1       0.861  -3.060   0.277  1.00  0.00     0.182 HD
BRANCH  16  18
HETATM   18  N5  UNL     1       1.941  -2.681  -1.318  1.00  0.00    -0.253 N 
HETATM   19  N6  UNL     1       3.047  -3.115  -1.696  1.00  0.00    -0.331 N 
ATOM     20  H62 UNL     1       3.454  -3.387  -0.801  1.00  0.00     0.178 HD
ATOM     21  H61 UNL     1       3.755  -3.343  -2.394  1.00  0.00     0.178 HD
ATOM     22  H5  UNL     1       1.498  -2.396  -2.191  1.00  0.00     0.207 HD
ENDBRANCH  16  18
ENDBRANCH   6  16
BRANCH   1  23
HETATM   23  O1  UNL     1       2.040   0.580  -0.155  1.00  0.00    -0.359 OA
BRANCH  23  24
HETATM   24  C3  UNL     1       3.153   0.329   0.639  1.00  0.00     0.170 C 
BRANCH  24  25
HETATM   25  C2  UNL     1       4.383   1.036   0.124  1.00  0.00     0.022 C 
HETATM   26  C1  UNL     1       4.168   2.545   0.098  1.00  0.00     0.007 C 
ENDBRANCH  24  25
ENDBRANCH  23  24
ENDBRANCH   1  23
TORSDOF 7
