REMARK  9 active torsions:
REMARK  status: ('A' for Active; 'I' for Inactive)
REMARK    1  A    between atoms: O1_1  and  C1_3 
REMARK    2  A    between atoms: C1_3  and  C2_4 
REMARK    3  A    between atoms: C3_9  and  N3_10 
REMARK    4  A    between atoms: N3_10  and  C4_12 
REMARK    5  A    between atoms: C4_12  and  C5_13 
REMARK    6  A    between atoms: C5_13  and  C6_14 
REMARK    7  A    between atoms: C6_14  and  C7_15 
REMARK    8  A    between atoms: C7_15  and  C8_16 
REMARK    9  A    between atoms: C8_16  and  N4_17 
ROOT
HETATM    1  N3  UNL     1       2.726   1.287   1.026  1.00  0.00    -0.225 N 
ATOM      2  H3  UNL     1       2.492   2.209   0.659  1.00  0.00     0.177 HD
ENDROOT
BRANCH   1   3
HETATM    3  C3  UNL     1       3.852   0.743   0.703  1.00  0.00     0.694 A 
HETATM    4  N2  UNL     1       4.288  -0.445   1.102  1.00  0.00    -0.131 N 
HETATM    5  N1  UNL     1       5.480  -0.614   0.543  1.00  0.00    -0.272 N 
ATOM      6  H2  UNL     1       3.803  -1.099   1.717  1.00  0.00     0.205 HD
HETATM    7  C2  UNL     1       5.786   0.450  -0.194  1.00  0.00     0.136 A 
ATOM      8  H1  UNL     1       6.072  -1.436   0.661  1.00  0.00     0.189 HD
HETATM    9  N5  UNL     1       4.771   1.316  -0.105  1.00  0.00    -0.176 N 
ATOM     10  H5  UNL     1       4.704   2.228  -0.557  1.00  0.00     0.185 HD
BRANCH   7  11
HETATM   11  C1  UNL     1       7.023   0.674  -0.991  1.00  0.00     0.242 C 
BRANCH  11  12
HETATM   12  O1  UNL     1       6.737   0.218  -2.292  1.00  0.00    -0.393 OA
ATOM     13  H1  UNL     1       7.527   0.361  -2.801  1.00  0.00     0.209 HD
ENDBRANCH  11  12
ENDBRANCH   7  11
ENDBRANCH   1   3
BRANCH   1  14
HETATM   14  C4  UNL     1       1.795   0.614   1.896  1.00  0.00     0.138 C 
BRANCH  14  15
HETATM   15  C5  UNL     1       0.799  -0.134   1.007  1.00  0.00     0.020 C 
BRANCH  15  16
HETATM   16  C6  UNL     1       0.125   0.908   0.160  1.00  0.00     0.003 C 
BRANCH  16  17
HETATM   17  C7  UNL     1      -0.880   0.309  -0.787  1.00  0.00     0.030 C 
BRANCH  17  18
HETATM   18  C8  UNL     1      -1.926  -0.378  -0.011  1.00  0.00     0.272 C 
BRANCH  18  19
HETATM   19  N4  UNL     1      -2.982  -0.987  -0.755  1.00  0.00     0.088 N 
HETATM   20  C9  UNL     1      -3.864  -0.089  -1.428  1.00  0.00     0.272 C 
HETATM   21  C10 UNL     1      -4.836   0.605  -0.529  1.00  0.00     0.030 C 
HETATM   22  C11 UNL     1      -5.565  -0.410   0.304  1.00  0.00     0.003 C 
HETATM   23  C12 UNL     1      -4.510  -1.168   1.103  1.00  0.00     0.030 C 
HETATM   24  C13 UNL     1      -3.664  -1.918   0.112  1.00  0.00     0.272 C 
ENDBRANCH  18  19
ENDBRANCH  17  18
ENDBRANCH  16  17
ENDBRANCH  15  16
ENDBRANCH  14  15
ENDBRANCH   1  14
TORSDOF 9
