REMARK  9 active torsions:
REMARK  status: ('A' for Active; 'I' for Inactive)
REMARK    1  A    between atoms: N1_1  and  C1_5 
REMARK    2  A    between atoms: C1_5  and  C2_6 
REMARK    3  A    between atoms: C2_6  and  C3_7 
REMARK    4  A    between atoms: C3_7  and  N2_8 
REMARK    5  A    between atoms: N2_8  and  C4_10 
REMARK    6  A    between atoms: C5_13  and  S1_14 
REMARK    7  A    between atoms: S1_14  and  C6_15 
REMARK    8  A    between atoms: C6_15  and  C7_16 
REMARK    9  A    between atoms: C7_16  and  N4_17 
ROOT
HETATM    1  C4  UNL     1       2.206  -0.847  -0.490  1.00  0.00     0.694 A 
HETATM    2  N3  UNL     1       1.502  -1.151   0.611  1.00  0.00    -0.168 N 
ATOM      3  H3  UNL     1       1.889  -1.330   1.538  1.00  0.00     0.186 HD
HETATM    4  C5  UNL     1       0.192  -1.180   0.282  1.00  0.00     0.174 A 
HETATM    5  N5  UNL     1       0.140  -0.892  -1.014  1.00  0.00    -0.265 N 
ATOM      6  H5  UNL     1      -0.719  -0.837  -1.561  1.00  0.00     0.189 HD
HETATM    7  N6  UNL     1       1.372  -0.683  -1.507  1.00  0.00    -0.130 N 
ATOM      8  H6  UNL     1       1.616  -0.446  -2.469  1.00  0.00     0.205 HD
ENDROOT
BRANCH   1   9
HETATM    9  N2  UNL     1       3.483  -0.738  -0.517  1.00  0.00    -0.225 N 
ATOM     10  H2  UNL     1       3.989  -0.893   0.355  1.00  0.00     0.177 HD
BRANCH   9  11
HETATM   11  C3  UNL     1       4.247  -0.416  -1.677  1.00  0.00     0.140 C 
BRANCH  11  12
HETATM   12  C2  UNL     1       5.340   0.566  -1.331  1.00  0.00     0.047 C 
BRANCH  12  13
HETATM   13  C1  UNL     1       6.247  -0.067  -0.308  1.00  0.00     0.231 C 
BRANCH  13  14
HETATM   14  N1  UNL     1       5.551  -0.406   0.903  1.00  0.00    -0.079 N 
ATOM     15  H13 UNL     1       5.069   0.405   1.290  1.00  0.00     0.274 HD
ATOM     16  H12 UNL     1       4.743  -0.998   0.710  1.00  0.00     0.274 HD
ATOM     17  H11 UNL     1       6.165  -0.835   1.596  1.00  0.00     0.274 HD
ENDBRANCH  13  14
ENDBRANCH  12  13
ENDBRANCH  11  12
ENDBRANCH   9  11
ENDBRANCH   1   9
BRANCH   4  18
HETATM   18  S1  UNL     1      -1.145  -1.516   1.378  1.00  0.00    -0.087 SA
BRANCH  18  19
HETATM   19  C6  UNL     1      -1.727  -0.076   2.266  1.00  0.00     0.127 C 
BRANCH  19  20
HETATM   20  C7  UNL     1      -2.417   0.885   1.341  1.00  0.00     0.073 C 
BRANCH  20  21
HETATM   21  N4  UNL     1      -3.557   0.363   0.772  1.00  0.00    -0.373 N 
HETATM   22  C8  UNL     1      -3.632  -0.635  -0.183  1.00  0.00     0.063 C 
HETATM   23  C9  UNL     1      -5.061  -0.637  -0.729  1.00  0.00     0.046 C 
HETATM   24  C10 UNL     1      -5.828   0.280   0.155  1.00  0.00     0.025 C 
HETATM   25  C11 UNL     1      -4.847   0.730   1.224  1.00  0.00     0.127 C 
ENDBRANCH  20  21
ENDBRANCH  19  20
ENDBRANCH  18  19
ENDBRANCH   4  18
TORSDOF 9
