REMARK  22 active torsions:
REMARK  status: ('A' for Active; 'I' for Inactive)
REMARK    1  A    between atoms: C2_2  and  O2_4 
REMARK    2  A    between atoms: O2_4  and  C3_5 
REMARK    3  A    between atoms: C3_5  and  O3_7 
REMARK    4  A    between atoms: O3_7  and  C5_8 
REMARK    5  A    between atoms: C5_8  and  C6_10 
REMARK    6  A    between atoms: C7_11  and  C8_12 
REMARK    7  A    between atoms: C8_12  and  O5_13 
REMARK    8  A    between atoms: C8_12  and  O6_15 
REMARK    9  A    between atoms: O6_15  and  C9_16 
REMARK   10  A    between atoms: C9_16  and  C10_17 
REMARK   11  A    between atoms: C10_17  and  O7_18 
REMARK   12  A    between atoms: C10_17  and  C19_42 
REMARK   13  A    between atoms: O7_18  and  C11_19 
REMARK   14  A    between atoms: C11_19  and  C12_21 
REMARK   15  A    between atoms: C13_23  and  C14_24 
REMARK   16  A    between atoms: C16_30  and  N3_31 
REMARK   17  A    between atoms: C17_36  and  O10_37 
REMARK   18  A    between atoms: C18_39  and  O11_40 
REMARK   19  A    between atoms: C19_42  and  O13_44 
REMARK   20  A    between atoms: O13_44  and  C20_45 
REMARK   21  A    between atoms: C24_51  and  O14_52 
REMARK   22  A    between atoms: C25_54  and  O15_55 
ROOT
HETATM    1  C10 UNL     1      -1.065   0.799   0.939  1.00  0.00     0.256 C 
ENDROOT
BRANCH   1   2
HETATM    2  C9  UNL     1       0.152   0.045   0.428  1.00  0.00     0.214 C 
BRANCH   2   3
HETATM    3  O6  UNL     1       1.175  -0.043   1.331  1.00  0.00    -0.353 OA
BRANCH   3   4
HETATM    4  C8  UNL     1       2.222  -0.801   0.806  1.00  0.00     0.309 C 
BRANCH   4   5
HETATM    5  C7  UNL     1       3.470  -0.009   0.778  1.00  0.00     0.086 A 
HETATM    6  C6  UNL     1       4.759  -0.413   0.614  1.00  0.00     0.104 A 
HETATM    7  C25 UNL     1       5.571   0.713   0.711  1.00  0.00     0.135 A 
HETATM    8  C24 UNL     1       4.730   1.816   0.937  1.00  0.00     0.175 A 
HETATM    9  N5  UNL     1       3.481   1.355   0.972  1.00  0.00    -0.333 N 
ATOM     10  H5  UNL     1       2.651   1.929   1.121  1.00  0.00     0.168 HD
BRANCH   6  11
HETATM   11  C5  UNL     1       5.203  -1.787   0.367  1.00  0.00     0.300 C 
HETATM   12  O4  UNL     1       4.443  -2.784   0.281  1.00  0.00    -0.259 OA
BRANCH  11  13
HETATM   13  O3  UNL     1       6.557  -2.120   0.200  1.00  0.00    -0.285 OA
BRANCH  13  14
HETATM   14  C3  UNL     1       7.017  -3.430  -0.042  1.00  0.00     0.275 C 
HETATM   15  C4  UNL     1       7.774  -3.963   1.188  1.00  0.00     0.071 C 
BRANCH  14  16
HETATM   16  O2  UNL     1       7.765  -3.582  -1.201  1.00  0.00    -0.290 OA
BRANCH  16  17
HETATM   17  C2  UNL     1       7.310  -4.449  -2.197  1.00  0.00     0.257 C 
HETATM   18  C1  UNL     1       8.076  -4.650  -3.454  1.00  0.00     0.126 C 
HETATM   19  O1  UNL     1       6.237  -5.086  -2.057  1.00  0.00    -0.266 OA
ENDBRANCH  16  17
ENDBRANCH  14  16
ENDBRANCH  13  14
ENDBRANCH  11  13
ENDBRANCH   6  11
BRANCH   7  20
HETATM   20  O15 UNL     1       6.945   0.769   0.609  1.00  0.00    -0.356 OA
ATOM     21  H15 UNL     1       7.499   1.538   0.675  1.00  0.00     0.218 HD
ENDBRANCH   7  20
BRANCH   8  22
HETATM   22  O14 UNL     1       5.166   3.118   1.089  1.00  0.00    -0.344 OA
ATOM     23  H14 UNL     1       6.057   3.447   1.064  1.00  0.00     0.219 HD
ENDBRANCH   8  22
ENDBRANCH   4   5
BRANCH   4  24
HETATM   24  O5  UNL     1       2.289  -1.932   1.630  1.00  0.00    -0.366 OA
ATOM     25  H5  UNL     1       1.487  -2.441   1.648  1.00  0.00     0.213 HD
ENDBRANCH   4  24
ENDBRANCH   3   4
ENDBRANCH   2   3
ENDBRANCH   1   2
BRANCH   1  26
HETATM   26  O7  UNL     1      -2.061   0.818  -0.099  1.00  0.00    -0.298 OA
BRANCH  26  27
HETATM   27  C11 UNL     1      -3.280   0.198   0.097  1.00  0.00     0.321 C 
HETATM   28  O8  UNL     1      -3.459  -0.372   1.218  1.00  0.00    -0.257 OA
BRANCH  27  29
HETATM   29  C12 UNL     1      -4.337   0.169  -0.890  1.00  0.00     0.187 A 
HETATM   30  O9  UNL     1      -5.529  -0.417  -0.747  1.00  0.00    -0.296 OA
HETATM   31  C13 UNL     1      -6.256  -0.270  -1.809  1.00  0.00     0.143 A 
HETATM   32  C17 UNL     1      -5.560   0.450  -2.751  1.00  0.00     0.138 A 
HETATM   33  C18 UNL     1      -4.332   0.723  -2.145  1.00  0.00     0.142 A 
BRANCH  31  34
HETATM   34  C14 UNL     1      -7.624  -0.769  -2.043  1.00  0.00     0.116 A 
HETATM   35  N1  UNL     1      -8.378  -0.611  -3.137  1.00  0.00    -0.347 N 
HETATM   36  C15 UNL     1      -9.566  -1.229  -2.934  1.00  0.00     0.182 A 
ATOM     37  H1  UNL     1      -8.104  -0.109  -3.982  1.00  0.00     0.167 HD
HETATM   38  N2  UNL     1      -9.577  -1.783  -1.714  1.00  0.00    -0.336 N 
HETATM   39  C16 UNL     1      -8.395  -1.511  -1.154  1.00  0.00     0.150 A 
ATOM     40  H2  UNL     1     -10.341  -2.311  -1.293  1.00  0.00     0.168 HD
BRANCH  39  41
HETATM   41  N3  UNL     1      -7.936  -1.888   0.141  1.00  0.00    -0.290 N 
HETATM   42  N4  UNL     1      -7.919  -3.114   0.496  1.00  0.00    -0.344 N 
ATOM     43  H42 UNL     1      -8.241  -3.819  -0.167  1.00  0.00     0.176 HD
ATOM     44  H41 UNL     1      -7.590  -3.384   1.423  1.00  0.00     0.176 HD
ATOM     45  H3  UNL     1      -7.617  -1.170   0.792  1.00  0.00     0.188 HD
ENDBRANCH  39  41
ENDBRANCH  31  34
BRANCH  32  46
HETATM   46  O10 UNL     1      -5.910   0.857  -4.025  1.00  0.00    -0.356 OA
ATOM     47  H10 UNL     1      -5.429   1.355  -4.676  1.00  0.00     0.218 HD
ENDBRANCH  32  46
BRANCH  33  48
HETATM   48  O11 UNL     1      -3.313   1.425  -2.722  1.00  0.00    -0.355 OA
ATOM     49  H11 UNL     1      -3.310   1.809  -3.591  1.00  0.00     0.218 HD
ENDBRANCH  33  48
ENDBRANCH  27  29
ENDBRANCH  26  27
ENDBRANCH   1  26
BRANCH   1  50
HETATM   50  C19 UNL     1      -0.780   2.204   1.291  1.00  0.00     0.295 C 
HETATM   51  O12 UNL     1       0.041   2.480   2.206  1.00  0.00    -0.262 OA
BRANCH  50  52
HETATM   52  O13 UNL     1      -1.385   3.258   0.651  1.00  0.00    -0.289 OA
BRANCH  52  53
HETATM   53  C20 UNL     1      -1.083   4.554   1.019  1.00  0.00     0.147 C 
HETATM   54  C21 UNL     1      -1.763   5.173   1.962  1.00  0.00    -0.065 C 
HETATM   55  C22 UNL     1      -1.400   6.559   2.318  1.00  0.00     0.045 C 
HETATM   56  C23 UNL     1      -2.873   4.496   2.661  1.00  0.00     0.045 C 
ENDBRANCH  52  53
ENDBRANCH  50  52
ENDBRANCH   1  50
TORSDOF 22
