REMARK  17 active torsions:
REMARK  status: ('A' for Active; 'I' for Inactive)
REMARK    1  A    between atoms: C6_9  and  C7_10 
REMARK    2  A    between atoms: C8_11  and  O2_12 
REMARK    3  A    between atoms: C11_16  and  N3_17 
REMARK    4  A    between atoms: N4_19  and  N5_21 
REMARK       I    between atoms: N5_21  and  C12_23 
REMARK       I    between atoms: C12_23  and  N7_27 
REMARK    5  A    between atoms: N7_27  and  C13_29 
REMARK    6  A    between atoms: C13_29  and  C14_30 
REMARK    7  A    between atoms: C14_30  and  S1_31 
REMARK    8  A    between atoms: S1_31  and  S2_32 
REMARK    9  A    between atoms: S2_32  and  C15_33 
REMARK   10  A    between atoms: C15_33  and  C16_34 
REMARK   11  A    between atoms: C16_34  and  N8_35 
REMARK       I    between atoms: N8_35  and  C17_37 
REMARK   12  A    between atoms: C17_37  and  C18_39 
REMARK   13  A    between atoms: C19_40  and  N9_41 
REMARK   14  A    between atoms: N9_41  and  O4_43 
REMARK   15  A    between atoms: O4_43  and  C20_44 
REMARK   16  A    between atoms: C20_44  and  N10_45 
REMARK   17  A    between atoms: C22_50  and  N11_51 
ROOT
HETATM    1  C1  UNL     1      -6.935   3.452  -0.265  1.00  0.00     0.077 C 
HETATM    2  C2  UNL     1      -8.018   2.459  -0.055  1.00  0.00     0.065 A 
HETATM    3  O1  UNL     1      -9.278   2.895  -0.021  1.00  0.00    -0.301 OA
HETATM    4  C3  UNL     1     -10.100   1.959   0.148  1.00  0.00     0.180 A 
HETATM    5  C4  UNL     1     -11.551   1.992   0.240  1.00  0.00     0.127 C 
HETATM    6  N1  UNL     1     -12.715   2.035   0.300  1.00  0.00    -0.189 NA
HETATM    7  C5  UNL     1      -9.342   0.779   0.242  1.00  0.00     0.106 A 
HETATM    8  N2  UNL     1      -9.909  -0.465   0.557  1.00  0.00    -0.098 NA
HETATM    9  C6  UNL     1      -7.975   1.104   0.107  1.00  0.00     0.051 A 
ENDROOT
BRANCH   9  10
HETATM   10  C7  UNL     1      -6.819   0.258   0.436  1.00  0.00     0.084 A 
HETATM   11  C8  UNL     1      -5.609   0.656   0.943  1.00  0.00     0.106 A 
HETATM   12  C9  UNL     1      -4.713  -0.407   0.847  1.00  0.00     0.031 A 
HETATM   13  C10 UNL     1      -3.389  -0.496   1.181  1.00  0.00     0.047 A 
HETATM   14  C23 UNL     1      -5.356  -1.481   0.283  1.00  0.00     0.081 A 
HETATM   15  C11 UNL     1      -2.667  -1.646   0.968  1.00  0.00     0.052 A 
HETATM   16  C21 UNL     1      -3.296  -2.716   0.416  1.00  0.00     0.069 A 
HETATM   17  C22 UNL     1      -4.680  -2.665   0.057  1.00  0.00     0.132 A 
HETATM   18  N12 UNL     1      -6.615  -1.046   0.040  1.00  0.00    -0.345 N 
HETATM   19  C24 UNL     1      -7.527  -1.791  -0.805  1.00  0.00     0.156 C 
BRANCH  11  20
HETATM   20  O2  UNL     1      -5.235   1.870   1.491  1.00  0.00    -0.357 OA
ATOM     21  H2  UNL     1      -4.397   2.146   1.842  1.00  0.00     0.217 HD
ENDBRANCH  11  20
BRANCH  15  22
HETATM   22  N3  UNL     1      -1.271  -1.715   1.315  1.00  0.00    -0.286 N 
HETATM   23  N4  UNL     1      -0.488  -0.832   0.831  1.00  0.00    -0.228 N 
ATOM     24  H4  UNL     1       0.500  -0.884   1.078  1.00  0.00     0.209 HD
ATOM     25  H3  UNL     1      -0.919  -2.449   1.930  1.00  0.00     0.188 HD
BRANCH  23  26
HETATM   26  N5  UNL     1      -0.895   0.198  -0.013  1.00  0.00    -0.118 N 
HETATM   27  C12 UNL     1      -0.459   1.543   0.079  1.00  0.00     0.687 C 
HETATM   28  N6  UNL     1      -1.333   2.503   0.126  1.00  0.00    -0.234 N 
HETATM   29  N7  UNL     1       0.934   1.816   0.117  1.00  0.00    -0.224 N 
ATOM     30  H62 UNL     1      -2.334   2.307   0.099  1.00  0.00     0.174 HD
ATOM     31  H61 UNL     1      -1.019   3.471   0.192  1.00  0.00     0.174 HD
ATOM     32  H7  UNL     1       1.336   2.250   0.948  1.00  0.00     0.177 HD
ATOM     33  H5  UNL     1      -1.557  -0.033  -0.754  1.00  0.00     0.207 HD
BRANCH  29  34
HETATM   34  C13 UNL     1       1.796   1.491  -1.000  1.00  0.00     0.149 C 
BRANCH  34  35
HETATM   35  C14 UNL     1       3.197   1.958  -0.652  1.00  0.00     0.106 C 
BRANCH  35  36
HETATM   36  S1  UNL     1       4.355   1.591  -1.989  1.00  0.00    -0.096 SA
BRANCH  36  37
HETATM   37  S2  UNL     1       4.623  -0.524  -2.197  1.00  0.00    -0.096 SA
BRANCH  37  38
HETATM   38  C15 UNL     1       6.023  -1.056  -1.157  1.00  0.00     0.105 C 
BRANCH  38  39
HETATM   39  C16 UNL     1       6.665   0.133  -0.517  1.00  0.00     0.134 C 
BRANCH  39  40
HETATM   40  N8  UNL     1       7.801  -0.239   0.278  1.00  0.00    -0.349 N 
HETATM   41  C17 UNL     1       8.928  -0.850  -0.319  1.00  0.00     0.298 C 
HETATM   42  O3  UNL     1       9.027  -1.111  -1.544  1.00  0.00    -0.258 OA
ATOM     43  H8  UNL     1       7.795  -0.061   1.282  1.00  0.00     0.163 HD
BRANCH  41  44
HETATM   44  C18 UNL     1      10.084  -1.224   0.489  1.00  0.00     0.019 C 
HETATM   45  C19 UNL     1      11.053  -1.541   1.133  1.00  0.00     0.042 C 
BRANCH  45  46
HETATM   46  N9  UNL     1      12.196  -1.906   1.851  1.00  0.00    -0.221 N 
ATOM     47  H9  UNL     1      12.118  -2.452   2.709  1.00  0.00     0.205 HD
BRANCH  46  48
HETATM   48  O4  UNL     1      13.425  -1.516   1.380  1.00  0.00    -0.245 OA
BRANCH  48  49
HETATM   49  C20 UNL     1      13.229  -1.007   0.103  1.00  0.00     0.430 C 
BRANCH  49  50
HETATM   50  N10 UNL     1      14.443  -0.562  -0.511  1.00  0.00    -0.056 N 
ATOM     51 3H10 UNL     1      14.925   0.114   0.081  1.00  0.00     0.276 HD
ATOM     52 2H10 UNL     1      15.142  -1.305  -0.518  1.00  0.00     0.276 HD
ATOM     53 1H10 UNL     1      14.299  -0.188  -1.449  1.00  0.00     0.276 HD
ENDBRANCH  49  50
ENDBRANCH  48  49
ENDBRANCH  46  48
ENDBRANCH  45  46
ENDBRANCH  41  44
ENDBRANCH  39  40
ENDBRANCH  38  39
ENDBRANCH  37  38
ENDBRANCH  36  37
ENDBRANCH  35  36
ENDBRANCH  34  35
ENDBRANCH  29  34
ENDBRANCH  23  26
ENDBRANCH  15  22
BRANCH  17  54
HETATM   54  N11 UNL     1      -5.207  -3.841  -0.451  1.00  0.00    -0.113 N 
HETATM   55  O5  UNL     1      -4.398  -4.530  -1.190  1.00  0.00    -0.532 OA
HETATM   56  O6  UNL     1      -6.412  -4.404  -0.330  1.00  0.00    -0.532 OA
ENDBRANCH  17  54
ENDBRANCH   9  10
TORSDOF 17
