REMARK  3 active torsions:
REMARK  status: ('A' for Active; 'I' for Inactive)
REMARK    1  A    between atoms: C2_2  and  C3_3 
REMARK    2  A    between atoms: C3_3  and  O1_5 
REMARK    3  A    between atoms: C3_3  and  C5_7 
ROOT
HETATM    1  C5  UNL     1      -0.165  -0.483   0.772  1.00  0.00     0.016 C 
HETATM    2  C6  UNL     1      -0.360  -0.747   2.251  1.00  0.00     0.023 C 
HETATM    3  C7  UNL     1       0.262  -1.816   0.179  1.00  0.00     0.022 C 
HETATM    4  C8  UNL     1       1.306  -1.507  -0.851  1.00  0.00     0.044 C 
HETATM    5  C9  UNL     1       1.855  -0.212  -0.397  1.00  0.00    -0.006 A 
HETATM    6  C10 UNL     1       1.019   0.372   0.547  1.00  0.00    -0.018 A 
HETATM    7  C11 UNL     1       1.438   1.576   1.057  1.00  0.00     0.034 A 
HETATM    8 BR1  UNL     1       0.436   2.523   2.387  1.00  0.00    -0.049 Br
HETATM    9  C12 UNL     1       2.615   2.143   0.639  1.00  0.00     0.109 A 
HETATM   10  N1  UNL     1       3.386   1.564  -0.260  1.00  0.00    -0.351 N 
ATOM     11  H1  UNL     1       4.254   2.018  -0.546  1.00  0.00     0.166 HD
HETATM   12  C13 UNL     1       3.044   0.384  -0.805  1.00  0.00     0.105 A 
HETATM   13  N2  UNL     1       3.810  -0.186  -1.694  1.00  0.00    -0.385 N 
ATOM     14  H21 UNL     1       4.682   0.251  -1.993  1.00  0.00     0.157 HD
ATOM     15  H22 UNL     1       3.550  -1.082  -2.108  1.00  0.00     0.157 HD
ENDROOT
BRANCH   1  16
HETATM   16  C3  UNL     1      -1.439   0.015   0.176  1.00  0.00     0.065 C 
HETATM   17  C4  UNL     1      -2.565  -1.026   0.324  1.00  0.00     0.047 C 
BRANCH  16  18
HETATM   18  C2  UNL     1      -1.381   0.322  -1.290  1.00  0.00     0.034 C 
HETATM   19  C1  UNL     1      -2.743   0.887  -1.716  1.00  0.00     0.008 C 
ENDBRANCH  16  18
BRANCH  16  20
HETATM   20  O1  UNL     1      -1.931   1.151   0.808  1.00  0.00    -0.389 OA
ATOM     21  H1  UNL     1      -1.968   0.956   1.737  1.00  0.00     0.210 HD
ENDBRANCH  16  20
ENDBRANCH   1  16
TORSDOF 3
