REMARK  4 active torsions:
REMARK  status: ('A' for Active; 'I' for Inactive)
REMARK    1  A    between atoms: O1_1  and  C1_3 
REMARK    2  A    between atoms: C5_7  and  N1_8 
REMARK    3  A    between atoms: C7_13  and  N3_14 
REMARK    4  A    between atoms: N3_14  and  C8_16 
ROOT
HETATM    1  N1  UNL     1      -2.209   0.101  -0.528  1.00  0.00    -0.367 N 
ATOM      2  H1  UNL     1      -2.102   1.085  -0.282  1.00  0.00     0.161 HD
HETATM    3  C6  UNL     1      -1.091  -0.476  -0.471  1.00  0.00     0.140 A 
HETATM    4  N2  UNL     1       0.026   0.255  -0.112  1.00  0.00    -0.175 N 
ATOM      5  H2  UNL     1      -0.095   1.246   0.096  1.00  0.00     0.186 HD
HETATM    6  C7  UNL     1       1.249  -0.260  -0.022  1.00  0.00     0.679 A 
HETATM    7  N4  UNL     1       1.485  -1.555  -0.281  1.00  0.00    -0.200 N 
ATOM      8  H4  UNL     1       2.426  -1.941  -0.210  1.00  0.00     0.183 HD
HETATM    9  C13 UNL     1       0.449  -2.326  -0.635  1.00  0.00     0.133 A 
HETATM   10  C14 UNL     1      -0.840  -1.801  -0.733  1.00  0.00     0.094 A 
HETATM   11 CL1  UNL     1      -2.154  -2.871  -1.204  1.00  0.00    -0.079 Cl
ENDROOT
BRANCH   1  12
HETATM   12  C5  UNL     1      -3.527  -0.165  -0.814  1.00  0.00     0.111 C 
HETATM   13  C1  UNL     1      -4.206  -0.711   0.440  1.00  0.00     0.140 C 
HETATM   14  C2  UNL     1      -5.335   0.234   0.781  1.00  0.00     0.034 C 
HETATM   15  C3  UNL     1      -5.629   0.965  -0.528  1.00  0.00     0.005 C 
HETATM   16  C4  UNL     1      -4.273   1.164  -1.116  1.00  0.00     0.028 C 
BRANCH  13  17
HETATM   17  O1  UNL     1      -3.333  -0.738   1.530  1.00  0.00    -0.394 OA
ATOM     18  H1  UNL     1      -2.623  -1.332   1.316  1.00  0.00     0.210 HD
ENDBRANCH  13  17
ENDBRANCH   1  12
BRANCH   6  19
HETATM   19  N3  UNL     1       2.219   0.483   0.314  1.00  0.00    -0.221 N 
ATOM     20  H3  UNL     1       1.999   1.461   0.501  1.00  0.00     0.178 HD
BRANCH  19  21
HETATM   21  C8  UNL     1       3.588   0.100   0.459  1.00  0.00     0.099 C 
HETATM   22  C9  UNL     1       4.305  -0.143  -0.815  1.00  0.00     0.026 C 
HETATM   23  C10 UNL     1       5.554   0.702  -0.793  1.00  0.00     0.002 C 
HETATM   24  C11 UNL     1       5.387   1.695   0.311  1.00  0.00     0.002 C 
HETATM   25  C12 UNL     1       4.391   1.063   1.286  1.00  0.00     0.026 C 
ENDBRANCH  19  21
ENDBRANCH   6  19
TORSDOF 4
