REMARK  4 active torsions:
REMARK  status: ('A' for Active; 'I' for Inactive)
REMARK    1  A    between atoms: C2_2  and  C3_3 
REMARK    2  A    between atoms: C3_3  and  N1_4 
REMARK    3  A    between atoms: N1_4  and  C4_7 
REMARK    4  A    between atoms: C4_7  and  C5_8 
ROOT
HETATM    1  C4  UNL     1       0.065   0.913   0.894  1.00  0.00     0.238 C 
ENDROOT
BRANCH   1   2
HETATM    2  N1  UNL     1       1.209   0.087   1.166  1.00  0.00    -0.072 N 
ATOM      3  H12 UNL     1       0.967  -0.903   1.140  1.00  0.00     0.277 HD
ATOM      4  H11 UNL     1       1.493   0.156   2.143  1.00  0.00     0.277 HD
BRANCH   2   5
HETATM    5  C3  UNL     1       2.319   0.386   0.267  1.00  0.00     0.259 C 
BRANCH   5   6
HETATM    6  C2  UNL     1       3.527  -0.374   0.667  1.00  0.00    -0.010 C 
HETATM    7  C1  UNL     1       4.054  -1.212  -0.217  1.00  0.00     0.008 C 
ENDBRANCH   5   6
ENDBRANCH   2   5
ENDBRANCH   1   2
BRANCH   1   8
HETATM    8  C5  UNL     1      -0.577   0.583  -0.381  1.00  0.00     0.019 C 
HETATM    9  C6  UNL     1      -1.167  -0.777  -0.609  1.00  0.00    -0.008 C 
HETATM   10  C7  UNL     1      -2.215  -0.940   0.455  1.00  0.00     0.005 C 
HETATM   11  C10 UNL     1      -2.018  -0.068  -1.691  1.00  0.00     0.010 C 
HETATM   12  C8  UNL     1      -2.752   0.507   0.462  1.00  0.00     0.005 C 
HETATM   13  C9  UNL     1      -1.957   1.083  -0.663  1.00  0.00    -0.008 C 
ENDBRANCH   1   8
TORSDOF 4
