REMARK  4 active torsions:
REMARK  status: ('A' for Active; 'I' for Inactive)
REMARK    1  A    between atoms: C2_2  and  C3_3 
REMARK    2  A    between atoms: C3_3  and  N1_4 
REMARK    3  A    between atoms: N1_4  and  C4_7 
REMARK    4  A    between atoms: C4_7  and  C5_8 
ROOT
HETATM    1  C4  UNL     1       0.098  -0.268   0.347  1.00  0.00     0.289 C 
ENDROOT
BRANCH   1   2
HETATM    2  N1  UNL     1      -0.501  -1.057  -0.695  1.00  0.00    -0.067 N 
ATOM      3  H12 UNL     1       0.033  -1.899  -0.910  1.00  0.00     0.277 HD
ATOM      4  H11 UNL     1      -0.435  -0.617  -1.613  1.00  0.00     0.277 HD
BRANCH   2   5
HETATM    5  C3  UNL     1      -1.871  -1.342  -0.304  1.00  0.00     0.259 C 
BRANCH   5   6
HETATM    6  C2  UNL     1      -2.686  -0.098  -0.330  1.00  0.00    -0.010 C 
HETATM    7  C1  UNL     1      -3.300   0.395   0.729  1.00  0.00     0.008 C 
ENDBRANCH   5   6
ENDBRANCH   2   5
ENDBRANCH   1   2
BRANCH   1   8
HETATM    8  C5  UNL     1       1.513   0.073   0.020  1.00  0.00     0.034 A 
HETATM    9  C6  UNL     1       2.040   1.331  -0.175  1.00  0.00     0.028 A 
HETATM   10  C7  UNL     1       3.400   1.212  -0.470  1.00  0.00     0.019 A 
HETATM   11  C8  UNL     1       3.656  -0.140  -0.442  1.00  0.00     0.088 A 
HETATM   12  N2  UNL     1       2.511  -0.789  -0.147  1.00  0.00    -0.368 N 
ATOM     13  H2  UNL     1       2.423  -1.802  -0.064  1.00  0.00     0.165 HD
ENDBRANCH   1   8
TORSDOF 4
