REMARK  4 active torsions:
REMARK  status: ('A' for Active; 'I' for Inactive)
REMARK    1  A    between atoms: C2_2  and  C3_3 
REMARK    2  A    between atoms: C3_3  and  O1_4 
REMARK    3  A    between atoms: O1_4  and  C4_5 
REMARK    4  A    between atoms: C4_5  and  C5_6 
ROOT
HETATM    1  C5  UNL     1      -1.182   0.515   0.113  1.00  0.00    -0.018 A 
HETATM    2  C6  UNL     1      -2.193  -0.094   0.858  1.00  0.00     0.027 A 
HETATM    3  C7  UNL     1      -3.043  -0.767   0.016  1.00  0.00     0.088 A 
HETATM    4  N1  UNL     1      -2.583  -0.590  -1.239  1.00  0.00    -0.375 N 
ATOM      5  H1  UNL     1      -3.005  -0.971  -2.086  1.00  0.00     0.164 HD
HETATM    6  C8  UNL     1      -1.465   0.179  -1.190  1.00  0.00     0.096 A 
ENDROOT
BRANCH   1   7
HETATM    7  C4  UNL     1      -0.082   1.339   0.657  1.00  0.00     0.208 C 
BRANCH   7   8
HETATM    8  O1  UNL     1       1.021   1.380  -0.178  1.00  0.00    -0.383 OA
BRANCH   8   9
HETATM    9  C3  UNL     1       1.620   0.167  -0.419  1.00  0.00     0.194 C 
BRANCH   9  10
HETATM   10  C2  UNL     1       2.100  -0.460   0.861  1.00  0.00    -0.011 C 
HETATM   11  C1  UNL     1       3.373  -0.740   1.049  1.00  0.00     0.009 C 
ENDBRANCH   9  10
ENDBRANCH   8   9
ENDBRANCH   7   8
ENDBRANCH   1   7
TORSDOF 4
