REMARK  4 active torsions:
REMARK  status: ('A' for Active; 'I' for Inactive)
REMARK    1  A    between atoms: C2_2  and  C3_3 
REMARK    2  A    between atoms: C3_3  and  C4_4 
REMARK    3  A    between atoms: C4_4  and  N1_5 
REMARK    4  A    between atoms: N1_5  and  C5_7 
ROOT
HETATM    1  N1  UNL     1      -0.442  -0.897   0.035  1.00  0.00    -0.394 N 
ATOM      2  H1  UNL     1      -0.974  -1.757   0.167  1.00  0.00     0.159 HD
ENDROOT
BRANCH   1   3
HETATM    3  C4  UNL     1       0.926  -0.965  -0.262  1.00  0.00     0.060 C 
BRANCH   3   4
HETATM    4  C3  UNL     1       1.873  -0.485   0.806  1.00  0.00     0.070 C 
BRANCH   4   5
HETATM    5  C2  UNL     1       3.263  -0.670   0.280  1.00  0.00    -0.032 C 
HETATM    6  C1  UNL     1       4.111   0.328   0.100  1.00  0.00     0.007 C 
ENDBRANCH   4   5
ENDBRANCH   3   4
ENDBRANCH   1   3
BRANCH   1   7
HETATM    7  C5  UNL     1      -1.086   0.343   0.153  1.00  0.00     0.109 C 
HETATM    8  C6  UNL     1      -1.167   1.276  -1.005  1.00  0.00     0.034 C 
HETATM    9  C7  UNL     1      -2.626   1.480  -0.621  1.00  0.00     0.038 C 
HETATM   10  C8  UNL     1      -2.582   0.141   0.026  1.00  0.00    -0.067 C 
HETATM   11  C9  UNL     1      -3.423  -0.829   0.368  1.00  0.00     0.016 C 
ENDBRANCH   1   7
TORSDOF 4
