REMARK  1 active torsions:
REMARK  status: ('A' for Active; 'I' for Inactive)
REMARK    1  A    between atoms: C2_2  and  N1_4 
ROOT
HETATM    1  N1  UNL     1      -1.349   0.742  -0.193  1.00  0.00    -0.366 N 
ATOM      2  H1  UNL     1      -1.302   1.595  -0.750  1.00  0.00     0.162 HD
HETATM    3  C4  UNL     1      -0.322   0.440   0.503  1.00  0.00     0.152 C 
HETATM    4  N2  UNL     1      -0.076  -0.657   1.366  1.00  0.00    -0.263 N 
ATOM      5  H2  UNL     1      -0.796  -1.118   1.922  1.00  0.00     0.180 HD
HETATM    6  S1  UNL     1       1.582  -1.119   1.366  1.00  0.00     0.260 S 
HETATM    7  O1  UNL     1       2.025  -1.245   2.792  1.00  0.00    -0.203 OA
HETATM    8  O2  UNL     1       1.762  -2.418   0.694  1.00  0.00    -0.203 OA
HETATM    9  C5  UNL     1       2.427   0.145   0.493  1.00  0.00     0.217 A 
HETATM   10  S2  UNL     1       1.167   1.469   0.516  1.00  0.00    -0.056 SA
HETATM   11  C6  UNL     1       3.739   0.518   0.898  1.00  0.00     0.072 A 
HETATM   12 CL1  UNL     1       4.455   1.090   2.423  1.00  0.00    -0.084 Cl
HETATM   13  C7  UNL     1       4.255   0.293  -0.256  1.00  0.00     0.074 A 
HETATM   14 CL2  UNL     1       5.931   0.459  -0.837  1.00  0.00    -0.084 Cl
HETATM   15  C8  UNL     1       2.984  -0.121  -0.824  1.00  0.00     0.190 A 
HETATM   16 CL3  UNL     1       2.305   0.971  -2.058  1.00  0.00    -0.092 Cl
HETATM   17 CL4  UNL     1       3.082  -1.810  -1.372  1.00  0.00    -0.092 Cl
ENDROOT
BRANCH   1  18
HETATM   18  C2  UNL     1      -2.560  -0.016  -0.257  1.00  0.00     0.075 C 
HETATM   19  C1  UNL     1      -3.485   0.678  -1.256  1.00  0.00     0.032 C 
HETATM   20  C3  UNL     1      -3.240   0.009   1.104  1.00  0.00     0.032 C 
ENDBRANCH   1  18
TORSDOF 1
