REMARK  2 active torsions:
REMARK  status: ('A' for Active; 'I' for Inactive)
REMARK    1  A    between atoms: O1_1  and  C1_3 
REMARK    2  A    between atoms: C1_3  and  C2_4 
ROOT
HETATM    1  C1  UNL     1       0.112  -0.137  -0.398  1.00  0.00     0.230 C 
HETATM    2  N1  UNL     1      -0.243  -1.459  -0.044  1.00  0.00    -0.335 N 
ATOM      3  H1  UNL     1       0.165  -2.255  -0.534  1.00  0.00     0.164 HD
HETATM    4  C3  UNL     1      -1.157  -1.653   0.983  1.00  0.00     0.142 C 
HETATM    5  S1  UNL     1      -2.055  -2.912   1.443  1.00  0.00    -0.052 SA
HETATM    6  S2  UNL     1      -1.196  -0.058   1.848  1.00  0.00    -0.058 SA
HETATM    7  C4  UNL     1      -0.481   0.846   0.481  1.00  0.00     0.070 C 
HETATM    8  C5  UNL     1      -0.524   2.139   0.355  1.00  0.00     0.075 C 
HETATM    9 BR1  UNL     1       0.287   2.945  -1.184  1.00  0.00    -0.042 Br
HETATM   10 BR2  UNL     1      -1.368   3.236   1.657  1.00  0.00    -0.042 Br
ENDROOT
BRANCH   1  11
HETATM   11  O1  UNL     1      -0.183   0.133  -1.755  1.00  0.00    -0.362 OA
ATOM     12  H1  UNL     1      -1.130   0.089  -1.824  1.00  0.00     0.213 HD
ENDBRANCH   1  11
BRANCH   1  13
HETATM   13  C2  UNL     1       1.645  -0.066  -0.287  1.00  0.00     0.413 C 
HETATM   14  F1  UNL     1       1.968  -0.325   1.029  1.00  0.00    -0.209 F 
HETATM   15  F2  UNL     1       2.097  -1.163  -1.035  1.00  0.00    -0.209 F 
ENDBRANCH   1  13
TORSDOF 2
