REMARK  2 active torsions:
REMARK  status: ('A' for Active; 'I' for Inactive)
REMARK    1  A    between atoms: C7_11  and  C8_12 
REMARK    2  A    between atoms: C11_16  and  C12_17 
ROOT
HETATM    1  C1  UNL     1      -4.058   1.728   0.063  1.00  0.00     0.161 C 
HETATM    2  N1  UNL     1      -3.005   0.754  -0.053  1.00  0.00    -0.303 N 
HETATM    3  C2  UNL     1      -3.264  -0.623  -0.339  1.00  0.00     0.252 C 
HETATM    4  O1  UNL     1      -4.343  -0.958  -0.873  1.00  0.00    -0.270 OA
HETATM    5  C3  UNL     1      -2.277  -1.677  -0.015  1.00  0.00     0.105 C 
HETATM    6  C4  UNL     1      -2.403  -1.997   1.460  1.00  0.00     0.048 C 
HETATM    7  C5  UNL     1      -2.617  -2.926  -0.780  1.00  0.00     0.048 C 
HETATM    8  N2  UNL     1      -0.975  -1.172  -0.290  1.00  0.00    -0.368 N 
ATOM      9  H2  UNL     1      -0.265  -1.784  -0.693  1.00  0.00     0.161 HD
HETATM   10  C6  UNL     1      -0.667   0.175  -0.005  1.00  0.00     0.106 A 
HETATM   11  C7  UNL     1       0.523   0.845   0.208  1.00  0.00     0.105 A 
HETATM   12  N4  UNL     1       0.239   2.117   0.437  1.00  0.00    -0.293 N 
ATOM     13  H4  UNL     1       0.934   2.840   0.626  1.00  0.00     0.187 HD
HETATM   14  N5  UNL     1      -1.073   2.327   0.387  1.00  0.00    -0.278 N 
HETATM   15  C15 UNL     1      -1.752   3.589   0.586  1.00  0.00     0.179 C 
HETATM   16  C16 UNL     1      -1.656   1.148   0.116  1.00  0.00     0.155 A 
ENDROOT
BRANCH  11  17
HETATM   17  C8  UNL     1       1.851   0.215   0.176  1.00  0.00     0.067 A 
HETATM   18  C9  UNL     1       2.046  -0.987   0.821  1.00  0.00     0.075 A 
HETATM   19  C10 UNL     1       3.291  -1.595   0.801  1.00  0.00     0.131 A 
HETATM   20  F1  UNL     1       3.492  -2.786   1.439  1.00  0.00    -0.205 F 
HETATM   21  C11 UNL     1       4.300  -0.965   0.128  1.00  0.00     0.060 A 
HETATM   22  C13 UNL     1       4.044   0.237  -0.499  1.00  0.00     0.106 A 
HETATM   23  N3  UNL     1       2.833   0.820  -0.475  1.00  0.00    -0.358 N 
HETATM   24  C14 UNL     1       2.600   2.093  -1.150  1.00  0.00     0.156 C 
BRANCH  21  25
HETATM   25  C12 UNL     1       5.651  -1.542   0.058  1.00  0.00     0.391 C 
HETATM   26  F2  UNL     1       5.624  -2.767  -0.567  1.00  0.00    -0.209 F 
HETATM   27  F3  UNL     1       6.217  -1.659   1.334  1.00  0.00    -0.209 F 
ENDBRANCH  21  25
ENDBRANCH  11  17
TORSDOF 2
