REMARK  7 active torsions:
REMARK  status: ('A' for Active; 'I' for Inactive)
REMARK    1  A    between atoms: C2_2  and  C3_3 
REMARK    2  A    between atoms: C3_3  and  N1_4 
REMARK    3  A    between atoms: N5_10  and  N6_12 
REMARK    4  A    between atoms: N6_12  and  C4_14 
REMARK    5  A    between atoms: C4_14  and  C5_18 
REMARK       I    between atoms: C5_18  and  N8_20 
REMARK    6  A    between atoms: N8_20  and  C6_22 
REMARK    7  A    between atoms: C9_31  and  N12_32 
ROOT
HETATM    1  C4  UNL     1       0.844   0.065   0.037  1.00  0.00     0.183 C 
HETATM    2  N7  UNL     1       0.621   0.670  -1.074  1.00  0.00    -0.380 N 
ATOM      3  H71 UNL     1      -0.325   0.999  -1.268  1.00  0.00     0.158 HD
ATOM      4  H72 UNL     1       1.369   0.822  -1.750  1.00  0.00     0.158 HD
ENDROOT
BRANCH   1   5
HETATM    5  N6  UNL     1       2.158  -0.392   0.307  1.00  0.00    -0.281 N 
ATOM      6  H6  UNL     1       2.312  -1.367   0.564  1.00  0.00     0.188 HD
BRANCH   5   7
HETATM    7  N5  UNL     1       3.241   0.480   0.224  1.00  0.00    -0.306 N 
HETATM    8  C2  UNL     1       4.380   0.159  -0.247  1.00  0.00     0.021 C 
HETATM    9  C1  UNL     1       4.628  -1.205  -0.750  1.00  0.00     0.066 C 
ATOM     10  H5  UNL     1       3.114   1.434   0.561  1.00  0.00     0.186 HD
BRANCH   8  11
HETATM   11  C3  UNL     1       5.465   1.157  -0.292  1.00  0.00     0.225 C 
BRANCH  11  12
HETATM   12  N1  UNL     1       6.564   0.641   0.506  1.00  0.00    -0.203 N 
HETATM   13  N2  UNL     1       6.927   0.720   1.767  1.00  0.00    -0.207 N 
HETATM   14  N3  UNL     1       8.010  -0.040   1.547  1.00  0.00     0.012 NA
ATOM     15  H2  UNL     1       6.538   1.179   2.590  1.00  0.00     0.207 HD
HETATM   16  N4  UNL     1       7.628  -0.107   0.282  1.00  0.00    -0.207 N 
ATOM     17  H4  UNL     1       8.009  -0.562  -0.548  1.00  0.00     0.207 HD
ENDBRANCH  11  12
ENDBRANCH   8  11
ENDBRANCH   5   7
ENDBRANCH   1   5
BRANCH   1  18
HETATM   18  C5  UNL     1      -0.232  -0.154   1.010  1.00  0.00     0.292 C 
HETATM   19  O1  UNL     1       0.027  -0.746   2.076  1.00  0.00    -0.264 OA
HETATM   20  N8  UNL     1      -1.556   0.284   0.783  1.00  0.00    -0.304 N 
ATOM     21  H8  UNL     1      -1.880   1.175   1.159  1.00  0.00     0.171 HD
BRANCH  20  22
HETATM   22  C6  UNL     1      -2.344  -0.459   0.095  1.00  0.00     0.142 A 
HETATM   23  N9  UNL     1      -1.912  -1.632  -0.398  1.00  0.00    -0.292 N 
HETATM   24  C7  UNL     1      -2.781  -2.368  -1.110  1.00  0.00     0.327 A 
ATOM     25  H9  UNL     1      -0.957  -1.952  -0.237  1.00  0.00     0.172 HD
HETATM   26  O2  UNL     1      -2.394  -3.473  -1.581  1.00  0.00    -0.247 OA
HETATM   27  N10 UNL     1      -4.049  -1.988  -1.350  1.00  0.00    -0.295 N 
HETATM   28  C8  UNL     1      -4.519  -0.816  -0.871  1.00  0.00     0.150 A 
ATOM     29  H10 UNL     1      -4.661  -2.591  -1.899  1.00  0.00     0.172 HD
HETATM   30  N11 UNL     1      -5.849  -0.366  -1.094  1.00  0.00    -0.080 NA
HETATM   31  C9  UNL     1      -3.659  -0.030  -0.134  1.00  0.00     0.116 A 
BRANCH  31  32
HETATM   32  N12 UNL     1      -4.125   1.191   0.372  1.00  0.00    -0.384 N 
HETATM   33  C10 UNL     1      -4.742   1.226   1.703  1.00  0.00     0.149 C 
HETATM   34  C11 UNL     1      -4.046   2.458  -0.328  1.00  0.00     0.149 C 
ENDBRANCH  31  32
ENDBRANCH  20  22
ENDBRANCH   1  18
TORSDOF 7
