REMARK  9 active torsions:
REMARK  status: ('A' for Active; 'I' for Inactive)
REMARK       I    between atoms: C1_4  and  N3_6 
REMARK    1  A    between atoms: N3_6  and  N4_8 
REMARK    2  A    between atoms: N4_8  and  C2_10 
REMARK    3  A    between atoms: N6_16  and  O1_17 
REMARK    4  A    between atoms: O1_17  and  C6_18 
REMARK    5  A    between atoms: C6_18  and  N8_22 
REMARK    6  A    between atoms: N8_22  and  C7_24 
REMARK    7  A    between atoms: C7_24  and  C8_25 
REMARK    8  A    between atoms: C8_25  and  N9_26 
REMARK    9  A    between atoms: N10_32  and  O2_33 
ROOT
HETATM    1  C2  UNL     1      -1.510  -0.907  -0.921  1.00  0.00     0.181 A 
HETATM    2  C3  UNL     1      -2.197  -2.146  -0.934  1.00  0.00     0.144 A 
HETATM    3  C4  UNL     1      -1.389  -3.240  -1.092  1.00  0.00     0.109 A 
HETATM    4  N5  UNL     1      -0.042  -3.208  -1.228  1.00  0.00    -0.343 N 
ATOM      5  H5  UNL     1       0.488  -4.072  -1.340  1.00  0.00     0.167 HD
HETATM    6  C5  UNL     1       0.584  -2.020  -1.213  1.00  0.00     0.217 A 
HETATM    7  N6  UNL     1      -0.135  -0.943  -1.066  1.00  0.00    -0.188 N 
HETATM    8  S1  UNL     1      -2.497  -4.538  -1.065  1.00  0.00    -0.062 SA
HETATM    9  C9  UNL     1      -3.920  -3.634  -0.857  1.00  0.00     0.175 A 
HETATM   10  N10 UNL     1      -3.485  -2.366  -0.816  1.00  0.00    -0.223 N 
ENDROOT
BRANCH   7  11
HETATM   11  O1  UNL     1       0.532   0.292  -1.051  1.00  0.00    -0.192 OA
BRANCH  11  12
HETATM   12  C6  UNL     1       1.278   0.672   0.066  1.00  0.00     0.237 C 
HETATM   13  N7  UNL     1       0.804   0.343   1.214  1.00  0.00    -0.364 N 
ATOM     14  H72 UNL     1      -0.076  -0.169   1.281  1.00  0.00     0.159 HD
ATOM     15  H71 UNL     1       1.349   0.621   2.030  1.00  0.00     0.159 HD
BRANCH  12  16
HETATM   16  N8  UNL     1       2.501   1.384  -0.027  1.00  0.00    -0.353 N 
ATOM     17  H8  UNL     1       2.544   2.317  -0.437  1.00  0.00     0.163 HD
BRANCH  16  18
HETATM   18  C7  UNL     1       3.687   0.727   0.486  1.00  0.00     0.150 C 
BRANCH  18  19
HETATM   19  C8  UNL     1       4.915   1.629   0.310  1.00  0.00     0.249 C 
BRANCH  19  20
HETATM   20  N9  UNL     1       6.072   0.953   0.826  1.00  0.00    -0.078 N 
ATOM     21  H93 UNL     1       5.947   0.653   1.793  1.00  0.00     0.274 HD
ATOM     22  H92 UNL     1       6.203   0.033   0.406  1.00  0.00     0.274 HD
ATOM     23  H91 UNL     1       6.889   1.553   0.709  1.00  0.00     0.274 HD
ENDBRANCH  19  20
ENDBRANCH  18  19
ENDBRANCH  16  18
ENDBRANCH  12  16
ENDBRANCH  11  12
ENDBRANCH   7  11
BRANCH   1  24
HETATM   24  N4  UNL     1      -1.987   0.202  -0.797  1.00  0.00    -0.279 N 
ATOM     25  H4  UNL     1      -1.180   0.825  -0.838  1.00  0.00     0.189 HD
BRANCH  24  26
HETATM   26  N3  UNL     1      -2.991   1.000  -0.640  1.00  0.00    -0.272 N 
HETATM   27  C1  UNL     1      -3.268   1.744   0.564  1.00  0.00     0.200 C 
HETATM   28  N1  UNL     1      -2.336   2.437   1.095  1.00  0.00    -0.372 N 
HETATM   29  N2  UNL     1      -4.561   1.677   1.111  1.00  0.00    -0.062 NA
ATOM     30  H12 UNL     1      -2.532   2.963   1.947  1.00  0.00     0.158 HD
ATOM     31  H11 UNL     1      -1.398   2.486   0.698  1.00  0.00     0.158 HD
ATOM     32  H3  UNL     1      -3.634   1.112  -1.424  1.00  0.00     0.189 HD
ENDBRANCH  24  26
ENDBRANCH   1  24
BRANCH  10  33
HETATM   33  O2  UNL     1      -4.506  -1.404  -0.646  1.00  0.00    -0.282 OA
ATOM     34  H2  UNL     1      -5.439  -1.563  -0.561  1.00  0.00     0.245 HD
ENDBRANCH  10  33
TORSDOF 9
