REMARK  9 active torsions:
REMARK  status: ('A' for Active; 'I' for Inactive)
REMARK    1  A    between atoms: C2_2  and  C3_3 
REMARK    2  A    between atoms: C2_2  and  N9_29 
REMARK    3  A    between atoms: C3_3  and  C4_5 
REMARK    4  A    between atoms: C4_5  and  N1_6 
REMARK    5  A    between atoms: N1_6  and  N2_8 
REMARK       I    between atoms: N2_8  and  C5_10 
REMARK    6  A    between atoms: C5_10  and  C6_12 
REMARK    7  A    between atoms: C8_17  and  N5_18 
REMARK    8  A    between atoms: N5_18  and  N6_20 
REMARK    9  A    between atoms: C9_25  and  N8_26 
ROOT
HETATM    1  N2  UNL     1      -0.130   0.580  -0.999  1.00  0.00    -0.266 N 
ATOM      2  H2  UNL     1      -0.383   1.110  -1.833  1.00  0.00     0.190 HD
HETATM    3  C5  UNL     1      -1.126   0.214  -0.098  1.00  0.00     0.277 C 
HETATM    4  O2  UNL     1      -0.696  -0.452   0.920  1.00  0.00    -0.266 OA
ENDROOT
BRANCH   3   5
HETATM    5  C6  UNL     1      -2.532   0.495  -0.186  1.00  0.00     0.119 A 
HETATM    6  C7  UNL     1      -3.352   0.016   0.860  1.00  0.00     0.151 A 
HETATM    7  N3  UNL     1      -2.749  -0.705   1.924  1.00  0.00    -0.081 NA
HETATM    8  N4  UNL     1      -4.658   0.265   0.799  1.00  0.00    -0.176 N 
HETATM    9  C8  UNL     1      -5.257   0.942  -0.190  1.00  0.00     0.699 A 
ATOM     10  H4  UNL     1      -5.244  -0.084   1.558  1.00  0.00     0.185 HD
HETATM   11  N7  UNL     1      -4.521   1.406  -1.187  1.00  0.00    -0.175 N 
HETATM   12  C9  UNL     1      -3.170   1.190  -1.194  1.00  0.00     0.134 A 
ATOM     13  H7  UNL     1      -4.960   1.924  -1.949  1.00  0.00     0.186 HD
BRANCH   9  14
HETATM   14  N5  UNL     1      -6.540   1.146  -0.181  1.00  0.00    -0.138 N 
ATOM     15  H5  UNL     1      -6.988   1.662  -0.938  1.00  0.00     0.205 HD
BRANCH  14  16
HETATM   16  N6  UNL     1      -7.298   0.647   0.883  1.00  0.00    -0.331 N 
ATOM     17  H62 UNL     1      -6.835   0.133   1.633  1.00  0.00     0.177 HD
ATOM     18  H61 UNL     1      -8.305   0.807   0.890  1.00  0.00     0.177 HD
ENDBRANCH  14  16
ENDBRANCH   9  14
BRANCH  12  19
HETATM   19  N8  UNL     1      -2.480   1.655  -2.180  1.00  0.00    -0.384 N 
ATOM     20  H82 UNL     1      -1.473   1.494  -2.185  1.00  0.00     0.157 HD
ATOM     21  H81 UNL     1      -2.951   2.168  -2.925  1.00  0.00     0.157 HD
ENDBRANCH  12  19
ENDBRANCH   3   5
BRANCH   1  22
HETATM   22  N1  UNL     1       1.236   0.231  -0.784  1.00  0.00    -0.305 N 
ATOM     23  H1  UNL     1       1.930   0.975  -0.713  1.00  0.00     0.186 HD
BRANCH  22  24
HETATM   24  C4  UNL     1       1.615  -0.971  -0.678  1.00  0.00     0.159 C 
BRANCH  24  25
HETATM   25  C3  UNL     1       3.017  -1.267  -0.460  1.00  0.00     0.190 C 
HETATM   26  O1  UNL     1       3.400  -2.477  -0.352  1.00  0.00    -0.289 OA
BRANCH  25  27
HETATM   27  C2  UNL     1       4.012  -0.157  -0.361  1.00  0.00     0.180 C 
HETATM   28  C1  UNL     1       3.630   0.720   0.789  1.00  0.00     0.043 C 
BRANCH  27  29
HETATM   29  N9  UNL     1       5.349  -0.724  -0.181  1.00  0.00    -0.275 N 
HETATM   30  C10 UNL     1       5.914  -1.727  -0.867  1.00  0.00     0.202 A 
HETATM   31  N10 UNL     1       7.154  -1.920  -0.367  1.00  0.00    -0.346 N 
HETATM   32  C11 UNL     1       7.341  -1.039   0.617  1.00  0.00     0.198 A 
ATOM     33  H10 UNL     1       7.828  -2.616  -0.686  1.00  0.00     0.167 HD
HETATM   34  N11 UNL     1       6.214  -0.315   0.711  1.00  0.00    -0.292 N 
ATOM     35  H11 UNL     1       6.056   0.440   1.378  1.00  0.00     0.188 HD
ENDBRANCH  27  29
ENDBRANCH  25  27
ENDBRANCH  24  25
ENDBRANCH  22  24
ENDBRANCH   1  22
TORSDOF 9
