REMARK  8 active torsions:
REMARK  status: ('A' for Active; 'I' for Inactive)
REMARK    1  A    between atoms: N1_1  and  C1_4 
REMARK    2  A    between atoms: N4_12  and  C5_13 
REMARK    3  A    between atoms: C5_13  and  C6_14 
REMARK    4  A    between atoms: C6_14  and  N6_16 
REMARK    5  A    between atoms: N6_16  and  O1_18 
REMARK    6  A    between atoms: C7_20  and  N7_21 
REMARK    7  A    between atoms: N8_24  and  C10_25 
REMARK    8  A    between atoms: C10_25  and  O2_26 
ROOT
HETATM    1  C1  UNL     1      -1.482   1.507   1.918  1.00  0.00     0.679 A 
HETATM    2  N2  UNL     1      -2.408   0.638   1.477  1.00  0.00    -0.174 N 
ATOM      3  H2  UNL     1      -3.348   0.656   1.873  1.00  0.00     0.186 HD
HETATM    4  C2  UNL     1      -2.105  -0.260   0.513  1.00  0.00     0.155 A 
HETATM    5  C3  UNL     1      -0.834  -0.307  -0.044  1.00  0.00     0.125 A 
HETATM    6  N3  UNL     1      -0.864  -1.279  -0.943  1.00  0.00    -0.346 N 
ATOM      7  H3  UNL     1      -0.084  -1.571  -1.532  1.00  0.00     0.167 HD
HETATM    8  C4  UNL     1      -2.099  -1.817  -0.948  1.00  0.00     0.185 A 
HETATM    9  N4  UNL     1      -2.882  -1.200  -0.053  1.00  0.00    -0.320 N 
HETATM   10  C7  UNL     1       0.103   0.582   0.409  1.00  0.00     0.168 A 
HETATM   11  N11 UNL     1      -0.265   1.448   1.370  1.00  0.00    -0.173 N 
ATOM     12  H11 UNL     1       0.437   2.108   1.705  1.00  0.00     0.186 HD
ENDROOT
BRANCH  10  13
HETATM   13  N7  UNL     1       1.444   0.604  -0.113  1.00  0.00    -0.270 N 
HETATM   14  C8  UNL     1       1.829  -0.323  -1.152  1.00  0.00     0.171 C 
HETATM   15  C9  UNL     1       3.276  -0.145  -1.586  1.00  0.00     0.149 C 
HETATM   16  N8  UNL     1       4.128   0.345  -0.527  1.00  0.00    -0.332 N 
HETATM   17  C11 UNL     1       3.644   1.455   0.232  1.00  0.00     0.207 C 
HETATM   18  N9  UNL     1       4.569   2.388   0.754  1.00  0.00    -0.062 NA
HETATM   19  N10 UNL     1       2.372   1.539   0.403  1.00  0.00    -0.270 N 
ATOM     20  H10 UNL     1       2.011   2.326   0.942  1.00  0.00     0.190 HD
BRANCH  16  21
HETATM   21  C10 UNL     1       5.431  -0.254  -0.233  1.00  0.00     0.292 C 
BRANCH  21  22
HETATM   22  O2  UNL     1       5.147  -1.600   0.092  1.00  0.00    -0.382 OA
ATOM     23  H2  UNL     1       5.993  -1.989   0.283  1.00  0.00     0.211 HD
ENDBRANCH  21  22
ENDBRANCH  16  21
ENDBRANCH  10  13
BRANCH   1  24
HETATM   24  N1  UNL     1      -1.785   2.366   2.845  1.00  0.00    -0.234 N 
ATOM     25  H12 UNL     1      -2.714   2.411   3.263  1.00  0.00     0.174 HD
ATOM     26  H11 UNL     1      -1.082   3.025   3.180  1.00  0.00     0.174 HD
ENDBRANCH   1  24
BRANCH   9  27
HETATM   27  C5  UNL     1      -4.285  -1.453   0.278  1.00  0.00     0.206 C 
BRANCH  27  28
HETATM   28  C6  UNL     1      -5.198  -0.646  -0.560  1.00  0.00     0.131 C 
HETATM   29  N5  UNL     1      -5.109   0.767  -0.515  1.00  0.00    -0.084 NA
BRANCH  28  30
HETATM   30  N6  UNL     1      -6.053  -1.198  -1.313  1.00  0.00    -0.258 N 
ATOM     31  H6  UNL     1      -6.653  -0.587  -1.867  1.00  0.00     0.195 HD
BRANCH  30  32
HETATM   32  O1  UNL     1      -6.237  -2.543  -1.444  1.00  0.00    -0.289 OA
ATOM     33  H1  UNL     1      -6.879  -2.957  -2.009  1.00  0.00     0.244 HD
ENDBRANCH  30  32
ENDBRANCH  28  30
ENDBRANCH  27  28
ENDBRANCH   9  27
TORSDOF 8
