REMARK  8 active torsions:
REMARK  status: ('A' for Active; 'I' for Inactive)
REMARK    1  A    between atoms: N1_1  and  C1_4 
REMARK    2  A    between atoms: C4_9  and  N3_10 
REMARK    3  A    between atoms: N5_17  and  C7_18 
REMARK    4  A    between atoms: N8_23  and  C8_24 
REMARK    5  A    between atoms: C8_24  and  C9_25 
REMARK    6  A    between atoms: C9_25  and  O1_26 
REMARK    7  A    between atoms: C10_30  and  C11_31 
REMARK    8  A    between atoms: C11_31  and  O2_32 
ROOT
HETATM    1  C1  UNL     1      -3.942   0.821   1.138  1.00  0.00     0.695 A 
HETATM    2  N2  UNL     1      -2.760   1.099   0.558  1.00  0.00    -0.192 N 
ATOM      3  H2  UNL     1      -2.511   2.069   0.366  1.00  0.00     0.184 HD
HETATM    4  C2  UNL     1      -1.895   0.110   0.225  1.00  0.00     0.062 A 
HETATM    5  C3  UNL     1      -2.296  -1.176   0.512  1.00  0.00     0.014 A 
HETATM    6  C4  UNL     1      -3.524  -1.436   1.112  1.00  0.00     0.143 A 
HETATM    7  N4  UNL     1      -4.352  -0.411   1.425  1.00  0.00    -0.070 N 
HETATM    8 CL1  UNL     1      -5.902  -0.686   2.179  1.00  0.00     0.036 Cl
HETATM    9  C5  UNL     1      -1.449  -2.334   0.200  1.00  0.00     0.065 C 
HETATM   10  C6  UNL     1      -0.278  -2.033  -0.675  1.00  0.00     0.147 C 
HETATM   11  N5  UNL     1       0.231  -0.696  -0.555  1.00  0.00    -0.202 N 
HETATM   12  C10 UNL     1      -0.619   0.470  -0.406  1.00  0.00     0.176 C 
ENDROOT
BRANCH  11  13
HETATM   13  C7  UNL     1       1.640  -0.504  -0.583  1.00  0.00     0.712 A 
HETATM   14  N6  UNL     1       2.589  -1.447  -0.713  1.00  0.00    -0.115 N 
HETATM   15  N7  UNL     1       3.782  -0.877  -0.696  1.00  0.00    -0.211 N 
ATOM     16  H6  UNL     1       2.416  -2.447  -0.810  1.00  0.00     0.207 HD
HETATM   17  N8  UNL     1       3.611   0.418  -0.556  1.00  0.00    -0.203 N 
ATOM     18  H7  UNL     1       4.678  -1.358  -0.777  1.00  0.00     0.210 HD
HETATM   19  N9  UNL     1       2.323   0.661  -0.487  1.00  0.00    -0.113 N 
ATOM     20  H9  UNL     1       1.902   1.584  -0.378  1.00  0.00     0.207 HD
BRANCH  17  21
HETATM   21  C8  UNL     1       4.608   1.478  -0.482  1.00  0.00     0.197 C 
BRANCH  21  22
HETATM   22  C9  UNL     1       5.026   1.727   0.949  1.00  0.00     0.187 C 
BRANCH  22  23
HETATM   23  O1  UNL     1       5.570   0.558   1.476  1.00  0.00    -0.399 OA
ATOM     24  H1  UNL     1       5.833   0.715   2.375  1.00  0.00     0.209 HD
ENDBRANCH  22  23
ENDBRANCH  21  22
ENDBRANCH  17  21
ENDBRANCH  11  13
BRANCH  12  25
HETATM   25  C11 UNL     1      -0.806   1.157  -1.725  1.00  0.00     0.196 C 
BRANCH  25  26
HETATM   26  O2  UNL     1      -1.400   0.294  -2.648  1.00  0.00    -0.398 OA
ATOM     27  H2  UNL     1      -1.519   0.729  -3.484  1.00  0.00     0.209 HD
ENDBRANCH  25  26
ENDBRANCH  12  25
BRANCH   6  28
HETATM   28  N3  UNL     1      -3.913  -2.615   1.386  1.00  0.00    -0.383 N 
ATOM     29  H32 UNL     1      -3.289  -3.387   1.150  1.00  0.00     0.157 HD
ATOM     30  H31 UNL     1      -4.813  -2.806   1.826  1.00  0.00     0.157 HD
ENDBRANCH   6  28
BRANCH   1  31
HETATM   31  N1  UNL     1      -4.733   1.800   1.437  1.00  0.00    -0.233 N 
ATOM     32  H12 UNL     1      -4.419   2.745   1.217  1.00  0.00     0.174 HD
ATOM     33  H11 UNL     1      -5.629   1.589   1.877  1.00  0.00     0.174 HD
ENDBRANCH   1  31
TORSDOF 8
