REMARK  8 active torsions:
REMARK  status: ('A' for Active; 'I' for Inactive)
REMARK    1  A    between atoms: C2_2  and  O1_3 
REMARK    2  A    between atoms: O1_3  and  C3_4 
REMARK    3  A    between atoms: C3_4  and  C4_6 
REMARK    4  A    between atoms: C4_6  and  O3_7 
REMARK    5  A    between atoms: N1_11  and  N2_13 
REMARK       I    between atoms: N2_13  and  C6_14 
REMARK       I    between atoms: C6_14  and  N3_16 
REMARK    6  A    between atoms: N3_16  and  N4_18 
REMARK       I    between atoms: N5_22  and  C7_23 
REMARK    7  A    between atoms: C8_26  and  C9_27 
REMARK    8  A    between atoms: C9_27  and  O8_28 
ROOT
HETATM    1  C4  UNL     1      -0.576  -0.010  -1.392  1.00  0.00     0.286 C 
HETATM    2  O4  UNL     1       0.622   0.390  -0.801  1.00  0.00    -0.263 OA
HETATM    3  C5  UNL     1       1.295  -0.396   0.119  1.00  0.00     0.316 C 
HETATM    4  N1  UNL     1       2.424   0.046   0.540  1.00  0.00    -0.185 N 
ATOM      5  H1  UNL     1       2.861  -0.587   1.210  1.00  0.00     0.206 HD
HETATM    6  O6  UNL     1       0.760  -1.602   0.555  1.00  0.00    -0.185 OA
HETATM    7  N5  UNL     1      -0.481  -1.942   0.001  1.00  0.00    -0.188 N 
HETATM    8  C7  UNL     1      -1.457  -2.638   0.735  1.00  0.00     0.355 C 
HETATM    9  N6  UNL     1      -1.208  -3.000   2.096  1.00  0.00    -0.038 NA
HETATM   10  O7  UNL     1      -2.581  -2.995   0.306  1.00  0.00    -0.249 OA
HETATM   11  C8  UNL     1      -0.654  -1.527  -1.351  1.00  0.00     0.217 C 
ENDROOT
BRANCH   4  12
HETATM   12  N2  UNL     1       3.146   1.104   0.320  1.00  0.00    -0.260 NA
HETATM   13  C6  UNL     1       3.900   2.210   0.090  1.00  0.00     0.430 C 
HETATM   14  O5  UNL     1       3.499   3.358  -0.199  1.00  0.00    -0.227 OA
HETATM   15  N3  UNL     1       5.365   2.130   0.175  1.00  0.00    -0.245 N 
ATOM     16  H3  UNL     1       5.819   1.246   0.407  1.00  0.00     0.192 HD
BRANCH  15  17
HETATM   17  N4  UNL     1       6.121   3.257  -0.061  1.00  0.00    -0.340 N 
ATOM     18  H42 UNL     1       5.652   4.133  -0.292  1.00  0.00     0.177 HD
ATOM     19  H41 UNL     1       7.138   3.201  -0.002  1.00  0.00     0.177 HD
ENDBRANCH  15  17
ENDBRANCH   4  12
BRANCH   1  20
HETATM   20  C3  UNL     1      -1.699   0.644  -0.679  1.00  0.00     0.325 C 
HETATM   21  O2  UNL     1      -2.502   1.411  -1.251  1.00  0.00    -0.259 OA
BRANCH  20  22
HETATM   22  O1  UNL     1      -1.896   0.418   0.678  1.00  0.00    -0.318 OA
BRANCH  22  23
HETATM   23  C2  UNL     1      -2.994   1.063   1.346  1.00  0.00     0.174 C 
HETATM   24  C1  UNL     1      -3.029   0.723   2.811  1.00  0.00     0.034 C 
ENDBRANCH  22  23
ENDBRANCH  20  22
ENDBRANCH   1  20
BRANCH   1  25
HETATM   25  O3  UNL     1      -0.530   0.420  -2.734  1.00  0.00    -0.356 OA
ATOM     26  H3  UNL     1       0.190   0.001  -3.191  1.00  0.00     0.213 HD
ENDBRANCH   1  25
BRANCH  11  27
HETATM   27  C9  UNL     1      -1.848  -2.042  -2.075  1.00  0.00     0.198 C 
BRANCH  27  28
HETATM   28  O8  UNL     1      -1.832  -1.559  -3.406  1.00  0.00    -0.399 OA
ATOM     29  H8  UNL     1      -2.594  -1.888  -3.868  1.00  0.00     0.209 HD
ENDBRANCH  27  28
ENDBRANCH  11  27
TORSDOF 8
