REMARK  6 active torsions:
REMARK  status: ('A' for Active; 'I' for Inactive)
REMARK       I    between atoms: C1_2  and  N2_4 
REMARK    1  A    between atoms: N2_4  and  N3_6 
REMARK    2  A    between atoms: N3_6  and  C2_8 
REMARK    3  A    between atoms: C3_15  and  N7_16 
REMARK    4  A    between atoms: N7_16  and  N8_18 
REMARK    5  A    between atoms: N8_18  and  S1_20 
REMARK    6  A    between atoms: S1_20  and  C4_23 
ROOT
HETATM    1  C2  UNL     1       2.656  -0.190   0.077  1.00  0.00     0.262 A 
HETATM    2  N4  UNL     1       2.464   0.588   1.115  1.00  0.00    -0.249 N 
ATOM      3  H4  UNL     1       3.224   0.819   1.755  1.00  0.00     0.192 HD
HETATM    4  N5  UNL     1       1.177   1.085   1.304  1.00  0.00    -0.236 N 
ATOM      5  H5  UNL     1       0.984   1.694   2.099  1.00  0.00     0.208 HD
HETATM    6  N6  UNL     1       0.158   0.762   0.427  1.00  0.00    -0.249 N 
ATOM      7  H6  UNL     1      -0.770   1.148   0.602  1.00  0.00     0.192 HD
HETATM    8  C3  UNL     1       0.320  -0.010  -0.612  1.00  0.00     0.263 A 
HETATM    9  O4  UNL     1       1.612  -0.490  -0.776  1.00  0.00    -0.242 OA
ENDROOT
BRANCH   8  10
HETATM   10  N7  UNL     1      -0.738  -0.323  -1.491  1.00  0.00    -0.254 N 
ATOM     11  H7  UNL     1      -0.910   0.339  -2.248  1.00  0.00     0.191 HD
BRANCH  10  12
HETATM   12  N8  UNL     1      -1.560  -1.417  -1.441  1.00  0.00    -0.219 N 
ATOM     13  H8  UNL     1      -1.669  -2.037  -2.243  1.00  0.00     0.200 HD
BRANCH  12  14
HETATM   14  S1  UNL     1      -2.389  -1.697   0.013  1.00  0.00     0.291 S 
HETATM   15  O2  UNL     1      -1.443  -1.629   1.149  1.00  0.00    -0.197 OA
HETATM   16  O3  UNL     1      -2.898  -3.127  -0.037  1.00  0.00    -0.197 OA
BRANCH  14  17
HETATM   17  C4  UNL     1      -3.773  -0.681   0.225  1.00  0.00     0.150 A 
HETATM   18  C5  UNL     1      -4.067   0.286  -0.714  1.00  0.00     0.047 A 
HETATM   19  C6  UNL     1      -5.181   1.086  -0.483  1.00  0.00     0.046 A 
HETATM   20  C7  UNL     1      -5.964   0.919   0.641  1.00  0.00     0.131 A 
HETATM   21  F1  UNL     1      -7.051   1.724   0.833  1.00  0.00    -0.205 F 
HETATM   22  C8  UNL     1      -5.621  -0.063   1.541  1.00  0.00     0.131 A 
HETATM   23  N9  UNL     1      -4.541  -0.833   1.312  1.00  0.00    -0.352 N 
ATOM     24  H9  UNL     1      -4.299  -1.557   1.989  1.00  0.00     0.166 HD
ENDBRANCH  14  17
ENDBRANCH  12  14
ENDBRANCH  10  12
ENDBRANCH   8  10
BRANCH   1  25
HETATM   25  N3  UNL     1       3.965  -0.706  -0.132  1.00  0.00    -0.260 N 
ATOM     26  H3  UNL     1       4.072  -1.563  -0.674  1.00  0.00     0.190 HD
BRANCH  25  27
HETATM   27  N2  UNL     1       5.108  -0.089   0.373  1.00  0.00    -0.251 N 
HETATM   28  C1  UNL     1       6.110   0.432  -0.472  1.00  0.00     0.347 C 
HETATM   29  N1  UNL     1       7.248   1.045   0.089  1.00  0.00    -0.038 NA
HETATM   30  O1  UNL     1       5.962   0.336  -1.714  1.00  0.00    -0.249 OA
ATOM     31  H2  UNL     1       5.223  -0.012   1.384  1.00  0.00     0.191 HD
ENDBRANCH  25  27
ENDBRANCH   1  25
TORSDOF 6
