REMARK  8 active torsions:
REMARK  status: ('A' for Active; 'I' for Inactive)
REMARK    1  A    between atoms: C2_3  and  N2_4 
REMARK    2  A    between atoms: N2_4  and  C3_6 
REMARK    3  A    between atoms: C4_9  and  N4_10 
REMARK    4  A    between atoms: N4_10  and  N5_12 
REMARK    5  A    between atoms: C5_17  and  C6_18 
REMARK    6  A    between atoms: C6_18  and  S1_19 
REMARK    7  A    between atoms: S1_19  and  C7_20 
REMARK    8  A    between atoms: C9_24  and  N8_25 
ROOT
HETATM    1  N1  UNL     1      -6.850  -1.244  -1.773  1.00  0.00    -0.196 NA
HETATM    2  C1  UNL     1      -5.776  -1.387  -1.363  1.00  0.00     0.078 C 
HETATM    3  C2  UNL     1      -4.398  -1.576  -0.861  1.00  0.00     0.245 C 
ENDROOT
BRANCH   3   4
HETATM    4  N2  UNL     1      -3.876  -0.327  -0.436  1.00  0.00    -0.360 N 
ATOM      5  H2  UNL     1      -4.549   0.439  -0.433  1.00  0.00     0.162 HD
BRANCH   4   6
HETATM    6  C3  UNL     1      -2.715  -0.012  -0.062  1.00  0.00     0.161 C 
HETATM    7  N3  UNL     1      -1.733  -0.924  -0.018  1.00  0.00    -0.172 N 
HETATM    8  C4  UNL     1      -0.506  -0.875   0.522  1.00  0.00     0.699 C 
ATOM      9  H3  UNL     1      -1.958  -1.808  -0.474  1.00  0.00     0.186 HD
HETATM   10  N6  UNL     1       0.023   0.172   1.224  1.00  0.00    -0.178 N 
HETATM   11  C5  UNL     1      -0.316   1.475   1.167  1.00  0.00     0.108 C 
ATOM     12  H6  UNL     1       0.772  -0.064   1.876  1.00  0.00     0.185 HD
HETATM   13  N10 UNL     1      -1.445   1.990   0.630  1.00  0.00    -0.328 N 
HETATM   14  C11 UNL     1      -2.581   1.327   0.282  1.00  0.00     0.145 C 
ATOM     15  H10 UNL     1      -1.445   2.997   0.466  1.00  0.00     0.169 HD
HETATM   16  N11 UNL     1      -3.648   2.063   0.280  1.00  0.00    -0.382 N 
ATOM     17 2H11 UNL     1      -4.500   1.566   0.019  1.00  0.00     0.157 HD
ATOM     18 1H11 UNL     1      -3.550   3.046   0.533  1.00  0.00     0.157 HD
BRANCH   8  19
HETATM   19  N4  UNL     1       0.295  -1.872   0.402  1.00  0.00    -0.138 N 
ATOM     20  H4  UNL     1       1.234  -1.867   0.800  1.00  0.00     0.205 HD
BRANCH  19  21
HETATM   21  N5  UNL     1      -0.212  -2.975  -0.318  1.00  0.00    -0.331 N 
ATOM     22  H52 UNL     1      -1.153  -2.965  -0.710  1.00  0.00     0.177 HD
ATOM     23  H51 UNL     1       0.424  -3.767  -0.413  1.00  0.00     0.177 HD
ENDBRANCH  19  21
ENDBRANCH   8  19
BRANCH  11  24
HETATM   24  C6  UNL     1       0.614   2.467   1.739  1.00  0.00     0.156 C 
BRANCH  24  25
HETATM   25  S1  UNL     1       1.819   3.047   0.499  1.00  0.00    -0.117 SA
BRANCH  25  26
HETATM   26  C7  UNL     1       2.913   1.717   0.030  1.00  0.00     0.073 A 
HETATM   27  C8  UNL     1       2.603   0.887  -1.019  1.00  0.00     0.129 A 
HETATM   28  N7  UNL     1       3.422  -0.116  -1.376  1.00  0.00    -0.201 N 
HETATM   29  C9  UNL     1       4.571  -0.301  -0.678  1.00  0.00     0.677 A 
ATOM     30  H7  UNL     1       3.185  -0.727  -2.157  1.00  0.00     0.183 HD
HETATM   31  N9  UNL     1       4.901   0.490   0.349  1.00  0.00    -0.165 N 
HETATM   32  C10 UNL     1       4.101   1.510   0.735  1.00  0.00     0.221 A 
ATOM     33  H9  UNL     1       5.773   0.321   0.851  1.00  0.00     0.186 HD
HETATM   34  F1  UNL     1       4.454   2.294   1.771  1.00  0.00    -0.184 F 
BRANCH  29  35
HETATM   35  N8  UNL     1       5.343  -1.273  -1.039  1.00  0.00    -0.234 N 
ATOM     36  H82 UNL     1       5.091  -1.876  -1.822  1.00  0.00     0.174 HD
ATOM     37  H81 UNL     1       6.207  -1.412  -0.514  1.00  0.00     0.174 HD
ENDBRANCH  29  35
ENDBRANCH  25  26
ENDBRANCH  24  25
ENDBRANCH  11  24
ENDBRANCH   4   6
ENDBRANCH   3   4
TORSDOF 8
