REMARK  3 active torsions:
REMARK  status: ('A' for Active; 'I' for Inactive)
REMARK    1  A    between atoms: O1_2  and  N1_3 
REMARK    2  A    between atoms: N1_3  and  C2_5 
REMARK    3  A    between atoms: C8_16  and  O4_17 
ROOT
HETATM    1  C2  UNL     1       0.485  -0.129  -0.562  1.00  0.00     0.137 C 
HETATM    2  C3  UNL     1       0.125  -1.469   0.047  1.00  0.00     0.034 C 
HETATM    3  C4  UNL     1      -1.164  -1.990  -0.500  1.00  0.00     0.063 C 
HETATM    4  C5  UNL     1      -2.295  -1.207   0.147  1.00  0.00     0.269 C 
HETATM    5  O2  UNL     1      -2.894  -0.361  -0.850  1.00  0.00    -0.306 OA
HETATM    6  C6  UNL     1      -2.391   0.914  -0.670  1.00  0.00     0.146 C 
HETATM    7  N2  UNL     1      -2.648   1.916  -1.420  1.00  0.00    -0.381 N 
ATOM      8  H21 UNL     1      -2.277   2.857  -1.287  1.00  0.00     0.158 HD
ATOM      9  H22 UNL     1      -3.246   1.942  -2.246  1.00  0.00     0.158 HD
HETATM   10  C7  UNL     1      -1.539   0.877   0.508  1.00  0.00     0.229 C 
HETATM   11  O3  UNL     1      -1.805  -0.343   1.136  1.00  0.00    -0.345 OA
HETATM   12  C8  UNL     1      -0.077   1.028   0.231  1.00  0.00     0.179 C 
ENDROOT
BRANCH   1  13
HETATM   13  N1  UNL     1       1.894  -0.078  -0.688  1.00  0.00    -0.296 N 
ATOM     14  H1  UNL     1       2.342   0.041  -1.596  1.00  0.00     0.188 HD
BRANCH  13  15
HETATM   15  O1  UNL     1       2.600  -0.190   0.415  1.00  0.00    -0.290 OA
HETATM   16  C1  UNL     1       3.627   0.757   0.527  1.00  0.00     0.237 C 
ENDBRANCH  13  15
ENDBRANCH   1  13
BRANCH  12  17
HETATM   17  O4  UNL     1       0.555   1.099   1.487  1.00  0.00    -0.390 OA
ATOM     18  H4  UNL     1       0.202   1.826   1.986  1.00  0.00     0.210 HD
ENDBRANCH  12  17
TORSDOF 3
