REMARK  4 active torsions:
REMARK  status: ('A' for Active; 'I' for Inactive)
REMARK    1  A    between atoms: C2_2  and  C3_3 
REMARK    2  A    between atoms: C2_2  and  C4_10 
REMARK    3  A    between atoms: C3_3  and  O1_4 
REMARK    4  A    between atoms: N1_6  and  O2_8 
ROOT
HETATM    1  C1  UNL     1       0.707  -0.218  -1.830  1.00  0.00     0.025 C 
HETATM    2  C2  UNL     1       0.324  -0.080  -0.571  1.00  0.00     0.008 C 
ENDROOT
BRANCH   2   3
HETATM    3  C3  UNL     1       1.362   0.081   0.425  1.00  0.00     0.167 C 
HETATM    4  N1  UNL     1       2.606   0.120   0.316  1.00  0.00    -0.247 N 
ATOM      5  H1  UNL     1       3.057   0.247   1.222  1.00  0.00     0.196 HD
BRANCH   3   6
HETATM    6  O1  UNL     1       0.922   0.221   1.766  1.00  0.00    -0.344 OA
ATOM      7  H1  UNL     1       1.603   0.327   2.420  1.00  0.00     0.219 HD
ENDBRANCH   3   6
BRANCH   4   8
HETATM    8  O2  UNL     1       3.492   0.041  -0.660  1.00  0.00    -0.288 OA
ATOM      9  H2  UNL     1       4.438   0.071  -0.743  1.00  0.00     0.244 HD
ENDBRANCH   4   8
ENDBRANCH   2   3
BRANCH   2  10
HETATM   10  C4  UNL     1      -1.122  -0.086  -0.258  1.00  0.00     0.197 C 
HETATM   11  C5  UNL     1      -1.625  -1.073   0.733  1.00  0.00     0.217 C 
HETATM   12  O3  UNL     1      -2.677  -0.168   1.015  1.00  0.00    -0.273 OA
HETATM   13  S1  UNL     1      -1.880   1.252   0.508  1.00  0.00     0.276 S 
HETATM   14  O4  UNL     1      -1.308   1.917   1.679  1.00  0.00    -0.198 OA
HETATM   15  O5  UNL     1      -2.808   2.086  -0.339  1.00  0.00    -0.198 OA
ENDBRANCH   2  10
TORSDOF 4
