REMARK  4 active torsions:
REMARK  status: ('A' for Active; 'I' for Inactive)
REMARK    1  A    between atoms: O1_2  and  C2_3 
REMARK    2  A    between atoms: C4_6  and  O3_7 
REMARK    3  A    between atoms: C5_9  and  N1_11 
REMARK    4  A    between atoms: N1_11  and  O4_13 
ROOT
HETATM    1  C2  UNL     1       1.019  -0.695  -0.433  1.00  0.00     0.265 C 
HETATM    2  O2  UNL     1       0.145  -1.798  -0.516  1.00  0.00    -0.358 OA
HETATM    3  C3  UNL     1      -0.480  -1.881   0.722  1.00  0.00     0.205 C 
HETATM    4  C4  UNL     1      -1.655  -0.912   0.680  1.00  0.00     0.172 C 
HETATM    5  C5  UNL     1      -1.155   0.360   0.055  1.00  0.00     0.083 C 
HETATM    6  C6  UNL     1      -1.517   0.312  -1.424  1.00  0.00     0.043 C 
HETATM    7  C7  UNL     1       0.338   0.475   0.243  1.00  0.00     0.069 C 
HETATM    8  C8  UNL     1       0.807   1.742  -0.417  1.00  0.00     0.017 C 
ENDROOT
BRANCH   5   9
HETATM    9  N1  UNL     1      -1.819   1.510   0.620  1.00  0.00    -0.292 N 
ATOM     10  H1  UNL     1      -2.383   2.148   0.058  1.00  0.00     0.188 HD
BRANCH   9  11
HETATM   11  O4  UNL     1      -1.641   1.676   1.929  1.00  0.00    -0.294 OA
ATOM     12  H4  UNL     1      -2.078   2.433   2.301  1.00  0.00     0.244 HD
ENDBRANCH   9  11
ENDBRANCH   5   9
BRANCH   4  13
HETATM   13  O3  UNL     1      -2.034  -0.653   1.986  1.00  0.00    -0.391 OA
ATOM     14  H3  UNL     1      -2.767  -0.049   1.960  1.00  0.00     0.210 HD
ENDBRANCH   4  13
BRANCH   1  15
HETATM   15  O1  UNL     1       2.210  -1.048   0.136  1.00  0.00    -0.366 OA
HETATM   16  C1  UNL     1       3.305  -0.950  -0.683  1.00  0.00     0.204 C 
ENDBRANCH   1  15
TORSDOF 4
