REMARK  5 active torsions:
REMARK  status: ('A' for Active; 'I' for Inactive)
REMARK    1  A    between atoms: C5_5  and  O1_6 
REMARK    2  A    between atoms: C6_8  and  C7_9 
REMARK    3  A    between atoms: C7_9  and  O3_11 
REMARK    4  A    between atoms: O3_11  and  N1_12 
REMARK    5  A    between atoms: N1_12  and  C8_14 
ROOT
HETATM    1  C1  UNL     1      -1.777  -2.198   0.289  1.00  0.00     0.039 C 
HETATM    2  C2  UNL     1      -1.641  -0.815   0.934  1.00  0.00     0.118 C 
HETATM    3  C3  UNL     1      -2.528   0.170   0.283  1.00  0.00     0.034 C 
HETATM    4  C4  UNL     1      -1.942   1.100  -0.710  1.00  0.00     0.037 C 
HETATM    5  C5  UNL     1      -0.487   1.378  -0.320  1.00  0.00     0.157 C 
HETATM    6  C6  UNL     1       0.106  -0.014  -0.218  1.00  0.00     0.252 C 
HETATM    7  O5  UNL     1      -0.312  -0.509   1.016  1.00  0.00    -0.368 OA
ENDROOT
BRANCH   6   8
HETATM    8  C7  UNL     1       1.556  -0.051  -0.394  1.00  0.00     0.312 C 
HETATM    9  O2  UNL     1       2.069   0.411  -1.431  1.00  0.00    -0.260 OA
BRANCH   8  10
HETATM   10  O3  UNL     1       2.367  -0.593   0.572  1.00  0.00    -0.195 OA
BRANCH  10  11
HETATM   11  N1  UNL     1       3.733  -0.677   0.506  1.00  0.00    -0.233 N 
ATOM     12  H1  UNL     1       4.173  -1.594   0.438  1.00  0.00     0.197 HD
BRANCH  11  13
HETATM   13  C8  UNL     1       4.541   0.473   0.530  1.00  0.00     0.374 C 
HETATM   14  O4  UNL     1       4.127   1.647   0.609  1.00  0.00    -0.282 OA
ENDBRANCH  11  13
ENDBRANCH  10  11
ENDBRANCH   8  10
ENDBRANCH   6   8
BRANCH   5  15
HETATM   15  O1  UNL     1      -0.501   1.945   0.951  1.00  0.00    -0.392 OA
ATOM     16  H1  UNL     1       0.401   2.117   1.193  1.00  0.00     0.210 HD
ENDBRANCH   5  15
TORSDOF 5
