REMARK  4 active torsions:
REMARK  status: ('A' for Active; 'I' for Inactive)
REMARK    1  A    between atoms: C3_3  and  C5_5 
REMARK    2  A    between atoms: C6_6  and  C7_7 
REMARK    3  A    between atoms: C7_7  and  O2_9 
REMARK    4  A    between atoms: N1_11  and  O3_12 
ROOT
HETATM    1  C5  UNL     1      -0.749   0.245  -1.145  1.00  0.00     0.145 A 
HETATM    2  C6  UNL     1       0.626   0.585  -1.277  1.00  0.00     0.210 A 
HETATM    3  N1  UNL     1      -0.354   1.565  -0.694  1.00  0.00    -0.173 NA
ENDROOT
BRANCH   1   4
HETATM    4  C3  UNL     1      -1.358  -0.709  -0.195  1.00  0.00    -0.066 C 
HETATM    5  C2  UNL     1      -2.345  -0.390   0.609  1.00  0.00    -0.027 C 
HETATM    6  C1  UNL     1      -3.022   0.908   0.757  1.00  0.00     0.036 C 
HETATM    7  C4  UNL     1      -0.825  -2.097  -0.178  1.00  0.00     0.045 C 
ENDBRANCH   1   4
BRANCH   2   8
HETATM    8  C7  UNL     1       1.721   0.146  -0.394  1.00  0.00     0.280 C 
HETATM    9  O1  UNL     1       1.528  -0.320   0.761  1.00  0.00    -0.263 OA
BRANCH   8  10
HETATM   10  O2  UNL     1       3.070   0.216  -0.776  1.00  0.00    -0.325 OA
HETATM   11  C8  UNL     1       4.112  -0.217   0.102  1.00  0.00     0.213 C 
ENDBRANCH   8  10
ENDBRANCH   2   8
BRANCH   3  12
HETATM   12  O3  UNL     1      -0.119   1.852   0.584  1.00  0.00    -0.311 OA
ATOM     13  H3  UNL     1       0.140   2.717   0.880  1.00  0.00     0.237 HD
ENDBRANCH   3  12
TORSDOF 4
