REMARK  4 active torsions:
REMARK  status: ('A' for Active; 'I' for Inactive)
REMARK    1  A    between atoms: C2_2  and  C4_4 
REMARK    2  A    between atoms: C5_6  and  C6_7 
REMARK    3  A    between atoms: N1_8  and  O2_10 
REMARK    4  A    between atoms: C7_13  and  O4_14 
ROOT
HETATM    1  C4  UNL     1      -0.362  -0.629  -0.309  1.00  0.00     0.183 C 
HETATM    2  O1  UNL     1       0.538   0.097  -1.080  1.00  0.00    -0.346 OA
HETATM    3  C5  UNL     1       1.330   0.827  -0.229  1.00  0.00     0.305 C 
HETATM    4  O3  UNL     1       0.719   0.844   1.015  1.00  0.00    -0.324 OA
HETATM    5  C7  UNL     1      -0.056  -0.305   1.102  1.00  0.00     0.289 C 
ENDROOT
BRANCH   3   6
HETATM    6  C6  UNL     1       2.722   0.296  -0.170  1.00  0.00     0.147 C 
HETATM    7  N1  UNL     1       3.729   1.099  -0.147  1.00  0.00    -0.280 N 
ATOM      8  H1  UNL     1       3.565   2.105  -0.170  1.00  0.00     0.193 HD
BRANCH   7   9
HETATM    9  O2  UNL     1       5.005   0.635  -0.093  1.00  0.00    -0.290 OA
ATOM     10  H2  UNL     1       5.748   1.227  -0.076  1.00  0.00     0.244 HD
ENDBRANCH   7   9
ENDBRANCH   3   6
BRANCH   1  11
HETATM   11  C2  UNL     1      -1.747  -0.277  -0.755  1.00  0.00     0.011 C 
HETATM   12  C1  UNL     1      -2.102   1.159  -0.621  1.00  0.00     0.012 C 
HETATM   13  C3  UNL     1      -2.809  -1.107  -0.064  1.00  0.00     0.012 C 
ENDBRANCH   1  11
BRANCH   5  14
HETATM   14  O4  UNL     1       0.715  -1.322   1.692  1.00  0.00    -0.368 OA
ATOM     15  H4  UNL     1       0.911  -1.114   2.598  1.00  0.00     0.212 HD
ENDBRANCH   5  14
TORSDOF 4
