REMARK  4 active torsions:
REMARK  status: ('A' for Active; 'I' for Inactive)
REMARK    1  A    between atoms: C1_2  and  N2_4 
REMARK    2  A    between atoms: N2_4  and  N3_6 
REMARK    3  A    between atoms: C2_8  and  C3_9 
REMARK    4  A    between atoms: C3_9  and  C4_12 
ROOT
HETATM    1  N3  UNL     1      -1.303   0.107   0.487  1.00  0.00    -0.311 N 
ATOM      2  H3  UNL     1      -1.302  -0.888   0.713  1.00  0.00     0.185 HD
HETATM    3  C2  UNL     1      -0.273   0.570  -0.107  1.00  0.00     0.122 C 
ENDROOT
BRANCH   1   4
HETATM    4  N2  UNL     1      -2.415   0.832   0.849  1.00  0.00    -0.279 N 
ATOM      5  H2  UNL     1      -2.316   1.718   1.345  1.00  0.00     0.189 HD
BRANCH   4   6
HETATM    6  C1  UNL     1      -3.698   0.332   0.524  1.00  0.00     0.199 C 
HETATM    7  N1  UNL     1      -3.894  -0.897  -0.164  1.00  0.00    -0.068 NA
HETATM    8  S1  UNL     1      -5.020   1.194   0.954  1.00  0.00    -0.043 SA
ENDBRANCH   4   6
ENDBRANCH   1   4
BRANCH   3   9
HETATM    9  C3  UNL     1       0.904  -0.260  -0.474  1.00  0.00     0.150 C 
HETATM   10 CL1  UNL     1       0.323  -1.922  -0.730  1.00  0.00    -0.095 Cl
HETATM   11 CL2  UNL     1       1.503   0.365  -2.026  1.00  0.00    -0.095 Cl
BRANCH   9  12
HETATM   12  C4  UNL     1       1.990  -0.180   0.537  1.00  0.00     0.030 A 
HETATM   13  C5  UNL     1       3.260  -0.893   0.431  1.00  0.00     0.008 A 
HETATM   14  C6  UNL     1       3.237   0.569   0.103  1.00  0.00     0.008 A 
ENDBRANCH   9  12
ENDBRANCH   3   9
TORSDOF 4
