REMARK  3 active torsions:
REMARK  status: ('A' for Active; 'I' for Inactive)
REMARK    1  A    between atoms: C2_2  and  C3_3 
REMARK    2  A    between atoms: C3_3  and  C4_4 
REMARK    3  A    between atoms: C4_4  and  N1_5 
ROOT
HETATM    1  N1  UNL     1       0.256  -1.038   0.513  1.00  0.00    -0.372 N 
ATOM      2  H1  UNL     1       0.147  -1.827   1.150  1.00  0.00     0.161 HD
HETATM    3  C5  UNL     1       1.434  -0.564   0.277  1.00  0.00     0.172 A 
HETATM    4  N2  UNL     1       1.646   0.474  -0.552  1.00  0.00    -0.326 N 
ATOM      5  H2  UNL     1       0.845   0.905  -1.013  1.00  0.00     0.168 HD
HETATM    6  C6  UNL     1       2.875   0.966  -0.796  1.00  0.00     0.144 A 
HETATM    7 CL1  UNL     1       3.136   2.320  -1.880  1.00  0.00    -0.061 Cl
HETATM    8  C7  UNL     1       3.991   0.419  -0.197  1.00  0.00     0.145 A 
HETATM    9 CL2  UNL     1       5.604   1.031  -0.490  1.00  0.00    -0.061 Cl
HETATM   10  N3  UNL     1       3.783  -0.620   0.632  1.00  0.00    -0.308 N 
ATOM     11  H3  UNL     1       4.584  -1.052   1.093  1.00  0.00     0.170 HD
HETATM   12  C8  UNL     1       2.552  -1.108   0.873  1.00  0.00     0.290 A 
HETATM   13  O1  UNL     1       2.380  -2.079   1.652  1.00  0.00    -0.264 OA
ENDROOT
BRANCH   1  14
HETATM   14  C4  UNL     1      -0.913  -0.458  -0.121  1.00  0.00     0.121 C 
BRANCH  14  15
HETATM   15  C3  UNL     1      -2.190  -0.952   0.535  1.00  0.00     0.019 C 
BRANCH  15  16
HETATM   16  C2  UNL     1      -3.351  -0.288  -0.198  1.00  0.00    -0.003 C 
HETATM   17  C1  UNL     1      -3.206   1.202  -0.056  1.00  0.00     0.005 C 
ENDBRANCH  15  16
ENDBRANCH  14  15
ENDBRANCH   1  14
TORSDOF 3
