REMARK  5 active torsions:
REMARK  status: ('A' for Active; 'I' for Inactive)
REMARK    1  A    between atoms: N1_1  and  C1_5 
REMARK    2  A    between atoms: C1_5  and  O1_6 
REMARK    3  A    between atoms: C1_5  and  C2_8 
REMARK    4  A    between atoms: C1_5  and  C8_14 
REMARK    5  A    between atoms: C2_8  and  C3_9 
ROOT
HETATM    1  C1  UNL     1      -1.747  -0.167   0.143  1.00  0.00     0.263 C 
ENDROOT
BRANCH   1   2
HETATM    2  N1  UNL     1      -1.730  -1.511   0.705  1.00  0.00    -0.043 N 
ATOM      3  H13 UNL     1      -0.918  -1.643   1.308  1.00  0.00     0.278 HD
ATOM      4  H12 UNL     1      -2.472  -1.626   1.396  1.00  0.00     0.278 HD
ATOM      5  H11 UNL     1      -1.778  -2.242  -0.005  1.00  0.00     0.278 HD
ENDBRANCH   1   2
BRANCH   1   6
HETATM    6  O1  UNL     1      -1.682   0.819   1.100  1.00  0.00    -0.362 OA
ATOM      7  H1  UNL     1      -1.693   1.695   0.734  1.00  0.00     0.212 HD
ENDBRANCH   1   6
BRANCH   1   8
HETATM    8  C2  UNL     1      -0.606  -0.076  -0.825  1.00  0.00     0.077 C 
BRANCH   8   9
HETATM    9  C3  UNL     1       0.713  -0.315  -0.186  1.00  0.00    -0.010 C 
HETATM   10  C4  UNL     1       1.051   0.658   0.913  1.00  0.00     0.005 C 
HETATM   11  C5  UNL     1       2.580   0.750   0.885  1.00  0.00     0.000 C 
HETATM   12  C6  UNL     1       3.029  -0.082  -0.297  1.00  0.00     0.000 C 
HETATM   13  C7  UNL     1       1.815   0.006  -1.201  1.00  0.00     0.005 C 
ENDBRANCH   8   9
ENDBRANCH   1   8
BRANCH   1  14
HETATM   14  C8  UNL     1      -3.069  -0.020  -0.591  1.00  0.00     0.304 C 
HETATM   15  F1  UNL     1      -3.207   1.220  -1.172  1.00  0.00    -0.232 F 
HETATM   16 BR1  UNL     1      -4.535  -0.411   0.624  1.00  0.00    -0.051 Br
ENDBRANCH   1  14
TORSDOF 5
