REMARK  3 active torsions:
REMARK  status: ('A' for Active; 'I' for Inactive)
REMARK    1  A    between atoms: C2_2  and  N1_3 
REMARK    2  A    between atoms: N1_3  and  C3_5 
REMARK    3  A    between atoms: C3_5  and  C4_6 
ROOT
HETATM    1  C3  UNL     1      -0.228   0.195   0.185  1.00  0.00     0.142 C 
HETATM    2  C6  UNL     1      -0.530  -0.795  -0.927  1.00  0.00     0.045 C 
HETATM    3  C7  UNL     1      -1.647  -1.746  -0.604  1.00  0.00     0.023 C 
HETATM    4  C8  UNL     1      -2.969  -1.050  -0.336  1.00  0.00     0.122 C 
HETATM    5  N2  UNL     1      -2.705  -0.081   0.695  1.00  0.00    -0.359 N 
ATOM      6  H2  UNL     1      -3.472   0.456   1.101  1.00  0.00     0.162 HD
HETATM    7  C9  UNL     1      -1.387   0.124   1.141  1.00  0.00     0.248 C 
HETATM    8  O1  UNL     1      -1.136   0.257   2.386  1.00  0.00    -0.271 OA
ENDROOT
BRANCH   1   9
HETATM    9  N1  UNL     1       0.928  -0.173   0.888  1.00  0.00    -0.403 N 
ATOM     10  H1  UNL     1       0.851  -0.321   1.894  1.00  0.00     0.154 HD
BRANCH   9  11
HETATM   11  C2  UNL     1       2.172  -0.348   0.295  1.00  0.00     0.110 C 
HETATM   12  C1  UNL     1       3.313  -0.486   1.335  1.00  0.00     0.026 C 
ENDBRANCH   9  11
ENDBRANCH   1   9
BRANCH   1  13
HETATM   13  C4  UNL     1      -0.229   1.609  -0.353  1.00  0.00     0.143 C 
HETATM   14  C5  UNL     1       0.814   1.995  -1.312  1.00  0.00     0.053 C 
HETATM   15 CL1  UNL     1      -0.018   2.657   1.110  1.00  0.00    -0.099 Cl
HETATM   16 CL2  UNL     1      -1.833   2.071  -1.010  1.00  0.00    -0.099 Cl
ENDBRANCH   1  13
TORSDOF 3
