REMARK  6 active torsions:
REMARK  status: ('A' for Active; 'I' for Inactive)
REMARK    1  A    between atoms: C1_2  and  N1_3 
REMARK    2  A    between atoms: N1_3  and  C2_5 
REMARK    3  A    between atoms: C2_5  and  C3_6 
REMARK    4  A    between atoms: C2_5  and  N2_13 
REMARK    5  A    between atoms: C3_6  and  C4_7 
REMARK    6  A    between atoms: N2_13  and  C10_15 
ROOT
HETATM    1  C2  UNL     1      -0.977  -1.361   0.066  1.00  0.00     0.089 C 
ENDROOT
BRANCH   1   2
HETATM    2  N1  UNL     1      -1.584  -1.704   1.143  1.00  0.00    -0.324 N 
ATOM      3  H1  UNL     1      -2.520  -1.332   1.306  1.00  0.00     0.169 HD
BRANCH   2   4
HETATM    4  C1  UNL     1      -1.035  -2.561   2.110  1.00  0.00     0.354 C 
HETATM    5  O1  UNL     1      -1.221  -3.810   1.956  1.00  0.00    -0.283 OA
ENDBRANCH   2   4
ENDBRANCH   1   2
BRANCH   1   6
HETATM    6  C3  UNL     1       0.380  -1.903  -0.167  1.00  0.00     0.115 C 
BRANCH   6   7
HETATM    7  C4  UNL     1       1.306  -0.750  -0.270  1.00  0.00    -0.051 A 
HETATM    8  C5  UNL     1       1.917  -0.265   0.865  1.00  0.00     0.007 A 
HETATM    9  C6  UNL     1       2.784   0.804   0.813  1.00  0.00     0.001 A 
HETATM   10  C7  UNL     1       3.054   1.408  -0.393  1.00  0.00     0.000 A 
HETATM   11  C8  UNL     1       2.444   0.924  -1.529  1.00  0.00     0.001 A 
HETATM   12  C9  UNL     1       1.578  -0.144  -1.476  1.00  0.00     0.007 A 
ENDBRANCH   6   7
ENDBRANCH   1   6
BRANCH   1  13
HETATM   13  N2  UNL     1      -1.539  -0.509  -0.880  1.00  0.00    -0.325 N 
ATOM     14  H2  UNL     1      -1.478  -0.762  -1.866  1.00  0.00     0.169 HD
BRANCH  13  15
HETATM   15  C10 UNL     1      -2.146   0.609  -0.550  1.00  0.00     0.165 A 
HETATM   16  N3  UNL     1      -2.713   1.487  -1.386  1.00  0.00    -0.279 N 
HETATM   17  N4  UNL     1      -3.257   2.519  -0.895  1.00  0.00    -0.303 N 
ATOM     18  H3  UNL     1      -2.707   1.328  -2.394  1.00  0.00     0.189 HD
HETATM   19  C11 UNL     1      -3.265   2.726   0.411  1.00  0.00     0.160 A 
ATOM     20  H4  UNL     1      -3.695   3.200  -1.515  1.00  0.00     0.186 HD
HETATM   21  S1  UNL     1      -2.434   1.342   0.965  1.00  0.00    -0.046 SA
ENDBRANCH  13  15
ENDBRANCH   1  13
TORSDOF 6
