REMARK  4 active torsions:
REMARK  status: ('A' for Active; 'I' for Inactive)
REMARK    1  A    between atoms: C2_3  and  C4_6 
REMARK    2  A    between atoms: C5_9  and  C6_10 
REMARK    3  A    between atoms: C6_10  and  C7_11 
REMARK    4  A    between atoms: C14_18  and  C15_19 
ROOT
HETATM    1  N1  UNL     1      -4.762   2.457   0.578  1.00  0.00    -0.191 NA
HETATM    2  C1  UNL     1      -4.236   1.823  -0.216  1.00  0.00     0.113 C 
HETATM    3  C2  UNL     1      -3.531   1.001  -1.231  1.00  0.00     0.152 C 
HETATM    4  C3  UNL     1      -4.298   0.692  -2.378  1.00  0.00     0.113 C 
HETATM    5  N2  UNL     1      -4.980   0.451  -3.296  1.00  0.00    -0.191 NA
ENDROOT
BRANCH   3   6
HETATM    6  C4  UNL     1      -2.324   0.617  -0.942  1.00  0.00     0.077 A 
HETATM    7  N3  UNL     1      -1.748   0.967   0.268  1.00  0.00    -0.354 N 
HETATM    8  C5  UNL     1      -0.534   0.465   0.395  1.00  0.00     0.034 A 
ATOM      9  H3  UNL     1      -2.206   1.542   0.975  1.00  0.00     0.166 HD
HETATM   10  C13 UNL     1      -0.280  -0.234  -0.741  1.00  0.00     0.046 A 
HETATM   11  C14 UNL     1      -1.407  -0.151  -1.615  1.00  0.00     0.033 A 
BRANCH   8  12
HETATM   12  C6  UNL     1       0.318   0.578   1.398  1.00  0.00     0.041 C 
BRANCH  12  13
HETATM   13  C7  UNL     1       1.622  -0.034   1.393  1.00  0.00    -0.034 A 
HETATM   14  C8  UNL     1       2.587   0.397   0.501  1.00  0.00     0.011 A 
HETATM   15  C9  UNL     1       3.810  -0.207   0.526  1.00  0.00     0.001 A 
HETATM   16  C10 UNL     1       4.079  -1.212   1.408  1.00  0.00     0.000 A 
HETATM   17  C11 UNL     1       3.129  -1.648   2.298  1.00  0.00     0.001 A 
HETATM   18  C12 UNL     1       1.878  -1.053   2.294  1.00  0.00     0.011 A 
ENDBRANCH  12  13
ENDBRANCH   8  12
BRANCH  11  19
HETATM   19  C15 UNL     1      -1.401  -0.721  -2.935  1.00  0.00     0.272 C 
HETATM   20  O1  UNL     1      -1.934  -0.287  -3.932  1.00  0.00    -0.301 OA
ENDBRANCH  11  19
ENDBRANCH   3   6
TORSDOF 4
