REMARK  4 active torsions:
REMARK  status: ('A' for Active; 'I' for Inactive)
REMARK    1  A    between atoms: N2_5  and  C4_6 
REMARK    2  A    between atoms: C4_6  and  C5_7 
REMARK    3  A    between atoms: C12_15  and  C13_16 
REMARK    4  A    between atoms: C14_17  and  N4_18 
ROOT
HETATM    1  C5  UNL     1       1.519   0.114   0.850  1.00  0.00    -0.038 A 
HETATM    2  C6  UNL     1       1.575   1.428   0.452  1.00  0.00     0.009 A 
HETATM    3  C7  UNL     1       2.622   1.962  -0.269  1.00  0.00     0.002 A 
HETATM    4  C8  UNL     1       3.691   1.148  -0.625  1.00  0.00     0.022 A 
HETATM    5  C9  UNL     1       3.662  -0.174  -0.240  1.00  0.00     0.045 A 
HETATM    6  C10 UNL     1       4.779  -0.994  -0.620  1.00  0.00     0.099 C 
HETATM    7  N3  UNL     1       5.698  -1.662  -0.921  1.00  0.00    -0.191 NA
HETATM    8  C11 UNL     1       2.596  -0.688   0.486  1.00  0.00     0.031 A 
ENDROOT
BRANCH   1   9
HETATM    9  C4  UNL     1       0.395  -0.459   1.621  1.00  0.00     0.169 C 
BRANCH   9  10
HETATM   10  N2  UNL     1      -0.628  -1.035   0.764  1.00  0.00    -0.330 N 
HETATM   11  C3  UNL     1      -0.633  -2.331   0.338  1.00  0.00     0.110 A 
HETATM   12  C2  UNL     1      -1.736  -2.540  -0.455  1.00  0.00     0.110 A 
HETATM   13  N1  UNL     1      -2.397  -1.371  -0.508  1.00  0.00    -0.339 N 
HETATM   14  C1  UNL     1      -3.646  -1.169  -1.262  1.00  0.00     0.158 C 
HETATM   15  C12 UNL     1      -1.726  -0.489   0.221  1.00  0.00     0.167 A 
BRANCH  15  16
HETATM   16  C13 UNL     1      -2.125   0.890   0.412  1.00  0.00    -0.007 C 
HETATM   17  C14 UNL     1      -2.439   2.043   0.580  1.00  0.00     0.012 C 
BRANCH  17  18
HETATM   18  N4  UNL     1      -2.783   3.385   0.779  1.00  0.00    -0.359 N 
ATOM     19  H42 UNL     1      -1.987   2.747   0.786  1.00  0.00     0.166 HD
ATOM     20  H41 UNL     1      -3.048   4.360   0.921  1.00  0.00     0.166 HD
ENDBRANCH  17  18
ENDBRANCH  15  16
ENDBRANCH   9  10
ENDBRANCH   1   9
TORSDOF 4
