REMARK  3 active torsions:
REMARK  status: ('A' for Active; 'I' for Inactive)
REMARK    1  A    between atoms: C2_2  and  O1_3 
REMARK    2  A    between atoms: O1_3  and  C3_4 
REMARK    3  A    between atoms: N3_16  and  O2_17 
ROOT
HETATM    1  C3  UNL     1       0.790   0.285  -0.337  1.00  0.00     0.184 A 
HETATM    2  C4  UNL     1      -0.194  -0.677  -0.626  1.00  0.00     0.044 A 
HETATM    3  C5  UNL     1       0.069  -1.734  -1.462  1.00  0.00     0.018 A 
HETATM    4  C6  UNL     1      -0.907  -2.670  -1.735  1.00  0.00     0.001 A 
HETATM    5  C7  UNL     1      -2.150  -2.528  -1.156  1.00  0.00     0.002 A 
HETATM    6  C8  UNL     1      -2.450  -1.482  -0.313  1.00  0.00     0.031 A 
HETATM    7  C9  UNL     1      -1.442  -0.567  -0.067  1.00  0.00     0.050 A 
HETATM    8  N1  UNL     1      -1.699   0.479   0.759  1.00  0.00    -0.326 N 
HETATM    9  C10 UNL     1      -3.009   0.569   1.328  1.00  0.00     0.159 C 
HETATM   10  C11 UNL     1      -0.775   1.404   1.044  1.00  0.00     0.219 A 
HETATM   11  C12 UNL     1      -1.075   2.498   1.921  1.00  0.00     0.139 C 
HETATM   12  N2  UNL     1      -1.303   3.402   2.630  1.00  0.00    -0.188 NA
HETATM   13  N3  UNL     1       0.457   1.287   0.486  1.00  0.00    -0.173 N 
ENDROOT
BRANCH  13  14
HETATM   14  O2  UNL     1       1.365   2.299   0.806  1.00  0.00    -0.279 OA
ATOM     15  H2  UNL     1       1.129   3.010   1.390  1.00  0.00     0.245 HD
ENDBRANCH  13  14
BRANCH   1  16
HETATM   16  O1  UNL     1       1.980   0.099  -0.929  1.00  0.00    -0.334 OA
BRANCH  16  17
HETATM   17  C2  UNL     1       3.195   0.703  -0.939  1.00  0.00     0.173 C 
HETATM   18  C1  UNL     1       3.889   0.705   0.402  1.00  0.00     0.034 C 
ENDBRANCH  16  17
ENDBRANCH   1  16
TORSDOF 3
