REMARK  3 active torsions:
REMARK  status: ('A' for Active; 'I' for Inactive)
REMARK    1  A    between atoms: C7_9  and  C8_10 
REMARK    2  A    between atoms: C8_10  and  N2_11 
REMARK    3  A    between atoms: N2_11  and  C9_13 
ROOT
HETATM    1  C1  UNL     1      -3.212   1.671   0.399  1.00  0.00     0.317 C 
HETATM    2  N1  UNL     1      -2.942   0.303   0.810  1.00  0.00     0.147 N 
HETATM    3  C2  UNL     1      -4.191  -0.454   0.659  1.00  0.00     0.279 C 
HETATM    4  C3  UNL     1      -4.317  -0.675  -0.838  1.00  0.00     0.038 C 
HETATM    5  C4  UNL     1      -2.915  -0.477  -1.391  1.00  0.00     0.106 C 
HETATM    6  C5  UNL     1      -2.103  -0.392  -0.141  1.00  0.00     0.373 C 
HETATM    7  O1  UNL     1      -1.802  -1.642   0.397  1.00  0.00    -0.328 OA
HETATM    8  C6  UNL     1      -0.942  -1.290   1.434  1.00  0.00     0.207 C 
HETATM    9  C7  UNL     1      -0.089  -0.225   0.794  1.00  0.00     0.168 C 
HETATM   10  O3  UNL     1      -0.849   0.165  -0.300  1.00  0.00    -0.322 OA
ENDROOT
BRANCH   9  11
HETATM   11  C8  UNL     1       1.271  -0.779   0.415  1.00  0.00     0.148 C 
BRANCH  11  12
HETATM   12  N2  UNL     1       1.978   0.226  -0.278  1.00  0.00    -0.412 N 
ATOM     13  H2  UNL     1       1.552   1.135  -0.456  1.00  0.00     0.153 HD
BRANCH  12  14
HETATM   14  C9  UNL     1       3.289  -0.055  -0.720  1.00  0.00     0.102 C 
HETATM   15  C10 UNL     1       4.306  -0.347   0.317  1.00  0.00     0.053 C 
HETATM   16  C11 UNL     1       5.143   0.941   0.324  1.00  0.00     0.169 C 
HETATM   17  O2  UNL     1       5.178   1.285  -1.027  1.00  0.00    -0.389 OA
HETATM   18  C12 UNL     1       3.846   1.185  -1.394  1.00  0.00     0.192 C 
ENDBRANCH  12  14
ENDBRANCH  11  12
ENDBRANCH   9  11
TORSDOF 3
