REMARK  5 active torsions:
REMARK  status: ('A' for Active; 'I' for Inactive)
REMARK    1  A    between atoms: O1_2  and  C2_3 
REMARK    2  A    between atoms: C2_3  and  C3_5 
REMARK    3  A    between atoms: C3_5  and  N1_7 
REMARK       I    between atoms: N1_7  and  C4_9 
REMARK    4  A    between atoms: C4_9  and  C5_11 
REMARK    5  A    between atoms: C7_13  and  O4_15 
ROOT
HETATM    1  N1  UNL     1      -1.113  -0.210  -0.048  1.00  0.00    -0.313 N 
ATOM      2  H1  UNL     1      -1.088  -1.062   0.512  1.00  0.00     0.170 HD
HETATM    3  C4  UNL     1       0.122   0.409  -0.365  1.00  0.00     0.230 C 
HETATM    4  O3  UNL     1       0.061   1.454  -1.055  1.00  0.00    -0.273 OA
ENDROOT
BRANCH   1   5
HETATM    5  C3  UNL     1      -2.384   0.276  -0.458  1.00  0.00     0.179 C 
HETATM    6  S1  UNL     1      -2.466   1.642  -1.361  1.00  0.00    -0.054 SA
BRANCH   5   7
HETATM    7  C2  UNL     1      -3.571  -0.452  -0.066  1.00  0.00     0.321 C 
HETATM    8  O2  UNL     1      -3.448  -1.489   0.624  1.00  0.00    -0.257 OA
BRANCH   7   9
HETATM    9  O1  UNL     1      -4.855  -0.068  -0.410  1.00  0.00    -0.321 OA
HETATM   10  C1  UNL     1      -5.970  -0.837   0.014  1.00  0.00     0.213 C 
ENDBRANCH   7   9
ENDBRANCH   5   7
ENDBRANCH   1   5
BRANCH   3  11
HETATM   11  C5  UNL     1       1.390  -0.139   0.086  1.00  0.00     0.115 A 
HETATM   12  C6  UNL     1       2.496  -0.095  -0.982  1.00  0.00     0.055 A 
HETATM   13  C7  UNL     1       2.613   0.648   0.296  1.00  0.00     0.070 A 
HETATM   14  C8  UNL     1       2.576   2.168   0.273  1.00  0.00     0.047 C 
BRANCH  13  15
HETATM   15  O4  UNL     1       3.547   0.186   1.198  1.00  0.00    -0.384 OA
HETATM   16  C9  UNL     1       4.036  -1.034   0.807  1.00  0.00     0.202 C 
ENDBRANCH  13  15
ENDBRANCH   3  11
TORSDOF 5
