REMARK  5 active torsions:
REMARK  status: ('A' for Active; 'I' for Inactive)
REMARK    1  A    between atoms: C2_2  and  O1_4 
REMARK    2  A    between atoms: O1_4  and  C4_5 
REMARK    3  A    between atoms: C4_5  and  C5_7 
REMARK    4  A    between atoms: C5_7  and  C7_9 
REMARK    5  A    between atoms: C7_9  and  O3_10 
ROOT
HETATM    1  C7  UNL     1      -1.048  -0.131   0.742  1.00  0.00     0.280 C 
HETATM    2  N1  UNL     1      -1.145  -1.564   0.907  1.00  0.00     0.122 N 
HETATM    3  C8  UNL     1      -1.145  -2.389  -0.240  1.00  0.00     0.314 C 
HETATM    4  C9  UNL     1      -2.529  -1.317   1.356  1.00  0.00     0.290 C 
HETATM    5  C10 UNL     1      -2.444  -0.035   0.517  1.00  0.00     0.051 A 
HETATM    6  C11 UNL     1      -3.355   0.143  -0.533  1.00  0.00     0.022 A 
HETATM    7  C12 UNL     1      -3.375   1.058   0.716  1.00  0.00    -0.003 A 
HETATM    8  C13 UNL     1      -2.986   2.492   0.562  1.00  0.00     0.011 C 
ENDROOT
BRANCH   1   9
HETATM    9  C5  UNL     1      -0.002   0.390  -0.161  1.00  0.00     0.148 C 
HETATM   10  C6  UNL     1      -0.086   0.102  -1.591  1.00  0.00     0.025 C 
BRANCH   9  11
HETATM   11  C4  UNL     1       1.325  -0.129   0.341  1.00  0.00     0.267 C 
HETATM   12  O2  UNL     1       1.408  -0.995   1.240  1.00  0.00    -0.265 OA
BRANCH  11  13
HETATM   13  O1  UNL     1       2.514   0.350  -0.194  1.00  0.00    -0.316 OA
BRANCH  13  14
HETATM   14  C2  UNL     1       3.747  -0.141   0.282  1.00  0.00     0.123 C 
HETATM   15  C1  UNL     1       4.543   1.042   0.794  1.00  0.00     0.040 C 
HETATM   16  C3  UNL     1       4.535  -0.764  -0.855  1.00  0.00     0.040 C 
ENDBRANCH  13  14
ENDBRANCH  11  13
ENDBRANCH   9  11
ENDBRANCH   1   9
BRANCH   1  17
HETATM   17  O3  UNL     1      -0.725   0.370   2.042  1.00  0.00    -0.362 OA
ATOM     18  H3  UNL     1      -1.398   0.035   2.623  1.00  0.00     0.212 HD
ENDBRANCH   1  17
TORSDOF 5
