REMARK  5 active torsions:
REMARK  status: ('A' for Active; 'I' for Inactive)
REMARK    1  A    between atoms: C2_2  and  O2_4 
REMARK    2  A    between atoms: O2_4  and  C3_5 
REMARK    3  A    between atoms: C9_13  and  C10_14 
REMARK    4  A    between atoms: C10_14  and  C11_16 
REMARK    5  A    between atoms: C11_16  and  O6_17 
ROOT
HETATM    1  C3  UNL     1       1.737  -0.084   0.226  1.00  0.00     0.272 C 
HETATM    2  C4  UNL     1       0.810   0.254  -0.883  1.00  0.00     0.097 C 
HETATM    3  C5  UNL     1      -0.575  -0.308  -0.807  1.00  0.00     0.174 C 
HETATM    4  O3  UNL     1      -1.419   0.701  -1.324  1.00  0.00    -0.347 OA
HETATM    5  C6  UNL     1      -1.755   1.506  -0.268  1.00  0.00     0.159 C 
HETATM    6  C7  UNL     1      -3.280   1.681  -0.338  1.00  0.00     0.078 C 
HETATM    7  C8  UNL     1      -1.209   2.923  -0.365  1.00  0.00     0.078 C 
HETATM    8  O4  UNL     1      -1.348   0.889   0.909  1.00  0.00    -0.332 OA
HETATM    9  C9  UNL     1      -1.042  -0.465   0.562  1.00  0.00     0.178 C 
HETATM   10  C12 UNL     1       0.090  -0.873   1.506  1.00  0.00     0.165 C 
HETATM   11  C13 UNL     1       0.653  -2.195   1.158  1.00  0.00     0.043 C 
HETATM   12  O7  UNL     1       1.116   0.065   1.440  1.00  0.00    -0.352 OA
ENDROOT
BRANCH   9  13
HETATM   13  C10 UNL     1      -2.201  -1.259   0.879  1.00  0.00     0.189 C 
HETATM   14  O5  UNL     1      -3.078  -0.694   1.574  1.00  0.00    -0.292 OA
BRANCH  13  15
HETATM   15  C11 UNL     1      -2.603  -2.624   0.561  1.00  0.00     0.245 C 
BRANCH  15  16
HETATM   16  O6  UNL     1      -1.861  -3.369  -0.282  1.00  0.00    -0.393 OA
ATOM     17  H6  UNL     1      -2.123  -4.258  -0.489  1.00  0.00     0.209 HD
ENDBRANCH  15  16
ENDBRANCH  13  15
ENDBRANCH   9  13
BRANCH   1  18
HETATM   18  O2  UNL     1       2.788   0.900   0.205  1.00  0.00    -0.290 OA
BRANCH  18  19
HETATM   19  C2  UNL     1       4.116   0.588   0.039  1.00  0.00     0.257 C 
HETATM   20  C1  UNL     1       5.201   1.601   0.018  1.00  0.00     0.126 C 
HETATM   21  O1  UNL     1       4.388  -0.653  -0.100  1.00  0.00    -0.266 OA
ENDBRANCH  18  19
ENDBRANCH   1  18
TORSDOF 5
