REMARK  4 active torsions:
REMARK  status: ('A' for Active; 'I' for Inactive)
REMARK    1  A    between atoms: C2_2  and  C3_3 
REMARK    2  A    between atoms: C8_10  and  O3_11 
REMARK    3  A    between atoms: C11_17  and  C12_18 
REMARK    4  A    between atoms: C12_18  and  O7_20 
ROOT
HETATM    1  C3  UNL     1       0.844  -1.354  -0.407  1.00  0.00     0.184 C 
HETATM    2  O1  UNL     1      -0.498  -1.031  -0.302  1.00  0.00    -0.346 OA
HETATM    3  C4  UNL     1      -0.785   0.283  -0.578  1.00  0.00     0.296 C 
HETATM    4  O2  UNL     1      -2.033   0.342  -1.175  1.00  0.00    -0.346 OA
HETATM    5  C5  UNL     1      -2.973   0.579  -0.215  1.00  0.00     0.085 C 
HETATM    6  C6  UNL     1      -3.865   1.743  -0.648  1.00  0.00     0.048 C 
HETATM    7  C7  UNL     1      -3.870  -0.625   0.050  1.00  0.00     0.048 C 
HETATM    8  C8  UNL     1      -2.307   0.947   1.062  1.00  0.00     0.189 C 
HETATM    9  C9  UNL     1      -0.871   1.155   0.647  1.00  0.00     0.247 C 
HETATM   10  O4  UNL     1       0.020   0.811   1.638  1.00  0.00    -0.222 OA
HETATM   11  O5  UNL     1       1.233   0.705   1.102  1.00  0.00    -0.199 OA
HETATM   12  C10 UNL     1       1.627  -0.215   0.130  1.00  0.00     0.119 C 
HETATM   13  C11 UNL     1       2.829  -0.060  -0.371  1.00  0.00     0.120 C 
ENDROOT
BRANCH   1  14
HETATM   14  C2  UNL     1       1.074  -2.544   0.535  1.00  0.00     0.034 C 
HETATM   15  C1  UNL     1       0.169  -3.683   0.059  1.00  0.00     0.008 C 
ENDBRANCH   1  14
BRANCH  13  16
HETATM   16  C12 UNL     1       3.683   1.042   0.098  1.00  0.00     0.285 C 
HETATM   17  O6  UNL     1       3.311   1.858   0.972  1.00  0.00    -0.260 OA
BRANCH  16  18
HETATM   18  O7  UNL     1       4.957   1.216  -0.425  1.00  0.00    -0.323 OA
HETATM   19  C13 UNL     1       5.791   2.271   0.015  1.00  0.00     0.213 C 
ENDBRANCH  16  18
ENDBRANCH  13  16
BRANCH   8  20
HETATM   20  O3  UNL     1      -2.317  -0.084   2.013  1.00  0.00    -0.390 OA
ATOM     21  H3  UNL     1      -1.891   0.151   2.829  1.00  0.00     0.210 HD
ENDBRANCH   8  20
TORSDOF 4
