REMARK  4 active torsions:
REMARK  status: ('A' for Active; 'I' for Inactive)
REMARK    1  A    between atoms: C2_2  and  C3_3 
REMARK    2  A    between atoms: N1_5  and  C5_6 
REMARK    3  A    between atoms: N2_7  and  N3_9 
REMARK    4  A    between atoms: C6_10  and  O1_11 
ROOT
HETATM    1  C5  UNL     1       1.129  -0.415  -0.352  1.00  0.00     0.196 C 
HETATM    2  N2  UNL     1       2.002   0.471  -0.061  1.00  0.00    -0.285 N 
ATOM      3  H2  UNL     1       1.753   1.450  -0.202  1.00  0.00     0.188 HD
ENDROOT
BRANCH   2   4
HETATM    4  N3  UNL     1       3.268   0.189   0.434  1.00  0.00    -0.205 N 
HETATM    5  C6  UNL     1       4.393   0.784  -0.029  1.00  0.00     0.179 A 
HETATM    6  C7  UNL     1       5.452   0.264   0.689  1.00  0.00     0.148 A 
HETATM    7  N4  UNL     1       4.920  -0.620   1.552  1.00  0.00    -0.337 N 
HETATM    8  C8  UNL     1       3.583  -0.680   1.412  1.00  0.00     0.199 A 
ATOM      9  H4  UNL     1       5.457  -1.170   2.222  1.00  0.00     0.167 HD
HETATM   10  S1  UNL     1       2.555  -1.631   2.270  1.00  0.00    -0.039 SA
BRANCH   5  11
HETATM   11  O1  UNL     1       4.473   1.743  -1.042  1.00  0.00    -0.344 OA
ATOM     12  H1  UNL     1       5.262   2.160  -1.367  1.00  0.00     0.219 HD
ENDBRANCH   5  11
ENDBRANCH   2   4
BRANCH   1  13
HETATM   13  N1  UNL     1      -0.134  -0.025  -0.852  1.00  0.00    -0.376 N 
HETATM   14  C4  UNL     1      -0.809   1.125  -0.288  1.00  0.00     0.129 C 
HETATM   15  C3  UNL     1      -2.286   0.855  -0.040  1.00  0.00     0.022 C 
HETATM   16  C11 UNL     1      -2.826   0.186  -1.269  1.00  0.00     0.089 C 
HETATM   17  C10 UNL     1      -2.137  -1.133  -1.505  1.00  0.00     0.040 C 
HETATM   18 CL1  UNL     1      -4.576   0.095  -1.346  1.00  0.00    -0.124 Cl
HETATM   19  C9  UNL     1      -0.709  -0.812  -1.932  1.00  0.00     0.125 C 
BRANCH  15  20
HETATM   20  C2  UNL     1      -2.485   0.072   1.228  1.00  0.00     0.003 C 
HETATM   21  C1  UNL     1      -3.933  -0.216   1.513  1.00  0.00     0.005 C 
ENDBRANCH  15  20
ENDBRANCH   1  13
TORSDOF 4
