REMARK  6 active torsions:
REMARK  status: ('A' for Active; 'I' for Inactive)
REMARK    1  A    between atoms: C6_6  and  N1_7 
REMARK    2  A    between atoms: N1_7  and  C7_9 
REMARK    3  A    between atoms: N3_13  and  C9_14 
REMARK    4  A    between atoms: C9_14  and  C10_15 
REMARK    5  A    between atoms: C10_15  and  C13_18 
REMARK    6  A    between atoms: C13_18  and  O1_20 
ROOT
HETATM    1  C7  UNL     1      -1.003   0.151   1.610  1.00  0.00     0.694 A 
HETATM    2  N2  UNL     1      -0.352   0.712   2.639  1.00  0.00    -0.185 N 
ATOM      3  H2  UNL     1      -0.796   1.224   3.401  1.00  0.00     0.185 HD
HETATM    4  C8  UNL     1       0.967   0.502   2.521  1.00  0.00     0.218 A 
HETATM    5  N3  UNL     1       1.152  -0.205   1.396  1.00  0.00    -0.272 N 
HETATM    6  N4  UNL     1      -0.040  -0.407   0.862  1.00  0.00    -0.129 N 
ATOM      7  H4  UNL     1      -0.206  -0.919  -0.004  1.00  0.00     0.206 HD
ENDROOT
BRANCH   5   8
HETATM    8  C9  UNL     1       2.391  -0.687   0.820  1.00  0.00     0.164 C 
BRANCH   8   9
HETATM    9  C10 UNL     1       2.994   0.323  -0.133  1.00  0.00     0.031 C 
HETATM   10  C11 UNL     1       3.282   1.602   0.598  1.00  0.00     0.022 C 
HETATM   11  C12 UNL     1       1.980   0.648  -1.229  1.00  0.00     0.022 C 
BRANCH   9  12
HETATM   12  C13 UNL     1       4.223  -0.186  -0.802  1.00  0.00     0.207 C 
HETATM   13  C14 UNL     1       4.016  -1.417  -1.617  1.00  0.00     0.085 C 
HETATM   14  F1  UNL     1       4.668   0.814  -1.668  1.00  0.00    -0.211 F 
BRANCH  12  15
HETATM   15  O1  UNL     1       5.271  -0.422   0.082  1.00  0.00    -0.361 OA
ATOM     16  H1  UNL     1       6.055  -0.747  -0.345  1.00  0.00     0.213 HD
ENDBRANCH  12  15
ENDBRANCH   9  12
ENDBRANCH   8   9
ENDBRANCH   5   8
BRANCH   1  17
HETATM   17  N1  UNL     1      -2.269   0.139   1.374  1.00  0.00    -0.220 N 
ATOM     18  H1  UNL     1      -2.916   0.598   2.015  1.00  0.00     0.178 HD
BRANCH  17  19
HETATM   19  C6  UNL     1      -2.766  -0.533   0.190  1.00  0.00     0.103 C 
HETATM   20  C2  UNL     1      -4.267  -0.664   0.277  1.00  0.00     0.005 C 
HETATM   21  C1  UNL     1      -4.688  -1.736  -0.697  1.00  0.00     0.012 C 
HETATM   22  C3  UNL     1      -4.801   0.682  -0.139  1.00  0.00     0.006 C 
HETATM   23  C4  UNL     1      -3.624   1.507  -0.596  1.00  0.00     0.002 C 
HETATM   24  C5  UNL     1      -2.611   0.452  -0.966  1.00  0.00     0.026 C 
ENDBRANCH  17  19
ENDBRANCH   1  17
TORSDOF 6
