REMARK  6 active torsions:
REMARK  status: ('A' for Active; 'I' for Inactive)
REMARK    1  A    between atoms: C5_5  and  C6_6 
REMARK    2  A    between atoms: C6_6  and  C7_7 
REMARK    3  A    between atoms: N1_8  and  N2_10 
REMARK    4  A    between atoms: N2_10  and  C8_12 
REMARK    5  A    between atoms: C8_12  and  N3_14 
REMARK    6  A    between atoms: N3_14  and  C9_16 
ROOT
HETATM    1  C1  UNL     1       5.614  -1.861  -1.090  1.00  0.00     0.017 C 
HETATM    2  C2  UNL     1       4.846  -1.070  -0.592  1.00  0.00    -0.083 C 
HETATM    3  C3  UNL     1       3.951  -0.112  -0.004  1.00  0.00    -0.013 C 
HETATM    4  C4  UNL     1       4.352   0.557   1.262  1.00  0.00     0.057 C 
HETATM    5  C5  UNL     1       2.812   0.159  -0.573  1.00  0.00    -0.006 C 
ENDROOT
BRANCH   5   6
HETATM    6  C6  UNL     1       1.858   1.138  -0.003  1.00  0.00     0.074 C 
BRANCH   6   7
HETATM    7  C7  UNL     1       0.549   0.461   0.300  1.00  0.00     0.084 C 
HETATM    8  N1  UNL     1      -0.265   0.307  -0.687  1.00  0.00    -0.313 N 
ATOM      9  H1  UNL     1      -0.029   0.630  -1.626  1.00  0.00     0.185 HD
BRANCH   8  10
HETATM   10  N2  UNL     1      -1.481  -0.319  -0.418  1.00  0.00    -0.277 N 
ATOM     11  H2  UNL     1      -1.687  -1.224  -0.841  1.00  0.00     0.189 HD
BRANCH  10  12
HETATM   12  C8  UNL     1      -2.438   0.290   0.439  1.00  0.00     0.192 C 
HETATM   13  S1  UNL     1      -2.102   1.740   1.112  1.00  0.00    -0.039 SA
BRANCH  12  14
HETATM   14  N3  UNL     1      -3.670  -0.309   0.733  1.00  0.00    -0.314 N 
ATOM     15  H3  UNL     1      -3.745  -0.800   1.624  1.00  0.00     0.170 HD
BRANCH  14  16
HETATM   16  C9  UNL     1      -4.707  -0.297  -0.011  1.00  0.00     0.170 A 
HETATM   17  N4  UNL     1      -4.939   0.244  -1.212  1.00  0.00    -0.222 N 
HETATM   18  O1  UNL     1      -6.160  -0.002  -1.590  1.00  0.00    -0.154 OA
ATOM     19  H4  UNL     1      -4.257   0.774  -1.754  1.00  0.00     0.198 HD
HETATM   20  N5  UNL     1      -6.753  -0.698  -0.664  1.00  0.00    -0.226 N 
HETATM   21  C10 UNL     1      -5.896  -0.916   0.351  1.00  0.00     0.171 A 
ATOM     22  H5  UNL     1      -7.718  -1.027  -0.701  1.00  0.00     0.198 HD
HETATM   23 CL1  UNL     1      -6.198  -1.802   1.845  1.00  0.00    -0.058 Cl
ENDBRANCH  14  16
ENDBRANCH  12  14
ENDBRANCH  10  12
ENDBRANCH   8  10
ENDBRANCH   6   7
ENDBRANCH   5   6
TORSDOF 6
