REMARK  2 active torsions:
REMARK  status: ('A' for Active; 'I' for Inactive)
REMARK    1  A    between atoms: C2_2  and  O1_3 
REMARK    2  A    between atoms: O1_3  and  C3_4 
ROOT
HETATM    1  C3  UNL     1      -1.668   0.140  -0.550  1.00  0.00     0.264 C 
HETATM    2  C4  UNL     1      -0.747  -0.389  -1.603  1.00  0.00     0.102 C 
HETATM    3  C5  UNL     1       0.584  -0.638  -1.044  1.00  0.00    -0.018 A 
HETATM    4  C6  UNL     1       1.493  -1.497  -1.640  1.00  0.00     0.065 A 
HETATM    5 CL1  UNL     1       1.002  -2.302  -3.118  1.00  0.00    -0.082 Cl
HETATM    6  C7  UNL     1       2.746  -1.733  -1.118  1.00  0.00     0.092 A 
HETATM    7 CL2  UNL     1       3.838  -2.816  -1.906  1.00  0.00    -0.079 Cl
HETATM    8  C8  UNL     1       3.109  -1.086   0.049  1.00  0.00     0.129 A 
HETATM    9  C9  UNL     1       2.217  -0.223   0.663  1.00  0.00     0.116 A 
HETATM   10  C10 UNL     1       0.957  -0.002   0.113  1.00  0.00     0.015 A 
HETATM   11  C11 UNL     1       0.050   0.916   0.796  1.00  0.00     0.157 C 
HETATM   12  C12 UNL     1       0.752   2.265   1.019  1.00  0.00     0.045 C 
HETATM   13  O2  UNL     1      -1.127   1.197   0.165  1.00  0.00    -0.351 OA
HETATM   14  O3  UNL     1       2.829   0.293   1.812  1.00  0.00    -0.322 OA
HETATM   15  C13 UNL     1       4.215   0.032   1.714  1.00  0.00     0.352 C 
HETATM   16  O4  UNL     1       4.268  -1.089   0.838  1.00  0.00    -0.321 OA
ENDROOT
BRANCH   1  17
HETATM   17  O1  UNL     1      -2.809   0.621  -1.198  1.00  0.00    -0.361 OA
BRANCH  17  18
HETATM   18  C2  UNL     1      -3.948  -0.079  -0.830  1.00  0.00     0.166 C 
HETATM   19  C1  UNL     1      -4.234  -0.001   0.643  1.00  0.00     0.033 C 
ENDBRANCH  17  18
ENDBRANCH   1  17
TORSDOF 2
