REMARK  3 active torsions:
REMARK  status: ('A' for Active; 'I' for Inactive)
REMARK    1  A    between atoms: C3_6  and  C4_7 
REMARK    2  A    between atoms: C4_7  and  S1_8 
REMARK    3  A    between atoms: S1_8  and  C5_9 
ROOT
HETATM    1  C1  UNL     1      -3.668   0.377   0.543  1.00  0.00     0.081 C 
HETATM    2  C2  UNL     1      -2.210   0.210   0.859  1.00  0.00     0.095 A 
HETATM    3  O1  UNL     1      -1.452   0.661   1.779  1.00  0.00    -0.241 OA
HETATM    4  N1  UNL     1      -0.236   0.268   1.644  1.00  0.00    -0.263 N 
ATOM      5  H1  UNL     1       0.531   0.515   2.269  1.00  0.00     0.194 HD
HETATM    6  C3  UNL     1      -0.124  -0.499   0.583  1.00  0.00     0.065 A 
HETATM    7  C7  UNL     1      -1.419  -0.571   0.029  1.00  0.00     0.101 A 
HETATM    8  C8  UNL     1      -1.739  -1.283  -1.170  1.00  0.00     0.104 C 
HETATM    9  N2  UNL     1      -2.024  -1.844  -2.152  1.00  0.00    -0.191 NA
ENDROOT
BRANCH   6  10
HETATM   10  C4  UNL     1       1.007  -1.266  -0.028  1.00  0.00     0.140 C 
BRANCH  10  11
HETATM   11  S1  UNL     1       2.115  -0.196  -0.960  1.00  0.00    -0.115 SA
BRANCH  11  12
HETATM   12  C5  UNL     1       2.951   0.974   0.013  1.00  0.00     0.058 C 
HETATM   13 BR1  UNL     1       2.117   2.181   1.174  1.00  0.00    -0.043 Br
HETATM   14  C6  UNL     1       4.290   0.991  -0.116  1.00  0.00     0.110 C 
HETATM   15 CL1  UNL     1       5.406   2.030   0.674  1.00  0.00    -0.095 Cl
ENDBRANCH  11  12
ENDBRANCH  10  11
ENDBRANCH   6  10
TORSDOF 3
