REMARK  7 active torsions:
REMARK  status: ('A' for Active; 'I' for Inactive)
REMARK    1  A    between atoms: C2_2  and  C3_6 
REMARK    2  A    between atoms: C3_6  and  N2_7 
REMARK    3  A    between atoms: C3_6  and  C4_11 
REMARK    4  A    between atoms: C4_11  and  O1_12 
REMARK    5  A    between atoms: N3_14  and  C5_16 
REMARK    6  A    between atoms: N5_18  and  C6_19 
REMARK    7  A    between atoms: C8_26  and  O3_27 
ROOT
HETATM    1  C4  UNL     1       2.017  -0.773   0.417  1.00  0.00     0.149 C 
HETATM    2  N3  UNL     1       1.223  -0.087  -0.329  1.00  0.00    -0.349 N 
ATOM      3  H3  UNL     1       1.588   0.748  -0.788  1.00  0.00     0.163 HD
ENDROOT
BRANCH   2   4
HETATM    4  C5  UNL     1      -0.144  -0.438  -0.545  1.00  0.00     0.246 C 
HETATM    5  N4  UNL     1      -0.931  -0.453   0.673  1.00  0.00    -0.089 NA
HETATM    6  N5  UNL     1      -2.166   0.067   0.305  1.00  0.00    -0.171 N 
HETATM    7  N8  UNL     1      -1.918   1.012  -0.691  1.00  0.00    -0.083 NA
HETATM    8  C8  UNL     1      -0.841   0.474  -1.497  1.00  0.00     0.273 C 
BRANCH   6   9
HETATM    9  C6  UNL     1      -3.439  -0.300   0.846  1.00  0.00     0.243 A 
HETATM   10  O2  UNL     1      -3.902  -1.115   1.737  1.00  0.00    -0.212 OA
HETATM   11  N6  UNL     1      -5.145  -0.786   1.566  1.00  0.00    -0.241 N 
HETATM   12  C7  UNL     1      -4.737   0.095   0.615  1.00  0.00     0.192 A 
ATOM     13  H6  UNL     1      -6.039  -1.066   1.969  1.00  0.00     0.196 HD
HETATM   14  N7  UNL     1      -5.369   1.033  -0.257  1.00  0.00    -0.076 NA
ENDBRANCH   6   9
BRANCH   8  15
HETATM   15  O3  UNL     1      -1.444  -0.293  -2.509  1.00  0.00    -0.374 OA
ATOM     16  H3  UNL     1      -1.888   0.288  -3.115  1.00  0.00     0.212 HD
ENDBRANCH   8  15
ENDBRANCH   2   4
BRANCH   1  17
HETATM   17  C3  UNL     1       3.420  -0.436   0.656  1.00  0.00     0.301 C 
BRANCH  17  18
HETATM   18  C2  UNL     1       3.885   0.772  -0.030  1.00  0.00     0.014 C 
HETATM   19  C1  UNL     1       3.314   2.126   0.173  1.00  0.00     0.065 C 
HETATM   20  N1  UNL     1       4.851   0.659  -0.864  1.00  0.00    -0.404 N 
ATOM     21  H12 UNL     1       5.175   1.500  -1.342  1.00  0.00     0.155 HD
ATOM     22  H11 UNL     1       5.244  -0.272  -1.004  1.00  0.00     0.155 HD
ENDBRANCH  17  18
BRANCH  17  23
HETATM   23  N2  UNL     1       4.260  -1.561   0.387  1.00  0.00    -0.062 N 
ATOM     24  H23 UNL     1       4.357  -1.719  -0.616  1.00  0.00     0.275 HD
ATOM     25  H22 UNL     1       5.234  -1.358   0.613  1.00  0.00     0.275 HD
ATOM     26  H21 UNL     1       3.936  -2.402   0.865  1.00  0.00     0.275 HD
ENDBRANCH  17  23
ENDBRANCH   1  17
BRANCH   1  27
HETATM   27  O1  UNL     1       1.493  -1.904   1.028  1.00  0.00    -0.348 OA
ATOM     28  H1  UNL     1       0.582  -2.123   0.873  1.00  0.00     0.219 HD
ENDBRANCH   1  27
TORSDOF 7
