REMARK  9 active torsions:
REMARK  status: ('A' for Active; 'I' for Inactive)
REMARK       I    between atoms: C1_4  and  N2_5 
REMARK       I    between atoms: C1_4  and  N8_27 
REMARK    1  A    between atoms: N2_5  and  C2_7 
REMARK    2  A    between atoms: C3_8  and  C4_9 
REMARK    3  A    between atoms: C4_9  and  N3_10 
REMARK    4  A    between atoms: C4_9  and  O1_14 
REMARK    5  A    between atoms: C5_17  and  N4_18 
REMARK    6  A    between atoms: N5_21  and  C6_22 
REMARK    7  A    between atoms: C6_22  and  N6_23 
REMARK    8  A    between atoms: N6_23  and  N7_24 
REMARK    9  A    between atoms: N8_27  and  N9_29 
ROOT
HETATM    1  C2  UNL     1       0.417   0.284   0.183  1.00  0.00     0.162 A 
HETATM    2  C3  UNL     1       0.491   1.371  -0.626  1.00  0.00     0.157 A 
HETATM    3  O2  UNL     1       1.811   1.561  -0.864  1.00  0.00    -0.275 OA
HETATM    4  C5  UNL     1       2.506   0.662  -0.249  1.00  0.00     0.227 A 
HETATM    5  N5  UNL     1       1.706  -0.170   0.426  1.00  0.00    -0.280 N 
ENDROOT
BRANCH   1   6
HETATM    6  N2  UNL     1      -0.687  -0.384   0.695  1.00  0.00    -0.173 N 
HETATM    7  C1  UNL     1      -2.064  -0.234   0.520  1.00  0.00     0.696 C 
HETATM    8  N1  UNL     1      -2.783   0.177   1.542  1.00  0.00    -0.233 N 
HETATM    9  N8  UNL     1      -2.808  -0.540  -0.649  1.00  0.00    -0.072 N 
ATOM     10  H12 UNL     1      -2.248   0.397   2.382  1.00  0.00     0.174 HD
ATOM     11  H11 UNL     1      -3.789   0.287   1.414  1.00  0.00     0.174 HD
ATOM     12  H8  UNL     1      -2.307  -0.621  -1.534  1.00  0.00     0.212 HD
ATOM     13  H2  UNL     1      -0.441  -1.142   1.331  1.00  0.00     0.186 HD
BRANCH   9  14
HETATM   14  N9  UNL     1      -4.184  -0.735  -0.650  1.00  0.00    -0.024 N 
HETATM   15  O3  UNL     1      -4.860  -0.168   0.222  1.00  0.00    -0.516 OA
HETATM   16  O4  UNL     1      -4.821  -1.523  -1.567  1.00  0.00    -0.516 OA
ENDBRANCH   9  14
ENDBRANCH   1   6
BRANCH   2  17
HETATM   17  C4  UNL     1      -0.510   2.288  -1.223  1.00  0.00     0.378 C 
BRANCH  17  18
HETATM   18  N3  UNL     1      -1.510   2.801  -0.369  1.00  0.00    -0.047 N 
ATOM     19  H33 UNL     1      -1.991   2.028   0.091  1.00  0.00     0.277 HD
ATOM     20  H32 UNL     1      -1.071   3.255   0.432  1.00  0.00     0.277 HD
ATOM     21  H31 UNL     1      -2.198   3.432  -0.780  1.00  0.00     0.277 HD
ENDBRANCH  17  18
BRANCH  17  22
HETATM   22  O1  UNL     1      -1.042   1.820  -2.426  1.00  0.00    -0.365 OA
ATOM     23  H1  UNL     1      -1.683   2.407  -2.808  1.00  0.00     0.212 HD
ENDBRANCH  17  22
ENDBRANCH   2  17
BRANCH   5  24
HETATM   24  C6  UNL     1       2.120  -1.295   1.231  1.00  0.00     0.269 C 
BRANCH  24  25
HETATM   25  N6  UNL     1       2.188  -2.504   0.441  1.00  0.00    -0.128 NA
BRANCH  25  26
HETATM   26  N7  UNL     1       2.581  -3.600   1.178  1.00  0.00    -0.347 N 
ATOM     27  H72 UNL     1       2.797  -3.548   2.173  1.00  0.00     0.172 HD
ATOM     28  H71 UNL     1       2.629  -4.453   0.621  1.00  0.00     0.172 HD
ENDBRANCH  25  26
ENDBRANCH  24  25
ENDBRANCH   5  24
BRANCH   4  29
HETATM   29  N4  UNL     1       3.795   0.601  -0.298  1.00  0.00    -0.365 N 
ATOM     30  H42 UNL     1       4.405   1.236  -0.813  1.00  0.00     0.159 HD
ATOM     31  H41 UNL     1       4.344  -0.109   0.187  1.00  0.00     0.159 HD
ENDBRANCH   4  29
TORSDOF 9
