REMARK  6 active torsions:
REMARK  status: ('A' for Active; 'I' for Inactive)
REMARK    1  A    between atoms: C2_2  and  C3_3 
REMARK    2  A    between atoms: C3_3  and  O1_4 
REMARK    3  A    between atoms: O1_4  and  C4_5 
REMARK    4  A    between atoms: C12_17  and  C13_18 
REMARK    5  A    between atoms: C13_18  and  C14_19 
REMARK    6  A    between atoms: C18_24  and  O7_25 
ROOT
HETATM    1  C4  UNL     1       1.858  -0.241   0.380  1.00  0.00     0.261 C 
HETATM    2  C5  UNL     1       2.364   0.718   1.396  1.00  0.00     0.292 C 
HETATM    3  O2  UNL     1       3.414   1.283   1.776  1.00  0.00    -0.262 OA
HETATM    4  O3  UNL     1       1.068   0.804   1.878  1.00  0.00    -0.299 OA
HETATM    5  C6  UNL     1       0.655   0.610   0.514  1.00  0.00     0.168 C 
HETATM    6  C7  UNL     1       0.649   1.929  -0.191  1.00  0.00     0.218 C 
HETATM    7  O4  UNL     1       0.947   1.750  -1.518  1.00  0.00    -0.376 OA
HETATM    8  C8  UNL     1       0.541   2.763  -2.351  1.00  0.00     0.195 C 
HETATM    9  C9  UNL     1      -0.894   3.169  -2.121  1.00  0.00     0.197 C 
HETATM   10  O5  UNL     1      -1.196   3.367  -0.801  1.00  0.00    -0.356 OA
HETATM   11  C10 UNL     1      -0.810   2.308  -0.040  1.00  0.00     0.169 C 
HETATM   12  C11 UNL     1      -1.469   0.986  -0.482  1.00  0.00     0.106 C 
HETATM   13  C12 UNL     1      -0.709   0.009   0.386  1.00  0.00     0.114 C 
HETATM   14  O6  UNL     1      -1.329   0.131   1.679  1.00  0.00    -0.302 OA
HETATM   15  C18 UNL     1      -1.404   1.455   2.138  1.00  0.00     0.263 C 
HETATM   16  N1  UNL     1      -1.169   2.462   1.361  1.00  0.00    -0.316 N 
ATOM     17  H1  UNL     1      -1.238   3.404   1.747  1.00  0.00     0.166 HD
ENDROOT
BRANCH   1  18
HETATM   18  O1  UNL     1       2.569  -0.144  -0.809  1.00  0.00    -0.372 OA
BRANCH  18  19
HETATM   19  C3  UNL     1       2.972  -1.401  -1.225  1.00  0.00     0.168 C 
BRANCH  19  20
HETATM   20  C2  UNL     1       3.859  -2.137  -0.279  1.00  0.00     0.022 C 
HETATM   21  C1  UNL     1       5.118  -1.340  -0.065  1.00  0.00     0.007 C 
ENDBRANCH  19  20
ENDBRANCH  18  19
ENDBRANCH   1  18
BRANCH  13  22
HETATM   22  C13 UNL     1      -0.749  -1.355  -0.150  1.00  0.00     0.050 C 
BRANCH  22  23
HETATM   23  C14 UNL     1      -2.079  -2.021  -0.300  1.00  0.00    -0.049 C 
HETATM   24  C15 UNL     1      -2.818  -2.135   1.018  1.00  0.00     0.014 C 
HETATM   25  C16 UNL     1      -2.915  -1.585  -1.446  1.00  0.00     0.014 C 
HETATM   26  C17 UNL     1      -1.714  -3.498  -0.629  1.00  0.00     0.014 C 
ENDBRANCH  22  23
ENDBRANCH  13  22
BRANCH  15  27
HETATM   27  O7  UNL     1      -1.739   1.673   3.458  1.00  0.00    -0.322 OA
HETATM   28  C19 UNL     1      -2.211   2.914   3.919  1.00  0.00     0.213 C 
ENDBRANCH  15  27
TORSDOF 6
