REMARK  5 active torsions:
REMARK  status: ('A' for Active; 'I' for Inactive)
REMARK    1  A    between atoms: O1_2  and  C2_3 
REMARK    2  A    between atoms: C2_3  and  C3_4 
REMARK    3  A    between atoms: C3_4  and  C6_7 
REMARK    4  A    between atoms: C6_7  and  O2_8 
REMARK    5  A    between atoms: O2_8  and  C7_9 
ROOT
HETATM    1  C2  UNL     1       0.465   0.129  -0.426  1.00  0.00     0.204 C 
HETATM    2  O4  UNL     1       0.165  -1.211  -0.379  1.00  0.00    -0.319 OA
HETATM    3  C9  UNL     1      -0.734  -1.765   0.403  1.00  0.00     0.298 C 
HETATM    4  O5  UNL     1      -1.489  -2.666  -0.407  1.00  0.00    -0.323 OA
HETATM    5  C10 UNL     1      -2.791  -2.248  -0.377  1.00  0.00     0.160 C 
HETATM    6  C11 UNL     1      -3.495  -2.420  -1.693  1.00  0.00     0.078 C 
HETATM    7  C12 UNL     1      -3.539  -3.096   0.647  1.00  0.00     0.078 C 
HETATM    8  O6  UNL     1      -2.799  -0.929   0.073  1.00  0.00    -0.343 OA
HETATM    9  C13 UNL     1      -1.802  -0.975   1.044  1.00  0.00     0.212 C 
HETATM   10  C14 UNL     1      -1.290   0.400   1.393  1.00  0.00     0.193 C 
HETATM   11  O7  UNL     1      -2.444   1.221   1.455  1.00  0.00    -0.345 OA
HETATM   12  C15 UNL     1      -2.425   2.030   0.348  1.00  0.00     0.158 C 
HETATM   13  C16 UNL     1      -1.877   3.383   0.748  1.00  0.00     0.078 C 
HETATM   14  C17 UNL     1      -3.825   2.204  -0.155  1.00  0.00     0.078 C 
HETATM   15  O8  UNL     1      -1.595   1.387  -0.563  1.00  0.00    -0.343 OA
HETATM   16  C18 UNL     1      -0.523   1.023   0.287  1.00  0.00     0.220 C 
ENDROOT
BRANCH   1  17
HETATM   17  O1  UNL     1       0.501   0.391  -1.765  1.00  0.00    -0.357 OA
HETATM   18  C1  UNL     1       0.739   1.522  -2.369  1.00  0.00     0.205 C 
ENDBRANCH   1  17
BRANCH   1  19
HETATM   19  C3  UNL     1       1.847   0.277   0.152  1.00  0.00     0.034 C 
HETATM   20  C4  UNL     1       2.469   1.632   0.043  1.00  0.00     0.023 C 
HETATM   21  C5  UNL     1       1.909  -0.134   1.615  1.00  0.00     0.023 C 
BRANCH  19  22
HETATM   22  C6  UNL     1       2.831  -0.684  -0.547  1.00  0.00     0.193 C 
BRANCH  22  23
HETATM   23  O2  UNL     1       4.119  -0.523   0.017  1.00  0.00    -0.321 OA
BRANCH  23  24
HETATM   24  C7  UNL     1       5.229  -1.215  -0.363  1.00  0.00     0.254 C 
HETATM   25  C8  UNL     1       6.512  -0.937   0.321  1.00  0.00     0.126 C 
HETATM   26  O3  UNL     1       5.103  -2.061  -1.282  1.00  0.00    -0.266 OA
ENDBRANCH  23  24
ENDBRANCH  22  23
ENDBRANCH  19  22
ENDBRANCH   1  19
TORSDOF 5
