REMARK  6 active torsions:
REMARK  status: ('A' for Active; 'I' for Inactive)
REMARK    1  A    between atoms: C2_2  and  C3_3 
REMARK    2  A    between atoms: C3_3  and  C5_5 
REMARK    3  A    between atoms: C5_5  and  O2_7 
REMARK    4  A    between atoms: O2_7  and  C6_8 
REMARK    5  A    between atoms: C15_21  and  O6_22 
REMARK    6  A    between atoms: O6_22  and  C16_23 
ROOT
HETATM    1  C6  UNL     1      -0.325   0.510  -0.521  1.00  0.00     0.193 C 
HETATM    2  C7  UNL     1      -0.760   1.749   0.111  1.00  0.00     0.214 C 
HETATM    3  O3  UNL     1      -0.003   2.860   0.079  1.00  0.00    -0.343 OA
HETATM    4  C8  UNL     1      -0.665   3.723   0.969  1.00  0.00     0.161 C 
HETATM    5  C9  UNL     1      -1.616   4.641   0.239  1.00  0.00     0.078 C 
HETATM    6  C10 UNL     1       0.402   4.495   1.705  1.00  0.00     0.078 C 
HETATM    7  O4  UNL     1      -1.368   2.940   1.879  1.00  0.00    -0.321 OA
HETATM    8  C11 UNL     1      -1.098   1.625   1.593  1.00  0.00     0.323 C 
HETATM    9  O5  UNL     1      -2.152   0.751   1.679  1.00  0.00    -0.247 OA
HETATM   10  N1  UNL     1      -2.404   0.128   0.561  1.00  0.00    -0.281 N 
HETATM   11  C12 UNL     1      -3.665   0.199  -0.006  1.00  0.00     0.150 C 
HETATM   12  C13 UNL     1      -4.071  -1.202  -0.487  1.00  0.00     0.024 C 
HETATM   13  C14 UNL     1      -3.097  -1.505  -1.604  1.00  0.00     0.036 C 
HETATM   14  C15 UNL     1      -1.670  -1.512  -1.127  1.00  0.00     0.159 C 
HETATM   15  C18 UNL     1      -1.336  -0.545  -0.077  1.00  0.00     0.170 C 
ENDROOT
BRANCH   1  16
HETATM   16  O2  UNL     1       0.931   0.007  -0.353  1.00  0.00    -0.311 OA
BRANCH  16  17
HETATM   17  C5  UNL     1       1.893  -0.326  -1.248  1.00  0.00     0.263 C 
HETATM   18  O1  UNL     1       1.536  -0.123  -2.426  1.00  0.00    -0.265 OA
BRANCH  17  19
HETATM   19  C3  UNL     1       3.228  -0.870  -0.947  1.00  0.00     0.081 C 
HETATM   20  C4  UNL     1       3.213  -2.228  -0.330  1.00  0.00     0.020 C 
BRANCH  19  21
HETATM   21  C2  UNL     1       3.998   0.127  -0.072  1.00  0.00     0.010 C 
HETATM   22  C1  UNL     1       5.410  -0.411   0.046  1.00  0.00     0.006 C 
ENDBRANCH  19  21
ENDBRANCH  17  19
ENDBRANCH  16  17
ENDBRANCH   1  16
BRANCH  14  23
HETATM   23  O6  UNL     1      -1.396  -2.862  -0.742  1.00  0.00    -0.314 OA
BRANCH  23  24
HETATM   24  C16 UNL     1      -0.538  -3.673  -1.429  1.00  0.00     0.255 C 
HETATM   25  C17 UNL     1      -0.282  -5.090  -0.981  1.00  0.00     0.126 C 
HETATM   26  O7  UNL     1       0.044  -3.221  -2.454  1.00  0.00    -0.266 OA
ENDBRANCH  23  24
ENDBRANCH  14  23
TORSDOF 6
