REMARK  7 active torsions:
REMARK  status: ('A' for Active; 'I' for Inactive)
REMARK    1  A    between atoms: C6_6  and  O1_8 
REMARK    2  A    between atoms: O1_8  and  C8_9 
REMARK    3  A    between atoms: C10_12  and  O3_13 
REMARK    4  A    between atoms: O3_13  and  C11_14 
REMARK    5  A    between atoms: C14_18  and  C15_19 
REMARK    6  A    between atoms: C15_19  and  C17_21 
REMARK    7  A    between atoms: C17_21  and  O6_23 
ROOT
HETATM    1  C1  UNL     1      -0.687   3.716  -2.873  1.00  0.00     0.025 C 
HETATM    2  C2  UNL     1      -0.602   2.408  -2.738  1.00  0.00     0.008 C 
HETATM    3  C3  UNL     1      -1.825   1.624  -2.560  1.00  0.00     0.044 C 
HETATM    4  C4  UNL     1      -2.268   1.516  -1.115  1.00  0.00     0.008 C 
HETATM    5  C5  UNL     1      -2.536   0.102  -0.769  1.00  0.00     0.041 C 
HETATM    6  C6  UNL     1      -1.978  -0.469   0.461  1.00  0.00     0.093 C 
HETATM    7  C7  UNL     1      -2.948  -0.320   1.618  1.00  0.00     0.049 C 
HETATM    8  C10 UNL     1      -0.650   0.064   0.938  1.00  0.00     0.169 C 
HETATM    9  C13 UNL     1       0.499  -0.376   0.056  1.00  0.00     0.069 C 
HETATM   10  C14 UNL     1       1.251   0.779  -0.567  1.00  0.00     0.148 C 
HETATM   11  O7  UNL     1       1.169   0.785  -1.975  1.00  0.00    -0.311 OA
HETATM   12  C19 UNL     1       0.760   1.836  -2.784  1.00  0.00     0.288 C 
HETATM   13  O8  UNL     1       1.597   2.349  -3.621  1.00  0.00    -0.260 OA
ENDROOT
BRANCH  10  14
HETATM   14  C15 UNL     1       2.732   0.734  -0.237  1.00  0.00     0.111 C 
HETATM   15  C16 UNL     1       2.995   0.800   1.253  1.00  0.00     0.023 C 
BRANCH  14  16
HETATM   16  C17 UNL     1       3.398  -0.442  -0.813  1.00  0.00     0.264 C 
HETATM   17  O5  UNL     1       2.760  -1.273  -1.488  1.00  0.00    -0.265 OA
BRANCH  16  18
HETATM   18  O6  UNL     1       4.746  -0.638  -0.609  1.00  0.00    -0.326 OA
HETATM   19  C18 UNL     1       5.474  -1.739  -1.123  1.00  0.00     0.213 C 
ENDBRANCH  16  18
ENDBRANCH  14  16
ENDBRANCH  10  14
BRANCH   8  20
HETATM   20  O3  UNL     1      -0.444  -0.378   2.294  1.00  0.00    -0.313 OA
BRANCH  20  21
HETATM   21  C11 UNL     1      -0.256   0.449   3.359  1.00  0.00     0.255 C 
HETATM   22  C12 UNL     1      -0.056  -0.175   4.704  1.00  0.00     0.126 C 
HETATM   23  O4  UNL     1      -0.257   1.682   3.179  1.00  0.00    -0.266 OA
ENDBRANCH  20  21
ENDBRANCH   8  20
BRANCH   6  24
HETATM   24  O1  UNL     1      -1.765  -1.852   0.262  1.00  0.00    -0.308 OA
BRANCH  24  25
HETATM   25  C8  UNL     1      -2.728  -2.779  -0.036  1.00  0.00     0.255 C 
HETATM   26  C9  UNL     1      -2.324  -4.193  -0.216  1.00  0.00     0.126 C 
HETATM   27  O2  UNL     1      -3.908  -2.399  -0.146  1.00  0.00    -0.266 OA
ENDBRANCH  24  25
ENDBRANCH   6  24
TORSDOF 7
