REMARK  4 active torsions:
REMARK  status: ('A' for Active; 'I' for Inactive)
REMARK    1  A    between atoms: C2_2  and  O1_4 
REMARK    2  A    between atoms: O1_4  and  C4_5 
REMARK    3  A    between atoms: C5_8  and  N2_9 
REMARK    4  A    between atoms: C14_21  and  N4_22 
ROOT
HETATM    1  C4  UNL     1      -2.027   1.394  -0.201  1.00  0.00     0.252 A 
HETATM    2  N1  UNL     1      -0.695   1.353  -0.217  1.00  0.00    -0.154 N 
ATOM      3  H1  UNL     1      -0.186   2.230  -0.111  1.00  0.00     0.188 HD
HETATM    4  C5  UNL     1       0.016   0.221  -0.365  1.00  0.00     0.698 A 
HETATM    5  N3  UNL     1      -0.702  -0.919  -0.501  1.00  0.00    -0.022 N 
ATOM      6  H3  UNL     1      -0.202  -1.801  -0.615  1.00  0.00     0.203 HD
HETATM    7  C14 UNL     1      -2.034  -0.936  -0.492  1.00  0.00     0.698 A 
HETATM    8  N5  UNL     1      -2.681   0.220  -0.342  1.00  0.00    -0.154 N 
ATOM      9  H5  UNL     1      -3.701   0.218  -0.333  1.00  0.00     0.188 HD
ENDROOT
BRANCH   4  10
HETATM   10  N2  UNL     1       1.439   0.214  -0.377  1.00  0.00    -0.217 N 
HETATM   11  C6  UNL     1       2.126  -1.045  -0.540  1.00  0.00     0.144 C 
HETATM   12  C7  UNL     1       3.157  -1.118   0.582  1.00  0.00     0.058 C 
HETATM   13  C8  UNL     1       4.110   0.033   0.366  1.00  0.00     0.067 C 
HETATM   14  C9  UNL     1       3.411   1.349   0.551  1.00  0.00     0.058 C 
HETATM   15  C11 UNL     1       5.261  -0.078   1.355  1.00  0.00     0.069 C 
HETATM   16  O2  UNL     1       4.949  -0.064  -0.717  1.00  0.00    -0.375 OA
HETATM   17  C10 UNL     1       2.132   1.464  -0.227  1.00  0.00     0.144 C 
HETATM   18  C12 UNL     1       6.021  -0.424   0.098  1.00  0.00     0.121 C 
HETATM   19  C13 UNL     1       7.256   0.454  -0.081  1.00  0.00     0.040 C 
ENDBRANCH   4  10
BRANCH   1  20
HETATM   20  O1  UNL     1      -2.784   2.532  -0.053  1.00  0.00    -0.317 OA
BRANCH  20  21
HETATM   21  C2  UNL     1      -2.251   3.825   0.104  1.00  0.00     0.123 C 
HETATM   22  C1  UNL     1      -2.673   4.365   1.460  1.00  0.00     0.040 C 
HETATM   23  C3  UNL     1      -2.823   4.690  -1.005  1.00  0.00     0.040 C 
ENDBRANCH  20  21
ENDBRANCH   1  20
BRANCH   7  24
HETATM   24  N4  UNL     1      -2.764  -2.138  -0.635  1.00  0.00    -0.209 N 
HETATM   25  C15 UNL     1      -2.136  -3.430  -0.802  1.00  0.00     0.168 C 
HETATM   26  C16 UNL     1      -2.911  -4.470  -0.054  1.00  0.00     0.188 C 
HETATM   27  O3  UNL     1      -4.240  -4.527  -0.342  1.00  0.00    -0.388 OA
HETATM   28  C17 UNL     1      -4.774  -3.469  -1.004  1.00  0.00     0.193 C 
HETATM   29  C18 UNL     1      -4.218  -2.127  -0.622  1.00  0.00     0.122 C 
HETATM   30  C19 UNL     1      -4.758  -1.597   0.671  1.00  0.00     0.035 C 
ENDBRANCH   7  24
TORSDOF 4
