REMARK  9 active torsions:
REMARK  status: ('A' for Active; 'I' for Inactive)
REMARK    1  A    between atoms: N1_1  and  C1_4 
REMARK    2  A    between atoms: C2_7  and  O1_8 
REMARK    3  A    between atoms: O1_8  and  C3_9 
REMARK    4  A    between atoms: C6_12  and  C7_13 
REMARK    5  A    between atoms: C8_14  and  C9_15 
REMARK    6  A    between atoms: C13_19  and  O2_20 
REMARK    7  A    between atoms: N4_28  and  S1_29 
REMARK    8  A    between atoms: S1_29  and  C17_32 
REMARK    9  A    between atoms: C21_36  and  N5_37 
ROOT
HETATM    1  C1  UNL     1       3.168  -1.229  -0.445  1.00  0.00     0.710 A 
HETATM    2  N2  UNL     1       1.872  -0.958  -0.762  1.00  0.00    -0.151 N 
ATOM      3  H2  UNL     1       1.077  -1.104  -0.139  1.00  0.00     0.188 HD
HETATM    4  C2  UNL     1       1.788  -0.472  -2.007  1.00  0.00     0.260 A 
HETATM    5  N3  UNL     1       3.052  -0.446  -2.462  1.00  0.00    -0.233 N 
ATOM      6  H3  UNL     1       3.332  -0.125  -3.389  1.00  0.00     0.192 HD
HETATM    7  N4  UNL     1       3.886  -0.899  -1.530  1.00  0.00     0.001 N 
ENDROOT
BRANCH   4   8
HETATM    8  O1  UNL     1       0.644  -0.084  -2.677  1.00  0.00    -0.275 OA
BRANCH   8   9
HETATM    9  C3  UNL     1      -0.628  -0.112  -2.176  1.00  0.00     0.117 A 
HETATM   10  C4  UNL     1      -1.578  -0.902  -2.776  1.00  0.00     0.041 A 
HETATM   11  C5  UNL     1      -2.866  -0.969  -2.320  1.00  0.00     0.014 A 
HETATM   12  C6  UNL     1      -3.250  -0.220  -1.209  1.00  0.00    -0.033 A 
HETATM   13  C15 UNL     1      -2.311   0.570  -0.605  1.00  0.00     0.056 A 
HETATM   14  C16 UNL     1      -0.997   0.627  -1.086  1.00  0.00     0.151 A 
HETATM   15  F1  UNL     1      -0.152   1.448  -0.419  1.00  0.00    -0.203 F 
BRANCH  12  16
HETATM   16  C7  UNL     1      -4.619  -0.284  -0.715  1.00  0.00     0.012 C 
HETATM   17  C8  UNL     1      -5.065   0.377   0.309  1.00  0.00     0.012 C 
BRANCH  17  18
HETATM   18  C9  UNL     1      -6.426   0.285   0.765  1.00  0.00    -0.034 A 
HETATM   19  C10 UNL     1      -7.344  -0.510   0.144  1.00  0.00     0.011 A 
HETATM   20  C11 UNL     1      -8.663  -0.561   0.634  1.00  0.00     0.004 A 
HETATM   21  C12 UNL     1      -9.047   0.174   1.727  1.00  0.00     0.036 A 
HETATM   22  C13 UNL     1      -8.135   0.978   2.362  1.00  0.00     0.066 A 
HETATM   23  C14 UNL     1      -6.858   1.015   1.871  1.00  0.00     0.048 A 
BRANCH  22  24
HETATM   24  O2  UNL     1      -8.527   1.726   3.473  1.00  0.00    -0.361 OA
ATOM     25  H2  UNL     1      -7.895   2.283   3.913  1.00  0.00     0.217 HD
ENDBRANCH  22  24
ENDBRANCH  17  18
ENDBRANCH  12  16
ENDBRANCH   8   9
ENDBRANCH   4   8
BRANCH   1  26
HETATM   26  N1  UNL     1       3.600  -1.712   0.686  1.00  0.00    -0.232 N 
ATOM     27  H12 UNL     1       3.054  -1.963   1.511  1.00  0.00     0.174 HD
ATOM     28  H11 UNL     1       4.571  -1.915   0.923  1.00  0.00     0.174 HD
ENDBRANCH   1  26
BRANCH   7  29
HETATM   29  S1  UNL     1       5.598  -1.025  -1.719  1.00  0.00     0.297 S 
HETATM   30  O3  UNL     1       6.020  -2.437  -1.481  1.00  0.00    -0.198 OA
HETATM   31  O4  UNL     1       6.029  -0.592  -3.069  1.00  0.00    -0.198 OA
BRANCH  29  32
HETATM   32  C17 UNL     1       6.441  -0.012  -0.548  1.00  0.00     0.084 A 
HETATM   33  C18 UNL     1       6.706   1.311  -0.889  1.00  0.00     0.025 A 
HETATM   34  C19 UNL     1       7.363   2.089   0.025  1.00  0.00     0.004 A 
HETATM   35  C20 UNL     1       7.742   1.562   1.238  1.00  0.00     0.036 A 
HETATM   36  C21 UNL     1       7.486   0.249   1.590  1.00  0.00     0.104 A 
HETATM   37  C22 UNL     1       6.817  -0.535   0.655  1.00  0.00     0.061 A 
BRANCH  36  38
HETATM   38  N5  UNL     1       7.892  -0.253   2.844  1.00  0.00    -0.116 N 
HETATM   39  O5  UNL     1       7.656  -1.426   3.142  1.00  0.00    -0.532 OA
HETATM   40  O6  UNL     1       8.543   0.555   3.724  1.00  0.00    -0.532 OA
ENDBRANCH  36  38
ENDBRANCH  29  32
ENDBRANCH   7  29
TORSDOF 9
