REMARK  9 active torsions:
REMARK  status: ('A' for Active; 'I' for Inactive)
REMARK    1  A    between atoms: O1_2  and  C2_3 
REMARK    2  A    between atoms: C2_3  and  O2_4 
REMARK    3  A    between atoms: C2_3  and  C3_6 
REMARK    4  A    between atoms: C6_9  and  C7_10 
REMARK    5  A    between atoms: C10_13  and  O3_14 
REMARK    6  A    between atoms: O3_14  and  C11_15 
REMARK    7  A    between atoms: C14_19  and  O5_20 
REMARK    8  A    between atoms: C16_22  and  O6_23 
REMARK    9  A    between atoms: C17_25  and  O7_26 
ROOT
HETATM    1  C7  UNL     1      -1.343   0.530   0.480  1.00  0.00    -0.024 A 
HETATM    2  C8  UNL     1      -1.063  -0.412   1.445  1.00  0.00     0.015 A 
HETATM    3  C9  UNL     1       0.246  -0.791   1.622  1.00  0.00     0.037 A 
HETATM    4  C10 UNL     1       1.277  -0.241   0.846  1.00  0.00     0.069 A 
HETATM    5  C18 UNL     1       0.998   0.701  -0.118  1.00  0.00     0.037 A 
HETATM    6  C19 UNL     1      -0.319   1.074  -0.287  1.00  0.00     0.015 A 
ENDROOT
BRANCH   1   7
HETATM    7  C6  UNL     1      -2.719   0.957   0.259  1.00  0.00     0.002 A 
HETATM    8  C5  UNL     1      -3.128   2.260   0.481  1.00  0.00     0.017 A 
HETATM    9  C4  UNL     1      -4.445   2.638   0.264  1.00  0.00     0.031 A 
HETATM   10  C3  UNL     1      -5.371   1.720  -0.178  1.00  0.00     0.065 A 
HETATM   11  N1  UNL     1      -4.957   0.465  -0.387  1.00  0.00    -0.354 N 
HETATM   12  C20 UNL     1      -3.667   0.073  -0.179  1.00  0.00     0.054 A 
ATOM     13  H1  UNL     1      -5.632  -0.226  -0.715  1.00  0.00     0.166 HD
HETATM   14  C21 UNL     1      -3.377  -1.315  -0.451  1.00  0.00    -0.008 A 
HETATM   15  C22 UNL     1      -2.493  -1.657  -1.435  1.00  0.00     0.017 A 
HETATM   16  C26 UNL     1      -3.991  -2.294   0.281  1.00  0.00     0.017 A 
HETATM   17  C23 UNL     1      -2.206  -3.000  -1.707  1.00  0.00     0.043 A 
HETATM   18  C24 UNL     1      -2.844  -3.964  -0.951  1.00  0.00     0.116 A 
HETATM   19  F1  UNL     1      -2.609  -5.288  -1.166  1.00  0.00    -0.206 F 
HETATM   20  C25 UNL     1      -3.738  -3.636   0.046  1.00  0.00     0.043 A 
BRANCH  10  21
HETATM   21  C2  UNL     1      -6.792   2.095  -0.420  1.00  0.00     0.307 C 
BRANCH  21  22
HETATM   22  O1  UNL     1      -7.299   2.866   0.622  1.00  0.00    -0.360 OA
HETATM   23  C1  UNL     1      -8.449   2.303   1.171  1.00  0.00     0.205 C 
ENDBRANCH  21  22
BRANCH  21  24
HETATM   24  O2  UNL     1      -6.826   2.898  -1.564  1.00  0.00    -0.366 OA
ATOM     25  H2  UNL     1      -6.480   2.372  -2.275  1.00  0.00     0.213 HD
ENDBRANCH  21  24
ENDBRANCH  10  21
ENDBRANCH   1   7
BRANCH   4  26
HETATM   26  O3  UNL     1       2.548  -0.674   1.087  1.00  0.00    -0.341 OA
BRANCH  26  27
HETATM   27  C11 UNL     1       3.730  -0.295   0.470  1.00  0.00     0.189 C 
HETATM   28  C12 UNL     1       4.436  -1.511  -0.158  1.00  0.00     0.152 C 
HETATM   29  C13 UNL     1       4.372  -2.680   0.802  1.00  0.00     0.042 C 
HETATM   30  O4  UNL     1       5.750  -1.244  -0.440  1.00  0.00    -0.351 OA
HETATM   31  C14 UNL     1       6.021   0.114  -0.579  1.00  0.00     0.290 C 
HETATM   32  C16 UNL     1       5.859   0.858   0.728  1.00  0.00     0.204 C 
HETATM   33  C17 UNL     1       4.725   0.213   1.522  1.00  0.00     0.183 C 
BRANCH  31  34
HETATM   34  O5  UNL     1       7.357   0.227  -0.961  1.00  0.00    -0.363 OA
HETATM   35  C15 UNL     1       7.486   0.860  -2.196  1.00  0.00     0.204 C 
ENDBRANCH  31  34
BRANCH  32  36
HETATM   36  O6  UNL     1       7.047   0.855   1.461  1.00  0.00    -0.388 OA
ATOM     37  H6  UNL     1       6.945   1.322   2.282  1.00  0.00     0.210 HD
ENDBRANCH  32  36
BRANCH  33  38
HETATM   38  O7  UNL     1       4.112   1.090   2.382  1.00  0.00    -0.390 OA
ATOM     39  H7  UNL     1       4.728   1.404   3.033  1.00  0.00     0.210 HD
ENDBRANCH  33  38
ENDBRANCH  26  27
ENDBRANCH   4  26
TORSDOF 9
