REMARK  9 active torsions:
REMARK  status: ('A' for Active; 'I' for Inactive)
REMARK    1  A    between atoms: O1_2  and  C2_3 
REMARK    2  A    between atoms: C4_5  and  C5_6 
REMARK    3  A    between atoms: N1_11  and  C8_12 
REMARK    4  A    between atoms: C8_12  and  C9_13 
REMARK    5  A    between atoms: C9_13  and  O2_14 
REMARK    6  A    between atoms: C9_13  and  C10_16 
REMARK    7  A    between atoms: C15_23  and  C16_24 
REMARK    8  A    between atoms: C20_30  and  O4_31 
REMARK    9  A    between atoms: C22_33  and  O5_34 
ROOT
HETATM    1  C16 UNL     1      -3.672  -1.785   1.491  1.00  0.00     0.163 C 
HETATM    2  C17 UNL     1      -4.270  -0.881   2.473  1.00  0.00     0.063 C 
HETATM    3  N3  UNL     1      -4.748  -0.160   3.243  1.00  0.00    -0.197 NA
ENDROOT
BRANCH   1   4
HETATM    4  C15 UNL     1      -4.062  -1.407   0.115  1.00  0.00    -0.034 A 
HETATM    5  C10 UNL     1      -3.466  -0.348  -0.518  1.00  0.00    -0.018 A 
HETATM    6  C11 UNL     1      -3.893  -0.040  -1.785  1.00  0.00     0.054 A 
HETATM    7  C12 UNL     1      -4.887  -0.766  -2.407  1.00  0.00     0.141 A 
HETATM    8  F1  UNL     1      -5.297  -0.441  -3.667  1.00  0.00    -0.204 F 
HETATM    9  C13 UNL     1      -5.483  -1.832  -1.764  1.00  0.00     0.085 A 
HETATM   10  N2  UNL     1      -6.503  -2.601  -2.369  1.00  0.00    -0.099 NA
HETATM   11  C14 UNL     1      -5.066  -2.159  -0.485  1.00  0.00     0.038 A 
BRANCH   5  12
HETATM   12  C9  UNL     1      -2.399   0.393   0.148  1.00  0.00     0.170 C 
BRANCH  12  13
HETATM   13  C8  UNL     1      -1.964   1.624  -0.624  1.00  0.00     0.170 C 
BRANCH  13  14
HETATM   14  N1  UNL     1      -0.886   2.245   0.193  1.00  0.00    -0.295 N 
HETATM   15  C7  UNL     1      -1.145   3.175   1.219  1.00  0.00     0.148 C 
HETATM   16  S1  UNL     1       0.409   4.031   1.454  1.00  0.00    -0.055 SA
HETATM   17  S2  UNL     1      -2.501   3.447   2.024  1.00  0.00    -0.052 SA
HETATM   18  C6  UNL     1       1.409   2.596   0.892  1.00  0.00     0.076 C 
HETATM   19  C5  UNL     1       2.645   2.372   1.248  1.00  0.00     0.036 C 
HETATM   20  C18 UNL     1       0.480   1.928   0.006  1.00  0.00     0.266 C 
HETATM   21  O3  UNL     1       0.865   1.094  -0.908  1.00  0.00    -0.266 OA
BRANCH  19  22
HETATM   22  C4  UNL     1       3.376   1.221   0.776  1.00  0.00    -0.029 A 
HETATM   23  C3  UNL     1       4.622   1.484   0.211  1.00  0.00     0.051 A 
HETATM   24  C2  UNL     1       5.411   0.469  -0.244  1.00  0.00     0.104 A 
HETATM   25  C22 UNL     1       4.945  -0.813  -0.129  1.00  0.00     0.133 A 
HETATM   26  C20 UNL     1       3.718  -1.123   0.425  1.00  0.00     0.104 A 
HETATM   27  C19 UNL     1       2.946  -0.085   0.873  1.00  0.00     0.051 A 
BRANCH  24  28
HETATM   28  O1  UNL     1       6.646   0.765  -0.802  1.00  0.00    -0.353 OA
HETATM   29  C1  UNL     1       7.110   2.076  -0.915  1.00  0.00     0.210 C 
ENDBRANCH  24  28
BRANCH  25  30
HETATM   30  O5  UNL     1       5.725  -1.857  -0.583  1.00  0.00    -0.356 OA
ATOM     31  H5  UNL     1       5.402  -2.747  -0.503  1.00  0.00     0.218 HD
ENDBRANCH  25  30
BRANCH  26  32
HETATM   32  O4  UNL     1       3.288  -2.452   0.520  1.00  0.00    -0.353 OA
HETATM   33  C21 UNL     1       2.046  -2.744   1.104  1.00  0.00     0.210 C 
ENDBRANCH  26  32
ENDBRANCH  19  22
ENDBRANCH  13  14
ENDBRANCH  12  13
BRANCH  12  34
HETATM   34  O2  UNL     1      -1.238  -0.407   0.264  1.00  0.00    -0.389 OA
ATOM     35  H2  UNL     1      -1.510  -1.178   0.748  1.00  0.00     0.210 HD
ENDBRANCH  12  34
ENDBRANCH   5  12
ENDBRANCH   1   4
TORSDOF 9
