REMARK  13 active torsions:
REMARK  status: ('A' for Active; 'I' for Inactive)
REMARK    1  A    between atoms: C1_4  and  C2_6 
REMARK    2  A    between atoms: C5_9  and  C6_10 
REMARK    3  A    between atoms: C6_10  and  C7_11 
REMARK    4  A    between atoms: C7_11  and  C8_12 
REMARK    5  A    between atoms: C8_12  and  C9_13 
REMARK    6  A    between atoms: C8_12  and  N4_28 
REMARK    7  A    between atoms: C9_13  and  C10_14 
REMARK    8  A    between atoms: C13_17  and  O1_18 
REMARK    9  A    between atoms: O1_18  and  C14_19 
REMARK   10  A    between atoms: C14_19  and  C15_20 
REMARK   11  A    between atoms: C15_20  and  C16_21 
REMARK   12  A    between atoms: C16_21  and  N3_22 
REMARK   13  A    between atoms: C19_30  and  O2_32 
ROOT
HETATM    1  C8  UNL     1       0.832   0.603   1.051  1.00  0.00     0.092 C 
ENDROOT
BRANCH   1   2
HETATM    2  C7  UNL     1       0.716  -0.074  -0.271  1.00  0.00     0.053 C 
BRANCH   2   3
HETATM    3  C6  UNL     1       1.671   0.271  -1.334  1.00  0.00    -0.013 C 
BRANCH   3   4
HETATM    4  C5  UNL     1       3.089   0.089  -1.182  1.00  0.00    -0.040 A 
HETATM    5  C4  UNL     1       3.888   1.119  -0.731  1.00  0.00     0.012 A 
HETATM    6  C3  UNL     1       5.252   1.018  -0.583  1.00  0.00     0.015 A 
HETATM    7  C2  UNL     1       5.894  -0.151  -0.886  1.00  0.00     0.004 A 
HETATM    8  C21 UNL     1       5.102  -1.206  -1.344  1.00  0.00     0.015 A 
HETATM    9  C20 UNL     1       3.738  -1.104  -1.493  1.00  0.00     0.012 A 
BRANCH   7  10
HETATM   10  C1  UNL     1       7.324  -0.354  -0.762  1.00  0.00     0.120 C 
HETATM   11  N1  UNL     1       8.077   0.595  -0.345  1.00  0.00    -0.387 N 
ATOM     12  H12 UNL     1       9.083   0.452  -0.258  1.00  0.00     0.157 HD
ATOM     13  H11 UNL     1       7.659   1.493  -0.101  1.00  0.00     0.157 HD
HETATM   14  N2  UNL     1       7.901  -1.592  -1.098  1.00  0.00    -0.082 NA
ENDBRANCH   7  10
ENDBRANCH   3   4
ENDBRANCH   2   3
ENDBRANCH   1   2
BRANCH   1  15
HETATM   15  C9  UNL     1      -0.265   0.198   2.016  1.00  0.00     0.064 C 
BRANCH  15  16
HETATM   16  C10 UNL     1      -1.625   0.494   1.576  1.00  0.00    -0.056 A 
HETATM   17  C11 UNL     1      -2.327  -0.467   0.879  1.00  0.00     0.010 A 
HETATM   18  C12 UNL     1      -3.632  -0.199   0.449  1.00  0.00     0.037 A 
HETATM   19  C13 UNL     1      -4.220   1.007   0.713  1.00  0.00     0.068 A 
HETATM   20  C17 UNL     1      -3.481   1.975   1.429  1.00  0.00     0.037 A 
HETATM   21  C18 UNL     1      -2.213   1.716   1.847  1.00  0.00     0.010 A 
BRANCH  19  22
HETATM   22  O1  UNL     1      -5.464   1.322   0.325  1.00  0.00    -0.351 OA
BRANCH  22  23
HETATM   23  C14 UNL     1      -6.467   0.716  -0.374  1.00  0.00     0.177 C 
BRANCH  23  24
HETATM   24  C15 UNL     1      -6.079   0.431  -1.797  1.00  0.00     0.054 C 
BRANCH  24  25
HETATM   25  C16 UNL     1      -7.256  -0.247  -2.515  1.00  0.00     0.231 C 
BRANCH  25  26
HETATM   26  N3  UNL     1      -7.567  -1.488  -1.826  1.00  0.00    -0.079 N 
ATOM     27  H33 UNL     1      -6.756  -2.101  -1.740  1.00  0.00     0.274 HD
ATOM     28  H32 UNL     1      -7.744  -1.349  -0.831  1.00  0.00     0.274 HD
ATOM     29  H31 UNL     1      -8.348  -1.938  -2.303  1.00  0.00     0.274 HD
ENDBRANCH  25  26
ENDBRANCH  24  25
ENDBRANCH  23  24
ENDBRANCH  22  23
ENDBRANCH  19  22
ENDBRANCH  15  16
ENDBRANCH   1  15
BRANCH   1  30
HETATM   30  N4  UNL     1       2.056   0.202   1.698  1.00  0.00    -0.354 N 
HETATM   31  C19 UNL     1       2.415  -0.945   2.095  1.00  0.00     0.225 C 
HETATM   32  N5  UNL     1       3.721  -1.010   2.714  1.00  0.00    -0.057 NA
ATOM     33  H4  UNL     1       2.730   0.950   1.859  1.00  0.00     0.163 HD
BRANCH  31  34
HETATM   34  O2  UNL     1       1.751  -2.144   2.026  1.00  0.00    -0.335 OA
ATOM     35  H2  UNL     1       2.020  -3.005   2.324  1.00  0.00     0.220 HD
ENDBRANCH  31  34
ENDBRANCH   1  30
TORSDOF 13
