REMARK  13 active torsions:
REMARK  status: ('A' for Active; 'I' for Inactive)
REMARK    1  A    between atoms: O1_2  and  N1_3 
REMARK    2  A    between atoms: N1_3  and  O2_4 
REMARK    3  A    between atoms: N1_3  and  N2_6 
REMARK       I    between atoms: N2_6  and  C2_8 
REMARK    4  A    between atoms: N4_10  and  C3_12 
REMARK    5  A    between atoms: C3_12  and  C4_13 
REMARK    6  A    between atoms: C4_13  and  C5_14 
REMARK    7  A    between atoms: C5_14  and  C6_15 
REMARK    8  A    between atoms: C6_15  and  C7_16 
REMARK    9  A    between atoms: C7_16  and  O3_17 
REMARK   10  A    between atoms: O3_17  and  C8_18 
REMARK   11  A    between atoms: C11_21  and  C12_22 
REMARK   12  A    between atoms: C12_22  and  N5_23 
REMARK   13  A    between atoms: N5_23  and  C13_25 
ROOT
HETATM    1  O3  UNL     1      -0.002   0.178  -1.756  1.00  0.00    -0.351 OA
ENDROOT
BRANCH   1   2
HETATM    2  C7  UNL     1      -1.004   1.080  -2.031  1.00  0.00     0.175 C 
BRANCH   2   3
HETATM    3  C6  UNL     1      -1.467   1.770  -0.776  1.00  0.00     0.027 C 
BRANCH   3   4
HETATM    4  C5  UNL     1      -1.986   0.689   0.170  1.00  0.00     0.004 C 
BRANCH   4   5
HETATM    5  C4  UNL     1      -3.131  -0.096  -0.397  1.00  0.00     0.020 C 
BRANCH   5   6
HETATM    6  C3  UNL     1      -4.305   0.808  -0.720  1.00  0.00     0.122 C 
BRANCH   6   7
HETATM    7  N4  UNL     1      -4.717   1.449   0.509  1.00  0.00    -0.364 N 
HETATM    8  C2  UNL     1      -5.921   1.301   0.917  1.00  0.00     0.202 C 
HETATM    9  N2  UNL     1      -6.819   0.513   0.155  1.00  0.00    -0.245 N 
HETATM   10  N3  UNL     1      -6.311   1.932   2.120  1.00  0.00    -0.062 NA
ATOM     11  H2  UNL     1      -7.222   0.887  -0.704  1.00  0.00     0.188 HD
ATOM     12  H4  UNL     1      -4.056   2.012   1.044  1.00  0.00     0.162 HD
BRANCH   9  13
HETATM   13  N1  UNL     1      -7.155  -0.781   0.581  1.00  0.00     0.037 NA
BRANCH  13  14
HETATM   14  O1  UNL     1      -7.370  -1.595  -0.462  1.00  0.00    -0.266 OA
HETATM   15  C1  UNL     1      -8.279  -2.609  -0.209  1.00  0.00     0.234 C 
ENDBRANCH  13  14
BRANCH  13  16
HETATM   16  O2  UNL     1      -8.293  -0.758   1.331  1.00  0.00    -0.270 OA
ATOM     17  H2  UNL     1      -8.141  -0.181   2.070  1.00  0.00     0.241 HD
ENDBRANCH  13  16
ENDBRANCH   9  13
ENDBRANCH   6   7
ENDBRANCH   5   6
ENDBRANCH   4   5
ENDBRANCH   3   4
ENDBRANCH   2   3
ENDBRANCH   1   2
BRANCH   1  18
HETATM   18  C8  UNL     1       1.235   0.402  -1.301  1.00  0.00     0.068 A 
HETATM   19  C9  UNL     1       2.034  -0.733  -1.071  1.00  0.00     0.037 A 
HETATM   20  C10 UNL     1       3.322  -0.640  -0.608  1.00  0.00     0.011 A 
HETATM   21  C11 UNL     1       3.909   0.576  -0.341  1.00  0.00    -0.040 A 
HETATM   22  C18 UNL     1       3.132   1.688  -0.565  1.00  0.00     0.011 A 
HETATM   23  C19 UNL     1       1.815   1.611  -1.038  1.00  0.00     0.037 A 
BRANCH  21  24
HETATM   24  C12 UNL     1       5.310   0.677   0.162  1.00  0.00     0.158 C 
BRANCH  24  25
HETATM   25  N5  UNL     1       5.830  -0.655   0.290  1.00  0.00    -0.386 N 
ATOM     26  H5  UNL     1       5.165  -1.428   0.317  1.00  0.00     0.160 HD
BRANCH  25  27
HETATM   27  C13 UNL     1       7.085  -0.935   0.373  1.00  0.00     0.030 A 
HETATM   28  C14 UNL     1       7.483  -2.249   0.493  1.00  0.00     0.046 A 
HETATM   29  C15 UNL     1       8.827  -2.598   0.585  1.00  0.00     0.089 A 
HETATM   30  N6  UNL     1       9.790  -1.661   0.560  1.00  0.00    -0.375 N 
HETATM   31  C16 UNL     1       9.406  -0.379   0.442  1.00  0.00     0.089 A 
ATOM     32  H6  UNL     1      10.776  -1.914   0.628  1.00  0.00     0.164 HD
HETATM   33  C17 UNL     1       8.079   0.019   0.348  1.00  0.00     0.046 A 
ENDBRANCH  25  27
ENDBRANCH  24  25
ENDBRANCH  21  24
ENDBRANCH   1  18
TORSDOF 13
