REMARK  12 active torsions:
REMARK  status: ('A' for Active; 'I' for Inactive)
REMARK    1  A    between atoms: C6_11  and  C7_12 
REMARK    2  A    between atoms: C8_13  and  C9_14 
REMARK    3  A    between atoms: C13_18  and  C14_19 
REMARK       I    between atoms: C14_19  and  N3_21 
REMARK    4  A    between atoms: N3_21  and  C15_23 
REMARK    5  A    between atoms: C15_23  and  C16_24 
REMARK    6  A    between atoms: C16_24  and  O2_25 
REMARK    7  A    between atoms: O2_25  and  C17_26 
REMARK    8  A    between atoms: C17_26  and  C18_27 
REMARK    9  A    between atoms: C18_27  and  O3_28 
REMARK   10  A    between atoms: O3_28  and  C19_29 
REMARK   11  A    between atoms: C19_29  and  C20_30 
REMARK   12  A    between atoms: C20_30  and  N4_31 
ROOT
HETATM    1  C9  UNL     1      -2.723  -0.368  -0.205  1.00  0.00    -0.035 A 
HETATM    2  C10 UNL     1      -2.598  -1.605   0.379  1.00  0.00     0.011 A 
HETATM    3  C11 UNL     1      -1.394  -2.257   0.507  1.00  0.00     0.002 A 
HETATM    4  C12 UNL     1      -0.225  -1.657   0.029  1.00  0.00     0.017 A 
HETATM    5  C13 UNL     1      -0.317  -0.417  -0.561  1.00  0.00     0.032 A 
HETATM    6  C21 UNL     1      -1.556   0.208  -0.670  1.00  0.00     0.028 A 
ENDROOT
BRANCH   5   7
HETATM    7  C14 UNL     1       0.859   0.290  -1.093  1.00  0.00     0.251 C 
HETATM    8  O1  UNL     1       0.696   1.431  -1.601  1.00  0.00    -0.268 OA
HETATM    9  N3  UNL     1       2.136  -0.282  -1.042  1.00  0.00    -0.355 N 
ATOM     10  H3  UNL     1       2.270  -1.206  -0.631  1.00  0.00     0.162 HD
BRANCH   9  11
HETATM   11  C15 UNL     1       3.263   0.449  -1.577  1.00  0.00     0.149 C 
BRANCH  11  12
HETATM   12  C16 UNL     1       4.563  -0.323  -1.435  1.00  0.00     0.187 C 
BRANCH  12  13
HETATM   13  O2  UNL     1       4.827  -0.589  -0.104  1.00  0.00    -0.387 OA
BRANCH  13  14
HETATM   14  C17 UNL     1       4.986   0.499   0.705  1.00  0.00     0.193 C 
BRANCH  14  15
HETATM   15  C18 UNL     1       6.151   1.385   0.462  1.00  0.00     0.193 C 
BRANCH  15  16
HETATM   16  O3  UNL     1       7.348   0.796   0.615  1.00  0.00    -0.387 OA
BRANCH  16  17
HETATM   17  C19 UNL     1       7.722  -0.277  -0.115  1.00  0.00     0.195 C 
BRANCH  17  18
HETATM   18  C20 UNL     1       9.168  -0.617   0.313  1.00  0.00     0.255 C 
BRANCH  18  19
HETATM   19  N4  UNL     1       9.161  -0.914   1.732  1.00  0.00    -0.077 N 
ATOM     20  H43 UNL     1       8.752  -0.164   2.289  1.00  0.00     0.274 HD
ATOM     21  H42 UNL     1       8.495  -1.647   1.978  1.00  0.00     0.274 HD
ATOM     22  H41 UNL     1      10.115  -1.138   2.014  1.00  0.00     0.274 HD
ENDBRANCH  18  19
ENDBRANCH  17  18
ENDBRANCH  16  17
ENDBRANCH  15  16
ENDBRANCH  14  15
ENDBRANCH  13  14
ENDBRANCH  12  13
ENDBRANCH  11  12
ENDBRANCH   9  11
ENDBRANCH   5   7
BRANCH   1  23
HETATM   23  C8  UNL     1      -3.998   0.347  -0.352  1.00  0.00     0.012 C 
HETATM   24  C7  UNL     1      -5.139  -0.150   0.071  1.00  0.00     0.014 C 
BRANCH  24  25
HETATM   25  C6  UNL     1      -6.426   0.542  -0.063  1.00  0.00    -0.014 A 
HETATM   26  C2  UNL     1      -7.545  -0.108   0.431  1.00  0.00     0.017 A 
HETATM   27  C1  UNL     1      -7.427  -1.465   1.073  1.00  0.00     0.069 C 
HETATM   28  N1  UNL     1      -8.737   0.463   0.341  1.00  0.00    -0.346 N 
HETATM   29  C3  UNL     1      -8.872   1.683  -0.232  1.00  0.00     0.098 A 
ATOM     30  H1  UNL     1      -9.559  -0.019   0.706  1.00  0.00     0.167 HD
HETATM   31  N2  UNL     1     -10.031   2.210  -0.306  1.00  0.00    -0.385 N 
HETATM   32  C4  UNL     1      -7.783   2.365  -0.737  1.00  0.00     0.049 A 
ATOM     33  H22 UNL     1     -10.836   1.706   0.067  1.00  0.00     0.157 HD
ATOM     34  H21 UNL     1     -10.133   3.129  -0.737  1.00  0.00     0.157 HD
HETATM   35  C5  UNL     1      -6.524   1.782  -0.652  1.00  0.00     0.017 A 
ENDBRANCH  24  25
ENDBRANCH   1  23
TORSDOF 12
