REMARK  15 active torsions:
REMARK  status: ('A' for Active; 'I' for Inactive)
REMARK    1  A    between atoms: N1_1  and  C1_5 
REMARK    2  A    between atoms: C1_5  and  C2_6 
REMARK    3  A    between atoms: C2_6  and  C3_7 
REMARK    4  A    between atoms: C3_7  and  C4_8 
REMARK    5  A    between atoms: C4_8  and  C5_9 
REMARK    6  A    between atoms: C5_9  and  C6_10 
REMARK    7  A    between atoms: C6_10  and  N2_11 
REMARK    8  A    between atoms: N2_11  and  C7_13 
REMARK    9  A    between atoms: C8_16  and  N4_17 
REMARK   10  A    between atoms: N4_17  and  C9_19 
REMARK   11  A    between atoms: C9_19  and  C10_20 
REMARK   12  A    between atoms: C10_20  and  C11_21 
REMARK   13  A    between atoms: C11_21  and  N5_22 
REMARK   14  A    between atoms: C14_27  and  N7_28 
REMARK   15  A    between atoms: N7_28  and  C15_30 
ROOT
HETATM    1  C7  UNL     1      -0.140  -0.562   0.376  1.00  0.00     0.707 A 
HETATM    2  N3  UNL     1      -1.003   0.465   0.419  1.00  0.00    -0.022 N 
ATOM      3  H3  UNL     1      -0.651   1.420   0.486  1.00  0.00     0.203 HD
HETATM    4  C8  UNL     1      -2.335   0.241   0.374  1.00  0.00     0.707 A 
HETATM    5  N6  UNL     1      -2.770  -1.030   0.285  1.00  0.00    -0.021 N 
ATOM      6  H6  UNL     1      -3.775  -1.202   0.250  1.00  0.00     0.203 HD
HETATM    7  C14 UNL     1      -1.935  -2.082   0.240  1.00  0.00     0.711 A 
HETATM    8  N8  UNL     1      -0.618  -1.826   0.287  1.00  0.00    -0.021 N 
ATOM      9  H8  UNL     1       0.040  -2.604   0.255  1.00  0.00     0.203 HD
ENDROOT
BRANCH   1  10
HETATM   10  N2  UNL     1       1.114  -0.278   0.423  1.00  0.00    -0.225 N 
ATOM     11  H2  UNL     1       1.417   0.694   0.490  1.00  0.00     0.177 HD
BRANCH  10  12
HETATM   12  C6  UNL     1       2.085  -1.336   0.381  1.00  0.00     0.138 C 
BRANCH  12  13
HETATM   13  C5  UNL     1       3.440  -0.651   0.176  1.00  0.00     0.020 C 
BRANCH  13  14
HETATM   14  C4  UNL     1       3.732   0.297   1.312  1.00  0.00     0.002 C 
BRANCH  14  15
HETATM   15  C3  UNL     1       5.072   0.938   1.087  1.00  0.00     0.002 C 
BRANCH  15  16
HETATM   16  C2  UNL     1       5.068   1.707  -0.198  1.00  0.00     0.027 C 
BRANCH  16  17
HETATM   17  C1  UNL     1       6.447   2.353  -0.361  1.00  0.00     0.229 C 
BRANCH  17  18
HETATM   18  N1  UNL     1       7.453   1.296  -0.395  1.00  0.00    -0.079 N 
ATOM     19  H13 UNL     1       7.402   0.681   0.417  1.00  0.00     0.274 HD
ATOM     20  H12 UNL     1       7.261   0.596  -1.112  1.00  0.00     0.274 HD
ATOM     21  H11 UNL     1       8.371   1.726  -0.504  1.00  0.00     0.274 HD
ENDBRANCH  17  18
ENDBRANCH  16  17
ENDBRANCH  15  16
ENDBRANCH  14  15
ENDBRANCH  13  14
ENDBRANCH  12  13
ENDBRANCH  10  12
ENDBRANCH   1  10
BRANCH   4  22
HETATM   22  N4  UNL     1      -3.092   1.259   0.418  1.00  0.00    -0.225 N 
ATOM     23  H4  UNL     1      -2.619   2.160   0.484  1.00  0.00     0.177 HD
BRANCH  22  24
HETATM   24  C9  UNL     1      -4.516   1.309   0.387  1.00  0.00     0.140 C 
BRANCH  24  25
HETATM   25  C10 UNL     1      -4.901   2.789   0.246  1.00  0.00     0.050 C 
BRANCH  25  26
HETATM   26  C11 UNL     1      -4.278   3.260  -1.050  1.00  0.00     0.274 C 
BRANCH  26  27
HETATM   27  N5  UNL     1      -4.536   4.635  -1.348  1.00  0.00     0.091 N 
HETATM   28  C12 UNL     1      -3.980   5.702  -0.569  1.00  0.00     0.302 A 
HETATM   29  C13 UNL     1      -5.446   5.417  -0.552  1.00  0.00     0.302 A 
ENDBRANCH  26  27
ENDBRANCH  25  26
ENDBRANCH  24  25
ENDBRANCH  22  24
ENDBRANCH   4  22
BRANCH   7  30
HETATM   30  N7  UNL     1      -2.371  -3.276   0.156  1.00  0.00    -0.191 N 
ATOM     31  H7  UNL     1      -3.385  -3.379   0.125  1.00  0.00     0.184 HD
BRANCH  30  32
HETATM   32  C15 UNL     1      -1.636  -4.463   0.101  1.00  0.00     0.049 A 
HETATM   33  C16 UNL     1      -1.662  -5.391   1.142  1.00  0.00     0.030 A 
HETATM   34  C17 UNL     1      -0.937  -6.562   1.081  1.00  0.00     0.002 A 
HETATM   35  C18 UNL     1      -0.151  -6.861  -0.023  1.00  0.00     0.000 A 
HETATM   36  C19 UNL     1      -0.118  -5.959  -1.046  1.00  0.00     0.002 A 
HETATM   37  C20 UNL     1      -0.850  -4.777  -0.986  1.00  0.00     0.030 A 
ENDBRANCH  30  32
ENDBRANCH   7  30
TORSDOF 15
