REMARK  11 active torsions:
REMARK  status: ('A' for Active; 'I' for Inactive)
REMARK    1  A    between atoms: C2_2  and  C3_3 
REMARK    2  A    between atoms: C3_3  and  N1_4 
REMARK    3  A    between atoms: N1_4  and  C4_5 
REMARK    4  A    between atoms: N1_4  and  C22_29 
REMARK    5  A    between atoms: C7_8  and  C8_9 
REMARK    6  A    between atoms: C8_9  and  N3_21 
REMARK    7  A    between atoms: N2_10  and  O1_12 
REMARK    8  A    between atoms: O1_12  and  C9_13 
REMARK    9  A    between atoms: C9_13  and  C11_15 
REMARK   10  A    between atoms: C11_15  and  C12_17 
REMARK   11  A    between atoms: N3_21  and  C16_23 
ROOT
HETATM    1  C8  UNL     1      -1.041  -0.752  -1.141  1.00  0.00     0.132 C 
HETATM    2  N2  UNL     1      -1.957  -0.203  -0.542  1.00  0.00    -0.249 N 
ATOM      3  H2  UNL     1      -1.599   0.474   0.132  1.00  0.00     0.196 HD
ENDROOT
BRANCH   1   4
HETATM    4  C7  UNL     1       0.359  -0.319  -0.764  1.00  0.00     0.009 A 
HETATM    5  C6  UNL     1       0.908   0.825  -1.258  1.00  0.00     0.017 A 
HETATM    6  C5  UNL     1       2.188   1.178  -0.877  1.00  0.00     0.030 A 
HETATM    7  C4  UNL     1       2.936   0.414  -0.014  1.00  0.00     0.030 A 
HETATM    8  C21 UNL     1       2.361  -0.733   0.469  1.00  0.00     0.030 A 
HETATM    9  C20 UNL     1       1.058  -1.105   0.091  1.00  0.00     0.017 A 
BRANCH   7  10
HETATM   10  N1  UNL     1       4.296   0.746   0.358  1.00  0.00    -0.374 N 
BRANCH  10  11
HETATM   11  C3  UNL     1       4.954   1.641  -0.554  1.00  0.00     0.123 C 
BRANCH  11  12
HETATM   12  C2  UNL     1       5.111   3.057  -0.094  1.00  0.00     0.015 C 
HETATM   13  C1  UNL     1       5.834   3.854  -1.197  1.00  0.00     0.006 C 
ENDBRANCH  11  12
ENDBRANCH  10  11
BRANCH  10  14
HETATM   14  C22 UNL     1       4.785   0.197   1.557  1.00  0.00     0.110 C 
HETATM   15  C23 UNL     1       5.938  -0.803   1.389  1.00  0.00     0.053 C 
HETATM   16  C24 UNL     1       6.358  -0.908   2.864  1.00  0.00     0.169 C 
HETATM   17  O3  UNL     1       5.905   0.233   3.510  1.00  0.00    -0.389 OA
HETATM   18  C25 UNL     1       5.518   1.135   2.502  1.00  0.00     0.193 C 
ENDBRANCH  10  14
ENDBRANCH   7  10
ENDBRANCH   1   4
BRANCH   1  19
HETATM   19  N3  UNL     1      -1.109  -1.716  -2.154  1.00  0.00    -0.366 N 
ATOM     20  H3  UNL     1      -0.632  -1.439  -3.012  1.00  0.00     0.162 HD
BRANCH  19  21
HETATM   21  C16 UNL     1      -1.703  -2.992  -2.229  1.00  0.00     0.021 C 
HETATM   22  C17 UNL     1      -3.156  -3.090  -2.528  1.00  0.00     0.037 C 
HETATM   23  C18 UNL     1      -0.962  -3.801  -3.324  1.00  0.00     0.037 C 
HETATM   24  C19 UNL     1      -1.449  -3.817  -0.962  1.00  0.00     0.037 C 
ENDBRANCH  19  21
ENDBRANCH   1  19
BRANCH   2  25
HETATM   25  O1  UNL     1      -3.275  -0.238  -0.520  1.00  0.00    -0.266 OA
BRANCH  25  26
HETATM   26  C9  UNL     1      -4.164  -0.244   0.566  1.00  0.00     0.218 C 
HETATM   27  C10 UNL     1      -4.944  -1.543   0.527  1.00  0.00     0.050 C 
BRANCH  26  28
HETATM   28  C11 UNL     1      -5.118   0.921   0.500  1.00  0.00     0.162 C 
HETATM   29  O2  UNL     1      -4.968   1.694  -0.427  1.00  0.00    -0.295 OA
BRANCH  28  30
HETATM   30  C12 UNL     1      -6.174   1.114   1.503  1.00  0.00     0.062 A 
HETATM   31  C13 UNL     1      -7.515   1.586   1.064  1.00  0.00     0.017 A 
HETATM   32  C14 UNL     1      -6.617   2.437   1.979  1.00  0.00    -0.007 A 
HETATM   33  C15 UNL     1      -6.057   3.721   1.444  1.00  0.00     0.011 C 
ENDBRANCH  28  30
ENDBRANCH  26  28
ENDBRANCH  25  26
ENDBRANCH   2  25
TORSDOF 11
