REMARK  10 active torsions:
REMARK  status: ('A' for Active; 'I' for Inactive)
REMARK    1  A    between atoms: C2_2  and  C3_3 
REMARK    2  A    between atoms: C3_3  and  C4_4 
REMARK    3  A    between atoms: C4_4  and  C5_5 
REMARK    4  A    between atoms: C5_5  and  C6_6 
REMARK       I    between atoms: C6_6  and  N1_8 
REMARK    5  A    between atoms: N1_8  and  C7_10 
REMARK    6  A    between atoms: C7_10  and  C8_11 
REMARK    7  A    between atoms: C8_11  and  S1_12 
REMARK    8  A    between atoms: S1_12  and  C9_13 
REMARK    9  A    between atoms: C10_14  and  S2_15 
REMARK   10  A    between atoms: S2_15  and  C11_16 
ROOT
HETATM    1  C9  UNL     1      -1.747  -0.432  -1.123  1.00  0.00     0.064 A 
HETATM    2  C10 UNL     1      -2.930  -1.058  -0.956  1.00  0.00     0.004 A 
HETATM    3  C15 UNL     1      -3.982  -0.533  -0.113  1.00  0.00     0.093 A 
HETATM    4  C16 UNL     1      -3.707   0.714   0.625  1.00  0.00     0.036 A 
HETATM    5  C17 UNL     1      -2.534   1.363   0.477  1.00  0.00     0.030 A 
HETATM    6  C18 UNL     1      -2.276   2.525   1.147  1.00  0.00     0.048 A 
HETATM    7  C19 UNL     1      -3.258   3.022   1.989  1.00  0.00     0.054 A 
HETATM    8  C20 UNL     1      -2.952   4.287   2.707  1.00  0.00     0.077 C 
HETATM    9  O2  UNL     1      -4.383   2.367   2.108  1.00  0.00    -0.280 OA
HETATM   10  C21 UNL     1      -4.663   1.257   1.485  1.00  0.00     0.295 A 
HETATM   11  O3  UNL     1      -5.748   0.633   1.606  1.00  0.00    -0.259 OA
HETATM   12  C22 UNL     1      -1.493   0.808  -0.417  1.00  0.00     0.200 A 
HETATM   13  O4  UNL     1      -0.426   1.460  -0.518  1.00  0.00    -0.286 OA
ENDROOT
BRANCH   1  14
HETATM   14  S1  UNL     1      -0.514  -1.141  -2.155  1.00  0.00    -0.123 SA
BRANCH  14  15
HETATM   15  C8  UNL     1       1.149  -0.620  -1.777  1.00  0.00     0.099 C 
BRANCH  15  16
HETATM   16  C7  UNL     1       1.597  -1.183  -0.467  1.00  0.00     0.133 C 
BRANCH  16  17
HETATM   17  N1  UNL     1       2.971  -0.854  -0.210  1.00  0.00    -0.360 N 
HETATM   18  C6  UNL     1       3.482   0.427  -0.097  1.00  0.00     0.217 C 
HETATM   19  O1  UNL     1       2.825   1.477  -0.201  1.00  0.00    -0.274 OA
ATOM     20  H1  UNL     1       3.625  -1.629  -0.102  1.00  0.00     0.162 HD
BRANCH  18  21
HETATM   21  C5  UNL     1       4.960   0.601   0.176  1.00  0.00     0.103 C 
BRANCH  21  22
HETATM   22  C4  UNL     1       5.342   2.052   0.258  1.00  0.00     0.009 C 
BRANCH  22  23
HETATM   23  C3  UNL     1       6.798   2.234   0.530  1.00  0.00     0.000 C 
BRANCH  23  24
HETATM   24  C2  UNL     1       7.221   1.598   1.845  1.00  0.00    -0.005 C 
HETATM   25  C1  UNL     1       8.716   1.820   2.060  1.00  0.00     0.005 C 
ENDBRANCH  23  24
ENDBRANCH  22  23
ENDBRANCH  21  22
ENDBRANCH  18  21
ENDBRANCH  16  17
ENDBRANCH  15  16
ENDBRANCH  14  15
ENDBRANCH   1  14
BRANCH   2  26
HETATM   26  S2  UNL     1      -3.094  -2.598  -1.849  1.00  0.00    -0.124 SA
BRANCH  26  27
HETATM   27  C11 UNL     1      -4.674  -3.416  -1.556  1.00  0.00     0.002 C 
HETATM   28  C12 UNL     1      -5.837  -2.625  -2.096  1.00  0.00     0.026 C 
HETATM   29  C13 UNL     1      -4.616  -4.727  -2.351  1.00  0.00     0.026 C 
HETATM   30  C14 UNL     1      -4.918  -3.731  -0.120  1.00  0.00     0.026 C 
ENDBRANCH  26  27
ENDBRANCH   2  26
TORSDOF 10
