REMARK  10 active torsions:
REMARK  status: ('A' for Active; 'I' for Inactive)
REMARK    1  A    between atoms: C2_2  and  C3_3 
REMARK    2  A    between atoms: C3_3  and  N1_4 
REMARK    3  A    between atoms: C4_5  and  S1_6 
REMARK    4  A    between atoms: S1_6  and  C5_7 
REMARK    5  A    between atoms: C5_7  and  C6_8 
REMARK    6  A    between atoms: C6_8  and  C7_9 
REMARK    7  A    between atoms: C7_9  and  N2_10 
REMARK    8  A    between atoms: C15_18  and  C16_19 
REMARK    9  A    between atoms: C19_22  and  O1_23 
REMARK   10  A    between atoms: C22_31  and  C23_32 
ROOT
HETATM    1  N2  UNL     1       0.988   0.451   0.079  1.00  0.00    -0.412 N 
HETATM    2  C8  UNL     1       1.865   0.862   1.104  1.00  0.00     0.117 C 
HETATM    3  C9  UNL     1       3.019  -0.042   1.402  1.00  0.00     0.020 C 
HETATM    4  C10 UNL     1       3.629  -0.439   0.055  1.00  0.00     0.012 C 
HETATM    5  C11 UNL     1       3.875   0.816  -0.702  1.00  0.00    -0.030 A 
HETATM    6  C12 UNL     1       2.692   1.251  -1.531  1.00  0.00     0.029 C 
HETATM    7  C13 UNL     1       1.423   0.537  -1.264  1.00  0.00     0.117 C 
HETATM    8  C14 UNL     1       4.613   1.985  -0.085  1.00  0.00     0.020 A 
HETATM    9  C15 UNL     1       5.250   1.185  -1.129  1.00  0.00     0.028 A 
ENDROOT
BRANCH   1  10
HETATM   10  C7  UNL     1       0.035  -0.555   0.375  1.00  0.00     0.117 C 
BRANCH  10  11
HETATM   11  C6  UNL     1      -1.037  -0.099   1.343  1.00  0.00     0.030 C 
BRANCH  11  12
HETATM   12  C5  UNL     1      -2.033  -1.204   1.623  1.00  0.00     0.084 C 
BRANCH  12  13
HETATM   13  S1  UNL     1      -2.890  -1.777   0.141  1.00  0.00    -0.092 SA
BRANCH  13  14
HETATM   14  C4  UNL     1      -3.944  -0.494  -0.536  1.00  0.00     0.162 A 
HETATM   15  N1  UNL     1      -5.235  -0.289  -0.199  1.00  0.00    -0.315 N 
HETATM   16  C22 UNL     1      -5.714   0.753  -0.899  1.00  0.00     0.104 A 
HETATM   17  N4  UNL     1      -4.712   1.199  -1.678  1.00  0.00    -0.286 N 
HETATM   18  N3  UNL     1      -3.635   0.441  -1.458  1.00  0.00    -0.278 N 
ATOM     19  H4  UNL     1      -4.766   1.984  -2.327  1.00  0.00     0.188 HD
ATOM     20  H3  UNL     1      -2.728   0.551  -1.912  1.00  0.00     0.189 HD
BRANCH  15  21
HETATM   21  C3  UNL     1      -5.974  -1.059   0.756  1.00  0.00     0.132 C 
BRANCH  21  22
HETATM   22  C2  UNL     1      -6.685  -2.243   0.177  1.00  0.00     0.016 C 
HETATM   23  C1  UNL     1      -7.435  -2.995   1.269  1.00  0.00     0.006 C 
ENDBRANCH  21  22
ENDBRANCH  15  21
BRANCH  16  24
HETATM   24  C23 UNL     1      -7.089   1.312  -0.822  1.00  0.00     0.055 A 
HETATM   25  C24 UNL     1      -7.161   2.872  -0.760  1.00  0.00     0.013 A 
HETATM   26  C25 UNL     1      -7.518   2.140  -1.994  1.00  0.00     0.013 A 
ENDBRANCH  16  24
ENDBRANCH  13  14
ENDBRANCH  12  13
ENDBRANCH  11  12
ENDBRANCH  10  11
ENDBRANCH   1  10
BRANCH   9  27
HETATM   27  C16 UNL     1       6.446   0.392  -0.795  1.00  0.00    -0.053 A 
HETATM   28  C17 UNL     1       7.325  -0.026  -1.795  1.00  0.00     0.010 A 
HETATM   29  C18 UNL     1       8.458  -0.757  -1.487  1.00  0.00     0.037 A 
HETATM   30  C19 UNL     1       8.764  -1.102  -0.188  1.00  0.00     0.065 A 
HETATM   31  C20 UNL     1       7.898  -0.691   0.803  1.00  0.00     0.037 A 
HETATM   32  C21 UNL     1       6.775   0.035   0.492  1.00  0.00     0.010 A 
BRANCH  30  33
HETATM   33  O1  UNL     1       9.910  -1.844   0.126  1.00  0.00    -0.361 OA
ATOM     34  H1  UNL     1      10.121  -2.082   1.021  1.00  0.00     0.217 HD
ENDBRANCH  30  33
ENDBRANCH   9  27
TORSDOF 10
