REMARK  4 active torsions:
REMARK  status: ('A' for Active; 'I' for Inactive)
REMARK    1  A    between atoms: C1_2  and  O2_4 
REMARK    2  A    between atoms: O2_4  and  N2_5 
REMARK       I    between atoms: N2_5  and  C2_6 
REMARK       I    between atoms: C2_6  and  N3_7 
REMARK       I    between atoms: C2_6  and  N4_11 
REMARK       I    between atoms: N4_11  and  C3_13 
REMARK    3  A    between atoms: C3_13  and  C4_15 
REMARK    4  A    between atoms: C4_15  and  C5_17 
ROOT
HETATM    1  N2  UNL     1       2.501  -0.505  -0.444  1.00  0.00    -0.035 NA
HETATM    2  C2  UNL     1       1.592   0.198   0.457  1.00  0.00     0.407 C 
HETATM    3  N3  UNL     1       2.144   0.338   1.776  1.00  0.00    -0.042 N 
ATOM      4  H31 UNL     1       1.509   0.829   2.405  1.00  0.00     0.278 HD
ATOM      5  H32 UNL     1       3.059   0.787   1.749  1.00  0.00     0.278 HD
ATOM      6  H33 UNL     1       2.420  -0.566   2.160  1.00  0.00     0.278 HD
HETATM    7  N4  UNL     1       0.320  -0.471   0.473  1.00  0.00    -0.312 N 
ATOM      8  H4  UNL     1       0.276  -1.428   0.823  1.00  0.00     0.166 HD
HETATM    9  C3  UNL     1      -0.909   0.158   0.011  1.00  0.00     0.295 C 
HETATM   10  O3  UNL     1      -0.742   1.328  -0.396  1.00  0.00    -0.264 OA
ENDROOT
BRANCH   9  11
HETATM   11  C4  UNL     1      -2.122  -0.585   0.065  1.00  0.00     0.256 C 
HETATM   12  O4  UNL     1      -2.018  -1.783   0.532  1.00  0.00    -0.281 OA
BRANCH  11  13
HETATM   13  C5  UNL     1      -3.435  -0.139  -0.344  1.00  0.00     0.106 A 
HETATM   14  C6  UNL     1      -4.600  -0.942  -0.259  1.00  0.00     0.128 A 
HETATM   15  N5  UNL     1      -5.633  -0.230  -0.716  1.00  0.00    -0.308 N 
HETATM   16  N6  UNL     1      -5.237   0.963  -1.089  1.00  0.00    -0.266 N 
ATOM     17  H5  UNL     1      -6.594  -0.567  -0.768  1.00  0.00     0.186 HD
HETATM   18  C7  UNL     1      -3.891   1.038  -0.869  1.00  0.00     0.275 A 
ATOM     19  H6  UNL     1      -5.827   1.701  -1.474  1.00  0.00     0.190 HD
HETATM   20  O5  UNL     1      -3.198   2.070  -1.127  1.00  0.00    -0.266 OA
ENDBRANCH  11  13
ENDBRANCH   9  11
BRANCH   1  21
HETATM   21  O2  UNL     1       3.687   0.162  -0.570  1.00  0.00    -0.188 OA
BRANCH  21  22
HETATM   22  C1  UNL     1       4.890  -0.286  -0.062  1.00  0.00     0.391 C 
HETATM   23  N1  UNL     1       6.101   0.450  -0.221  1.00  0.00    -0.031 NA
HETATM   24  O1  UNL     1       4.916  -1.377   0.561  1.00  0.00    -0.241 OA
ENDBRANCH  21  22
ENDBRANCH   1  21
TORSDOF 4
