REMARK  7 active torsions:
REMARK  status: ('A' for Active; 'I' for Inactive)
REMARK    1  A    between atoms: C1_4  and  O1_6 
REMARK    2  A    between atoms: O1_6  and  N3_7 
REMARK       I    between atoms: C2_9  and  N5_11 
REMARK    3  A    between atoms: N5_11  and  N6_13 
REMARK    4  A    between atoms: N6_13  and  N7_15 
REMARK    5  A    between atoms: C3_17  and  C4_18 
REMARK    6  A    between atoms: C3_17  and  C5_22 
REMARK    7  A    between atoms: C4_18  and  N8_19 
ROOT
HETATM    1  N3  UNL     1       2.499   0.638  -0.027  1.00  0.00    -0.228 N 
ATOM      2  H3  UNL     1       2.229   1.589   0.223  1.00  0.00     0.197 HD
HETATM    3  C2  UNL     1       1.679  -0.349   0.124  1.00  0.00     0.228 C 
HETATM    4  N4  UNL     1       2.037  -1.680  -0.218  1.00  0.00    -0.060 NA
HETATM    5  N5  UNL     1       0.381  -0.132   0.642  1.00  0.00    -0.257 N 
ATOM      6  H5  UNL     1       0.286   0.368   1.526  1.00  0.00     0.191 HD
ENDROOT
BRANCH   5   7
HETATM    7  N6  UNL     1      -0.771  -0.570  -0.000  1.00  0.00    -0.240 N 
ATOM      8  H6  UNL     1      -1.035  -1.555   0.001  1.00  0.00     0.208 HD
BRANCH   7   9
HETATM    9  N7  UNL     1      -1.552   0.388  -0.645  1.00  0.00    -0.283 N 
HETATM   10  C3  UNL     1      -2.776   0.548  -0.299  1.00  0.00     0.115 C 
ATOM     11  H7  UNL     1      -1.151   0.959  -1.389  1.00  0.00     0.188 HD
BRANCH  10  12
HETATM   12  C4  UNL     1      -3.326  -0.297   0.785  1.00  0.00     0.265 C 
BRANCH  12  13
HETATM   13  N8  UNL     1      -4.450  -1.097   0.334  1.00  0.00    -0.150 N 
HETATM   14  O2  UNL     1      -5.564  -0.978   0.857  1.00  0.00    -0.536 OA
HETATM   15  O3  UNL     1      -4.235  -1.976  -0.679  1.00  0.00    -0.536 OA
ENDBRANCH  12  13
ENDBRANCH  10  12
BRANCH  10  16
HETATM   16  C5  UNL     1      -3.591   1.538  -0.964  1.00  0.00     0.280 C 
HETATM   17  N9  UNL     1      -3.117   2.369  -2.002  1.00  0.00    -0.056 NA
HETATM   18  O4  UNL     1      -4.788   1.681  -0.611  1.00  0.00    -0.270 OA
ENDBRANCH  10  16
ENDBRANCH   7   9
ENDBRANCH   5   7
BRANCH   1  19
HETATM   19  O1  UNL     1       3.753   0.365  -0.538  1.00  0.00    -0.202 OA
BRANCH  19  20
HETATM   20  C1  UNL     1       4.851   0.269   0.323  1.00  0.00     0.249 C 
HETATM   21  N1  UNL     1       4.906   1.116   1.282  1.00  0.00    -0.366 N 
ATOM     22  H12 UNL     1       5.707   1.046   1.910  1.00  0.00     0.159 HD
ATOM     23  H11 UNL     1       4.189   1.829   1.418  1.00  0.00     0.159 HD
HETATM   24  N2  UNL     1       5.858  -0.733   0.132  1.00  0.00    -0.055 NA
ENDBRANCH  19  20
ENDBRANCH   1  19
TORSDOF 7
