REMARK  9 active torsions:
REMARK  status: ('A' for Active; 'I' for Inactive)
REMARK    1  A    between atoms: N1_2  and  N2_3 
REMARK       I    between atoms: N1_2  and  C2_6 
REMARK    2  A    between atoms: C2_6  and  C3_8 
REMARK    3  A    between atoms: C3_8  and  C4_9 
REMARK    4  A    between atoms: C3_8  and  N9_26 
REMARK    5  A    between atoms: C4_9  and  N3_10 
REMARK    6  A    between atoms: C6_12  and  C7_13 
REMARK    7  A    between atoms: C7_13  and  N5_17 
REMARK    8  A    between atoms: N5_17  and  N6_19 
REMARK    9  A    between atoms: N9_26  and  N10_27 
ROOT
HETATM    1  N3  UNL     1       0.719  -0.910   0.586  1.00  0.00    -0.285 N 
HETATM    2  C5  UNL     1       1.745  -0.040   0.514  1.00  0.00     0.146 A 
HETATM    3  C6  UNL     1       2.910  -0.698   0.213  1.00  0.00     0.111 A 
HETATM    4  N7  UNL     1       2.542  -2.006   0.107  1.00  0.00    -0.281 N 
ATOM      5  H7  UNL     1       3.164  -2.785  -0.110  1.00  0.00     0.188 HD
HETATM    6  N8  UNL     1       1.252  -2.093   0.331  1.00  0.00    -0.240 N 
ATOM      7  H8  UNL     1       0.725  -2.966   0.311  1.00  0.00     0.208 HD
ENDROOT
BRANCH   1   8
HETATM    8  C4  UNL     1      -0.699  -0.624   0.883  1.00  0.00     0.182 C 
BRANCH   8   9
HETATM    9  C3  UNL     1      -1.332  -0.362  -0.454  1.00  0.00     0.212 C 
BRANCH   9  10
HETATM   10  C2  UNL     1      -2.770  -0.055  -0.421  1.00  0.00     0.260 C 
HETATM   11  N1  UNL     1      -3.411   1.015   0.208  1.00  0.00    -0.271 N 
HETATM   12  C1  UNL     1      -2.650   2.003   0.923  1.00  0.00     0.180 C 
HETATM   13  O1  UNL     1      -3.543  -0.873  -1.053  1.00  0.00    -0.270 OA
BRANCH  11  14
HETATM   14  N2  UNL     1      -4.796   1.141   0.154  1.00  0.00    -0.341 N 
ATOM     15  H22 UNL     1      -5.264   1.922   0.613  1.00  0.00     0.177 HD
ATOM     16  H21 UNL     1      -5.336   0.440  -0.353  1.00  0.00     0.177 HD
ENDBRANCH  11  14
ENDBRANCH   9  10
BRANCH   9  17
HETATM   17  N9  UNL     1      -1.053  -1.525  -1.299  1.00  0.00    -0.132 NA
BRANCH  17  18
HETATM   18  N10 UNL     1      -1.674  -2.682  -0.881  1.00  0.00    -0.348 N 
ATOM     19 2H10 UNL     1      -2.271  -2.709  -0.055  1.00  0.00     0.172 HD
ATOM     20 1H10 UNL     1      -1.480  -3.492  -1.470  1.00  0.00     0.172 HD
ENDBRANCH  17  18
ENDBRANCH   9  17
ENDBRANCH   8   9
ENDBRANCH   1   8
BRANCH   3  21
HETATM   21  C7  UNL     1       4.255  -0.163   0.038  1.00  0.00     0.143 C 
HETATM   22  N4  UNL     1       5.244  -0.934  -0.245  1.00  0.00    -0.383 N 
ATOM     23  H42 UNL     1       5.116  -1.940  -0.356  1.00  0.00     0.157 HD
ATOM     24  H41 UNL     1       6.185  -0.560  -0.367  1.00  0.00     0.157 HD
BRANCH  21  25
HETATM   25  N5  UNL     1       4.433   1.237   0.193  1.00  0.00    -0.291 N 
ATOM     26  H5  UNL     1       4.680   1.604   1.112  1.00  0.00     0.188 HD
BRANCH  25  27
HETATM   27  N6  UNL     1       4.281   2.125  -0.869  1.00  0.00    -0.344 N 
ATOM     28  H62 UNL     1       4.034   1.741  -1.781  1.00  0.00     0.176 HD
ATOM     29  H61 UNL     1       4.409   3.131  -0.758  1.00  0.00     0.176 HD
ENDBRANCH  25  27
ENDBRANCH  21  25
ENDBRANCH   3  21
TORSDOF 9
