REMARK  13 active torsions:
REMARK  status: ('A' for Active; 'I' for Inactive)
REMARK    1  A    between atoms: N1_1  and  C1_4 
REMARK    2  A    between atoms: N2_7  and  C4_8 
REMARK    3  A    between atoms: C5_9  and  O1_10 
REMARK    4  A    between atoms: C6_13  and  C7_14 
REMARK    5  A    between atoms: C7_14  and  N3_15 
REMARK    6  A    between atoms: N3_15  and  C8_17 
REMARK    7  A    between atoms: C8_17  and  C9_18 
REMARK    8  A    between atoms: C9_18  and  C10_19 
REMARK    9  A    between atoms: C10_19  and  N4_20 
REMARK   10  A    between atoms: N4_20  and  C11_22 
REMARK   11  A    between atoms: C11_22  and  C12_23 
REMARK   12  A    between atoms: C12_23  and  N5_24 
REMARK   13  A    between atoms: C13_28  and  O3_29 
ROOT
HETATM    1  C4  UNL     1      -2.273   0.584   0.383  1.00  0.00     0.180 C 
HETATM    2  C5  UNL     1      -2.004  -0.022   1.748  1.00  0.00     0.283 C 
HETATM    3  O2  UNL     1      -0.624  -0.229   1.657  1.00  0.00    -0.350 OA
HETATM    4  C6  UNL     1      -0.436  -0.854   0.415  1.00  0.00     0.173 C 
HETATM    5  C13 UNL     1      -1.299  -0.031  -0.528  1.00  0.00     0.177 C 
ENDROOT
BRANCH   4   6
HETATM    6  C7  UNL     1       1.055  -0.685   0.113  1.00  0.00     0.153 C 
BRANCH   6   7
HETATM    7  N3  UNL     1       1.354  -1.315  -1.089  1.00  0.00    -0.396 N 
ATOM      8  H3  UNL     1       0.598  -1.797  -1.576  1.00  0.00     0.158 HD
BRANCH   7   9
HETATM    9  C8  UNL     1       2.619  -1.332  -1.673  1.00  0.00     0.084 C 
BRANCH   9  10
HETATM   10  C9  UNL     1       3.734  -2.075  -1.085  1.00  0.00     0.034 C 
BRANCH  10  11
HETATM   11  C10 UNL     1       4.288  -1.816   0.249  1.00  0.00     0.088 C 
BRANCH  11  12
HETATM   12  N4  UNL     1       4.911  -0.718   0.719  1.00  0.00    -0.377 N 
ATOM     13  H4  UNL     1       5.903  -0.898   0.874  1.00  0.00     0.164 HD
BRANCH  12  14
HETATM   14  C11 UNL     1       4.591   0.559   1.044  1.00  0.00     0.087 C 
BRANCH  14  15
HETATM   15  C12 UNL     1       4.286   1.541  -0.045  1.00  0.00     0.274 C 
BRANCH  15  16
HETATM   16  N5  UNL     1       4.034   2.846   0.639  1.00  0.00    -0.075 N 
ATOM     17  H53 UNL     1       3.312   2.797   1.357  1.00  0.00     0.274 HD
ATOM     18  H52 UNL     1       4.796   3.139   1.251  1.00  0.00     0.274 HD
ATOM     19  H51 UNL     1       3.826   3.515  -0.103  1.00  0.00     0.274 HD
ENDBRANCH  15  16
ENDBRANCH  14  15
ENDBRANCH  12  14
ENDBRANCH  11  12
ENDBRANCH  10  11
ENDBRANCH   9  10
ENDBRANCH   7   9
ENDBRANCH   6   7
ENDBRANCH   4   6
BRANCH   5  20
HETATM   20  O3  UNL     1      -1.740  -0.730  -1.607  1.00  0.00    -0.391 OA
ATOM     21  H3  UNL     1      -1.110  -1.128  -2.196  1.00  0.00     0.210 HD
ENDBRANCH   5  20
BRANCH   2  22
HETATM   22  O1  UNL     1      -2.613  -1.230   1.968  1.00  0.00    -0.369 OA
ATOM     23  H1  UNL     1      -2.445  -1.609   2.823  1.00  0.00     0.212 HD
ENDBRANCH   2  22
BRANCH   1  24
HETATM   24  N2  UNL     1      -3.646   0.632   0.048  1.00  0.00    -0.298 N 
HETATM   25  C3  UNL     1      -4.347  -0.314  -0.587  1.00  0.00     0.100 A 
HETATM   26  C2  UNL     1      -5.710  -0.168  -0.866  1.00  0.00     0.065 A 
HETATM   27  C1  UNL     1      -6.399   0.956  -0.498  1.00  0.00     0.103 A 
HETATM   28  N6  UNL     1      -5.663   1.906   0.148  1.00  0.00    -0.295 N 
HETATM   29  C14 UNL     1      -4.387   1.737   0.392  1.00  0.00     0.328 A 
ATOM     30  H6  UNL     1      -6.117   2.769   0.448  1.00  0.00     0.172 HD
HETATM   31  O4  UNL     1      -3.772   2.669   0.999  1.00  0.00    -0.246 OA
BRANCH  27  32
HETATM   32  N1  UNL     1      -7.649   1.153  -0.731  1.00  0.00    -0.385 N 
ATOM     33  H12 UNL     1      -8.199   0.443  -1.214  1.00  0.00     0.157 HD
ATOM     34  H11 UNL     1      -8.162   1.991  -0.457  1.00  0.00     0.157 HD
ENDBRANCH  27  32
ENDBRANCH   1  24
TORSDOF 13
