REMARK  11 active torsions:
REMARK  status: ('A' for Active; 'I' for Inactive)
REMARK    1  A    between atoms: C2_3  and  O1_4 
REMARK    2  A    between atoms: C3_7  and  N2_8 
REMARK    3  A    between atoms: N2_8  and  C4_10 
REMARK    4  A    between atoms: C4_10  and  C5_11 
REMARK    5  A    between atoms: C5_11  and  C6_12 
REMARK    6  A    between atoms: C6_12  and  N3_13 
REMARK    7  A    between atoms: N3_13  and  C7_15 
REMARK    8  A    between atoms: C7_15  and  C8_16 
REMARK    9  A    between atoms: C8_16  and  C9_17 
REMARK   10  A    between atoms: C9_17  and  N4_18 
REMARK   11  A    between atoms: C11_23  and  O3_24 
ROOT
HETATM    1  N1  UNL     1      -5.467   2.456  -3.084  1.00  0.00    -0.191 NA
HETATM    2  C1  UNL     1      -5.260   1.672  -2.238  1.00  0.00     0.130 C 
HETATM    3  C2  UNL     1      -4.972   0.693  -1.165  1.00  0.00     0.286 C 
HETATM    4  O2  UNL     1      -3.615   0.533  -1.111  1.00  0.00    -0.314 OA
HETATM    5  C3  UNL     1      -3.189  -0.653  -0.431  1.00  0.00     0.256 C 
HETATM    6  C11 UNL     1      -3.191  -0.465   1.018  1.00  0.00     0.197 C 
HETATM    7  C12 UNL     1      -4.187   0.530   1.546  1.00  0.00     0.221 C 
HETATM    8  C13 UNL     1      -4.178   1.867   0.885  1.00  0.00     0.075 C 
HETATM    9  C14 UNL     1      -5.393   1.326   0.141  1.00  0.00     0.266 C 
HETATM   10  N7  UNL     1      -5.541   0.270   1.103  1.00  0.00    -0.058 N 
ATOM     11  H71 UNL     1      -6.315   0.278   1.767  1.00  0.00     0.278 HD
ATOM     12  H72 UNL     1      -5.820  -0.666   0.808  1.00  0.00     0.278 HD
ENDROOT
BRANCH   3  13
HETATM   13  O1  UNL     1      -5.683  -0.433  -1.484  1.00  0.00    -0.352 OA
ATOM     14  H1  UNL     1      -5.498  -1.061  -0.796  1.00  0.00     0.214 HD
ENDBRANCH   3  13
BRANCH   5  15
HETATM   15  N2  UNL     1      -1.935  -0.983  -1.065  1.00  0.00    -0.374 N 
ATOM     16  H2  UNL     1      -1.775  -1.918  -1.441  1.00  0.00     0.161 HD
BRANCH  15  17
HETATM   17  C4  UNL     1      -0.950  -0.010  -1.156  1.00  0.00     0.059 C 
BRANCH  17  18
HETATM   18  C5  UNL     1      -0.097   0.471  -0.082  1.00  0.00     0.063 C 
BRANCH  18  19
HETATM   19  C6  UNL     1       0.897  -0.536   0.497  1.00  0.00     0.123 C 
BRANCH  19  20
HETATM   20  N3  UNL     1       1.735  -0.956  -0.581  1.00  0.00    -0.402 N 
ATOM     21  H3  UNL     1       1.491  -0.743  -1.548  1.00  0.00     0.158 HD
BRANCH  20  22
HETATM   22  C7  UNL     1       2.906  -1.671  -0.272  1.00  0.00     0.057 C 
BRANCH  22  23
HETATM   23  C8  UNL     1       3.898  -0.721   0.381  1.00  0.00     0.063 C 
BRANCH  23  24
HETATM   24  C9  UNL     1       5.222  -1.381   0.694  1.00  0.00     0.127 C 
BRANCH  24  25
HETATM   25  N4  UNL     1       6.167  -0.509   1.280  1.00  0.00    -0.367 N 
HETATM   26  C10 UNL     1       6.925   0.364   0.766  1.00  0.00     0.196 C 
HETATM   27  N5  UNL     1       7.772   1.081   1.673  1.00  0.00    -0.067 NA
HETATM   28  N6  UNL     1       7.032   0.713  -0.601  1.00  0.00    -0.067 NA
ATOM     29  H4  UNL     1       6.253  -0.599   2.292  1.00  0.00     0.161 HD
ENDBRANCH  24  25
ENDBRANCH  23  24
ENDBRANCH  22  23
ENDBRANCH  20  22
ENDBRANCH  19  20
ENDBRANCH  18  19
ENDBRANCH  17  18
ENDBRANCH  15  17
ENDBRANCH   5  15
BRANCH   6  30
HETATM   30  O3  UNL     1      -3.575  -1.702   1.645  1.00  0.00    -0.389 OA
ATOM     31  H3  UNL     1      -3.576  -1.580   2.587  1.00  0.00     0.210 HD
ENDBRANCH   6  30
TORSDOF 11
