REMARK  11 active torsions:
REMARK  status: ('A' for Active; 'I' for Inactive)
REMARK       I    between atoms: C1_4  and  N3_6 
REMARK    1  A    between atoms: N3_6  and  C2_7 
REMARK    2  A    between atoms: N3_6  and  C4_13 
REMARK    3  A    between atoms: C2_7  and  C3_8 
REMARK    4  A    between atoms: C3_8  and  N4_9 
REMARK    5  A    between atoms: C5_16  and  N6_17 
REMARK    6  A    between atoms: C6_19  and  C7_20 
REMARK    7  A    between atoms: C7_20  and  N7_21 
REMARK    8  A    between atoms: N7_21  and  C8_24 
REMARK    9  A    between atoms: C8_24  and  C9_25 
REMARK   10  A    between atoms: C9_25  and  O1_26 
REMARK   11  A    between atoms: C11_32  and  N9_33 
ROOT
HETATM    1  C4  UNL     1      -1.798  -0.415  -0.096  1.00  0.00     0.164 A 
HETATM    2  N5  UNL     1      -0.772  -0.153   0.749  1.00  0.00    -0.173 N 
ATOM      3  H5  UNL     1      -0.975   0.341   1.618  1.00  0.00     0.186 HD
HETATM    4  C5  UNL     1       0.524  -0.517   0.497  1.00  0.00     0.686 A 
HETATM    5  N8  UNL     1       0.744  -1.164  -0.650  1.00  0.00    -0.154 N 
ATOM      6  H8  UNL     1       1.700  -1.449  -0.864  1.00  0.00     0.187 HD
HETATM    7  C10 UNL     1      -0.217  -1.462  -1.538  1.00  0.00     0.296 A 
HETATM    8  O2  UNL     1       0.060  -2.078  -2.604  1.00  0.00    -0.265 OA
HETATM    9  C11 UNL     1      -1.535  -1.067  -1.239  1.00  0.00     0.215 A 
ENDROOT
BRANCH   1  10
HETATM   10  N3  UNL     1      -3.117   0.056   0.258  1.00  0.00    -0.303 N 
HETATM   11  C1  UNL     1      -4.221  -0.765   0.553  1.00  0.00     0.189 C 
HETATM   12  N1  UNL     1      -5.143  -1.167  -0.234  1.00  0.00    -0.373 N 
HETATM   13  N2  UNL     1      -4.376  -1.241   1.918  1.00  0.00    -0.063 NA
ATOM     14  H12 UNL     1      -5.943  -1.762  -0.020  1.00  0.00     0.158 HD
ATOM     15  H11 UNL     1      -5.034  -0.833  -1.192  1.00  0.00     0.158 HD
BRANCH  10  16
HETATM   16  C2  UNL     1      -3.166   1.528   0.365  1.00  0.00     0.160 C 
BRANCH  16  17
HETATM   17  C3  UNL     1      -4.029   2.228  -0.600  1.00  0.00     0.250 C 
BRANCH  17  18
HETATM   18  N4  UNL     1      -5.434   1.903  -0.507  1.00  0.00    -0.078 N 
ATOM     19  H43 UNL     1      -5.568   0.895  -0.580  1.00  0.00     0.274 HD
ATOM     20  H42 UNL     1      -5.770   2.058   0.444  1.00  0.00     0.274 HD
ATOM     21  H41 UNL     1      -6.032   2.388  -1.176  1.00  0.00     0.274 HD
ENDBRANCH  17  18
ENDBRANCH  16  17
ENDBRANCH  10  16
ENDBRANCH   1  10
BRANCH   9  22
HETATM   22  N9  UNL     1      -2.477  -1.402  -2.219  1.00  0.00    -0.106 N 
HETATM   23  O3  UNL     1      -2.956  -0.522  -2.945  1.00  0.00    -0.531 OA
HETATM   24  O4  UNL     1      -2.867  -2.699  -2.383  1.00  0.00    -0.531 OA
ENDBRANCH   9  22
BRANCH   4  25
HETATM   25  N6  UNL     1       1.388  -0.202   1.290  1.00  0.00    -0.203 N 
HETATM   26  C6  UNL     1       2.654  -0.138   1.762  1.00  0.00     0.106 C 
ATOM     27  H6  UNL     1       0.860   0.297   2.006  1.00  0.00     0.183 HD
BRANCH  26  28
HETATM   28  C7  UNL     1       3.697  -0.490   0.720  1.00  0.00     0.277 C 
BRANCH  28  29
HETATM   29  N7  UNL     1       5.043  -0.308   1.269  1.00  0.00    -0.069 N 
ATOM     30  H72 UNL     1       5.184   0.618   1.673  1.00  0.00     0.277 HD
ATOM     31  H71 UNL     1       5.201  -0.851   2.118  1.00  0.00     0.277 HD
BRANCH  29  32
HETATM   32  C8  UNL     1       5.986  -0.613   0.227  1.00  0.00     0.258 C 
BRANCH  32  33
HETATM   33  C9  UNL     1       5.969   0.383  -0.902  1.00  0.00     0.191 C 
BRANCH  33  34
HETATM   34  O1  UNL     1       6.269   1.673  -0.480  1.00  0.00    -0.399 OA
ATOM     35  H1  UNL     1       6.258   2.301  -1.192  1.00  0.00     0.209 HD
ENDBRANCH  33  34
ENDBRANCH  32  33
ENDBRANCH  29  32
ENDBRANCH  28  29
ENDBRANCH  26  28
ENDBRANCH   4  25
TORSDOF 11
