REMARK  7 active torsions:
REMARK  status: ('A' for Active; 'I' for Inactive)
REMARK    1  A    between atoms: C3_3  and  N1_4 
REMARK    2  A    between atoms: C3_3  and  C4_8 
REMARK       I    between atoms: C4_8  and  N2_10 
REMARK    3  A    between atoms: N2_10  and  C5_12 
REMARK    4  A    between atoms: C5_12  and  C6_13 
REMARK    5  A    between atoms: C5_12  and  C12_24 
REMARK       I    between atoms: C6_13  and  N3_15 
REMARK    6  A    between atoms: N3_15  and  C7_17 
REMARK    7  A    between atoms: C12_24  and  C13_26 
ROOT
HETATM    1  C1  UNL     1      -4.807  -1.739  -1.761  1.00  0.00     0.015 C 
HETATM    2  C2  UNL     1      -4.248  -1.908  -0.708  1.00  0.00    -0.075 C 
HETATM    3  C3  UNL     1      -3.592  -2.147   0.589  1.00  0.00     0.352 C 
ENDROOT
BRANCH   3   4
HETATM    4  N1  UNL     1      -4.656  -2.353   1.568  1.00  0.00    -0.056 N 
ATOM      5  H13 UNL     1      -5.332  -1.590   1.594  1.00  0.00     0.276 HD
ATOM      6  H12 UNL     1      -5.307  -3.092   1.304  1.00  0.00     0.276 HD
ATOM      7  H11 UNL     1      -4.202  -2.519   2.466  1.00  0.00     0.276 HD
ENDBRANCH   3   4
BRANCH   3   8
HETATM    8  C4  UNL     1      -2.731  -1.007   0.987  1.00  0.00     0.261 C 
HETATM    9  O1  UNL     1      -3.001  -0.324   2.018  1.00  0.00    -0.270 OA
HETATM   10  N2  UNL     1      -1.598  -0.673   0.218  1.00  0.00    -0.339 N 
ATOM     11  H2  UNL     1      -1.376  -1.221  -0.613  1.00  0.00     0.163 HD
BRANCH  10  12
HETATM   12  C5  UNL     1      -0.743   0.439   0.592  1.00  0.00     0.257 C 
BRANCH  12  13
HETATM   13  C6  UNL     1       0.615  -0.099   0.900  1.00  0.00     0.253 C 
HETATM   14  O2  UNL     1       0.662  -1.323   1.241  1.00  0.00    -0.270 OA
HETATM   15  N3  UNL     1       1.806   0.634   0.836  1.00  0.00    -0.325 N 
ATOM     16  H3  UNL     1       1.854   1.480   1.404  1.00  0.00     0.169 HD
BRANCH  15  17
HETATM   17  C7  UNL     1       2.841   0.350   0.137  1.00  0.00     0.037 A 
HETATM   18  C8  UNL     1       3.953   1.174   0.172  1.00  0.00     0.046 A 
HETATM   19  C9  UNL     1       5.078   0.889  -0.565  1.00  0.00     0.090 A 
HETATM   20  N4  UNL     1       5.085  -0.228  -1.340  1.00  0.00    -0.375 N 
HETATM   21  C10 UNL     1       4.028  -1.063  -1.408  1.00  0.00     0.090 A 
ATOM     22  H4  UNL     1       5.918  -0.442  -1.889  1.00  0.00     0.164 HD
HETATM   23  C11 UNL     1       2.905  -0.778  -0.671  1.00  0.00     0.046 A 
ENDBRANCH  15  17
ENDBRANCH  12  13
BRANCH  12  24
HETATM   24  C12 UNL     1      -0.774   1.485  -0.423  1.00  0.00     0.245 C 
HETATM   25  O3  UNL     1      -1.356   1.258  -1.544  1.00  0.00    -0.285 OA
BRANCH  24  26
HETATM   26  C13 UNL     1      -0.193   2.801  -0.274  1.00  0.00     0.303 C 
HETATM   27  N5  UNL     1      -0.215   3.760  -1.319  1.00  0.00    -0.054 NA
HETATM   28  O4  UNL     1       0.353   3.127   0.798  1.00  0.00    -0.268 OA
ENDBRANCH  24  26
ENDBRANCH  12  24
ENDBRANCH  10  12
ENDBRANCH   3   8
TORSDOF 7
