REMARK  9 active torsions:
REMARK  status: ('A' for Active; 'I' for Inactive)
REMARK    1  A    between atoms: C2_2  and  N1_3 
REMARK    2  A    between atoms: N1_3  and  C3_5 
REMARK    3  A    between atoms: C7_14  and  N4_15 
REMARK    4  A    between atoms: N4_15  and  C9_17 
REMARK    5  A    between atoms: C9_17  and  C10_18 
REMARK    6  A    between atoms: C10_18  and  O2_19 
REMARK    7  A    between atoms: C11_21  and  C12_22 
REMARK    8  A    between atoms: C12_22  and  C13_23 
REMARK    9  A    between atoms: N6_25  and  O3_27 
ROOT
HETATM    1  C3  UNL     1       2.616  -0.884  -0.834  1.00  0.00     0.681 A 
HETATM    2  N2  UNL     1       2.926   0.377  -0.482  1.00  0.00    -0.155 N 
ATOM      3  H2  UNL     1       3.907   0.626  -0.354  1.00  0.00     0.187 HD
HETATM    4  C4  UNL     1       1.986   1.322  -0.293  1.00  0.00     0.272 A 
HETATM    5  O1  UNL     1       2.275   2.488   0.032  1.00  0.00    -0.267 OA
HETATM    6  C5  UNL     1       0.634   1.024  -0.456  1.00  0.00     0.071 A 
HETATM    7  C6  UNL     1       0.317  -0.258  -0.813  1.00  0.00     0.092 A 
HETATM    8  N3  UNL     1       1.314  -1.176  -0.992  1.00  0.00    -0.189 N 
ATOM      9  H3  UNL     1       1.058  -2.127  -1.258  1.00  0.00     0.184 HD
HETATM   10  C7  UNL     1      -0.961   0.069  -0.807  1.00  0.00     0.066 A 
HETATM   11  C11 UNL     1      -0.621   1.428  -0.431  1.00  0.00    -0.004 A 
ENDROOT
BRANCH  11  12
HETATM   12  C12 UNL     1      -1.337   2.722  -0.143  1.00  0.00     0.117 C 
BRANCH  12  13
HETATM   13  C13 UNL     1      -2.230   2.571   0.996  1.00  0.00     0.117 C 
HETATM   14  N5  UNL     1      -1.720   2.283   2.285  1.00  0.00    -0.085 NA
HETATM   15  N6  UNL     1      -3.501   2.697   0.855  1.00  0.00    -0.259 N 
ATOM     16  H6  UNL     1      -3.858   2.905  -0.077  1.00  0.00     0.195 HD
BRANCH  15  17
HETATM   17  O3  UNL     1      -4.405   2.571   1.870  1.00  0.00    -0.289 OA
ATOM     18  H3  UNL     1      -5.345   2.664   1.766  1.00  0.00     0.244 HD
ENDBRANCH  15  17
ENDBRANCH  12  13
ENDBRANCH  11  12
BRANCH  10  19
HETATM   19  N4  UNL     1      -2.173  -0.616  -1.064  1.00  0.00    -0.381 N 
HETATM   20  C8  UNL     1      -2.834  -0.384  -2.348  1.00  0.00     0.150 C 
BRANCH  19  21
HETATM   21  C9  UNL     1      -2.764  -1.514  -0.111  1.00  0.00     0.148 C 
BRANCH  21  22
HETATM   22  C10 UNL     1      -1.928  -1.630   1.124  1.00  0.00     0.183 C 
BRANCH  22  23
HETATM   23  O2  UNL     1      -2.537  -2.509   2.031  1.00  0.00    -0.399 OA
ATOM     24  H2  UNL     1      -2.006  -2.583   2.815  1.00  0.00     0.209 HD
ENDBRANCH  22  23
ENDBRANCH  21  22
ENDBRANCH  19  21
ENDBRANCH  10  19
BRANCH   1  25
HETATM   25  N1  UNL     1       3.520  -1.802  -1.021  1.00  0.00    -0.226 N 
ATOM     26  H1  UNL     1       3.207  -2.736  -1.287  1.00  0.00     0.177 HD
BRANCH  25  27
HETATM   27  C2  UNL     1       4.922  -1.582  -0.877  1.00  0.00     0.133 C 
HETATM   28  C1  UNL     1       5.372  -1.461   0.540  1.00  0.00     0.027 C 
ENDBRANCH  25  27
ENDBRANCH   1  25
TORSDOF 9
