REMARK  5 active torsions:
REMARK  status: ('A' for Active; 'I' for Inactive)
REMARK    1  A    between atoms: C1_2  and  C2_4 
REMARK    2  A    between atoms: C2_4  and  N2_5 
REMARK       I    between atoms: N4_9  and  C4_11 
REMARK       I    between atoms: C4_11  and  N5_13 
REMARK    3  A    between atoms: N5_13  and  C5_15 
REMARK    4  A    between atoms: C5_15  and  C6_16 
REMARK    5  A    between atoms: C6_16  and  N6_17 
ROOT
HETATM    1  N2  UNL     1       3.794  -1.129   0.329  1.00  0.00    -0.232 N 
HETATM    2  N3  UNL     1       2.701  -0.410   0.265  1.00  0.00    -0.274 N 
ATOM      3  H3  UNL     1       2.771   0.596   0.416  1.00  0.00     0.189 HD
HETATM    4  C3  UNL     1       1.465  -0.948   0.004  1.00  0.00     0.194 A 
HETATM    5  N4  UNL     1       0.527  -0.176  -0.021  1.00  0.00    -0.289 N 
ATOM      6  H4  UNL     1       0.942   0.736   0.172  1.00  0.00     0.172 HD
HETATM    7  C4  UNL     1      -0.780   0.077  -0.175  1.00  0.00     0.321 C 
HETATM    8  O2  UNL     1      -1.613  -0.749  -0.688  1.00  0.00    -0.247 OA
HETATM    9  N5  UNL     1      -1.306   1.339   0.253  1.00  0.00    -0.341 N 
ATOM     10  H5  UNL     1      -0.633   1.989   0.659  1.00  0.00     0.164 HD
HETATM   11  C8  UNL     1       1.449  -2.333  -0.193  1.00  0.00     0.295 A 
HETATM   12  O3  UNL     1       0.330  -2.834  -0.436  1.00  0.00    -0.264 OA
HETATM   13  N9  UNL     1       2.565  -3.072  -0.128  1.00  0.00    -0.271 N 
ATOM     14  H9  UNL     1       2.531  -4.081  -0.275  1.00  0.00     0.174 HD
HETATM   15  C9  UNL     1       3.732  -2.456   0.135  1.00  0.00     0.344 A 
HETATM   16  O4  UNL     1       4.801  -3.095   0.207  1.00  0.00    -0.245 OA
ENDROOT
BRANCH   1  17
HETATM   17  C2  UNL     1       5.072  -0.440   0.596  1.00  0.00     0.253 C 
BRANCH  17  18
HETATM   18  C1  UNL     1       5.681  -0.026  -0.686  1.00  0.00     0.251 C 
HETATM   19  N1  UNL     1       6.211   1.269  -0.920  1.00  0.00    -0.061 NA
HETATM   20  O1  UNL     1       5.736  -0.873  -1.641  1.00  0.00    -0.275 OA
ENDBRANCH  17  18
ENDBRANCH   1  17
BRANCH   9  21
HETATM   21  C5  UNL     1      -2.645   1.797   0.182  1.00  0.00     0.144 C 
BRANCH  21  22
HETATM   22  C6  UNL     1      -3.559   0.892   0.981  1.00  0.00     0.141 C 
BRANCH  22  23
HETATM   23  N6  UNL     1      -4.884   1.447   0.948  1.00  0.00    -0.365 N 
HETATM   24  C7  UNL     1      -5.800   0.996   0.211  1.00  0.00     0.197 C 
HETATM   25  N7  UNL     1      -5.592  -0.103  -0.647  1.00  0.00    -0.067 NA
HETATM   26  N8  UNL     1      -7.117   1.585   0.210  1.00  0.00    -0.067 NA
ATOM     27  H6  UNL     1      -5.092   2.244   1.550  1.00  0.00     0.161 HD
ENDBRANCH  22  23
ENDBRANCH  21  22
ENDBRANCH   9  21
TORSDOF 5
