REMARK  8 active torsions:
REMARK  status: ('A' for Active; 'I' for Inactive)
REMARK    1  A    between atoms: C3_3  and  N1_4 
REMARK    2  A    between atoms: N2_7  and  C6_8 
REMARK    3  A    between atoms: C6_8  and  N3_9 
REMARK       I    between atoms: N3_9  and  C7_11 
REMARK       I    between atoms: C7_11  and  N8_25 
REMARK    4  A    between atoms: N4_12  and  C8_14 
REMARK    5  A    between atoms: C9_19  and  N7_20 
REMARK    6  A    between atoms: N8_25  and  C10_27 
REMARK    7  A    between atoms: C10_27  and  C11_28 
REMARK    8  A    between atoms: C11_28  and  N9_29 
ROOT
HETATM    1  C1  UNL     1       7.696  -0.261  -0.460  1.00  0.00     0.014 C 
HETATM    2  C2  UNL     1       6.812  -0.615   0.286  1.00  0.00    -0.097 C 
HETATM    3  C3  UNL     1       5.733  -1.026   1.207  1.00  0.00     0.220 C 
ENDROOT
BRANCH   3   4
HETATM    4  N1  UNL     1       4.474  -0.533   0.683  1.00  0.00    -0.353 N 
HETATM    5  C4  UNL     1       3.787  -1.332  -0.160  1.00  0.00     0.108 A 
HETATM    6  C5  UNL     1       2.603  -0.897  -0.668  1.00  0.00     0.109 A 
HETATM    7  N2  UNL     1       2.074   0.322  -0.362  1.00  0.00    -0.347 N 
HETATM    8  C12 UNL     1       2.778   1.098   0.480  1.00  0.00     0.109 A 
HETATM    9  C13 UNL     1       3.989   0.686   1.017  1.00  0.00     0.108 A 
BRANCH   7  10
HETATM   10  C6  UNL     1       0.819   0.706  -0.938  1.00  0.00     0.269 C 
BRANCH  10  11
HETATM   11  N3  UNL     1      -0.313   0.316  -0.116  1.00  0.00    -0.210 N 
HETATM   12  C7  UNL     1      -1.600   0.629  -0.615  1.00  0.00     0.674 C 
HETATM   13  N4  UNL     1      -2.511  -0.268  -0.621  1.00  0.00    -0.181 N 
HETATM   14  N8  UNL     1      -1.922   1.920  -1.120  1.00  0.00    -0.225 N 
ATOM     15  H4  UNL     1      -3.434  -0.028  -0.984  1.00  0.00     0.182 HD
ATOM     16  H8  UNL     1      -1.207   2.413  -1.654  1.00  0.00     0.177 HD
ATOM     17  H3  UNL     1      -0.187  -0.160   0.777  1.00  0.00     0.179 HD
BRANCH  13  18
HETATM   18  C8  UNL     1      -2.286  -1.594  -0.139  1.00  0.00     0.363 C 
HETATM   19  N5  UNL     1      -2.445  -2.483  -1.279  1.00  0.00    -0.290 N 
HETATM   20  N6  UNL     1      -3.062  -3.518  -0.911  1.00  0.00    -0.285 N 
ATOM     21  H5  UNL     1      -2.111  -2.298  -2.225  1.00  0.00     0.184 HD
HETATM   22  C9  UNL     1      -3.367  -3.412   0.497  1.00  0.00     0.443 C 
ATOM     23  H6  UNL     1      -3.307  -4.305  -1.512  1.00  0.00     0.184 HD
HETATM   24  O1  UNL     1      -3.260  -2.040   0.758  1.00  0.00    -0.298 OA
BRANCH  22  25
HETATM   25  N7  UNL     1      -4.688  -3.889   0.813  1.00  0.00    -0.033 N 
ATOM     26  H73 UNL     1      -5.394  -3.416   0.248  1.00  0.00     0.279 HD
ATOM     27  H72 UNL     1      -4.823  -4.843   0.479  1.00  0.00     0.279 HD
ATOM     28  H71 UNL     1      -4.903  -3.814   1.807  1.00  0.00     0.279 HD
ENDBRANCH  22  25
ENDBRANCH  13  18
BRANCH  14  29
HETATM   29  C10 UNL     1      -3.184   2.576  -0.929  1.00  0.00     0.165 C 
BRANCH  29  30
HETATM   30  C11 UNL     1      -3.420   2.974   0.523  1.00  0.00     0.249 C 
BRANCH  30  31
HETATM   31  N9  UNL     1      -4.730   3.633   0.596  1.00  0.00    -0.078 N 
ATOM     32  H93 UNL     1      -4.816   4.418  -0.050  1.00  0.00     0.274 HD
ATOM     33  H92 UNL     1      -5.484   3.062   0.214  1.00  0.00     0.274 HD
ATOM     34  H91 UNL     1      -4.888   3.899   1.568  1.00  0.00     0.274 HD
ENDBRANCH  30  31
ENDBRANCH  29  30
ENDBRANCH  14  29
ENDBRANCH  10  11
ENDBRANCH   7  10
ENDBRANCH   3   4
TORSDOF 8
