REMARK  4 active torsions:
REMARK  status: ('A' for Active; 'I' for Inactive)
REMARK    1  A    between atoms: C4_8  and  C5_9 
REMARK    2  A    between atoms: C5_9  and  C6_10 
REMARK    3  A    between atoms: C6_10  and  C7_11 
REMARK    4  A    between atoms: C7_11  and  N3_12 
ROOT
HETATM    1  N1  UNL     1      -5.101   1.428  -3.263  1.00  0.00    -0.188 NA
HETATM    2  C1  UNL     1      -4.419   1.013  -2.418  1.00  0.00     0.138 C 
HETATM    3  C2  UNL     1      -3.593   0.480  -1.376  1.00  0.00     0.209 C 
HETATM    4  N2  UNL     1      -2.445  -0.005  -1.747  1.00  0.00    -0.301 N 
ATOM      5  H2  UNL     1      -2.342   0.091  -2.757  1.00  0.00     0.171 HD
HETATM    6  C3  UNL     1      -1.290  -0.624  -1.206  1.00  0.00     0.246 C 
HETATM    7  O1  UNL     1      -0.448  -0.981  -2.092  1.00  0.00    -0.271 OA
HETATM    8  C4  UNL     1      -0.878  -0.934   0.181  1.00  0.00     0.177 C 
HETATM    9  N6  UNL     1      -1.294   0.003   1.165  1.00  0.00    -0.346 N 
ATOM     10  H6  UNL     1      -0.489   0.383   1.663  1.00  0.00     0.163 HD
HETATM   11  C9  UNL     1      -2.486   0.561   1.655  1.00  0.00     0.252 C 
HETATM   12  O2  UNL     1      -2.311   0.919   2.877  1.00  0.00    -0.271 OA
HETATM   13  C10 UNL     1      -3.851   0.880   1.272  1.00  0.00     0.295 C 
HETATM   14  C11 UNL     1      -4.923  -0.094   1.566  1.00  0.00     0.270 C 
HETATM   15  O3  UNL     1      -5.279  -0.950   2.403  1.00  0.00    -0.269 OA
HETATM   16  N7  UNL     1      -5.519   0.356   0.352  1.00  0.00    -0.262 N 
ATOM     17  H7  UNL     1      -6.460   0.468  -0.024  1.00  0.00     0.190 HD
HETATM   18  N8  UNL     1      -4.189   0.574  -0.087  1.00  0.00    -0.241 N 
ENDROOT
BRANCH   8  19
HETATM   19  C5  UNL     1       0.617  -1.194   0.269  1.00  0.00     0.036 C 
BRANCH  19  20
HETATM   20  C6  UNL     1       1.469  -0.044  -0.142  1.00  0.00     0.022 C 
BRANCH  20  21
HETATM   21  C7  UNL     1       2.925  -0.508   0.021  1.00  0.00     0.122 C 
BRANCH  21  22
HETATM   22  N3  UNL     1       3.822   0.585  -0.370  1.00  0.00    -0.367 N 
HETATM   23  C8  UNL     1       5.090   0.427  -0.319  1.00  0.00     0.196 C 
HETATM   24  N4  UNL     1       5.629  -0.805   0.114  1.00  0.00    -0.067 NA
HETATM   25  N5  UNL     1       5.943   1.485  -0.698  1.00  0.00    -0.067 NA
ATOM     26  H3  UNL     1       3.433   1.474  -0.684  1.00  0.00     0.161 HD
ENDBRANCH  21  22
ENDBRANCH  20  21
ENDBRANCH  19  20
ENDBRANCH   8  19
TORSDOF 4
