REMARK  3 active torsions:
REMARK  status: ('A' for Active; 'I' for Inactive)
REMARK    1  A    between atoms: N1_1  and  N2_4 
REMARK       I    between atoms: N2_4  and  C1_6 
REMARK       I    between atoms: C1_6  and  N4_8 
REMARK    2  A    between atoms: N4_8  and  N5_10 
REMARK    3  A    between atoms: N5_10  and  C2_12 
ROOT
HETATM    1  N5  UNL     1       0.034   0.237   0.308  1.00  0.00    -0.128 N 
ATOM      2  H5  UNL     1      -0.493   1.085   0.517  1.00  0.00     0.205 HD
ENDROOT
BRANCH   1   3
HETATM    3  N4  UNL     1      -0.641  -0.952   0.142  1.00  0.00    -0.258 N 
HETATM    4  C1  UNL     1      -1.950  -0.908   0.147  1.00  0.00     0.222 C 
HETATM    5  N2  UNL     1      -2.663   0.299   0.313  1.00  0.00    -0.279 N 
HETATM    6  N3  UNL     1      -2.609  -2.143  -0.025  1.00  0.00    -0.061 NA
ATOM      7  H2  UNL     1      -2.971   0.596   1.239  1.00  0.00     0.189 HD
ATOM      8  H4  UNL     1      -0.141  -1.833   0.020  1.00  0.00     0.190 HD
BRANCH   5   9
HETATM    9  N1  UNL     1      -2.938   1.074  -0.804  1.00  0.00    -0.343 N 
ATOM     10  H12 UNL     1      -2.623   0.763  -1.723  1.00  0.00     0.176 HD
ATOM     11  H11 UNL     1      -3.453   1.946  -0.684  1.00  0.00     0.176 HD
ENDBRANCH   5   9
ENDBRANCH   1   3
BRANCH   1  12
HETATM   12  C2  UNL     1       1.329   0.303   0.204  1.00  0.00     0.715 A 
HETATM   13  N6  UNL     1       2.200  -0.684  -0.062  1.00  0.00    -0.127 N 
HETATM   14  N7  UNL     1       3.427  -0.206  -0.082  1.00  0.00    -0.237 N 
ATOM     15  H6  UNL     1       1.949  -1.659  -0.224  1.00  0.00     0.206 HD
HETATM   16  C3  UNL     1       3.379   1.117   0.174  1.00  0.00     0.353 A 
ATOM     17  H7  UNL     1       4.273  -0.747  -0.261  1.00  0.00     0.192 HD
HETATM   18  O1  UNL     1       4.377   1.894   0.232  1.00  0.00    -0.245 OA
HETATM   19  N8  UNL     1       2.070   1.417   0.349  1.00  0.00    -0.137 N 
ATOM     20  H8  UNL     1       1.702   2.345   0.559  1.00  0.00     0.189 HD
ENDBRANCH   1  12
TORSDOF 3
