REMARK  2 active torsions:
REMARK  status: ('A' for Active; 'I' for Inactive)
REMARK    1  A    between atoms: N3_8  and  N4_10 
REMARK    2  A    between atoms: N4_10  and  N5_12 
ROOT
HETATM    1  C1  UNL     1      -3.494  -0.240   0.326  1.00  0.00     0.065 C 
HETATM    2  C2  UNL     1      -2.186  -0.064   0.401  1.00  0.00     0.113 A 
HETATM    3  N1  UNL     1      -1.265  -0.975  -0.174  1.00  0.00    -0.284 N 
ATOM      4  H1  UNL     1      -1.623  -1.795  -0.664  1.00  0.00     0.188 HD
HETATM    5  N2  UNL     1       0.119  -0.786  -0.092  1.00  0.00    -0.278 N 
ATOM      6  H2  UNL     1       0.753  -1.463  -0.516  1.00  0.00     0.189 HD
HETATM    7  C3  UNL     1       0.634   0.338   0.576  1.00  0.00     0.205 A 
HETATM    8  N3  UNL     1       1.901   0.526   0.660  1.00  0.00    -0.264 N 
ATOM      9  H3  UNL     1       2.274   1.341   1.146  1.00  0.00     0.190 HD
HETATM   10  C4  UNL     1      -0.251   1.316   1.190  1.00  0.00     0.293 A 
HETATM   11  O1  UNL     1       0.192   2.328   1.794  1.00  0.00    -0.264 OA
HETATM   12  N7  UNL     1      -1.649   1.081   1.082  1.00  0.00    -0.306 N 
ATOM     13  H7  UNL     1      -2.294   1.750   1.503  1.00  0.00     0.170 HD
ENDROOT
BRANCH   8  14
HETATM   14  N4  UNL     1       2.757  -0.406   0.074  1.00  0.00    -0.227 N 
ATOM     15  H4  UNL     1       2.713  -1.390   0.338  1.00  0.00     0.210 HD
BRANCH  14  16
HETATM   16  N5  UNL     1       3.678   0.036  -0.884  1.00  0.00    -0.235 N 
HETATM   17  N6  UNL     1       4.177   1.201  -0.878  1.00  0.00    -0.330 N 
ATOM     18  H62 UNL     1       3.883   1.834  -0.134  1.00  0.00     0.178 HD
ATOM     19  H61 UNL     1       4.848   1.523  -1.576  1.00  0.00     0.178 HD
ATOM     20  H5  UNL     1       3.960  -0.610  -1.621  1.00  0.00     0.209 HD
ENDBRANCH  14  16
ENDBRANCH   8  14
TORSDOF 2
