REMARK  7 active torsions:
REMARK  status: ('A' for Active; 'I' for Inactive)
REMARK    1  A    between atoms: C1_2  and  C2_4 
REMARK    2  A    between atoms: C8_10  and  N2_11 
REMARK       I    between atoms: N2_11  and  C9_13 
REMARK    3  A    between atoms: C9_13  and  C10_15 
REMARK    4  A    between atoms: C10_15  and  N3_16 
REMARK    5  A    between atoms: C10_15  and  C11_20 
REMARK    6  A    between atoms: C11_20  and  C12_21 
REMARK    7  A    between atoms: C12_21  and  C13_22 
ROOT
HETATM    1  N2  UNL     1      -0.140   0.069  -0.416  1.00  0.00    -0.350 N 
ATOM      2  H2  UNL     1       0.346   0.308  -1.280  1.00  0.00     0.163 HD
HETATM    3  C9  UNL     1       0.511  -0.730   0.531  1.00  0.00     0.248 C 
HETATM    4  O2  UNL     1      -0.074  -1.034   1.600  1.00  0.00    -0.271 OA
ENDROOT
BRANCH   1   5
HETATM    5  C8  UNL     1      -1.492   0.569  -0.204  1.00  0.00     0.036 C 
HETATM    6  C7  UNL     1      -1.484   1.417   1.070  1.00  0.00     0.036 C 
HETATM    7  C6  UNL     1      -2.298   2.434   0.281  1.00  0.00    -0.008 C 
HETATM    8  C5  UNL     1      -3.721   2.454   0.559  1.00  0.00     0.029 C 
HETATM    9  C17 UNL     1      -1.743   1.833  -0.938  1.00  0.00     0.036 C 
HETATM   10  C4  UNL     1      -4.647   1.458   0.053  1.00  0.00     0.081 C 
HETATM   11  C3  UNL     1      -4.654   0.123   0.793  1.00  0.00     0.065 C 
HETATM   12  N4  UNL     1      -4.415   0.742  -1.095  1.00  0.00    -0.401 N 
HETATM   13  C2  UNL     1      -3.886  -0.330  -0.459  1.00  0.00     0.109 C 
HETATM   14  C18 UNL     1      -2.450  -0.509  -0.238  1.00  0.00     0.071 C 
ATOM     15  H4  UNL     1      -4.582   0.946  -2.080  1.00  0.00     0.154 HD
BRANCH  13  16
HETATM   16  C1  UNL     1      -4.504  -1.641  -0.889  1.00  0.00     0.259 C 
HETATM   17  N1  UNL     1      -4.037  -2.858  -0.296  1.00  0.00    -0.060 NA
HETATM   18  O1  UNL     1      -5.410  -1.622  -1.756  1.00  0.00    -0.274 OA
ENDBRANCH  13  16
ENDBRANCH   1   5
BRANCH   3  19
HETATM   19  C10 UNL     1       1.894  -1.250   0.328  1.00  0.00     0.276 C 
BRANCH  19  20
HETATM   20  N3  UNL     1       2.296  -2.033   1.480  1.00  0.00    -0.066 N 
ATOM     21  H33 UNL     1       2.207  -1.509   2.351  1.00  0.00     0.275 HD
ATOM     22  H32 UNL     1       1.632  -2.779   1.688  1.00  0.00     0.275 HD
ATOM     23  H31 UNL     1       3.242  -2.389   1.341  1.00  0.00     0.275 HD
ENDBRANCH  19  20
BRANCH  19  24
HETATM   24  C11 UNL     1       2.792  -0.081   0.099  1.00  0.00     0.063 C 
BRANCH  24  25
HETATM   25  C12 UNL     1       4.229  -0.397  -0.121  1.00  0.00     0.051 C 
HETATM   26  C14 UNL     1       5.043   0.902  -0.086  1.00  0.00     0.020 C 
HETATM   27  C15 UNL     1       5.953   0.363   0.971  1.00  0.00     0.002 C 
HETATM   28  C16 UNL     1       4.989  -0.788   1.148  1.00  0.00     0.020 C 
BRANCH  25  29
HETATM   29  C13 UNL     1       4.569  -1.247  -1.283  1.00  0.00     0.181 C 
HETATM   30  O3  UNL     1       3.730  -1.671  -2.106  1.00  0.00    -0.647 OA
HETATM   31  O4  UNL     1       5.896  -1.599  -1.480  1.00  0.00    -0.647 OA
ENDBRANCH  25  29
ENDBRANCH  24  25
ENDBRANCH  19  24
ENDBRANCH   3  19
TORSDOF 7
