REMARK  7 active torsions:
REMARK  status: ('A' for Active; 'I' for Inactive)
REMARK       I    between atoms: C1_4  and  N3_6 
REMARK    1  A    between atoms: C4_9  and  N4_10 
REMARK    2  A    between atoms: N4_10  and  C5_12 
REMARK    3  A    between atoms: C5_12  and  C6_13 
REMARK       I    between atoms: C6_13  and  N5_15 
REMARK    4  A    between atoms: N5_15  and  C7_17 
REMARK    5  A    between atoms: C7_17  and  C8_18 
REMARK    6  A    between atoms: C7_17  and  C16_26 
REMARK    7  A    between atoms: C9_19  and  C10_20 
ROOT
HETATM    1  C6  UNL     1       0.452   0.963   1.264  1.00  0.00     0.235 C 
HETATM    2  O1  UNL     1      -0.233   1.484   2.178  1.00  0.00    -0.272 OA
HETATM    3  N5  UNL     1      -0.078  -0.107   0.533  1.00  0.00    -0.344 N 
ATOM      4  H5  UNL     1       0.488  -0.511  -0.213  1.00  0.00     0.163 HD
ENDROOT
BRANCH   1   5
HETATM    5  C5  UNL     1       1.786   1.506   0.995  1.00  0.00     0.217 C 
BRANCH   5   6
HETATM    6  N4  UNL     1       2.556   0.825   0.010  1.00  0.00    -0.409 N 
ATOM      7  H4  UNL     1       2.715   1.218  -0.918  1.00  0.00     0.154 HD
BRANCH   6   8
HETATM    8  C4  UNL     1       3.097  -0.452   0.400  1.00  0.00     0.080 C 
HETATM    9  C3  UNL     1       4.116  -0.300   1.523  1.00  0.00     0.044 C 
HETATM   10  C2  UNL     1       5.502  -0.580   0.946  1.00  0.00     0.127 C 
HETATM   11  N3  UNL     1       5.717   0.070  -0.323  1.00  0.00    -0.356 N 
HETATM   12  C1  UNL     1       6.867   0.856  -0.517  1.00  0.00     0.183 C 
HETATM   13  C18 UNL     1       4.736  -0.105  -1.371  1.00  0.00     0.127 C 
HETATM   14  N1  UNL     1       6.804   2.123  -0.336  1.00  0.00    -0.374 N 
HETATM   15  N2  UNL     1       8.090   0.276  -0.909  1.00  0.00    -0.064 NA
ATOM     16  H12 UNL     1       7.638   2.693  -0.477  1.00  0.00     0.158 HD
ATOM     17  H11 UNL     1       5.919   2.543  -0.052  1.00  0.00     0.158 HD
HETATM   18  C17 UNL     1       3.711  -1.088  -0.832  1.00  0.00     0.044 C 
ENDBRANCH   6   8
ENDBRANCH   5   6
ENDBRANCH   1   5
BRANCH   3  19
HETATM   19  C7  UNL     1      -1.396  -0.672   0.784  1.00  0.00     0.196 C 
BRANCH  19  20
HETATM   20  C8  UNL     1      -2.317  -0.450  -0.348  1.00  0.00     0.003 C 
HETATM   21  C9  UNL     1      -3.575  -0.080  -0.150  1.00  0.00    -0.024 C 
BRANCH  21  22
HETATM   22  C10 UNL     1      -4.547   0.158  -1.244  1.00  0.00     0.008 C 
HETATM   23  C11 UNL     1      -5.777  -0.720  -1.150  1.00  0.00     0.008 C 
HETATM   24  C12 UNL     1      -6.436  -0.548   0.178  1.00  0.00     0.001 C 
HETATM   25  C13 UNL     1      -6.453   0.805   0.741  1.00  0.00     0.000 C 
HETATM   26  C14 UNL     1      -5.668   1.862   0.095  1.00  0.00     0.001 C 
HETATM   27  C15 UNL     1      -5.075   1.568  -1.242  1.00  0.00     0.008 C 
ENDBRANCH  21  22
ENDBRANCH  19  20
BRANCH  19  28
HETATM   28  C16 UNL     1      -1.341  -2.097   1.108  1.00  0.00     0.257 C 
HETATM   29  N6  UNL     1      -2.497  -2.868   1.387  1.00  0.00    -0.060 NA
HETATM   30  O2  UNL     1      -0.204  -2.665   1.139  1.00  0.00    -0.274 OA
ENDBRANCH  19  28
ENDBRANCH   3  19
TORSDOF 7
