REMARK  7 active torsions:
REMARK  status: ('A' for Active; 'I' for Inactive)
REMARK    1  A    between atoms: C3_4  and  O2_5 
REMARK    2  A    between atoms: C4_7  and  N1_8 
REMARK    3  A    between atoms: N1_8  and  C5_10 
REMARK    4  A    between atoms: C5_10  and  N2_12 
REMARK    5  A    between atoms: N2_12  and  C6_14 
REMARK    6  A    between atoms: C10_18  and  O3_19 
REMARK    7  A    between atoms: C11_21  and  O4_22 
ROOT
HETATM    1  C1  UNL     1       4.894   0.774  -0.115  1.00  0.00     0.042 C 
HETATM    2  C2  UNL     1       3.385   0.731  -0.329  1.00  0.00     0.152 C 
HETATM    3  O1  UNL     1       3.027  -0.275  -1.223  1.00  0.00    -0.352 OA
HETATM    4  C3  UNL     1       1.745  -0.761  -0.981  1.00  0.00     0.282 C 
HETATM    5  C4  UNL     1       0.855   0.285  -0.407  1.00  0.00     0.170 C 
HETATM    6  C10 UNL     1       1.256   0.648   1.013  1.00  0.00     0.176 C 
HETATM    7  C11 UNL     1       2.767   0.556   1.042  1.00  0.00     0.177 C 
ENDROOT
BRANCH   5   8
HETATM    8  N1  UNL     1      -0.527  -0.023  -0.471  1.00  0.00    -0.355 N 
ATOM      9  H1  UNL     1      -1.007  -0.222   0.407  1.00  0.00     0.162 HD
BRANCH   8  10
HETATM   10  C5  UNL     1      -1.292  -0.076  -1.661  1.00  0.00     0.168 C 
HETATM   11  S1  UNL     1      -0.570   0.273  -3.082  1.00  0.00    -0.041 SA
BRANCH  10  12
HETATM   12  N2  UNL     1      -2.677  -0.402  -1.660  1.00  0.00    -0.363 N 
ATOM     13  H2  UNL     1      -3.216  -0.437  -2.526  1.00  0.00     0.162 HD
BRANCH  12  14
HETATM   14  C6  UNL     1      -3.287  -0.681  -0.384  1.00  0.00     0.083 C 
HETATM   15  C7  UNL     1      -4.751  -1.045  -0.429  1.00  0.00     0.025 C 
HETATM   16  C8  UNL     1      -4.893  -0.281   0.874  1.00  0.00     0.004 C 
HETATM   17  C9  UNL     1      -3.697   0.558   0.400  1.00  0.00     0.025 C 
ENDBRANCH  12  14
ENDBRANCH  10  12
ENDBRANCH   8  10
ENDBRANCH   5   8
BRANCH   4  18
HETATM   18  O2  UNL     1       1.825  -1.884  -0.138  1.00  0.00    -0.369 OA
ATOM     19  H2  UNL     1       0.950  -2.216   0.027  1.00  0.00     0.212 HD
ENDBRANCH   4  18
BRANCH   6  20
HETATM   20  O3  UNL     1       0.763  -0.278   1.930  1.00  0.00    -0.391 OA
ATOM     21  H3  UNL     1       1.014  -0.051   2.818  1.00  0.00     0.210 HD
ENDBRANCH   6  20
BRANCH   7  22
HETATM   22  O4  UNL     1       3.321   1.545   1.858  1.00  0.00    -0.390 OA
ATOM     23  H4  UNL     1       2.933   1.435   2.718  1.00  0.00     0.210 HD
ENDBRANCH   7  22
TORSDOF 7
