REMARK  5 active torsions:
REMARK  status: ('A' for Active; 'I' for Inactive)
REMARK       I    between atoms: C1_4  and  N3_6 
REMARK    1  A    between atoms: N3_6  and  C2_8 
REMARK    2  A    between atoms: C2_8  and  C3_9 
REMARK    3  A    between atoms: C2_8  and  C9_15 
REMARK    4  A    between atoms: C11_18  and  N4_19 
REMARK    5  A    between atoms: C12_23  and  O2_24 
ROOT
HETATM    1  C2  UNL     1      -0.572   1.036   0.532  1.00  0.00     0.143 C 
ENDROOT
BRANCH   1   2
HETATM    2  N3  UNL     1      -0.755   2.159  -0.361  1.00  0.00    -0.355 N 
HETATM    3  C1  UNL     1      -0.818   2.177  -1.748  1.00  0.00     0.182 C 
HETATM    4  N1  UNL     1      -1.940   2.394  -2.336  1.00  0.00    -0.374 N 
HETATM    5  N2  UNL     1       0.331   1.974  -2.529  1.00  0.00    -0.064 NA
ATOM      6  H12 UNL     1      -1.986   2.407  -3.355  1.00  0.00     0.158 HD
ATOM      7  H11 UNL     1      -2.775   2.541  -1.769  1.00  0.00     0.158 HD
ATOM      8  H3  UNL     1      -0.852   3.067   0.093  1.00  0.00     0.162 HD
ENDBRANCH   1   2
BRANCH   1   9
HETATM    9  C3  UNL     1      -1.626   0.010   0.435  1.00  0.00     0.013 C 
HETATM   10  C4  UNL     1      -1.818  -0.686  -0.864  1.00  0.00     0.007 C 
HETATM   11  C5  UNL     1      -2.117  -2.186  -0.643  1.00  0.00     0.000 C 
HETATM   12  C6  UNL     1      -3.284  -2.256   0.322  1.00  0.00     0.000 C 
HETATM   13  C7  UNL     1      -2.910  -1.719   1.688  1.00  0.00     0.000 C 
HETATM   14  C8  UNL     1      -1.598  -0.939   1.609  1.00  0.00     0.007 C 
ENDBRANCH   1   9
BRANCH   1  15
HETATM   15  C9  UNL     1       0.844   0.585   0.364  1.00  0.00     0.285 C 
HETATM   16  O1  UNL     1       1.144  -0.464   1.191  1.00  0.00    -0.357 OA
HETATM   17  C10 UNL     1       2.406  -0.975   1.031  1.00  0.00     0.209 C 
HETATM   18  C11 UNL     1       3.452   0.026   0.696  1.00  0.00     0.261 C 
HETATM   19  C12 UNL     1       2.992   1.431   0.576  1.00  0.00     0.292 C 
HETATM   20  O3  UNL     1       1.664   1.659   0.778  1.00  0.00    -0.327 OA
BRANCH  18  21
HETATM   21  N4  UNL     1       4.077  -0.390  -0.568  1.00  0.00    -0.068 N 
ATOM     22  H43 UNL     1       4.436  -1.344  -0.538  1.00  0.00     0.275 HD
ATOM     23  H42 UNL     1       3.401  -0.524  -1.320  1.00  0.00     0.275 HD
ATOM     24  H41 UNL     1       4.795   0.297  -0.798  1.00  0.00     0.275 HD
ENDBRANCH  18  21
BRANCH  19  25
HETATM   25  O2  UNL     1       3.344   2.014  -0.653  1.00  0.00    -0.369 OA
ATOM     26  H2  UNL     1       3.049   2.914  -0.730  1.00  0.00     0.212 HD
ENDBRANCH  19  25
ENDBRANCH   1  15
TORSDOF 5
