REMARK  8 active torsions:
REMARK  status: ('A' for Active; 'I' for Inactive)
REMARK    1  A    between atoms: C3_3  and  O1_4 
REMARK    2  A    between atoms: C4_6  and  O2_7 
REMARK    3  A    between atoms: C6_10  and  O3_11 
REMARK    4  A    between atoms: C7_13  and  O4_14 
REMARK    5  A    between atoms: C7_13  and  C8_16 
REMARK    6  A    between atoms: C9_17  and  C10_18 
REMARK    7  A    between atoms: C11_19  and  C12_20 
REMARK    8  A    between atoms: C15_23  and  O5_24 
ROOT
HETATM    1  C1  UNL     1      -3.200   3.243  -0.978  1.00  0.00     0.015 C 
HETATM    2  C2  UNL     1      -3.168   2.222  -0.340  1.00  0.00    -0.073 C 
HETATM    3  C3  UNL     1      -3.149   0.970   0.463  1.00  0.00     0.175 C 
HETATM    4  C4  UNL     1      -2.668   1.295   1.844  1.00  0.00     0.170 C 
HETATM    5  C5  UNL     1      -1.457   0.460   2.165  1.00  0.00     0.071 C 
HETATM    6  C6  UNL     1      -0.428   0.679   1.077  1.00  0.00     0.161 C 
HETATM    7  C7  UNL     1      -0.891   0.053  -0.203  1.00  0.00     0.131 C 
HETATM    8  C15 UNL     1      -2.403  -0.111  -0.221  1.00  0.00     0.208 C 
ENDROOT
BRANCH   3   9
HETATM    9  O1  UNL     1      -4.508   0.584   0.587  1.00  0.00    -0.372 OA
ATOM     10  H1  UNL     1      -4.496  -0.216   1.100  1.00  0.00     0.212 HD
ENDBRANCH   3   9
BRANCH   4  11
HETATM   11  O2  UNL     1      -3.643   0.958   2.819  1.00  0.00    -0.391 OA
ATOM     12  H2  UNL     1      -3.338   1.164   3.695  1.00  0.00     0.210 HD
ENDBRANCH   4  11
BRANCH   8  13
HETATM   13  O5  UNL     1      -2.819  -1.362   0.210  1.00  0.00    -0.388 OA
ATOM     14  H5  UNL     1      -2.340  -2.055  -0.229  1.00  0.00     0.210 HD
ENDBRANCH   8  13
BRANCH   7  15
HETATM   15  O4  UNL     1      -0.590   0.808  -1.341  1.00  0.00    -0.380 OA
ATOM     16  H4  UNL     1      -0.884   0.411  -2.153  1.00  0.00     0.211 HD
ENDBRANCH   7  15
BRANCH   7  17
HETATM   17  C8  UNL     1      -0.329  -1.298  -0.320  1.00  0.00     0.016 C 
HETATM   18  C9  UNL     1       0.942  -1.522  -0.542  1.00  0.00    -0.001 C 
BRANCH  18  19
HETATM   19  C10 UNL     1       1.916  -0.466  -0.693  1.00  0.00    -0.000 C 
HETATM   20  C11 UNL     1       3.180  -0.702  -0.915  1.00  0.00    -0.000 C 
BRANCH  20  21
HETATM   21  C12 UNL     1       3.728  -2.015  -1.032  1.00  0.00    -0.004 C 
HETATM   22  C13 UNL     1       5.021  -2.185  -1.259  1.00  0.00    -0.031 C 
HETATM   23  C14 UNL     1       5.925  -1.011  -1.396  1.00  0.00     0.036 C 
ENDBRANCH  20  21
ENDBRANCH  18  19
ENDBRANCH   7  17
BRANCH   6  24
HETATM   24  O3  UNL     1      -0.254   2.078   0.970  1.00  0.00    -0.392 OA
ATOM     25  H3  UNL     1       0.392   2.215   0.287  1.00  0.00     0.210 HD
ENDBRANCH   6  24
TORSDOF 8
