REMARK  6 active torsions:
REMARK  status: ('A' for Active; 'I' for Inactive)
REMARK    1  A    between atoms: C1_2  and  C2_4 
REMARK    2  A    between atoms: C3_5  and  O3_6 
REMARK    3  A    between atoms: C4_8  and  O4_9 
REMARK    4  A    between atoms: C5_11  and  C6_12 
REMARK    5  A    between atoms: C6_12  and  O5_13 
REMARK    6  A    between atoms: N1_16  and  C8_17 
ROOT
HETATM    1  C2  UNL     1       0.791  -1.330  -0.264  1.00  0.00     0.354 C 
HETATM    2  C3  UNL     1       2.293  -1.248  -0.063  1.00  0.00     0.191 C 
HETATM    3  C4  UNL     1       2.861   0.077  -0.392  1.00  0.00     0.157 C 
HETATM    4  C5  UNL     1       2.161   0.993   0.631  1.00  0.00     0.069 C 
HETATM    5  C7  UNL     1       0.670   0.941   0.367  1.00  0.00     0.283 C 
HETATM    6  N1  UNL     1       0.053  -0.355   0.475  1.00  0.00     0.111 N 
ENDROOT
BRANCH   6   7
HETATM    7  C8  UNL     1      -1.297  -0.173  -0.073  1.00  0.00     0.224 C 
HETATM    8  C9  UNL     1      -1.731   1.260   0.133  1.00  0.00     0.036 C 
HETATM    9  C10 UNL     1      -3.141   1.559  -0.311  1.00  0.00     0.002 C 
HETATM   10  C11 UNL     1      -3.847   0.337  -0.864  1.00  0.00     0.000 C 
HETATM   11  C12 UNL     1      -3.749  -0.632   0.313  1.00  0.00     0.002 C 
HETATM   12  C13 UNL     1      -2.318  -1.079   0.519  1.00  0.00     0.036 C 
ENDBRANCH   6   7
BRANCH   1  13
HETATM   13  C1  UNL     1       0.563  -2.749   0.201  1.00  0.00     0.210 C 
HETATM   14  O1  UNL     1       0.046  -2.941   1.306  1.00  0.00    -0.646 OA
HETATM   15  O2  UNL     1       0.922  -3.823  -0.585  1.00  0.00    -0.646 OA
ENDBRANCH   1  13
BRANCH   2  16
HETATM   16  O3  UNL     1       2.913  -2.328  -0.649  1.00  0.00    -0.390 OA
ATOM     17  H3  UNL     1       3.853  -2.277  -0.523  1.00  0.00     0.210 HD
ENDBRANCH   2  16
BRANCH   4  18
HETATM   18  C6  UNL     1       2.607   2.406   0.326  1.00  0.00     0.173 C 
BRANCH  18  19
HETATM   19  O5  UNL     1       2.016   3.313   1.214  1.00  0.00    -0.400 OA
ATOM     20  H5  UNL     1       2.296   4.200   1.022  1.00  0.00     0.209 HD
ENDBRANCH  18  19
ENDBRANCH   4  18
BRANCH   3  21
HETATM   21  O4  UNL     1       4.208   0.136  -0.131  1.00  0.00    -0.392 OA
ATOM     22  H4  UNL     1       4.573   0.987  -0.342  1.00  0.00     0.210 HD
ENDBRANCH   3  21
TORSDOF 6
