REMARK  6 active torsions:
REMARK  status: ('A' for Active; 'I' for Inactive)
REMARK    1  A    between atoms: O1_1  and  N1_3 
REMARK       I    between atoms: C1_5  and  N2_6 
REMARK       I    between atoms: C1_5  and  N3_18 
REMARK    2  A    between atoms: N2_6  and  C2_8 
REMARK    3  A    between atoms: C2_8  and  C3_9 
REMARK    4  A    between atoms: C5_12  and  O3_13 
REMARK    5  A    between atoms: C6_15  and  O4_16 
REMARK    6  A    between atoms: N3_18  and  C7_20 
ROOT
HETATM    1  N1  UNL     1       0.492  -1.993   1.775  1.00  0.00    -0.099 N 
ATOM      2  H1  UNL     1       1.364  -1.927   2.300  1.00  0.00     0.213 HD
HETATM    3  C1  UNL     1       0.165  -0.997   1.058  1.00  0.00     0.694 C 
HETATM    4  N2  UNL     1      -1.031  -1.027   0.305  1.00  0.00    -0.222 N 
ATOM      5  H2  UNL     1      -1.525  -1.915   0.220  1.00  0.00     0.177 HD
HETATM    6  N3  UNL     1       1.000   0.151   1.009  1.00  0.00    -0.220 N 
ATOM      7  H3  UNL     1       0.867   0.907   1.681  1.00  0.00     0.178 HD
ENDROOT
BRANCH   1   8
HETATM    8  O1  UNL     1      -0.225  -3.138   1.899  1.00  0.00    -0.276 OA
ATOM      9  H1  UNL     1       0.020  -3.883   2.435  1.00  0.00     0.245 HD
ENDBRANCH   1   8
BRANCH   4  10
HETATM   10  C2  UNL     1      -1.589   0.129  -0.348  1.00  0.00     0.172 C 
BRANCH  10  11
HETATM   11  C3  UNL     1      -2.861  -0.197  -1.072  1.00  0.00     0.171 C 
HETATM   12  O2  UNL     1      -3.423   0.882  -1.708  1.00  0.00    -0.379 OA
HETATM   13  C4  UNL     1      -4.012   1.671  -0.727  1.00  0.00     0.202 C 
HETATM   14  C5  UNL     1      -4.458   0.735   0.372  1.00  0.00     0.173 C 
HETATM   15  C6  UNL     1      -3.962  -0.621  -0.117  1.00  0.00     0.179 C 
BRANCH  14  16
HETATM   16  O3  UNL     1      -3.889   1.069   1.593  1.00  0.00    -0.391 OA
ATOM     17  H3  UNL     1      -4.169   0.480   2.284  1.00  0.00     0.210 HD
ENDBRANCH  14  16
BRANCH  15  18
HETATM   18  O4  UNL     1      -4.965  -1.302  -0.804  1.00  0.00    -0.390 OA
ATOM     19  H4  UNL     1      -5.654  -1.567  -0.206  1.00  0.00     0.210 HD
ENDBRANCH  15  18
ENDBRANCH  10  11
ENDBRANCH   4  10
BRANCH   6  20
HETATM   20  C7  UNL     1       2.055   0.252  -0.008  1.00  0.00     0.099 C 
HETATM   21  C8  UNL     1       2.822   1.515   0.094  1.00  0.00     0.026 C 
HETATM   22  C9  UNL     1       4.291   1.342   0.342  1.00  0.00     0.002 C 
HETATM   23  C10 UNL     1       4.935   0.282  -0.474  1.00  0.00     0.000 C 
HETATM   24  C11 UNL     1       4.043  -0.824  -0.906  1.00  0.00     0.002 C 
HETATM   25  C12 UNL     1       2.906  -0.989   0.075  1.00  0.00     0.026 C 
ENDBRANCH   6  20
TORSDOF 6
