REMARK  7 active torsions:
REMARK  status: ('A' for Active; 'I' for Inactive)
REMARK    1  A    between atoms: C2_2  and  C3_3 
REMARK    2  A    between atoms: C3_3  and  N1_5 
REMARK    3  A    between atoms: N1_5  and  C5_7 
REMARK    4  A    between atoms: C5_7  and  C6_8 
REMARK    5  A    between atoms: C5_7  and  C12_17 
REMARK    6  A    between atoms: C13_18  and  O1_19 
REMARK    7  A    between atoms: C17_25  and  O2_26 
ROOT
HETATM    1  C5  UNL     1      -0.163  -0.093  -0.126  1.00  0.00     0.151 C 
ENDROOT
BRANCH   1   2
HETATM    2  N1  UNL     1      -1.055  -0.435   0.951  1.00  0.00    -0.405 N 
ATOM      3  H1  UNL     1      -0.734  -1.009   1.731  1.00  0.00     0.154 HD
BRANCH   2   4
HETATM    4  C3  UNL     1      -2.385   0.042   0.905  1.00  0.00     0.073 C 
HETATM    5  C4  UNL     1      -3.082  -0.456   2.165  1.00  0.00     0.031 C 
BRANCH   4   6
HETATM    6  C2  UNL     1      -3.105  -0.581  -0.264  1.00  0.00     0.020 C 
HETATM    7  C1  UNL     1      -4.573  -0.177  -0.288  1.00  0.00     0.007 C 
ENDBRANCH   4   6
ENDBRANCH   2   4
ENDBRANCH   1   2
BRANCH   1   8
HETATM    8  C6  UNL     1      -0.123   1.341  -0.472  1.00  0.00    -0.011 A 
HETATM    9  C7  UNL     1      -0.488   1.755  -1.738  1.00  0.00     0.014 A 
HETATM   10  C8  UNL     1      -0.492   3.055  -2.146  1.00  0.00     0.046 A 
HETATM   11  C9  UNL     1      -0.102   4.003  -1.214  1.00  0.00     0.156 A 
HETATM   12  F1  UNL     1      -0.096   5.317  -1.597  1.00  0.00    -0.203 F 
HETATM   13  C10 UNL     1       0.268   3.614   0.057  1.00  0.00     0.172 A 
HETATM   14  F2  UNL     1       0.651   4.531   0.977  1.00  0.00    -0.201 F 
HETATM   15  C11 UNL     1       0.261   2.276   0.443  1.00  0.00     0.061 A 
HETATM   16 BR1  UNL     1       0.793   1.850   2.246  1.00  0.00    -0.047 Br
ENDBRANCH   1   8
BRANCH   1  17
HETATM   17  C12 UNL     1       1.122  -0.734   0.169  1.00  0.00     0.040 A 
HETATM   18  C13 UNL     1       1.396  -1.497   1.277  1.00  0.00     0.101 A 
HETATM   19  C14 UNL     1       2.654  -2.087   1.509  1.00  0.00     0.104 A 
HETATM   20 CL1  UNL     1       2.965  -3.052   2.934  1.00  0.00    -0.078 Cl
HETATM   21  C15 UNL     1       3.645  -1.901   0.608  1.00  0.00     0.132 A 
HETATM   22  C16 UNL     1       3.413  -1.145  -0.514  1.00  0.00     0.140 A 
HETATM   23  O4  UNL     1       4.972  -2.364   0.588  1.00  0.00    -0.321 OA
HETATM   24  C17 UNL     1       2.173  -0.585  -0.708  1.00  0.00     0.113 A 
HETATM   25  O3  UNL     1       4.587  -1.131  -1.240  1.00  0.00    -0.320 OA
HETATM   26  C18 UNL     1       5.419  -2.163  -0.746  1.00  0.00     0.352 C 
BRANCH  18  27
HETATM   27  O1  UNL     1       0.461  -1.752   2.256  1.00  0.00    -0.358 OA
ATOM     28  H1  UNL     1       0.651  -2.280   3.023  1.00  0.00     0.217 HD
ENDBRANCH  18  27
BRANCH  24  29
HETATM   29  O2  UNL     1       2.024   0.169  -1.880  1.00  0.00    -0.357 OA
ATOM     30  H2  UNL     1       2.749   0.272  -2.485  1.00  0.00     0.217 HD
ENDBRANCH  24  29
ENDBRANCH   1  17
TORSDOF 7
