REMARK  10 active torsions:
REMARK  status: ('A' for Active; 'I' for Inactive)
REMARK    1  A    between atoms: C2_2  and  C4_4 
REMARK    2  A    between atoms: C4_4  and  C5_5 
REMARK    3  A    between atoms: C5_5  and  C6_6 
REMARK    4  A    between atoms: C6_6  and  C7_7 
REMARK    5  A    between atoms: C7_7  and  C9_9 
REMARK    6  A    between atoms: C18_18  and  O1_19 
REMARK    7  A    between atoms: C21_23  and  O2_24 
REMARK    8  A    between atoms: C21_23  and  C22_26 
REMARK    9  A    between atoms: C24_28  and  O3_29 
REMARK   10  A    between atoms: C25_32  and  O5_33 
ROOT
HETATM    1  C9  UNL     1      -0.544  -0.322  -0.038  1.00  0.00     0.034 C 
HETATM    2  C10 UNL     1       0.712  -1.013  -0.533  1.00  0.00     0.007 C 
HETATM    3  C11 UNL     1       1.229  -1.879   0.528  1.00  0.00     0.006 C 
HETATM    4  C12 UNL     1       2.553  -1.516   1.125  1.00  0.00     0.010 C 
HETATM    5  C13 UNL     1       3.297  -0.650   0.122  1.00  0.00     0.050 C 
HETATM    6  C14 UNL     1       4.712  -0.431   0.470  1.00  0.00     0.062 C 
HETATM    7  C15 UNL     1       5.005   0.810   1.266  1.00  0.00     0.032 C 
HETATM    8  C16 UNL     1       4.499   1.986   0.518  1.00  0.00     0.005 C 
HETATM    9  C17 UNL     1       3.418   1.674  -0.481  1.00  0.00     0.039 C 
HETATM   10  C18 UNL     1       2.446   0.641   0.061  1.00  0.00     0.074 C 
HETATM   11  C19 UNL     1       1.308   0.325  -0.809  1.00  0.00     0.028 C 
HETATM   12  C20 UNL     1       1.770   0.496  -2.284  1.00  0.00     0.022 C 
HETATM   13  C21 UNL     1      -0.026   0.932  -0.703  1.00  0.00     0.104 C 
HETATM   14  S1  UNL     1       5.361  -1.909   1.352  1.00  0.00    -0.147 SA
HETATM   15  C26 UNL     1       6.215  -2.785  -0.008  1.00  0.00     0.086 C 
HETATM   16  C27 UNL     1       7.027  -1.697  -0.670  1.00  0.00     0.086 C 
HETATM   17  S2  UNL     1       5.803  -0.422  -0.981  1.00  0.00    -0.147 SA
ENDROOT
BRANCH  13  18
HETATM   18  O2  UNL     1      -0.727   0.982  -1.943  1.00  0.00    -0.383 OA
ATOM     19  H2  UNL     1      -0.401   1.770  -2.361  1.00  0.00     0.211 HD
ENDBRANCH  13  18
BRANCH  13  20
HETATM   20  C22 UNL     1      -0.274   2.166   0.058  1.00  0.00     0.040 A 
HETATM   21  C23 UNL     1      -0.802   2.299   1.324  1.00  0.00     0.079 A 
HETATM   22  C24 UNL     1      -0.831   3.623   1.621  1.00  0.00     0.186 A 
HETATM   23  O4  UNL     1      -0.354   4.250   0.606  1.00  0.00    -0.264 OA
HETATM   24  C25 UNL     1      -0.004   3.447  -0.360  1.00  0.00     0.195 A 
BRANCH  22  25
HETATM   25  O3  UNL     1      -1.299   4.183   2.819  1.00  0.00    -0.341 OA
ATOM     26  H3  UNL     1      -1.319   5.110   3.027  1.00  0.00     0.220 HD
ENDBRANCH  22  25
BRANCH  24  27
HETATM   27  O5  UNL     1       0.533   3.920  -1.549  1.00  0.00    -0.340 OA
ATOM     28  H5  UNL     1       0.720   4.806  -1.838  1.00  0.00     0.220 HD
ENDBRANCH  24  27
ENDBRANCH  13  20
BRANCH   1  29
HETATM   29  C7  UNL     1      -1.834  -0.902  -0.402  1.00  0.00    -0.011 C 
HETATM   30  C8  UNL     1      -2.064  -1.208  -1.855  1.00  0.00     0.010 C 
BRANCH  29  31
HETATM   31  C6  UNL     1      -3.050  -0.180   0.112  1.00  0.00     0.005 C 
BRANCH  31  32
HETATM   32  C5  UNL     1      -4.297  -1.036  -0.040  1.00  0.00     0.001 C 
BRANCH  32  33
HETATM   33  C4  UNL     1      -5.519  -0.309   0.482  1.00  0.00     0.004 C 
BRANCH  33  34
HETATM   34  C2  UNL     1      -6.766  -1.117   0.351  1.00  0.00    -0.023 C 
HETATM   35  C1  UNL     1      -7.959  -0.365   0.878  1.00  0.00     0.009 C 
HETATM   36  C3  UNL     1      -6.706  -2.443   1.035  1.00  0.00     0.009 C 
ENDBRANCH  33  34
ENDBRANCH  32  33
ENDBRANCH  31  32
ENDBRANCH  29  31
ENDBRANCH   1  29
BRANCH  10  37
HETATM   37  O1  UNL     1       2.149   0.944   1.369  1.00  0.00    -0.388 OA
ATOM     38  H1  UNL     1       1.627   1.737   1.332  1.00  0.00     0.210 HD
ENDBRANCH  10  37
TORSDOF 10
