REMARK  10 active torsions:
REMARK  status: ('A' for Active; 'I' for Inactive)
REMARK    1  A    between atoms: C2_2  and  C3_3 
REMARK    2  A    between atoms: C2_2  and  C27_37 
REMARK    3  A    between atoms: C3_3  and  C4_4 
REMARK    4  A    between atoms: C4_4  and  C5_5 
REMARK    5  A    between atoms: C11_11  and  O1_12 
REMARK    6  A    between atoms: O1_12  and  C12_13 
REMARK    7  A    between atoms: C16_18  and  C17_19 
REMARK    8  A    between atoms: C18_21  and  O4_22 
REMARK    9  A    between atoms: C20_25  and  O5_26 
REMARK   10  A    between atoms: C26_34  and  O7_35 
ROOT
HETATM    1  C5  UNL     1       1.668  -0.142   0.517  1.00  0.00     0.014 C 
HETATM    2  C6  UNL     1       0.887   0.734  -0.412  1.00  0.00     0.009 C 
HETATM    3  C7  UNL     1      -0.166   1.395   0.483  1.00  0.00     0.011 C 
HETATM    4  C8  UNL     1      -1.467   1.527  -0.183  1.00  0.00    -0.029 C 
HETATM    5  C9  UNL     1      -1.429   2.753  -1.031  1.00  0.00     0.016 C 
HETATM    6  C10 UNL     1      -2.534   1.590   0.927  1.00  0.00     0.056 C 
HETATM    7  C11 UNL     1      -3.741   1.791   0.093  1.00  0.00     0.139 C 
HETATM    8  C14 UNL     1      -3.441   0.839  -1.080  1.00  0.00     0.042 C 
HETATM    9  C15 UNL     1      -2.054   0.298  -0.848  1.00  0.00     0.041 C 
HETATM   10  C16 UNL     1      -2.049  -0.734   0.234  1.00  0.00     0.149 C 
HETATM   11  O6  UNL     1      -0.892  -1.408   0.505  1.00  0.00    -0.334 OA
HETATM   12  C21 UNL     1       0.138  -2.153   0.198  1.00  0.00     0.050 C 
HETATM   13  C22 UNL     1       0.266  -3.447  -0.147  1.00  0.00    -0.058 C 
HETATM   14  C23 UNL     1       1.632  -4.010  -0.446  1.00  0.00     0.045 C 
HETATM   15  C24 UNL     1      -0.819  -4.409  -0.235  1.00  0.00     0.045 C 
HETATM   16  C25 UNL     1       1.530  -1.542   0.203  1.00  0.00     0.073 C 
HETATM   17  C26 UNL     1      -2.511   0.151   1.416  1.00  0.00     0.167 C 
ENDROOT
BRANCH  10  18
HETATM   18  C17 UNL     1      -3.158  -1.748   0.104  1.00  0.00     0.127 A 
HETATM   19  O3  UNL     1      -3.892  -1.996  -0.917  1.00  0.00    -0.286 OA
HETATM   20  C18 UNL     1      -4.753  -2.939  -0.683  1.00  0.00     0.186 A 
HETATM   21  C19 UNL     1      -4.588  -3.370   0.609  1.00  0.00     0.103 A 
HETATM   22  C20 UNL     1      -3.536  -2.581   1.115  1.00  0.00     0.103 A 
BRANCH  20  23
HETATM   23  O4  UNL     1      -5.710  -3.480  -1.533  1.00  0.00    -0.341 OA
ATOM     24  H4  UNL     1      -6.340  -4.170  -1.362  1.00  0.00     0.220 HD
ENDBRANCH  20  23
BRANCH  22  25
HETATM   25  O5  UNL     1      -3.033  -2.707   2.428  1.00  0.00    -0.358 OA
ATOM     26  H5  UNL     1      -3.296  -3.287   3.132  1.00  0.00     0.217 HD
ENDBRANCH  22  25
ENDBRANCH  10  18
BRANCH  17  27
HETATM   27  O7  UNL     1      -3.775  -0.189   1.896  1.00  0.00    -0.392 OA
ATOM     28  H7  UNL     1      -3.761  -1.088   2.202  1.00  0.00     0.210 HD
ENDBRANCH  17  27
BRANCH   7  29
HETATM   29  O1  UNL     1      -3.912   3.130  -0.354  1.00  0.00    -0.316 OA
BRANCH  29  30
HETATM   30  C12 UNL     1      -5.063   3.851  -0.114  1.00  0.00     0.255 C 
HETATM   31  C13 UNL     1      -5.196   5.240  -0.588  1.00  0.00     0.126 C 
HETATM   32  O2  UNL     1      -5.993   3.275   0.522  1.00  0.00    -0.266 OA
ENDBRANCH  29  30
ENDBRANCH   7  29
BRANCH   1  33
HETATM   33  C4  UNL     1       3.180   0.273   0.400  1.00  0.00    -0.021 C 
BRANCH  33  34
HETATM   34  C3  UNL     1       3.970  -0.615   0.147  1.00  0.00     0.007 C 
BRANCH  34  35
HETATM   35  C2  UNL     1       5.698  -0.308  -0.023  1.00  0.00    -0.046 C 
HETATM   36  C1  UNL     1       5.850  -1.524  -0.182  1.00  0.00     0.023 C 
BRANCH  35  37
HETATM   37  C27 UNL     1       5.523   1.084   0.158  1.00  0.00     0.012 C 
HETATM   38  C28 UNL     1       6.728   1.778   0.178  1.00  0.00    -0.087 C 
HETATM   39  C29 UNL     1       6.666   3.236   0.353  1.00  0.00     0.043 C 
HETATM   40  C30 UNL     1       7.960   1.008   0.057  1.00  0.00     0.043 C 
ENDBRANCH  35  37
ENDBRANCH  34  35
ENDBRANCH  33  34
ENDBRANCH   1  33
TORSDOF 10
