REMARK  8 active torsions:
REMARK  status: ('A' for Active; 'I' for Inactive)
REMARK    1  A    between atoms: C5_5  and  O1_6 
REMARK    2  A    between atoms: C11_13  and  O2_14 
REMARK    3  A    between atoms: O2_14  and  O3_15 
REMARK    4  A    between atoms: C12_18  and  O5_19 
REMARK    5  A    between atoms: O5_19  and  C13_20 
REMARK    6  A    between atoms: C16_23  and  N1_24 
REMARK    7  A    between atoms: N1_24  and  C17_26 
REMARK    8  A    between atoms: C23_32  and  O6_33 
ROOT
HETATM    1  C1  UNL     1      -6.250   1.762  -0.853  1.00  0.00     0.016 C 
HETATM    2  C2  UNL     1      -5.973   0.495  -0.065  1.00  0.00    -0.033 C 
HETATM    3  C3  UNL     1      -7.243  -0.315  -0.067  1.00  0.00     0.012 C 
HETATM    4  C4  UNL     1      -7.087  -1.722   0.401  1.00  0.00     0.032 C 
HETATM    5  C5  UNL     1      -5.938  -2.459  -0.254  1.00  0.00     0.119 C 
HETATM    6  C6  UNL     1      -4.670  -1.628  -0.239  1.00  0.00     0.046 C 
HETATM    7  C7  UNL     1      -4.879  -0.254  -0.765  1.00  0.00    -0.011 C 
HETATM    8  C8  UNL     1      -5.138  -0.327  -2.254  1.00  0.00     0.021 C 
HETATM    9  C9  UNL     1      -3.624   0.541  -0.603  1.00  0.00    -0.064 C 
HETATM   10  C10 UNL     1      -2.736   1.104  -1.401  1.00  0.00     0.048 C 
HETATM   11  C11 UNL     1      -1.658   1.793  -0.649  1.00  0.00     0.226 C 
HETATM   12  O4  UNL     1      -0.404   1.412  -1.018  1.00  0.00    -0.318 OA
HETATM   13  C12 UNL     1       0.160   0.591  -0.058  1.00  0.00     0.271 C 
HETATM   14  C25 UNL     1      -0.819   0.396   1.044  1.00  0.00     0.077 C 
HETATM   15  C26 UNL     1      -1.898   1.415   0.766  1.00  0.00     0.031 C 
HETATM   16  C27 UNL     1      -1.749   2.594   1.715  1.00  0.00     0.022 C 
HETATM   17  C28 UNL     1      -3.234   0.783   0.833  1.00  0.00     0.029 C 
HETATM   18  C29 UNL     1      -4.315   1.554   1.523  1.00  0.00     0.011 C 
HETATM   19  C30 UNL     1      -5.638   0.830   1.346  1.00  0.00     0.011 C 
ENDROOT
BRANCH  13  20
HETATM   20  O5  UNL     1       1.329   1.123   0.485  1.00  0.00    -0.320 OA
BRANCH  20  21
HETATM   21  C13 UNL     1       2.564   0.523   0.480  1.00  0.00     0.074 A 
HETATM   22  C14 UNL     1       3.649   1.199   1.072  1.00  0.00     0.039 A 
HETATM   23  C15 UNL     1       4.873   0.596   1.064  1.00  0.00     0.035 A 
HETATM   24  C16 UNL     1       5.112  -0.639   0.508  1.00  0.00     0.062 A 
HETATM   25  C23 UNL     1       4.052  -1.296  -0.069  1.00  0.00     0.094 A 
HETATM   26  C24 UNL     1       2.805  -0.712  -0.074  1.00  0.00     0.075 A 
BRANCH  24  27
HETATM   27  N1  UNL     1       6.371  -1.251   0.535  1.00  0.00    -0.383 N 
ATOM     28  H1  UNL     1       6.465  -2.215   0.214  1.00  0.00     0.160 HD
BRANCH  27  29
HETATM   29  C17 UNL     1       7.536  -0.548   1.007  1.00  0.00     0.081 C 
HETATM   30  C18 UNL     1       7.960   0.461  -0.005  1.00  0.00     0.025 C 
HETATM   31  C19 UNL     1       8.413  -0.302  -1.261  1.00  0.00     0.002 C 
HETATM   32  C20 UNL     1       9.604  -1.132  -0.861  1.00  0.00     0.000 C 
HETATM   33  C21 UNL     1       9.232  -2.156   0.198  1.00  0.00     0.002 C 
HETATM   34  C22 UNL     1       8.623  -1.521   1.403  1.00  0.00     0.025 C 
ENDBRANCH  27  29
ENDBRANCH  24  27
BRANCH  25  35
HETATM   35  O6  UNL     1       4.258  -2.536  -0.634  1.00  0.00    -0.358 OA
ATOM     36  H6  UNL     1       3.525  -2.990  -1.033  1.00  0.00     0.217 HD
ENDBRANCH  25  35
ENDBRANCH  20  21
ENDBRANCH  13  20
BRANCH  11  37
HETATM   37  O2  UNL     1      -1.824   3.194  -0.728  1.00  0.00    -0.198 OA
BRANCH  37  38
HETATM   38  O3  UNL     1      -1.773   3.529  -1.995  1.00  0.00    -0.247 OA
ATOM     39  H3  UNL     1      -1.885   4.471  -2.048  1.00  0.00     0.253 HD
ENDBRANCH  37  38
ENDBRANCH  11  37
BRANCH   5  40
HETATM   40  O1  UNL     1      -6.289  -2.878  -1.516  1.00  0.00    -0.396 OA
ATOM     41  H1  UNL     1      -5.568  -3.340  -1.927  1.00  0.00     0.210 HD
ENDBRANCH   5  40
TORSDOF 8
