REMARK  6 active torsions:
REMARK  status: ('A' for Active; 'I' for Inactive)
REMARK       I    between atoms: C2_2  and  N1_4 
REMARK    1  A    between atoms: N1_4  and  C3_6 
REMARK    2  A    between atoms: C4_13  and  O2_14 
REMARK    3  A    between atoms: C5_16  and  C6_17 
REMARK    4  A    between atoms: C6_17  and  N5_18 
REMARK    5  A    between atoms: N5_18  and  N6_20 
REMARK    6  A    between atoms: C8_29  and  C9_30 
ROOT
HETATM    1  C3  UNL     1       2.913  -0.539  -0.034  1.00  0.00     0.139 A 
HETATM    2  N2  UNL     1       4.089  -1.083  -0.395  1.00  0.00    -0.270 N 
ATOM      3  H2  UNL     1       4.945  -0.898   0.128  1.00  0.00     0.190 HD
HETATM    4  N3  UNL     1       4.086  -1.870  -1.461  1.00  0.00    -0.239 N 
ATOM      5  H3  UNL     1       4.965  -2.295  -1.756  1.00  0.00     0.208 HD
HETATM    6  N4  UNL     1       2.988  -2.130  -2.162  1.00  0.00    -0.265 N 
ATOM      7  H4  UNL     1       3.057  -2.745  -2.973  1.00  0.00     0.190 HD
HETATM    8  C4  UNL     1       1.785  -1.611  -1.841  1.00  0.00     0.171 A 
HETATM    9  C5  UNL     1       1.747  -0.782  -0.733  1.00  0.00     0.078 A 
ENDROOT
BRANCH   9  10
HETATM   10  C6  UNL     1       0.471  -0.195  -0.345  1.00  0.00     0.128 C 
BRANCH  10  11
HETATM   11  N5  UNL     1      -0.601  -0.438  -1.015  1.00  0.00    -0.291 N 
ATOM     12  H5  UNL     1      -0.577  -1.048  -1.832  1.00  0.00     0.188 HD
BRANCH  11  13
HETATM   13  N6  UNL     1      -1.799   0.151  -0.599  1.00  0.00    -0.187 N 
HETATM   14  N7  UNL     1      -2.440   0.978  -1.494  1.00  0.00    -0.221 N 
HETATM   15  N8  UNL     1      -3.579   1.572  -1.019  1.00  0.00    -0.258 N 
ATOM     16  H7  UNL     1      -2.093   1.136  -2.440  1.00  0.00     0.210 HD
HETATM   17  C7  UNL     1      -3.869   1.634   0.362  1.00  0.00     0.206 C 
ATOM     18  H8  UNL     1      -4.237   1.982  -1.682  1.00  0.00     0.191 HD
HETATM   19  N9  UNL     1      -4.811   2.555   0.870  1.00  0.00    -0.062 NA
HETATM   20  N10 UNL     1      -3.264   0.836   1.176  1.00  0.00    -0.332 N 
HETATM   21  C8  UNL     1      -2.286  -0.131   0.714  1.00  0.00     0.318 C 
ATOM     22  H10 UNL     1      -3.479   0.886   2.172  1.00  0.00     0.164 HD
BRANCH  21  23
HETATM   23  C9  UNL     1      -2.912  -1.469   0.829  1.00  0.00     0.277 C 
HETATM   24  N11 UNL     1      -3.031  -2.390  -0.221  1.00  0.00    -0.058 NA
HETATM   25  O3  UNL     1      -3.366  -1.793   1.957  1.00  0.00    -0.272 OA
ENDBRANCH  21  23
ENDBRANCH  11  13
ENDBRANCH  10  11
ENDBRANCH   9  10
BRANCH   1  26
HETATM   26  N1  UNL     1       2.881   0.224   0.988  1.00  0.00    -0.311 N 
HETATM   27  C2  UNL     1       3.975   0.561   1.792  1.00  0.00     0.219 C 
HETATM   28  C1  UNL     1       4.964   1.622   1.450  1.00  0.00     0.117 C 
HETATM   29  O1  UNL     1       4.157  -0.056   2.878  1.00  0.00    -0.274 OA
ATOM     30  H1  UNL     1       1.977   0.624   1.241  1.00  0.00     0.170 HD
ENDBRANCH   1  26
BRANCH   8  31
HETATM   31  O2  UNL     1       0.658  -1.904  -2.597  1.00  0.00    -0.344 OA
ATOM     32  H2  UNL     1      -0.189  -1.538  -2.371  1.00  0.00     0.219 HD
ENDBRANCH   8  31
TORSDOF 6
