REMARK  7 active torsions:
REMARK  status: ('A' for Active; 'I' for Inactive)
REMARK    1  A    between atoms: N1_2  and  S1_4 
REMARK    2  A    between atoms: S1_4  and  O3_7 
REMARK    3  A    between atoms: O3_7  and  C2_8 
REMARK    4  A    between atoms: C2_8  and  C3_10 
REMARK    5  A    between atoms: C3_10  and  N2_11 
REMARK    6  A    between atoms: C3_10  and  C4_15 
REMARK    7  A    between atoms: C5_21  and  N6_22 
REMARK       I    between atoms: N8_27  and  C6_28 
ROOT
HETATM    1  C4  UNL     1      -0.559  -0.051   0.438  1.00  0.00     0.116 A 
HETATM    2  N3  UNL     1      -0.040  -1.253   0.869  1.00  0.00    -0.283 N 
ATOM      3  H3  UNL     1       0.954  -1.444   0.998  1.00  0.00     0.188 HD
HETATM    4  N4  UNL     1      -0.994  -2.110   1.088  1.00  0.00    -0.219 N 
ATOM      5  H4  UNL     1      -0.883  -3.070   1.413  1.00  0.00     0.209 HD
HETATM    6  N5  UNL     1      -2.134  -1.502   0.810  1.00  0.00    -0.050 N 
HETATM    7  C5  UNL     1      -3.451  -1.748   0.809  1.00  0.00     0.715 A 
HETATM    8  N7  UNL     1      -4.034  -0.630   0.407  1.00  0.00    -0.120 N 
ATOM      9  H7  UNL     1      -5.040  -0.499   0.302  1.00  0.00     0.206 HD
HETATM   10  N8  UNL     1      -3.100   0.310   0.157  1.00  0.00    -0.192 N 
HETATM   11  C6  UNL     1      -3.464   1.608  -0.271  1.00  0.00     0.209 C 
HETATM   12  N9  UNL     1      -3.539   2.555   0.594  1.00  0.00    -0.372 N 
ATOM     13  H91 UNL     1      -3.802   3.491   0.285  1.00  0.00     0.158 HD
ATOM     14  H92 UNL     1      -3.316   2.418   1.580  1.00  0.00     0.158 HD
HETATM   15  N10 UNL     1      -3.774   1.798  -1.643  1.00  0.00    -0.062 NA
HETATM   16  C7  UNL     1      -1.897  -0.213   0.402  1.00  0.00     0.198 A 
ENDROOT
BRANCH   1  17
HETATM   17  C3  UNL     1       0.262   1.112   0.072  1.00  0.00     0.338 C 
BRANCH  17  18
HETATM   18  C2  UNL     1       1.498   0.613  -0.665  1.00  0.00     0.311 C 
HETATM   19  O4  UNL     1       1.766   1.071  -1.794  1.00  0.00    -0.261 OA
BRANCH  18  20
HETATM   20  O3  UNL     1       2.324  -0.330  -0.115  1.00  0.00    -0.178 OA
BRANCH  20  21
HETATM   21  S1  UNL     1       3.716  -0.934  -0.875  1.00  0.00     0.364 S 
HETATM   22  O1  UNL     1       3.405  -1.911  -1.959  1.00  0.00    -0.175 OA
HETATM   23  O2  UNL     1       4.406   0.250  -1.533  1.00  0.00    -0.175 OA
BRANCH  21  24
HETATM   24  N1  UNL     1       4.809  -1.645   0.218  1.00  0.00    -0.301 N 
HETATM   25  C1  UNL     1       5.778  -0.748   0.763  1.00  0.00     0.161 C 
ATOM     26  H1  UNL     1       4.775  -2.634   0.465  1.00  0.00     0.173 HD
ENDBRANCH  21  24
ENDBRANCH  20  21
ENDBRANCH  18  20
ENDBRANCH  17  18
BRANCH  17  27
HETATM   27  N2  UNL     1      -0.327   2.065  -0.811  1.00  0.00    -0.060 N 
ATOM     28  H23 UNL     1       0.309   2.807  -1.104  1.00  0.00     0.275 HD
ATOM     29  H22 UNL     1      -0.519   1.702  -1.745  1.00  0.00     0.275 HD
ATOM     30  H21 UNL     1      -1.155   2.399  -0.317  1.00  0.00     0.275 HD
ENDBRANCH  17  27
ENDBRANCH   1  17
BRANCH   7  31
HETATM   31  N6  UNL     1      -4.016  -2.847   1.134  1.00  0.00    -0.231 N 
ATOM     32  H62 UNL     1      -3.567  -3.709   1.444  1.00  0.00     0.174 HD
ATOM     33  H61 UNL     1      -5.019  -3.034   1.133  1.00  0.00     0.174 HD
ENDBRANCH   7  31
TORSDOF 7
