REMARK  7 active torsions:
REMARK  status: ('A' for Active; 'I' for Inactive)
REMARK    1  A    between atoms: N3_4  and  C2_6 
REMARK    2  A    between atoms: C2_6  and  C3_7 
REMARK    3  A    between atoms: C2_6  and  C12_22 
REMARK       I    between atoms: C3_7  and  N4_9 
REMARK    4  A    between atoms: N4_9  and  N5_11 
REMARK       I    between atoms: N5_11  and  C4_13 
REMARK    5  A    between atoms: C4_13  and  C5_15 
REMARK    6  A    between atoms: C5_15  and  C6_16 
REMARK    7  A    between atoms: C12_22  and  C13_24 
ROOT
HETATM    1  C3  UNL     1       0.460  -0.683   0.930  1.00  0.00     0.290 C 
HETATM    2  O1  UNL     1      -0.328   0.214   1.419  1.00  0.00    -0.264 OA
HETATM    3  N4  UNL     1      -0.192  -1.853   0.432  1.00  0.00    -0.262 N 
ATOM      4  H4  UNL     1       0.333  -2.613  -0.001  1.00  0.00     0.190 HD
ENDROOT
BRANCH   1   5
HETATM    5  C2  UNL     1       1.895  -0.499   0.912  1.00  0.00     0.155 C 
BRANCH   5   6
HETATM    6  N3  UNL     1       2.307   0.730   1.542  1.00  0.00    -0.325 N 
HETATM    7  C1  UNL     1       2.477   0.892   2.782  1.00  0.00     0.201 C 
HETATM    8  N1  UNL     1       2.883   2.129   3.319  1.00  0.00    -0.066 NA
HETATM    9  N2  UNL     1       2.266  -0.192   3.666  1.00  0.00    -0.066 NA
ATOM     10  H3  UNL     1       2.475   1.534   0.937  1.00  0.00     0.168 HD
ENDBRANCH   5   6
BRANCH   5  11
HETATM   11  C12 UNL     1       2.575  -0.868  -0.314  1.00  0.00     0.214 C 
HETATM   12  O3  UNL     1       2.337  -2.034  -0.827  1.00  0.00    -0.285 OA
BRANCH  11  13
HETATM   13  C13 UNL     1       3.538  -0.094  -1.093  1.00  0.00     0.017 A 
HETATM   14  C14 UNL     1       4.244  -0.710  -2.149  1.00  0.00     0.015 A 
HETATM   15  C15 UNL     1       5.160  -0.033  -2.916  1.00  0.00     0.001 A 
HETATM   16  C16 UNL     1       5.435   1.290  -2.690  1.00  0.00     0.000 A 
HETATM   17  C17 UNL     1       4.776   1.925  -1.681  1.00  0.00     0.001 A 
HETATM   18  C18 UNL     1       3.835   1.215  -0.900  1.00  0.00     0.015 A 
ENDBRANCH  11  13
ENDBRANCH   5  11
ENDBRANCH   1   5
BRANCH   3  19
HETATM   19  N5  UNL     1      -1.581  -1.908   0.565  1.00  0.00    -0.267 N 
HETATM   20  C4  UNL     1      -2.502  -1.803  -0.502  1.00  0.00     0.240 C 
HETATM   21  O2  UNL     1      -2.116  -1.635  -1.695  1.00  0.00    -0.272 OA
ATOM     22  H5  UNL     1      -1.960  -2.034   1.504  1.00  0.00     0.190 HD
BRANCH  20  23
HETATM   23  C5  UNL     1      -3.970  -1.897  -0.179  1.00  0.00     0.143 C 
BRANCH  23  24
HETATM   24  C6  UNL     1      -4.685  -0.651  -0.482  1.00  0.00    -0.049 A 
HETATM   25  C7  UNL     1      -5.350  -0.408  -1.649  1.00  0.00     0.007 A 
HETATM   26  C8  UNL     1      -6.025   0.783  -1.878  1.00  0.00     0.001 A 
HETATM   27  C9  UNL     1      -6.047   1.778  -0.922  1.00  0.00     0.000 A 
HETATM   28  C10 UNL     1      -5.378   1.527   0.240  1.00  0.00     0.001 A 
HETATM   29  C11 UNL     1      -4.707   0.360   0.484  1.00  0.00     0.007 A 
ENDBRANCH  23  24
ENDBRANCH  20  23
ENDBRANCH   3  19
TORSDOF 7
