REMARK  3 active torsions:
REMARK  status: ('A' for Active; 'I' for Inactive)
REMARK    1  A    between atoms: C2_2  and  N1_3 
REMARK    2  A    between atoms: C2_2  and  C3_7 
REMARK    3  A    between atoms: C7_11  and  N2_12 
ROOT
HETATM    1  C3  UNL     1      -0.383  -0.040   0.467  1.00  0.00     0.017 C 
HETATM    2  C4  UNL     1       0.120  -1.470   0.479  1.00  0.00     0.007 C 
HETATM    3  C5  UNL     1       1.593  -1.398   0.769  1.00  0.00     0.002 C 
HETATM    4  C6  UNL     1       2.369  -0.521  -0.124  1.00  0.00     0.033 C 
HETATM    5  C7  UNL     1       1.683   0.685  -0.658  1.00  0.00     0.184 C 
HETATM    6  C8  UNL     1       0.193   0.574  -0.780  1.00  0.00     0.039 C 
ENDROOT
BRANCH   1   7
HETATM    7  C2  UNL     1      -1.886   0.039   0.507  1.00  0.00     0.183 C 
HETATM    8  C1  UNL     1      -2.547  -0.632  -0.647  1.00  0.00     0.040 C 
BRANCH   7   9
HETATM    9  N1  UNL     1      -2.253   1.437   0.527  1.00  0.00    -0.075 N 
ATOM     10  H13 UNL     1      -2.049   1.902  -0.358  1.00  0.00     0.274 HD
ATOM     11  H12 UNL     1      -3.264   1.570   0.532  1.00  0.00     0.274 HD
ATOM     12  H11 UNL     1      -1.800   1.896   1.317  1.00  0.00     0.274 HD
ENDBRANCH   7   9
ENDBRANCH   1   7
BRANCH   5  13
HETATM   13  N2  UNL     1       1.974   1.872   0.133  1.00  0.00    -0.075 N 
ATOM     14  H23 UNL     1       1.751   1.725   1.117  1.00  0.00     0.274 HD
ATOM     15  H22 UNL     1       2.979   2.024   0.217  1.00  0.00     0.274 HD
ATOM     16  H21 UNL     1       1.503   2.699  -0.233  1.00  0.00     0.274 HD
ENDBRANCH   5  13
TORSDOF 3
