REMARK  11 active torsions:
REMARK  status: ('A' for Active; 'I' for Inactive)
REMARK    1  A    between atoms: C2_2  and  C3_3 
REMARK    2  A    between atoms: C3_3  and  C4_4 
REMARK    3  A    between atoms: C4_4  and  C5_5 
REMARK    4  A    between atoms: C5_5  and  C6_6 
REMARK    5  A    between atoms: C6_6  and  C7_7 
REMARK    6  A    between atoms: N3_20  and  C13_21 
REMARK    7  A    between atoms: C13_21  and  C14_22 
REMARK    8  A    between atoms: C14_22  and  N4_23 
REMARK    9  A    between atoms: C20_29  and  C21_30 
REMARK   10  A    between atoms: N6_35  and  C24_36 
REMARK   11  A    between atoms: C24_36  and  C25_37 
ROOT
HETATM    1  C5  UNL     1      -1.296   0.622   0.609  1.00  0.00     0.099 C 
HETATM    2  C9  UNL     1      -0.122   1.548   0.480  1.00  0.00     0.214 C 
HETATM    3  O1  UNL     1      -0.420   2.629   0.964  1.00  0.00    -0.290 OA
HETATM    4  C10 UNL     1       1.234   1.583  -0.025  1.00  0.00     0.262 C 
HETATM    5  N1  UNL     1       1.888   2.845   0.204  1.00  0.00    -0.301 N 
ATOM      6  H1  UNL     1       2.451   3.066   1.026  1.00  0.00     0.167 HD
HETATM    7  C11 UNL     1       1.640   3.749  -0.880  1.00  0.00     0.325 C 
HETATM    8  O2  UNL     1       1.787   4.989  -0.859  1.00  0.00    -0.247 OA
HETATM    9  N2  UNL     1       1.193   2.929  -1.981  1.00  0.00    -0.275 N 
ATOM     10  H2  UNL     1       0.930   3.257  -2.911  1.00  0.00     0.173 HD
HETATM   11  C12 UNL     1       1.187   1.601  -1.537  1.00  0.00     0.283 C 
HETATM   12  O3  UNL     1       1.150   0.575  -2.226  1.00  0.00    -0.268 OA
HETATM   13  N3  UNL     1       2.046   0.484   0.377  1.00  0.00    -0.315 N 
HETATM   14  C17 UNL     1       1.596  -0.878   0.234  1.00  0.00     0.063 A 
HETATM   15  C18 UNL     1       2.678  -1.749   0.103  1.00  0.00     0.033 A 
HETATM   16  C19 UNL     1       2.536  -3.120  -0.044  1.00  0.00     0.019 A 
HETATM   17  C20 UNL     1       1.294  -3.672  -0.065  1.00  0.00     0.031 A 
HETATM   18  C22 UNL     1       0.209  -2.832   0.063  1.00  0.00     0.048 A 
HETATM   19  C23 UNL     1       0.330  -1.452   0.211  1.00  0.00     0.059 A 
HETATM   20  N6  UNL     1      -0.939  -0.786   0.327  1.00  0.00    -0.357 N 
ENDROOT
BRANCH  13  21
HETATM   21  C13 UNL     1       3.310   0.661   0.953  1.00  0.00     0.098 C 
BRANCH  21  22
HETATM   22  C14 UNL     1       4.424   1.196   0.126  1.00  0.00     0.316 C 
BRANCH  22  23
HETATM   23  N4  UNL     1       5.639   1.286   0.913  1.00  0.00     0.084 N 
HETATM   24  C15 UNL     1       6.214   0.049   1.304  1.00  0.00     0.309 C 
HETATM   25  C16 UNL     1       6.669   2.031   0.169  1.00  0.00     0.309 C 
ENDBRANCH  22  23
ENDBRANCH  21  22
ENDBRANCH  13  21
BRANCH   1  26
HETATM   26  C4  UNL     1      -2.340   1.051  -0.341  1.00  0.00     0.039 C 
BRANCH  26  27
HETATM   27  C3  UNL     1      -2.963   2.412  -0.202  1.00  0.00     0.002 C 
BRANCH  27  28
HETATM   28  C2  UNL     1      -3.935   2.465  -1.439  1.00  0.00    -0.004 C 
HETATM   29  C1  UNL     1      -3.167   2.322  -2.713  1.00  0.00     0.005 C 
ENDBRANCH  27  28
ENDBRANCH  26  27
ENDBRANCH   1  26
BRANCH   1  30
HETATM   30  C6  UNL     1      -1.725   0.544   2.034  1.00  0.00     0.039 C 
BRANCH  30  31
HETATM   31  C7  UNL     1      -2.208   1.671   2.813  1.00  0.00    -0.002 C 
HETATM   32  C8  UNL     1      -2.482   1.042   4.240  1.00  0.00     0.005 C 
ENDBRANCH  30  31
ENDBRANCH   1  30
BRANCH  20  33
HETATM   33  C24 UNL     1      -2.036  -1.683   0.141  1.00  0.00     0.183 C 
BRANCH  33  34
HETATM   34  C25 UNL     1      -2.506  -1.943  -1.224  1.00  0.00     0.045 A 
HETATM   35  C26 UNL     1      -1.909  -1.771  -2.435  1.00  0.00     0.115 A 
HETATM   36  N7  UNL     1      -2.724  -2.161  -3.407  1.00  0.00    -0.360 N 
HETATM   37  C27 UNL     1      -3.854  -2.588  -2.822  1.00  0.00     0.182 A 
ATOM     38  H7  UNL     1      -2.529  -2.140  -4.408  1.00  0.00     0.166 HD
HETATM   39  N8  UNL     1      -3.732  -2.460  -1.500  1.00  0.00    -0.348 N 
HETATM   40  C28 UNL     1      -4.779  -2.832  -0.559  1.00  0.00     0.157 C 
ENDBRANCH  33  34
ENDBRANCH  20  33
BRANCH  17  41
HETATM   41  C21 UNL     1       1.052  -5.092  -0.216  1.00  0.00     0.265 C 
HETATM   42  N5  UNL     1      -0.285  -5.563  -0.274  1.00  0.00    -0.057 NA
HETATM   43  O4  UNL     1       1.997  -5.934  -0.300  1.00  0.00    -0.271 OA
ENDBRANCH  17  41
TORSDOF 11
