REMARK  12 active torsions:
REMARK  status: ('A' for Active; 'I' for Inactive)
REMARK    1  A    between atoms: O1_2  and  C2_3 
REMARK    2  A    between atoms: C4_7  and  C5_8 
REMARK    3  A    between atoms: C6_9  and  C7_10 
REMARK       I    between atoms: C7_10  and  N2_12 
REMARK    4  A    between atoms: N3_15  and  C10_16 
REMARK    5  A    between atoms: C10_16  and  C11_17 
REMARK    6  A    between atoms: C11_17  and  C12_18 
REMARK    7  A    between atoms: C12_18  and  C13_19 
REMARK    8  A    between atoms: C13_19  and  N4_20 
REMARK       I    between atoms: N4_20  and  C14_22 
REMARK    9  A    between atoms: C14_22  and  C15_24 
REMARK   10  A    between atoms: C15_24  and  C16_25 
REMARK   11  A    between atoms: C15_24  and  N5_36 
REMARK   12  A    between atoms: C16_25  and  C17_26 
ROOT
HETATM    1  N5  UNL     1      -4.965   2.359  -1.092  1.00  0.00    -0.315 N 
ATOM      2  H5  UNL     1      -5.234   3.121  -0.469  1.00  0.00     0.172 HD
HETATM    3  C27 UNL     1      -5.128   2.534  -2.484  1.00  0.00     0.178 C 
HETATM    4  N6  UNL     1      -5.264   2.668  -3.630  1.00  0.00    -0.172 NA
ENDROOT
BRANCH   1   5
HETATM    5  C15 UNL     1      -4.429   1.138  -0.508  1.00  0.00     0.184 C 
BRANCH   5   6
HETATM    6  C14 UNL     1      -3.076   0.896  -1.175  1.00  0.00     0.241 C 
HETATM    7  N4  UNL     1      -2.342  -0.224  -0.744  1.00  0.00    -0.359 N 
ATOM      8  H4  UNL     1      -2.731  -0.828  -0.020  1.00  0.00     0.162 HD
HETATM    9  O3  UNL     1      -2.638   1.648  -2.057  1.00  0.00    -0.271 OA
BRANCH   7  10
HETATM   10  C13 UNL     1      -1.066  -0.532  -1.299  1.00  0.00     0.122 C 
BRANCH  10  11
HETATM   11  C12 UNL     1      -0.071   0.548  -1.049  1.00  0.00     0.021 C 
BRANCH  11  12
HETATM   12  C11 UNL     1       1.303   0.188  -1.638  1.00  0.00     0.032 C 
BRANCH  12  13
HETATM   13  C10 UNL     1       2.277   1.302  -1.360  1.00  0.00     0.272 C 
BRANCH  13  14
HETATM   14  N3  UNL     1       2.413   1.495   0.045  1.00  0.00     0.091 N 
HETATM   15  C9  UNL     1       3.311   2.571   0.391  1.00  0.00     0.292 C 
HETATM   16  C8  UNL     1       4.739   2.212   0.365  1.00  0.00     0.156 C 
HETATM   17  N2  UNL     1       5.082   0.830   0.403  1.00  0.00    -0.345 N 
HETATM   18  C7  UNL     1       6.498   0.428   0.352  1.00  0.00     0.243 C 
HETATM   19  C29 UNL     1       4.121  -0.208   0.500  1.00  0.00     0.156 C 
HETATM   20  O2  UNL     1       7.264   1.381   0.315  1.00  0.00    -0.268 OA
HETATM   21  C28 UNL     1       2.760   0.341   0.806  1.00  0.00     0.292 C 
BRANCH  18  22
HETATM   22  C6  UNL     1       6.808  -0.939   0.351  1.00  0.00     0.075 C 
HETATM   23  C5  UNL     1       7.899  -1.612   0.365  1.00  0.00     0.020 C 
BRANCH  23  24
HETATM   24  C4  UNL     1       9.270  -1.254   0.401  1.00  0.00    -0.005 A 
HETATM   25  C3  UNL     1      10.172  -2.203  -0.129  1.00  0.00     0.104 A 
HETATM   26  N1  UNL     1      11.474  -1.968  -0.041  1.00  0.00    -0.331 N 
HETATM   27  C2  UNL     1      12.021  -0.890   0.518  1.00  0.00     0.222 A 
ATOM     28  H1  UNL     1      12.106  -2.667  -0.432  1.00  0.00     0.168 HD
HETATM   29  N7  UNL     1      11.186   0.026   1.029  1.00  0.00    -0.331 N 
HETATM   30  C30 UNL     1       9.817  -0.164   0.969  1.00  0.00     0.104 A 
ATOM     31  H7  UNL     1      11.562   0.868   1.465  1.00  0.00     0.168 HD
BRANCH  27  32
HETATM   32  O1  UNL     1      13.391  -0.755   0.549  1.00  0.00    -0.327 OA
HETATM   33  C1  UNL     1      14.206  -1.759  -0.009  1.00  0.00     0.213 C 
ENDBRANCH  27  32
ENDBRANCH  23  24
ENDBRANCH  18  22
ENDBRANCH  13  14
ENDBRANCH  12  13
ENDBRANCH  11  12
ENDBRANCH  10  11
ENDBRANCH   7  10
ENDBRANCH   5   6
BRANCH   5  34
HETATM   34  C16 UNL     1      -5.220  -0.082  -0.760  1.00  0.00     0.045 C 
BRANCH  34  35
HETATM   35  C17 UNL     1      -6.580  -0.198  -0.185  1.00  0.00    -0.037 C 
HETATM   36  C18 UNL     1      -7.102  -1.580  -0.638  1.00  0.00     0.014 C 
HETATM   37  C19 UNL     1      -8.427  -1.837  -0.019  1.00  0.00    -0.013 C 
HETATM   38  C20 UNL     1      -9.378  -0.773  -0.571  1.00  0.00     0.009 C 
HETATM   39  C24 UNL     1      -8.442  -1.779   1.473  1.00  0.00     0.009 C 
HETATM   40  C21 UNL     1      -8.928   0.565  -0.098  1.00  0.00    -0.013 C 
HETATM   41  C22 UNL     1      -8.801   0.688   1.400  1.00  0.00     0.009 C 
HETATM   42  C26 UNL     1      -7.525   0.829  -0.659  1.00  0.00     0.014 C 
HETATM   43  C23 UNL     1      -7.916  -0.413   1.880  1.00  0.00    -0.013 C 
HETATM   44  C25 UNL     1      -6.533  -0.297   1.335  1.00  0.00     0.014 C 
ENDBRANCH  34  35
ENDBRANCH   5  34
ENDBRANCH   1   5
TORSDOF 12
