REMARK  11 active torsions:
REMARK  status: ('A' for Active; 'I' for Inactive)
REMARK    1  A    between atoms: C2_2  and  N1_3 
REMARK    2  A    between atoms: N1_3  and  C3_4 
REMARK    3  A    between atoms: N1_3  and  C4_6 
REMARK    4  A    between atoms: C4_6  and  C5_7 
REMARK    5  A    between atoms: C5_7  and  N2_8 
REMARK       I    between atoms: N2_8  and  C6_10 
REMARK       I    between atoms: C6_10  and  N3_12 
REMARK    6  A    between atoms: N3_12  and  C7_14 
REMARK    7  A    between atoms: C7_14  and  C8_15 
REMARK    8  A    between atoms: C8_15  and  N4_16 
REMARK       I    between atoms: N4_16  and  C9_18 
REMARK    9  A    between atoms: C9_18  and  C10_20 
REMARK   10  A    between atoms: N6_24  and  C12_25 
REMARK   11  A    between atoms: C19_36  and  C20_37 
ROOT
HETATM    1  C10 UNL     1      -0.758  -1.521   0.486  1.00  0.00     0.078 A 
HETATM    2  C11 UNL     1      -0.848  -2.903   0.709  1.00  0.00     0.127 A 
HETATM    3  N5  UNL     1      -2.109  -3.225   0.494  1.00  0.00    -0.302 N 
ATOM      4  H5  UNL     1      -2.490  -4.168   0.576  1.00  0.00     0.186 HD
HETATM    5  N6  UNL     1      -2.825  -2.133   0.150  1.00  0.00    -0.232 N 
HETATM    6  C19 UNL     1      -1.995  -1.067   0.145  1.00  0.00     0.086 A 
ENDROOT
BRANCH   1   7
HETATM    7  C9  UNL     1       0.536  -0.882   0.509  1.00  0.00     0.255 C 
HETATM    8  N4  UNL     1       0.933   0.102  -0.397  1.00  0.00    -0.355 N 
ATOM      9  H4  UNL     1       0.303   0.418  -1.134  1.00  0.00     0.162 HD
HETATM   10  O3  UNL     1       1.389  -1.238   1.408  1.00  0.00    -0.268 OA
BRANCH   8  11
HETATM   11  C8  UNL     1       2.282   0.672  -0.263  1.00  0.00     0.142 C 
BRANCH  11  12
HETATM   12  C7  UNL     1       2.554   1.706  -1.299  1.00  0.00     0.144 C 
BRANCH  12  13
HETATM   13  N3  UNL     1       3.861   2.295  -1.204  1.00  0.00    -0.342 N 
HETATM   14  C6  UNL     1       5.048   1.534  -1.326  1.00  0.00     0.316 C 
HETATM   15  N2  UNL     1       6.318   2.141  -1.219  1.00  0.00    -0.342 N 
HETATM   16  O2  UNL     1       4.964   0.310  -1.532  1.00  0.00    -0.247 OA
ATOM     17  H2  UNL     1       6.377   3.147  -1.062  1.00  0.00     0.164 HD
ATOM     18  H3  UNL     1       3.936   3.299  -1.043  1.00  0.00     0.164 HD
BRANCH  15  19
HETATM   19  C5  UNL     1       7.526   1.379  -1.326  1.00  0.00     0.144 C 
BRANCH  19  20
HETATM   20  C4  UNL     1       7.631   0.348  -0.242  1.00  0.00     0.145 C 
BRANCH  20  21
HETATM   21  N1  UNL     1       8.887  -0.383  -0.414  1.00  0.00    -0.358 N 
BRANCH  21  22
HETATM   22  C2  UNL     1      10.066   0.115   0.255  1.00  0.00     0.120 C 
HETATM   23  C1  UNL     1      10.166  -0.518   1.639  1.00  0.00     0.026 C 
ENDBRANCH  21  22
BRANCH  21  24
HETATM   24  C3  UNL     1       8.911  -1.538  -1.218  1.00  0.00     0.350 C 
HETATM   25  O1  UNL     1       7.870  -1.940  -1.782  1.00  0.00    -0.284 OA
ENDBRANCH  21  24
ENDBRANCH  20  21
ENDBRANCH  19  20
ENDBRANCH  15  19
ENDBRANCH  12  13
ENDBRANCH  11  12
ENDBRANCH   8  11
ENDBRANCH   1   7
BRANCH   6  26
HETATM   26  C20 UNL     1      -2.402   0.333  -0.008  1.00  0.00    -0.006 A 
HETATM   27  C21 UNL     1      -3.437   0.768  -0.796  1.00  0.00     0.014 A 
HETATM   28  C22 UNL     1      -3.893   2.086  -0.833  1.00  0.00     0.008 A 
HETATM   29  C23 UNL     1      -3.285   3.034  -0.042  1.00  0.00    -0.056 A 
HETATM   30  C24 UNL     1      -3.716   4.457  -0.031  1.00  0.00     0.049 C 
HETATM   31  C25 UNL     1      -2.243   2.624   0.757  1.00  0.00    -0.055 A 
HETATM   32  C26 UNL     1      -1.594   3.682   1.612  1.00  0.00     0.049 C 
HETATM   33  C27 UNL     1      -1.803   1.320   0.786  1.00  0.00     0.021 A 
ENDBRANCH   6  26
BRANCH   5  34
HETATM   34  C12 UNL     1      -4.226  -2.162  -0.113  1.00  0.00     0.171 A 
HETATM   35  N7  UNL     1      -5.185  -1.641   0.639  1.00  0.00    -0.338 N 
HETATM   36  C13 UNL     1      -6.423  -1.759   0.288  1.00  0.00     0.028 A 
ATOM     37  H7  UNL     1      -4.945  -1.145   1.498  1.00  0.00     0.168 HD
HETATM   38  C14 UNL     1      -6.703  -2.434  -0.873  1.00  0.00     0.037 A 
HETATM   39  C18 UNL     1      -7.655  -1.241   1.000  1.00  0.00     0.088 C 
HETATM   40  S1  UNL     1      -5.115  -2.861  -1.390  1.00  0.00    -0.053 SA
HETATM   41  C15 UNL     1      -8.123  -2.586  -1.299  1.00  0.00     0.320 C 
HETATM   42  N8  UNL     1      -8.855  -3.076  -0.147  1.00  0.00     0.089 N 
HETATM   43  C16 UNL     1      -8.327  -4.424   0.114  1.00  0.00     0.310 C 
HETATM   44  C17 UNL     1      -8.679  -2.320   1.043  1.00  0.00     0.278 C 
ENDBRANCH   5  34
TORSDOF 11
