REMARK  12 active torsions:
REMARK  status: ('A' for Active; 'I' for Inactive)
REMARK    1  A    between atoms: C3_5  and  N2_6 
REMARK    2  A    between atoms: N2_6  and  C4_8 
REMARK    3  A    between atoms: C4_8  and  C5_9 
REMARK    4  A    between atoms: C5_9  and  C6_10 
REMARK    5  A    between atoms: C6_10  and  N3_11 
REMARK    6  A    between atoms: C9_14  and  C10_15 
REMARK    7  A    between atoms: C10_15  and  C11_16 
REMARK    8  A    between atoms: C11_16  and  C12_17 
REMARK    9  A    between atoms: C20_30  and  C21_31 
REMARK       I    between atoms: C21_31  and  N5_33 
REMARK   10  A    between atoms: N5_33  and  C22_35 
REMARK   11  A    between atoms: C22_35  and  C23_36 
REMARK   12  A    between atoms: C23_36  and  N6_37 
ROOT
HETATM    1  N2  UNL     1       0.579  -0.750   0.998  1.00  0.00    -0.370 N 
ATOM      2  H2  UNL     1       0.456  -1.760   1.066  1.00  0.00     0.161 HD
ENDROOT
BRANCH   1   3
HETATM    3  C3  UNL     1       1.808  -0.294   0.875  1.00  0.00     0.145 A 
HETATM    4  N1  UNL     1       2.195   0.975   0.772  1.00  0.00    -0.339 N 
HETATM    5  C2  UNL     1       3.469   1.257   0.667  1.00  0.00     0.030 A 
ATOM      6  H1  UNL     1       1.503   1.724   0.775  1.00  0.00     0.168 HD
HETATM    7  C1  UNL     1       3.954   2.699   0.550  1.00  0.00     0.070 C 
HETATM    8  C20 UNL     1       4.364   0.226   0.669  1.00  0.00     0.098 A 
HETATM    9  S1  UNL     1       3.275  -1.141   0.825  1.00  0.00    -0.047 SA
BRANCH   8  10
HETATM   10  C21 UNL     1       5.809   0.121   0.587  1.00  0.00     0.260 C 
HETATM   11  O3  UNL     1       6.279  -1.076   0.650  1.00  0.00    -0.267 OA
HETATM   12  N5  UNL     1       6.751   1.132   0.445  1.00  0.00    -0.355 N 
ATOM     13  H5  UNL     1       6.419   2.095   0.397  1.00  0.00     0.162 HD
BRANCH  12  14
HETATM   14  C22 UNL     1       8.200   0.894   0.360  1.00  0.00     0.142 C 
BRANCH  14  15
HETATM   15  C23 UNL     1       8.545   0.094  -0.841  1.00  0.00     0.136 C 
BRANCH  15  16
HETATM   16  N6  UNL     1       9.966  -0.149  -0.976  1.00  0.00    -0.407 N 
HETATM   17  C24 UNL     1      10.730   1.009  -1.266  1.00  0.00     0.143 C 
HETATM   18  C25 UNL     1      11.787   1.336  -0.255  1.00  0.00     0.187 C 
HETATM   19  O4  UNL     1      12.411   0.214   0.266  1.00  0.00    -0.388 OA
HETATM   20  C26 UNL     1      11.424  -0.499   0.966  1.00  0.00     0.187 C 
HETATM   21  C27 UNL     1      10.505  -1.089  -0.068  1.00  0.00     0.143 C 
ENDBRANCH  15  16
ENDBRANCH  14  15
ENDBRANCH  12  14
ENDBRANCH   8  10
ENDBRANCH   1   3
BRANCH   1  22
HETATM   22  C4  UNL     1      -0.593   0.059   1.044  1.00  0.00     0.123 C 
BRANCH  22  23
HETATM   23  C5  UNL     1      -1.074   0.450  -0.279  1.00  0.00     0.040 C 
BRANCH  23  24
HETATM   24  C6  UNL     1      -1.525  -0.536  -1.275  1.00  0.00     0.135 C 
BRANCH  24  25
HETATM   25  N3  UNL     1      -2.636  -1.377  -0.940  1.00  0.00    -0.303 N 
HETATM   26  C7  UNL     1      -3.914  -0.897  -1.055  1.00  0.00     0.024 A 
HETATM   27  C8  UNL     1      -4.170   0.502  -1.465  1.00  0.00     0.069 C 
HETATM   28  C9  UNL     1      -5.001  -1.694  -0.792  1.00  0.00     0.033 A 
HETATM   29  C18 UNL     1      -4.780  -3.012  -0.403  1.00  0.00     0.257 A 
HETATM   30  O1  UNL     1      -5.766  -3.769  -0.153  1.00  0.00    -0.267 OA
HETATM   31  N4  UNL     1      -3.515  -3.422  -0.308  1.00  0.00    -0.275 N 
HETATM   32  C19 UNL     1      -2.432  -2.640  -0.567  1.00  0.00     0.329 A 
ATOM     33  H4  UNL     1      -3.348  -4.387  -0.022  1.00  0.00     0.173 HD
HETATM   34  O2  UNL     1      -1.277  -3.175  -0.437  1.00  0.00    -0.246 OA
BRANCH  28  35
HETATM   35  C10 UNL     1      -6.429  -1.250  -0.864  1.00  0.00     0.046 C 
BRANCH  35  36
HETATM   36  C11 UNL     1      -6.817  -0.449   0.334  1.00  0.00     0.009 C 
BRANCH  36  37
HETATM   37  C12 UNL     1      -8.252  -0.004   0.215  1.00  0.00    -0.014 C 
HETATM   38  C13 UNL     1      -9.248  -1.120   0.116  1.00  0.00     0.004 C 
HETATM   39  C14 UNL     1     -10.570  -0.501  -0.370  1.00  0.00     0.000 C 
HETATM   40  C15 UNL     1     -10.893   0.721   0.426  1.00  0.00     0.000 C 
HETATM   41  C16 UNL     1     -10.050   0.797   1.683  1.00  0.00     0.000 C 
HETATM   42  C17 UNL     1      -8.596   0.895   1.395  1.00  0.00     0.004 C 
ENDBRANCH  36  37
ENDBRANCH  35  36
ENDBRANCH  28  35
ENDBRANCH  24  25
ENDBRANCH  23  24
ENDBRANCH  22  23
ENDBRANCH   1  22
TORSDOF 12
