REMARK  14 active torsions:
REMARK  status: ('A' for Active; 'I' for Inactive)
REMARK    1  A    between atoms: C2_2  and  C3_4 
REMARK       I    between atoms: C3_4  and  N1_6 
REMARK    2  A    between atoms: N1_6  and  C4_8 
REMARK    3  A    between atoms: C8_13  and  O2_14 
REMARK    4  A    between atoms: O2_14  and  C9_15 
REMARK    5  A    between atoms: C11_18  and  O4_19 
REMARK    6  A    between atoms: O4_19  and  C12_20 
REMARK       I    between atoms: C12_20  and  N2_22 
REMARK    7  A    between atoms: N2_22  and  C13_24 
REMARK    8  A    between atoms: C13_24  and  C14_25 
REMARK    9  A    between atoms: C14_25  and  C15_26 
REMARK   10  A    between atoms: C15_26  and  N3_27 
REMARK   11  A    between atoms: N3_27  and  C17_29 
REMARK   12  A    between atoms: C17_29  and  C18_30 
REMARK   13  A    between atoms: N4_40  and  C26_41 
REMARK   14  A    between atoms: C26_41  and  C27_42 
ROOT
HETATM    1  C4  UNL     1      -4.620   1.178   0.297  1.00  0.00     0.338 C 
HETATM    2  C5  UNL     1      -3.995  -0.160   0.154  1.00  0.00     0.109 C 
HETATM    3  S1  UNL     1      -5.019  -1.419  -0.649  1.00  0.00    -0.153 SA
HETATM    4  C6  UNL     1      -3.786  -2.392  -1.616  1.00  0.00     0.076 C 
HETATM    5  C7  UNL     1      -4.265  -3.821  -1.606  1.00  0.00     0.024 C 
HETATM    6  C8  UNL     1      -2.488  -2.336  -0.804  1.00  0.00     0.175 C 
HETATM    7  C11 UNL     1      -1.851  -0.966  -0.845  1.00  0.00     0.171 C 
HETATM    8  C24 UNL     1      -2.895   0.129  -0.847  1.00  0.00     0.064 C 
HETATM    9  C25 UNL     1      -2.423   1.458  -0.405  1.00  0.00     0.283 C 
HETATM   10  N4  UNL     1      -3.474   2.046   0.426  1.00  0.00     0.113 N 
ENDROOT
BRANCH   7  11
HETATM   11  O4  UNL     1      -0.919  -0.822   0.176  1.00  0.00    -0.295 OA
BRANCH  11  12
HETATM   12  C12 UNL     1       0.435  -0.555  -0.051  1.00  0.00     0.361 C 
HETATM   13  O5  UNL     1       0.766  -0.451  -1.257  1.00  0.00    -0.239 OA
HETATM   14  N2  UNL     1       1.362  -0.411   1.004  1.00  0.00    -0.337 N 
ATOM     15  H2  UNL     1       1.017  -0.514   1.958  1.00  0.00     0.164 HD
BRANCH  14  16
HETATM   16  C13 UNL     1       2.749  -0.131   0.824  1.00  0.00     0.126 C 
BRANCH  16  17
HETATM   17  C14 UNL     1       3.459  -1.173   0.032  1.00  0.00     0.039 C 
BRANCH  17  18
HETATM   18  C15 UNL     1       4.928  -0.766  -0.100  1.00  0.00     0.123 C 
BRANCH  18  19
HETATM   19  N3  UNL     1       5.571  -0.635   1.134  1.00  0.00    -0.393 N 
HETATM   20  C16 UNL     1       5.815  -1.761   1.926  1.00  0.00     0.148 C 
BRANCH  19  21
HETATM   21  C17 UNL     1       6.053   0.622   1.463  1.00  0.00     0.099 C 
BRANCH  21  22
HETATM   22  C18 UNL     1       7.150   1.197   0.675  1.00  0.00     0.018 A 
HETATM   23  C19 UNL     1       7.751   0.517  -0.351  1.00  0.00     0.017 A 
HETATM   24  C20 UNL     1       8.804   1.090  -1.067  1.00  0.00     0.025 A 
HETATM   25  C21 UNL     1       9.243   2.350  -0.740  1.00  0.00     0.037 A 
HETATM   26 CL1  UNL     1      10.550   3.079  -1.618  1.00  0.00    -0.084 Cl
HETATM   27  C22 UNL     1       8.624   3.035   0.307  1.00  0.00     0.067 A 
HETATM   28  C23 UNL     1       7.589   2.481   1.017  1.00  0.00     0.129 A 
HETATM   29  F1  UNL     1       7.007   3.163   2.023  1.00  0.00    -0.205 F 
ENDBRANCH  21  22
ENDBRANCH  19  21
ENDBRANCH  18  19
ENDBRANCH  17  18
ENDBRANCH  16  17
ENDBRANCH  14  16
ENDBRANCH  11  12
ENDBRANCH   7  11
BRANCH   6  30
HETATM   30  O2  UNL     1      -1.590  -3.235  -1.422  1.00  0.00    -0.312 OA
BRANCH  30  31
HETATM   31  C9  UNL     1      -1.093  -4.362  -0.805  1.00  0.00     0.255 C 
HETATM   32  C10 UNL     1      -0.153  -5.222  -1.578  1.00  0.00     0.126 C 
HETATM   33  O3  UNL     1      -1.451  -4.610   0.364  1.00  0.00    -0.266 OA
ENDBRANCH  30  31
ENDBRANCH   6  30
BRANCH   1  34
HETATM   34  N1  UNL     1      -5.295   1.573  -0.937  1.00  0.00    -0.326 N 
HETATM   35  C3  UNL     1      -6.655   1.988  -0.911  1.00  0.00     0.259 C 
HETATM   36  O1  UNL     1      -7.329   2.040   0.145  1.00  0.00    -0.267 OA
ATOM     37  H1  UNL     1      -4.788   1.551  -1.822  1.00  0.00     0.165 HD
BRANCH  35  38
HETATM   38  C2  UNL     1      -7.297   2.370  -2.155  1.00  0.00     0.069 C 
HETATM   39  C1  UNL     1      -8.549   2.762  -2.190  1.00  0.00     0.037 C 
HETATM   40 BR1  UNL     1      -6.301   2.296  -3.771  1.00  0.00    -0.046 Br
ENDBRANCH  35  38
ENDBRANCH   1  34
BRANCH  10  41
HETATM   41  C26 UNL     1      -3.079   2.146   1.795  1.00  0.00     0.275 C 
BRANCH  41  42
HETATM   42  C27 UNL     1      -4.079   2.917   2.616  1.00  0.00     0.026 C 
HETATM   43  C28 UNL     1      -3.615   3.014   4.072  1.00  0.00     0.007 C 
ENDBRANCH  41  42
ENDBRANCH  10  41
TORSDOF 14
