REMARK  14 active torsions:
REMARK  status: ('A' for Active; 'I' for Inactive)
REMARK    1  A    between atoms: C2_2  and  C3_3 
REMARK       I    between atoms: C3_3  and  N1_5 
REMARK    2  A    between atoms: N1_5  and  C5_7 
REMARK    3  A    between atoms: C6_8  and  C7_9 
REMARK    4  A    between atoms: C7_9  and  N2_11 
REMARK    5  A    between atoms: C12_17  and  N3_18 
REMARK    6  A    between atoms: N3_18  and  C13_20 
REMARK    7  A    between atoms: C17_28  and  O2_29 
REMARK    8  A    between atoms: O2_29  and  C18_30 
REMARK    9  A    between atoms: C20_32  and  O3_33 
REMARK   10  A    between atoms: O3_33  and  C21_34 
REMARK   11  A    between atoms: C21_34  and  C22_35 
REMARK       I    between atoms: C22_35  and  N6_37 
REMARK   12  A    between atoms: N6_37  and  C23_39 
REMARK   13  A    between atoms: C23_39  and  C24_40 
REMARK   14  A    between atoms: C24_40  and  N7_41 
ROOT
HETATM    1  C13 UNL     1      -1.600  -1.137   0.578  1.00  0.00     0.119 A 
HETATM    2  N4  UNL     1      -2.745  -1.471   1.189  1.00  0.00    -0.338 N 
ATOM      3  H4  UNL     1      -3.624  -1.088   0.842  1.00  0.00     0.168 HD
HETATM    4  C14 UNL     1      -2.763  -2.301   2.251  1.00  0.00     0.182 A 
HETATM    5  N5  UNL     1      -1.601  -2.803   2.702  1.00  0.00    -0.351 N 
ATOM      6  H5  UNL     1      -1.620  -3.432   3.505  1.00  0.00     0.166 HD
HETATM    7  C15 UNL     1      -0.414  -2.513   2.141  1.00  0.00     0.050 A 
HETATM    8  C16 UNL     1       0.773  -3.017   2.593  1.00  0.00     0.070 A 
HETATM    9  C17 UNL     1       2.011  -2.717   2.012  1.00  0.00     0.104 A 
HETATM   10  C20 UNL     1       1.966  -1.864   0.931  1.00  0.00     0.103 A 
HETATM   11  C27 UNL     1       0.801  -1.327   0.433  1.00  0.00     0.057 A 
HETATM   12  C28 UNL     1      -0.392  -1.662   1.052  1.00  0.00     0.038 A 
ENDROOT
BRANCH   1  13
HETATM   13  N3  UNL     1      -1.509  -0.354  -0.436  1.00  0.00    -0.339 N 
ATOM     14  H3  UNL     1      -0.604  -0.141  -0.855  1.00  0.00     0.167 HD
BRANCH  13  15
HETATM   15  C12 UNL     1      -2.712   0.209  -0.959  1.00  0.00     0.080 A 
HETATM   16  C11 UNL     1      -3.542  -0.615  -1.701  1.00  0.00     0.063 A 
HETATM   17  C10 UNL     1      -4.691  -0.070  -2.205  1.00  0.00     0.043 A 
HETATM   18 CL1  UNL     1      -3.127  -2.303  -1.980  1.00  0.00    -0.082 Cl
HETATM   19  C6  UNL     1      -5.066   1.253  -2.015  1.00  0.00     0.032 A 
HETATM   20  C5  UNL     1      -4.237   2.074  -1.274  1.00  0.00     0.074 A 
HETATM   21  C29 UNL     1      -3.061   1.520  -0.756  1.00  0.00     0.090 A 
HETATM   22 CL2  UNL     1      -1.995   2.560   0.192  1.00  0.00    -0.079 Cl
BRANCH  19  23
HETATM   23  C7  UNL     1      -6.303   1.698  -2.614  1.00  0.00     0.110 C 
HETATM   24  S1  UNL     1      -6.235   2.573  -3.987  1.00  0.00    -0.060 SA
BRANCH  23  25
HETATM   25  N2  UNL     1      -7.569   1.392  -2.061  1.00  0.00    -0.380 N 
HETATM   26  C8  UNL     1      -8.806   1.875  -2.712  1.00  0.00     0.150 C 
HETATM   27  C9  UNL     1      -7.668   0.597  -0.855  1.00  0.00     0.150 C 
ENDBRANCH  23  25
ENDBRANCH  19  23
BRANCH  20  28
HETATM   28  N1  UNL     1      -4.529   3.441  -1.026  1.00  0.00    -0.316 N 
HETATM   29  C3  UNL     1      -5.117   3.894   0.181  1.00  0.00     0.246 C 
HETATM   30  O1  UNL     1      -5.385   5.106   0.378  1.00  0.00    -0.268 OA
HETATM   31  C4  UNL     1      -4.203   4.429  -2.034  1.00  0.00     0.159 C 
BRANCH  29  32
HETATM   32  C2  UNL     1      -5.448   2.970   1.273  1.00  0.00     0.064 C 
HETATM   33  C1  UNL     1      -5.992   3.372   2.394  1.00  0.00     0.017 C 
ENDBRANCH  29  32
ENDBRANCH  20  28
ENDBRANCH  13  15
ENDBRANCH   1  13
BRANCH  10  34
HETATM   34  O3  UNL     1       3.151  -1.519   0.300  1.00  0.00    -0.339 OA
BRANCH  34  35
HETATM   35  C21 UNL     1       3.202  -0.656  -0.811  1.00  0.00     0.278 C 
BRANCH  35  36
HETATM   36  C22 UNL     1       4.619  -0.504  -1.223  1.00  0.00     0.241 C 
HETATM   37  O4  UNL     1       4.906   0.238  -2.226  1.00  0.00    -0.271 OA
HETATM   38  N6  UNL     1       5.649  -1.177  -0.512  1.00  0.00    -0.358 N 
ATOM     39  H6  UNL     1       5.378  -1.763   0.278  1.00  0.00     0.162 HD
BRANCH  38  40
HETATM   40  C23 UNL     1       7.056  -1.086  -0.835  1.00  0.00     0.152 C 
BRANCH  40  41
HETATM   41  C24 UNL     1       7.519   0.321  -0.705  1.00  0.00     0.290 C 
BRANCH  41  42
HETATM   42  N7  UNL     1       8.931   0.450  -1.023  1.00  0.00     0.081 N 
HETATM   43  C25 UNL     1       9.244   0.226  -2.400  1.00  0.00     0.309 C 
HETATM   44  C26 UNL     1       9.447   1.722  -0.548  1.00  0.00     0.309 C 
ENDBRANCH  41  42
ENDBRANCH  40  41
ENDBRANCH  38  40
ENDBRANCH  35  36
ENDBRANCH  34  35
ENDBRANCH  10  34
BRANCH   9  45
HETATM   45  O2  UNL     1       3.178  -3.256   2.510  1.00  0.00    -0.349 OA
BRANCH  45  46
HETATM   46  C18 UNL     1       3.096  -4.122   3.625  1.00  0.00     0.171 C 
HETATM   47  C19 UNL     1       4.427  -4.635   4.064  1.00  0.00     0.034 C 
ENDBRANCH  45  46
ENDBRANCH   9  45
TORSDOF 14
