REMARK  18 active torsions:
REMARK  status: ('A' for Active; 'I' for Inactive)
REMARK    1  A    between atoms: C2_2  and  C3_3 
REMARK    2  A    between atoms: C3_3  and  C4_4 
REMARK    3  A    between atoms: C4_4  and  C5_5 
REMARK    4  A    between atoms: C5_5  and  O1_6 
REMARK    5  A    between atoms: O1_6  and  C6_7 
REMARK       I    between atoms: C6_7  and  N1_9 
REMARK    6  A    between atoms: C9_13  and  O3_14 
REMARK    7  A    between atoms: C9_13  and  C10_16 
REMARK    8  A    between atoms: C10_16  and  C11_17 
REMARK    9  A    between atoms: C11_17  and  C12_18 
REMARK   10  A    between atoms: C12_18  and  C13_19 
REMARK   11  A    between atoms: C13_19  and  N3_20 
REMARK       I    between atoms: N6_25  and  C15_27 
REMARK   12  A    between atoms: C15_27  and  C16_29 
REMARK   13  A    between atoms: C16_29  and  C23_40 
REMARK       I    between atoms: N7_30  and  C17_32 
REMARK   14  A    between atoms: C17_32  and  O6_34 
REMARK   15  A    between atoms: O6_34  and  C18_35 
REMARK   16  A    between atoms: C18_35  and  C19_36 
REMARK   17  A    between atoms: C23_40  and  C24_41 
REMARK   18  A    between atoms: C24_41  and  C25_42 
ROOT
HETATM    1  C10 UNL     1      -0.387  -0.055   1.178  1.00  0.00     0.063 C 
HETATM    2  N6  UNL     1      -1.630   0.177   0.820  1.00  0.00    -0.321 N 
ATOM      3  H6  UNL     1      -1.871   1.168   0.821  1.00  0.00     0.169 HD
HETATM    4  C15 UNL     1      -2.662  -0.626   0.449  1.00  0.00     0.274 C 
HETATM    5  O4  UNL     1      -2.877  -1.691   1.101  1.00  0.00    -0.266 OA
ENDROOT
BRANCH   1   6
HETATM    6  C9  UNL     1       0.428   1.082   1.509  1.00  0.00     0.161 C 
HETATM    7  N2  UNL     1       1.731   1.244   1.868  1.00  0.00    -0.357 N 
HETATM    8  C8  UNL     1       2.803   0.345   2.012  1.00  0.00     0.145 C 
HETATM    9  C32 UNL     1       2.131   2.669   2.176  1.00  0.00     0.145 C 
HETATM   10  C7  UNL     1       3.758   0.669   0.835  1.00  0.00     0.148 C 
HETATM   11  N1  UNL     1       4.246   1.997   1.052  1.00  0.00    -0.325 N 
HETATM   12  C6  UNL     1       5.480   2.338   0.423  1.00  0.00     0.362 C 
HETATM   13  C33 UNL     1       3.545   2.943   1.861  1.00  0.00     0.148 C 
HETATM   14  O2  UNL     1       5.917   3.502   0.582  1.00  0.00    -0.238 OA
BRANCH  12  15
HETATM   15  O1  UNL     1       6.209   1.473  -0.340  1.00  0.00    -0.304 OA
BRANCH  15  16
HETATM   16  C5  UNL     1       7.430   1.748  -0.992  1.00  0.00     0.180 C 
BRANCH  16  17
HETATM   17  C4  UNL     1       8.541   2.165  -0.090  1.00  0.00     0.027 C 
BRANCH  17  18
HETATM   18  C3  UNL     1       9.772   2.434  -0.922  1.00  0.00     0.002 C 
BRANCH  18  19
HETATM   19  C2  UNL     1      10.225   1.233  -1.680  1.00  0.00    -0.004 C 
HETATM   20  C1  UNL     1      11.463   1.604  -2.479  1.00  0.00     0.005 C 
ENDBRANCH  18  19
ENDBRANCH  17  18
ENDBRANCH  16  17
ENDBRANCH  15  16
ENDBRANCH  12  15
BRANCH   6  21
HETATM   21  O3  UNL     1      -0.316   2.210   1.426  1.00  0.00    -0.345 OA
ATOM     22  H3  UNL     1      -1.225   2.097   1.175  1.00  0.00     0.219 HD
ENDBRANCH   6  21
ENDBRANCH   1   6
BRANCH   1  23
HETATM   23  C11 UNL     1      -0.006  -1.460   1.266  1.00  0.00     0.063 C 
BRANCH  23  24
HETATM   24  C12 UNL     1       0.040  -2.057   2.636  1.00  0.00     0.026 C 
BRANCH  24  25
HETATM   25  C13 UNL     1       0.451  -3.527   2.442  1.00  0.00     0.122 C 
BRANCH  25  26
HETATM   26  N3  UNL     1       0.509  -4.125   3.757  1.00  0.00    -0.367 N 
HETATM   27  C14 UNL     1       1.290  -5.157   3.946  1.00  0.00     0.196 C 
HETATM   28  N4  UNL     1       2.043  -5.646   2.868  1.00  0.00    -0.067 NA
HETATM   29  N5  UNL     1       1.362  -5.768   5.247  1.00  0.00    -0.067 NA
ATOM     30  H3  UNL     1      -0.049  -3.749   4.523  1.00  0.00     0.161 HD
ENDBRANCH  25  26
ENDBRANCH  24  25
ENDBRANCH  23  24
ENDBRANCH   1  23
BRANCH   4  31
HETATM   31  C16 UNL     1      -3.577  -0.357  -0.676  1.00  0.00     0.127 C 
HETATM   32  N7  UNL     1      -3.491   0.643  -1.407  1.00  0.00    -0.296 N 
HETATM   33  C17 UNL     1      -2.772   1.766  -1.619  1.00  0.00     0.365 C 
ATOM     34  H7  UNL     1      -4.237   0.601  -2.102  1.00  0.00     0.171 HD
HETATM   35  O5  UNL     1      -1.609   1.693  -2.151  1.00  0.00    -0.238 OA
BRANCH  33  36
HETATM   36  O6  UNL     1      -3.180   3.079  -1.308  1.00  0.00    -0.303 OA
BRANCH  36  37
HETATM   37  C18 UNL     1      -2.341   4.207  -1.601  1.00  0.00     0.189 C 
BRANCH  37  38
HETATM   38  C19 UNL     1      -3.080   5.443  -1.145  1.00  0.00    -0.029 C 
HETATM   39  C20 UNL     1      -4.418   5.576  -1.850  1.00  0.00     0.016 C 
HETATM   40  C21 UNL     1      -2.235   6.675  -1.456  1.00  0.00     0.016 C 
HETATM   41  C22 UNL     1      -3.301   5.359   0.329  1.00  0.00     0.016 C 
ENDBRANCH  37  38
ENDBRANCH  36  37
ENDBRANCH  33  36
BRANCH  31  42
HETATM   42  C23 UNL     1      -4.650  -1.306  -0.974  1.00  0.00     0.037 C 
HETATM   43  N8  UNL     1      -5.468  -1.112  -1.940  1.00  0.00    -0.396 N 
HETATM   44  C31 UNL     1      -5.569  -0.069  -2.883  1.00  0.00     0.146 C 
ATOM     45  H8  UNL     1      -6.172  -1.842  -2.046  1.00  0.00     0.159 HD
BRANCH  42  46
HETATM   46  C24 UNL     1      -4.852  -2.547  -0.192  1.00  0.00     0.064 C 
BRANCH  46  47
HETATM   47  C25 UNL     1      -6.066  -3.326  -0.734  1.00  0.00    -0.009 C 
HETATM   48  C26 UNL     1      -5.897  -3.727  -2.161  1.00  0.00     0.005 C 
HETATM   49  C27 UNL     1      -6.123  -5.217  -2.293  1.00  0.00     0.000 C 
HETATM   50  C28 UNL     1      -7.384  -5.696  -1.654  1.00  0.00     0.000 C 
HETATM   51  C29 UNL     1      -7.503  -5.268  -0.210  1.00  0.00     0.000 C 
HETATM   52  C30 UNL     1      -6.218  -4.529   0.165  1.00  0.00     0.005 C 
ENDBRANCH  46  47
ENDBRANCH  42  46
ENDBRANCH  31  42
ENDBRANCH   4  31
TORSDOF 18
