REMARK  17 active torsions:
REMARK  status: ('A' for Active; 'I' for Inactive)
REMARK    1  A    between atoms: C2_2  and  C3_3 
REMARK    2  A    between atoms: C4_4  and  S1_5 
REMARK    3  A    between atoms: S1_5  and  C5_6 
REMARK    4  A    between atoms: C8_9  and  O1_10 
REMARK    5  A    between atoms: O1_10  and  C9_11 
REMARK    6  A    between atoms: C11_15  and  O3_16 
REMARK    7  A    between atoms: O3_16  and  C12_17 
REMARK       I    between atoms: C12_17  and  N2_19 
REMARK    8  A    between atoms: N2_19  and  C14_21 
REMARK    9  A    between atoms: C14_21  and  C15_22 
REMARK       I    between atoms: C15_22  and  N3_24 
REMARK   10  A    between atoms: N3_24  and  C16_26 
REMARK   11  A    between atoms: C16_26  and  C17_27 
REMARK   12  A    between atoms: C21_31  and  C22_32 
REMARK   13  A    between atoms: C22_32  and  C23_33 
REMARK   14  A    between atoms: C22_32  and  N4_36 
REMARK   15  A    between atoms: N4_36  and  C26_38 
REMARK   16  A    between atoms: C29_41  and  O7_42 
REMARK   17  A    between atoms: O7_42  and  C30_43 
ROOT
HETATM    1  C3  UNL     1      -3.867   0.984   0.059  1.00  0.00     0.009 C 
HETATM    2  C4  UNL     1      -3.492   2.254  -0.671  1.00  0.00     0.082 C 
HETATM    3  C8  UNL     1      -1.966   2.245  -0.463  1.00  0.00     0.154 C 
HETATM    4  C10 UNL     1      -1.627   0.827  -0.786  1.00  0.00     0.054 C 
HETATM    5  C11 UNL     1      -0.329   0.353  -0.080  1.00  0.00     0.150 C 
HETATM    6  C21 UNL     1      -0.720  -0.737   0.806  1.00  0.00     0.086 C 
HETATM    7  C29 UNL     1      -2.210  -0.649   1.001  1.00  0.00     0.146 C 
HETATM    8  C32 UNL     1      -2.749  -0.023  -0.265  1.00  0.00     0.030 C 
ENDROOT
BRANCH   5   9
HETATM    9  O3  UNL     1       0.631   0.140  -1.066  1.00  0.00    -0.297 OA
BRANCH   9  10
HETATM   10  C12 UNL     1       1.678   1.023  -1.347  1.00  0.00     0.363 C 
HETATM   11  O4  UNL     1       1.737   2.073  -0.665  1.00  0.00    -0.238 OA
HETATM   12  N2  UNL     1       2.640   0.773  -2.346  1.00  0.00    -0.324 N 
HETATM   13  C13 UNL     1       2.561  -0.452  -3.107  1.00  0.00     0.155 C 
BRANCH  12  14
HETATM   14  C14 UNL     1       3.674   1.728  -2.610  1.00  0.00     0.230 C 
BRANCH  14  15
HETATM   15  C15 UNL     1       4.893   1.563  -1.815  1.00  0.00     0.235 C 
HETATM   16  O5  UNL     1       5.852   2.372  -2.009  1.00  0.00    -0.272 OA
HETATM   17  N3  UNL     1       5.038   0.541  -0.842  1.00  0.00    -0.356 N 
ATOM     18  H3  UNL     1       4.276  -0.116  -0.677  1.00  0.00     0.162 HD
BRANCH  17  19
HETATM   19  C16 UNL     1       6.279   0.427  -0.074  1.00  0.00     0.150 C 
BRANCH  19  20
HETATM   20  C17 UNL     1       6.198  -0.689   0.874  1.00  0.00    -0.005 C 
HETATM   21  C18 UNL     1       7.045  -1.700   0.830  1.00  0.00    -0.090 C 
HETATM   22  C19 UNL     1       8.106  -1.712  -0.203  1.00  0.00     0.042 C 
HETATM   23  C20 UNL     1       6.970  -2.836   1.789  1.00  0.00     0.042 C 
ENDBRANCH  19  20
ENDBRANCH  17  19
ENDBRANCH  14  15
ENDBRANCH  12  14
ENDBRANCH   9  10
ENDBRANCH   5   9
BRANCH   6  24
HETATM   24  C22 UNL     1      -0.073  -2.056   0.782  1.00  0.00     0.300 C 
BRANCH  24  25
HETATM   25  C23 UNL     1       1.370  -1.759   1.223  1.00  0.00     0.157 C 
HETATM   26  C24 UNL     1       1.658  -1.243   2.584  1.00  0.00     0.093 C 
HETATM   27  O6  UNL     1       2.253  -1.947   0.464  1.00  0.00    -0.296 OA
ENDBRANCH  24  25
BRANCH  24  28
HETATM   28  N4  UNL     1       0.123  -2.703  -0.496  1.00  0.00     0.100 N 
HETATM   29  C25 UNL     1      -1.046  -2.921  -1.289  1.00  0.00     0.311 C 
BRANCH  28  30
HETATM   30  C26 UNL     1       0.657  -4.063  -0.293  1.00  0.00     0.215 C 
HETATM   31  C27 UNL     1      -0.403  -4.855   0.426  1.00  0.00     0.042 C 
HETATM   32  C28 UNL     1       0.913  -4.693  -1.641  1.00  0.00     0.042 C 
ENDBRANCH  28  30
ENDBRANCH  24  28
ENDBRANCH   6  24
BRANCH   3  33
HETATM   33  O1  UNL     1      -1.805   2.455   0.935  1.00  0.00    -0.299 OA
BRANCH  33  34
HETATM   34  C9  UNL     1      -1.088   3.473   1.501  1.00  0.00     0.373 C 
HETATM   35  N1  UNL     1      -1.021   3.550   2.910  1.00  0.00    -0.032 NA
HETATM   36  O2  UNL     1      -0.517   4.302   0.760  1.00  0.00    -0.242 OA
ENDBRANCH  33  34
ENDBRANCH   3  33
BRANCH   7  37
HETATM   37  O7  UNL     1      -2.853  -1.773   1.463  1.00  0.00    -0.315 OA
BRANCH  37  38
HETATM   38  C30 UNL     1      -3.611  -1.867   2.617  1.00  0.00     0.255 C 
HETATM   39  C31 UNL     1      -4.237  -3.149   2.975  1.00  0.00     0.126 C 
HETATM   40  O8  UNL     1      -3.728  -0.834   3.314  1.00  0.00    -0.266 OA
ENDBRANCH  37  38
ENDBRANCH   7  37
BRANCH   2  41
HETATM   41  S1  UNL     1      -4.188   3.655   0.255  1.00  0.00    -0.157 SA
BRANCH  41  42
HETATM   42  C5  UNL     1      -3.793   5.173  -0.639  1.00  0.00     0.039 C 
HETATM   43  C6  UNL     1      -4.337   6.382   0.127  1.00  0.00     0.021 C 
HETATM   44  C7  UNL     1      -4.482   5.106  -2.002  1.00  0.00     0.021 C 
ENDBRANCH  41  42
ENDBRANCH   2  41
BRANCH   1  45
HETATM   45  C2  UNL     1      -5.191   0.483  -0.469  1.00  0.00     0.002 C 
HETATM   46  C1  UNL     1      -6.250   1.516  -0.247  1.00  0.00     0.005 C 
ENDBRANCH   1  45
TORSDOF 17
