REMARK  14 active torsions:
REMARK  status: ('A' for Active; 'I' for Inactive)
REMARK    1  A    between atoms: C2_2  and  C3_3 
REMARK    2  A    between atoms: C3_3  and  C5_5 
REMARK    3  A    between atoms: C3_3  and  C12_20 
REMARK       I    between atoms: C5_5  and  N1_7 
REMARK    4  A    between atoms: N1_7  and  C6_9 
REMARK    5  A    between atoms: C6_9  and  C7_10 
REMARK    6  A    between atoms: C9_13  and  C10_14 
REMARK    7  A    between atoms: C10_14  and  O3_16 
REMARK    8  A    between atoms: C12_20  and  C13_21 
REMARK    9  A    between atoms: C12_20  and  N3_25 
REMARK   10  A    between atoms: C13_21  and  C14_22 
REMARK   11  A    between atoms: C14_22  and  C15_23 
REMARK       I    between atoms: N3_25  and  C17_26 
REMARK   12  A    between atoms: C17_26  and  C18_28 
REMARK       I    between atoms: N4_34  and  C23_35 
REMARK   13  A    between atoms: C23_35  and  C24_37 
REMARK   14  A    between atoms: C31_44  and  O7_45 
ROOT
HETATM    1  C12 UNL     1       2.049  -1.983  -1.104  1.00  0.00     0.087 C 
ENDROOT
BRANCH   1   2
HETATM    2  C3  UNL     1       2.983  -0.876  -1.581  1.00  0.00     0.106 C 
HETATM    3  C4  UNL     1       2.309   0.422  -1.767  1.00  0.00     0.037 C 
BRANCH   2   4
HETATM    4  C2  UNL     1       3.567  -1.377  -2.899  1.00  0.00    -0.011 C 
HETATM    5  C1  UNL     1       2.568  -1.500  -3.871  1.00  0.00     0.008 C 
ENDBRANCH   2   4
BRANCH   2   6
HETATM    6  C5  UNL     1       4.199  -0.700  -0.726  1.00  0.00     0.240 C 
HETATM    7  O1  UNL     1       4.304  -1.103   0.453  1.00  0.00    -0.272 OA
HETATM    8  N1  UNL     1       5.288  -0.037  -1.336  1.00  0.00    -0.334 N 
ATOM      9  H1  UNL     1       5.129   0.283  -2.291  1.00  0.00     0.168 HD
BRANCH   8  10
HETATM   10  C6  UNL     1       6.549   0.239  -0.812  1.00  0.00     0.121 C 
BRANCH  10  11
HETATM   11  C7  UNL     1       6.679   1.430   0.117  1.00  0.00     0.055 A 
HETATM   12  C8  UNL     1       5.654   2.236   0.504  1.00  0.00     0.082 A 
HETATM   13  S1  UNL     1       6.493   3.296   1.521  1.00  0.00    -0.076 SA
HETATM   14  C9  UNL     1       7.991   2.737   1.436  1.00  0.00     0.150 A 
HETATM   15  N2  UNL     1       7.930   1.642   0.569  1.00  0.00    -0.344 N 
ATOM     16  H2  UNL     1       8.736   1.072   0.310  1.00  0.00     0.167 HD
BRANCH  14  17
HETATM   17  C10 UNL     1       9.310   3.082   2.079  1.00  0.00     0.317 C 
HETATM   18  O2  UNL     1      10.313   2.469   1.767  1.00  0.00    -0.257 OA
BRANCH  17  19
HETATM   19  O3  UNL     1       9.301   4.087   3.010  1.00  0.00    -0.321 OA
HETATM   20  C11 UNL     1      10.505   4.479   3.689  1.00  0.00     0.213 C 
ENDBRANCH  17  19
ENDBRANCH  14  17
ENDBRANCH  10  11
ENDBRANCH   8  10
ENDBRANCH   2   6
ENDBRANCH   1   2
BRANCH   1  21
HETATM   21  C13 UNL     1       2.735  -3.266  -0.897  1.00  0.00     0.070 C 
BRANCH  21  22
HETATM   22  C14 UNL     1       1.844  -4.418  -0.457  1.00  0.00     0.006 C 
BRANCH  22  23
HETATM   23  C15 UNL     1       0.763  -4.602  -1.495  1.00  0.00    -0.004 C 
HETATM   24  C16 UNL     1       1.372  -4.960  -2.807  1.00  0.00     0.005 C 
ENDBRANCH  22  23
ENDBRANCH  21  22
ENDBRANCH   1  21
BRANCH   1  25
HETATM   25  N3  UNL     1       1.022  -1.530  -0.287  1.00  0.00    -0.376 NA
HETATM   26  C17 UNL     1       0.010  -1.083   0.519  1.00  0.00     0.317 C 
HETATM   27  O4  UNL     1      -0.057  -0.343   1.481  1.00  0.00    -0.255 OA
BRANCH  26  28
HETATM   28  C18 UNL     1      -1.369  -1.653   0.100  1.00  0.00     0.226 C 
HETATM   29  C19 UNL     1      -1.490  -2.871   1.031  1.00  0.00     0.157 C 
HETATM   30  C20 UNL     1      -2.612  -3.759   0.533  1.00  0.00     0.039 C 
HETATM   31  O5  UNL     1      -2.063  -2.286   2.157  1.00  0.00    -0.359 OA
HETATM   32  C21 UNL     1      -3.801  -2.852   0.828  1.00  0.00     0.056 C 
HETATM   33  C22 UNL     1      -3.174  -1.686   1.510  1.00  0.00     0.227 C 
HETATM   34  N4  UNL     1      -2.462  -0.859   0.547  1.00  0.00    -0.308 N 
HETATM   35  C23 UNL     1      -2.834   0.464   0.170  1.00  0.00     0.227 C 
HETATM   36  O6  UNL     1      -2.067   1.039  -0.659  1.00  0.00    -0.273 OA
BRANCH  35  37
HETATM   37  C24 UNL     1      -4.019   1.143   0.681  1.00  0.00     0.086 C 
HETATM   38  C25 UNL     1      -5.331   0.645   0.177  1.00  0.00     0.002 C 
HETATM   39  C26 UNL     1      -5.629   1.119  -1.235  1.00  0.00     0.010 C 
HETATM   40  C34 UNL     1      -6.424   1.241   1.074  1.00  0.00     0.043 C 
HETATM   41  C27 UNL     1      -5.588   2.626  -1.290  1.00  0.00    -0.011 C 
HETATM   42  C28 UNL     1      -4.219   3.089  -0.914  1.00  0.00     0.010 C 
HETATM   43  C33 UNL     1      -6.661   3.173  -0.396  1.00  0.00     0.042 C 
HETATM   44  C29 UNL     1      -3.944   2.645   0.505  1.00  0.00     0.002 C 
HETATM   45  C30 UNL     1      -5.000   3.258   1.398  1.00  0.00     0.043 C 
HETATM   46  C31 UNL     1      -6.360   2.746   1.047  1.00  0.00     0.061 C 
BRANCH  46  47
HETATM   47  O7  UNL     1      -7.319   3.253   1.891  1.00  0.00    -0.385 OA
HETATM   48  C32 UNL     1      -7.191   2.942   3.209  1.00  0.00     0.202 C 
ENDBRANCH  46  47
ENDBRANCH  35  37
ENDBRANCH  26  28
ENDBRANCH   1  25
TORSDOF 14
