REMARK  13 active torsions:
REMARK  status: ('A' for Active; 'I' for Inactive)
REMARK    1  A    between atoms: C2_2  and  C3_3 
REMARK    2  A    between atoms: C3_3  and  C4_4 
REMARK       I    between atoms: C4_4  and  N1_6 
REMARK    3  A    between atoms: N1_6  and  C5_7 
REMARK    4  A    between atoms: N1_6  and  C9_12 
REMARK    5  A    between atoms: C5_7  and  C6_8 
REMARK    6  A    between atoms: C6_8  and  N2_9 
REMARK    7  A    between atoms: C10_13  and  C11_14 
REMARK    8  A    between atoms: C11_14  and  C12_15 
REMARK    9  A    between atoms: C12_15  and  O3_17 
REMARK   10  A    between atoms: C23_29  and  S1_30 
REMARK   11  A    between atoms: S1_30  and  C24_33 
REMARK   12  A    between atoms: C24_33  and  C25_34 
REMARK   13  A    between atoms: C25_34  and  N3_35 
ROOT
HETATM    1  C11 UNL     1      -2.323  -0.694  -0.041  1.00  0.00     0.134 C 
HETATM    2  C14 UNL     1      -2.482  -1.907   0.889  1.00  0.00     0.045 C 
HETATM    3  C15 UNL     1      -1.316  -2.839   0.855  1.00  0.00     0.003 C 
HETATM    4  C16 UNL     1      -1.763  -4.262   1.114  1.00  0.00     0.000 C 
HETATM    5  C17 UNL     1      -0.730  -5.286   0.801  1.00  0.00     0.000 C 
HETATM    6  C18 UNL     1      -0.054  -5.128  -0.515  1.00  0.00     0.000 C 
HETATM    7  C19 UNL     1       1.383  -4.724  -0.267  1.00  0.00     0.002 C 
HETATM    8  C20 UNL     1       1.999  -4.037  -1.466  1.00  0.00     0.026 C 
HETATM    9  C21 UNL     1       3.266  -3.314  -1.071  1.00  0.00     0.167 C 
HETATM   10  O4  UNL     1       3.247  -1.968  -1.336  1.00  0.00    -0.390 OA
HETATM   11  C22 UNL     1       2.375  -1.321  -0.428  1.00  0.00     0.187 C 
HETATM   12  C23 UNL     1       2.179   0.130  -0.771  1.00  0.00     0.133 C 
HETATM   13  C32 UNL     1       0.947   0.451  -1.528  1.00  0.00     0.041 C 
HETATM   14  C33 UNL     1      -0.340   0.542  -0.786  1.00  0.00     0.116 C 
HETATM   15  N5  UNL     1      -0.868  -0.694  -0.348  1.00  0.00    -0.401 N 
ATOM     16  H5  UNL     1      -0.290  -1.529  -0.249  1.00  0.00     0.154 HD
ENDROOT
BRANCH   1  17
HETATM   17  C10 UNL     1      -2.708   0.536   0.613  1.00  0.00     0.031 C 
HETATM   18  C9  UNL     1      -3.990   0.980   1.108  1.00  0.00     0.093 C 
BRANCH  18  19
HETATM   19  N1  UNL     1      -5.138   1.137   0.280  1.00  0.00    -0.327 N 
HETATM   20  C4  UNL     1      -6.235   0.252   0.144  1.00  0.00     0.223 C 
HETATM   21  O1  UNL     1      -7.114   0.476  -0.744  1.00  0.00    -0.273 OA
BRANCH  20  22
HETATM   22  C3  UNL     1      -6.352  -0.917   1.038  1.00  0.00     0.103 C 
BRANCH  22  23
HETATM   23  C2  UNL     1      -7.659  -1.662   0.799  1.00  0.00     0.005 C 
HETATM   24  C1  UNL     1      -8.861  -0.799   1.043  1.00  0.00     0.005 C 
ENDBRANCH  22  23
ENDBRANCH  20  22
BRANCH  19  25
HETATM   25  C5  UNL     1      -5.118   2.361  -0.576  1.00  0.00     0.161 C 
BRANCH  25  26
HETATM   26  C6  UNL     1      -5.819   3.411   0.216  1.00  0.00     0.291 C 
BRANCH  26  27
HETATM   27  N2  UNL     1      -5.925   4.691  -0.401  1.00  0.00     0.081 N 
HETATM   28  C7  UNL     1      -4.640   5.350  -0.523  1.00  0.00     0.309 C 
HETATM   29  C8  UNL     1      -6.787   5.532   0.407  1.00  0.00     0.309 C 
ENDBRANCH  26  27
ENDBRANCH  25  26
ENDBRANCH  19  25
ENDBRANCH  18  19
ENDBRANCH   1  17
BRANCH   1  30
HETATM   30  C12 UNL     1      -2.972  -0.974  -1.321  1.00  0.00     0.290 C 
HETATM   31  O2  UNL     1      -2.546  -0.400  -2.386  1.00  0.00    -0.262 OA
BRANCH  30  32
HETATM   32  O3  UNL     1      -4.034  -1.825  -1.553  1.00  0.00    -0.324 OA
HETATM   33  C13 UNL     1      -4.587  -2.030  -2.861  1.00  0.00     0.213 C 
ENDBRANCH  30  32
ENDBRANCH   1  30
BRANCH  12  34
HETATM   34  S1  UNL     1       2.530   1.190   0.597  1.00  0.00     0.152 S 
HETATM   35  O5  UNL     1       2.536   2.631   0.221  1.00  0.00    -0.227 OA
HETATM   36  O6  UNL     1       1.563   0.873   1.705  1.00  0.00    -0.227 OA
BRANCH  34  37
HETATM   37  C24 UNL     1       4.161   0.825   1.252  1.00  0.00     0.171 C 
BRANCH  37  38
HETATM   38  C25 UNL     1       5.144   1.067   0.130  1.00  0.00     0.289 C 
BRANCH  38  39
HETATM   39  N3  UNL     1       6.510   0.809   0.550  1.00  0.00     0.114 N 
HETATM   40  C26 UNL     1       7.352   1.068  -0.623  1.00  0.00     0.277 C 
HETATM   41  C27 UNL     1       8.784   0.843  -0.211  1.00  0.00     0.068 C 
HETATM   42  C28 UNL     1       9.119   1.933   0.795  1.00  0.00     0.122 C 
HETATM   43  C29 UNL     1      10.541   1.763   1.232  1.00  0.00     0.046 C 
HETATM   44  C30 UNL     1       8.983   3.276   0.111  1.00  0.00     0.046 C 
HETATM   45  N4  UNL     1       8.235   1.789   1.914  1.00  0.00    -0.041 N 
HETATM   46  C31 UNL     1       6.841   1.777   1.571  1.00  0.00     0.503 C 
ATOM     47  H42 UNL     1       8.476   0.957   2.453  1.00  0.00     0.280 HD
ATOM     48  H41 UNL     1       8.424   2.509   2.611  1.00  0.00     0.280 HD
ENDBRANCH  38  39
ENDBRANCH  37  38
ENDBRANCH  34  37
ENDBRANCH  12  34
TORSDOF 13
