REMARK  16 active torsions:
REMARK  status: ('A' for Active; 'I' for Inactive)
REMARK    1  A    between atoms: C2_5  and  C3_6 
REMARK    2  A    between atoms: C5_11  and  C6_12 
REMARK    3  A    between atoms: C6_12  and  C7_13 
REMARK    4  A    between atoms: C6_12  and  N4_35 
REMARK    5  A    between atoms: C6_12  and  C28_45 
REMARK    6  A    between atoms: C7_13  and  C8_14 
REMARK    7  A    between atoms: C8_14  and  C9_15 
REMARK    8  A    between atoms: C9_15  and  C10_16 
REMARK    9  A    between atoms: N3_18  and  S1_19 
REMARK   10  A    between atoms: S1_19  and  C12_22 
REMARK   11  A    between atoms: C12_22  and  C13_23 
REMARK   12  A    between atoms: N4_35  and  S2_37 
REMARK   13  A    between atoms: S2_37  and  C25_40 
REMARK   14  A    between atoms: C25_40  and  C26_41 
REMARK   15  A    between atoms: C26_41  and  C27_42 
REMARK   16  A    between atoms: C27_42  and  O5_43 
ROOT
HETATM    1  C6  UNL     1      -3.695   0.032  -0.789  1.00  0.00     0.087 C 
ENDROOT
BRANCH   1   2
HETATM    2  C5  UNL     1      -4.381  -0.939   0.104  1.00  0.00     0.059 A 
HETATM    3  N1  UNL     1      -4.590  -0.876   1.420  1.00  0.00    -0.298 N 
HETATM    4  C1  UNL     1      -4.222   0.134   2.403  1.00  0.00     0.177 C 
HETATM    5  N2  UNL     1      -5.274  -1.981   1.797  1.00  0.00    -0.294 N 
HETATM    6  C2  UNL     1      -5.513  -2.754   0.758  1.00  0.00     0.134 A 
ATOM      7  H2  UNL     1      -5.564  -2.187   2.753  1.00  0.00     0.187 HD
HETATM    8  C4  UNL     1      -4.963  -2.134  -0.340  1.00  0.00     0.065 A 
BRANCH   6   9
HETATM    9  C3  UNL     1      -6.253  -4.060   0.714  1.00  0.00     0.434 C 
HETATM   10  F1  UNL     1      -7.579  -3.772   0.354  1.00  0.00    -0.165 F 
HETATM   11  F2  UNL     1      -6.209  -4.697   1.920  1.00  0.00    -0.165 F 
HETATM   12  F3  UNL     1      -5.715  -4.845  -0.294  1.00  0.00    -0.165 F 
ENDBRANCH   6   9
ENDBRANCH   1   2
BRANCH   1  13
HETATM   13  C7  UNL     1      -2.310   0.276  -0.315  1.00  0.00     0.038 C 
BRANCH  13  14
HETATM   14  C8  UNL     1      -1.452  -0.947  -0.018  1.00  0.00     0.004 C 
BRANCH  14  15
HETATM   15  C9  UNL     1      -0.116  -0.505   0.459  1.00  0.00     0.011 C 
BRANCH  15  16
HETATM   16  C10 UNL     1       0.940  -0.048  -0.466  1.00  0.00     0.033 C 
HETATM   17  C11 UNL     1       2.020   0.580   0.391  1.00  0.00     0.081 C 
HETATM   18  N3  UNL     1       3.092  -0.126   0.898  1.00  0.00    -0.290 N 
HETATM   19  C19 UNL     1       3.474  -1.391   0.445  1.00  0.00     0.141 C 
HETATM   20  C20 UNL     1       2.282  -2.161  -0.129  1.00  0.00     0.031 C 
HETATM   21  C21 UNL     1       1.641  -1.257  -1.138  1.00  0.00    -0.031 C 
HETATM   22  C22 UNL     1       2.745  -0.665  -2.052  1.00  0.00     0.010 C 
HETATM   23  C24 UNL     1       1.102  -1.884  -2.340  1.00  0.00     0.010 C 
HETATM   24  C23 UNL     1       1.755  -0.800  -3.225  1.00  0.00     0.002 C 
BRANCH  18  25
HETATM   25  S1  UNL     1       4.395   0.911   1.349  1.00  0.00     0.232 S 
HETATM   26  O1  UNL     1       4.581   0.797   2.839  1.00  0.00    -0.205 OA
HETATM   27  O2  UNL     1       3.926   2.337   1.079  1.00  0.00    -0.205 OA
BRANCH  25  28
HETATM   28  C12 UNL     1       5.841   0.650   0.440  1.00  0.00     0.168 C 
BRANCH  28  29
HETATM   29  C13 UNL     1       6.608  -0.598   0.601  1.00  0.00     0.001 C 
HETATM   30  C14 UNL     1       7.790  -0.534  -0.385  1.00  0.00     0.005 C 
HETATM   31  C15 UNL     1       8.621   0.669  -0.168  1.00  0.00     0.000 C 
HETATM   32  C16 UNL     1       9.084   0.895   1.245  1.00  0.00     0.000 C 
HETATM   33  C17 UNL     1       8.007   0.631   2.259  1.00  0.00     0.000 C 
HETATM   34  C18 UNL     1       7.309  -0.651   1.974  1.00  0.00     0.005 C 
ENDBRANCH  28  29
ENDBRANCH  25  28
ENDBRANCH  18  25
ENDBRANCH  15  16
ENDBRANCH  14  15
ENDBRANCH  13  14
ENDBRANCH   1  13
BRANCH   1  35
HETATM   35  N4  UNL     1      -4.396   1.314  -0.526  1.00  0.00    -0.303 N 
ATOM     36  H4  UNL     1      -3.927   2.071  -0.028  1.00  0.00     0.173 HD
BRANCH  35  37
HETATM   37  S2  UNL     1      -5.951   1.491  -1.056  1.00  0.00     0.227 S 
HETATM   38  O3  UNL     1      -6.184   2.753  -1.873  1.00  0.00    -0.206 OA
HETATM   39  O4  UNL     1      -6.450   0.385  -1.945  1.00  0.00    -0.206 OA
BRANCH  37  40
HETATM   40  C25 UNL     1      -7.096   1.604   0.295  1.00  0.00     0.165 C 
BRANCH  40  41
HETATM   41  C26 UNL     1      -6.862   2.748   1.212  1.00  0.00     0.043 C 
BRANCH  41  42
HETATM   42  C27 UNL     1      -6.936   4.110   0.621  1.00  0.00     0.165 C 
BRANCH  42  43
HETATM   43  O5  UNL     1      -6.712   5.023   1.691  1.00  0.00    -0.401 OA
ATOM     44  H5  UNL     1      -6.759   5.893   1.313  1.00  0.00     0.209 HD
ENDBRANCH  42  43
ENDBRANCH  41  42
ENDBRANCH  40  41
ENDBRANCH  37  40
ENDBRANCH  35  37
ENDBRANCH   1  35
BRANCH   1  45
HETATM   45  C28 UNL     1      -3.783  -0.311  -2.221  1.00  0.00     0.020 A 
HETATM   46  C29 UNL     1      -3.292   0.619  -3.286  1.00  0.00     0.008 A 
HETATM   47  C30 UNL     1      -2.553  -0.636  -3.004  1.00  0.00     0.008 A 
ENDBRANCH   1  45
TORSDOF 16
