REMARK  13 active torsions:
REMARK  status: ('A' for Active; 'I' for Inactive)
REMARK    1  A    between atoms: C7_8  and  N1_9 
REMARK    2  A    between atoms: N1_9  and  C8_10 
REMARK       I    between atoms: N1_9  and  C22_31 
REMARK    3  A    between atoms: C8_10  and  C9_11 
REMARK    4  A    between atoms: C9_11  and  N2_12 
REMARK    5  A    between atoms: C12_15  and  C13_16 
REMARK    6  A    between atoms: C13_16  and  N3_17 
REMARK    7  A    between atoms: N3_17  and  C14_19 
REMARK    8  A    between atoms: C14_19  and  C15_20 
REMARK    9  A    between atoms: C14_19  and  C17_24 
REMARK   10  A    between atoms: C15_20  and  S1_21 
REMARK   11  A    between atoms: C22_31  and  C23_33 
REMARK   12  A    between atoms: C23_33  and  C24_34 
REMARK   13  A    between atoms: C24_34  and  C25_35 
REMARK       I    between atoms: C25_35  and  N5_37 
ROOT
HETATM    1  S1  UNL     1     -10.273  -0.369  -0.001  1.00  0.00    -0.049 SA
HETATM    2  C16 UNL     1     -11.029   0.342   1.444  1.00  0.00     0.133 C 
HETATM    3  N4  UNL     1     -11.510   0.798   2.405  1.00  0.00    -0.184 NA
ENDROOT
BRANCH   1   4
HETATM    4  C15 UNL     1      -8.532   0.024   0.019  1.00  0.00     0.115 C 
BRANCH   4   5
HETATM    5  C14 UNL     1      -7.743  -0.521  -1.172  1.00  0.00     0.095 C 
BRANCH   5   6
HETATM    6  N3  UNL     1      -6.375  -0.075  -0.902  1.00  0.00    -0.415 N 
ATOM      7  H3  UNL     1      -6.170   0.743  -0.328  1.00  0.00     0.153 HD
BRANCH   6   8
HETATM    8  C13 UNL     1      -5.354  -0.864  -1.497  1.00  0.00     0.118 C 
BRANCH   8   9
HETATM    9  C12 UNL     1      -4.028  -0.211  -1.070  1.00  0.00     0.006 C 
HETATM   10  C11 UNL     1      -4.050  -0.271   0.444  1.00  0.00     0.026 C 
HETATM   11  C10 UNL     1      -2.757   0.191   1.049  1.00  0.00     0.122 C 
HETATM   12  N2  UNL     1      -1.653  -0.373   0.347  1.00  0.00    -0.392 N 
HETATM   13  C21 UNL     1      -2.005  -1.483  -0.506  1.00  0.00     0.122 C 
HETATM   14  C20 UNL     1      -2.857  -0.924  -1.649  1.00  0.00     0.026 C 
BRANCH  12  15
HETATM   15  C9  UNL     1      -0.717   0.516  -0.198  1.00  0.00     0.078 C 
BRANCH  15  16
HETATM   16  C8  UNL     1       0.129   1.353   0.648  1.00  0.00     0.176 C 
BRANCH  16  17
HETATM   17  N1  UNL     1       1.043   0.741   1.578  1.00  0.00    -0.311 N 
HETATM   18  C22 UNL     1       2.389   0.410   1.157  1.00  0.00     0.225 C 
HETATM   19  O1  UNL     1       2.590   0.460  -0.101  1.00  0.00    -0.273 OA
BRANCH  17  20
HETATM   20  C7  UNL     1       0.745   0.520   2.944  1.00  0.00     0.065 A 
HETATM   21  C2  UNL     1       0.506  -0.697   3.503  1.00  0.00    -0.033 A 
HETATM   22  C1  UNL     1       0.529  -1.975   2.761  1.00  0.00     0.050 C 
HETATM   23  C3  UNL     1       0.216  -0.824   4.869  1.00  0.00     0.009 A 
HETATM   24  C4  UNL     1       0.161   0.268   5.699  1.00  0.00     0.002 A 
HETATM   25  C5  UNL     1       0.402   1.512   5.146  1.00  0.00     0.026 A 
HETATM   26  C6  UNL     1       0.684   1.616   3.809  1.00  0.00     0.061 A 
HETATM   27 CL1  UNL     1       0.987   3.217   3.171  1.00  0.00    -0.082 Cl
ENDBRANCH  17  20
BRANCH  18  28
HETATM   28  C23 UNL     1       3.478   0.042   2.041  1.00  0.00     0.112 C 
BRANCH  28  29
HETATM   29  C24 UNL     1       4.759  -0.140   1.298  1.00  0.00     0.112 C 
BRANCH  29  30
HETATM   30  C25 UNL     1       5.196   1.127   0.660  1.00  0.00     0.220 C 
HETATM   31  O2  UNL     1       4.518   2.164   0.889  1.00  0.00    -0.273 OA
HETATM   32  N5  UNL     1       6.346   1.149  -0.181  1.00  0.00    -0.349 N 
HETATM   33  C26 UNL     1       6.777   2.336  -0.837  1.00  0.00     0.145 C 
HETATM   34  C32 UNL     1       7.101  -0.052  -0.359  1.00  0.00     0.150 C 
HETATM   35  C27 UNL     1       7.016   2.019  -2.296  1.00  0.00     0.137 C 
HETATM   36  N6  UNL     1       7.603   0.761  -2.563  1.00  0.00    -0.405 N 
HETATM   37  C28 UNL     1       9.011   0.737  -2.749  1.00  0.00     0.117 C 
HETATM   38  C31 UNL     1       7.159  -0.358  -1.820  1.00  0.00     0.097 C 
HETATM   39  C29 UNL     1       9.488  -0.562  -2.098  1.00  0.00     0.021 C 
HETATM   40  C30 UNL     1       8.219  -1.414  -2.078  1.00  0.00     0.028 C 
ENDBRANCH  29  30
ENDBRANCH  28  29
ENDBRANCH  18  28
ENDBRANCH  16  17
ENDBRANCH  15  16
ENDBRANCH  12  15
ENDBRANCH   8   9
ENDBRANCH   6   8
ENDBRANCH   5   6
BRANCH   5  41
HETATM   41  C17 UNL     1      -8.232   0.030  -2.466  1.00  0.00     0.068 A 
HETATM   42  C18 UNL     1      -9.588  -0.255  -3.033  1.00  0.00     0.072 A 
HETATM   43  C19 UNL     1      -8.421  -0.977  -3.613  1.00  0.00     0.185 A 
HETATM   44  F1  UNL     1      -8.303  -2.318  -3.306  1.00  0.00    -0.225 F 
HETATM   45 CL2  UNL     1      -7.782  -0.535  -5.197  1.00  0.00    -0.082 Cl
ENDBRANCH   5  41
ENDBRANCH   4   5
ENDBRANCH   1   4
TORSDOF 13
