REMARK  16 active torsions:
REMARK  status: ('A' for Active; 'I' for Inactive)
REMARK    1  A    between atoms: C2_2  and  C3_3 
REMARK    2  A    between atoms: C3_3  and  C4_4 
REMARK    3  A    between atoms: C6_7  and  O1_8 
REMARK    4  A    between atoms: O1_8  and  C7_9 
REMARK    5  A    between atoms: C7_9  and  C8_10 
REMARK    6  A    between atoms: C8_10  and  O2_11 
REMARK    7  A    between atoms: C8_10  and  N1_13 
REMARK    8  A    between atoms: N1_13  and  C9_14 
REMARK    9  A    between atoms: N1_13  and  C12_18 
REMARK   10  A    between atoms: C9_14  and  C10_15 
REMARK   11  A    between atoms: C10_15  and  O3_16 
REMARK   12  A    between atoms: C15_21  and  N2_22 
REMARK   13  A    between atoms: N2_22  and  C16_24 
REMARK   14  A    between atoms: C16_24  and  C17_25 
REMARK   15  A    between atoms: C26_39  and  C27_40 
REMARK       I    between atoms: C27_40  and  N5_42 
REMARK   16  A    between atoms: N6_45  and  C30_46 
ROOT
HETATM    1  C8  UNL     1      -1.214   0.601  -1.647  1.00  0.00     0.143 C 
ENDROOT
BRANCH   1   2
HETATM    2  C7  UNL     1       0.246   0.594  -1.712  1.00  0.00     0.260 C 
BRANCH   2   3
HETATM    3  O1  UNL     1       0.912  -0.378  -0.981  1.00  0.00    -0.341 OA
BRANCH   3   4
HETATM    4  C6  UNL     1       2.294  -0.466  -0.990  1.00  0.00     0.094 A 
HETATM    5  C5  UNL     1       2.987  -1.411  -0.286  1.00  0.00     0.074 A 
HETATM    6  C4  UNL     1       4.389  -1.474  -0.316  1.00  0.00    -0.015 A 
HETATM    7 CL1  UNL     1       2.113  -2.572   0.706  1.00  0.00    -0.081 Cl
HETATM    8  C26 UNL     1       5.084  -0.556  -1.075  1.00  0.00     0.078 A 
HETATM    9  C25 UNL     1       4.375   0.413  -1.796  1.00  0.00     0.135 A 
HETATM   10  C24 UNL     1       3.006   0.440  -1.741  1.00  0.00     0.081 A 
HETATM   11  F2  UNL     1       5.040   1.335  -2.557  1.00  0.00    -0.205 F 
BRANCH   6  12
HETATM   12  C3  UNL     1       5.122  -2.478   0.475  1.00  0.00     0.041 C 
BRANCH  12  13
HETATM   13  C2  UNL     1       5.020  -3.889   0.031  1.00  0.00     0.000 C 
HETATM   14  C1  UNL     1       5.513  -4.068  -1.372  1.00  0.00     0.005 C 
ENDBRANCH  12  13
ENDBRANCH   6  12
BRANCH   8  15
HETATM   15  C27 UNL     1       6.531  -0.471  -1.175  1.00  0.00     0.257 C 
HETATM   16  O4  UNL     1       7.155  -1.074  -2.052  1.00  0.00    -0.267 OA
HETATM   17  N5  UNL     1       7.216   0.328  -0.233  1.00  0.00    -0.344 N 
HETATM   18  C28 UNL     1       8.656   0.424  -0.315  1.00  0.00     0.156 C 
HETATM   19  C33 UNL     1       6.552   1.058   0.810  1.00  0.00     0.156 C 
HETATM   20  C29 UNL     1       9.150   0.776   1.076  1.00  0.00     0.292 C 
HETATM   21  N6  UNL     1       8.685   2.083   1.474  1.00  0.00     0.091 N 
HETATM   22  C32 UNL     1       7.297   2.296   1.245  1.00  0.00     0.292 C 
BRANCH  21  23
HETATM   23  C30 UNL     1       9.437   3.153   0.882  1.00  0.00     0.268 C 
HETATM   24  C31 UNL     1      10.855   3.225   1.400  1.00  0.00     0.037 C 
ENDBRANCH  21  23
ENDBRANCH   8  15
ENDBRANCH   3   4
ENDBRANCH   2   3
ENDBRANCH   1   2
BRANCH   1  25
HETATM   25  O2  UNL     1      -1.802   1.504  -2.378  1.00  0.00    -0.348 OA
ATOM     26  H2  UNL     1      -2.751   1.509  -2.336  1.00  0.00     0.219 HD
ENDBRANCH   1  25
BRANCH   1  27
HETATM   27  N1  UNL     1      -2.053  -0.227  -0.910  1.00  0.00    -0.325 N 
BRANCH  27  28
HETATM   28  C9  UNL     1      -1.613  -1.254   0.016  1.00  0.00     0.157 C 
BRANCH  28  29
HETATM   29  C10 UNL     1      -1.449  -0.718   1.404  1.00  0.00     0.187 C 
BRANCH  29  30
HETATM   30  O3  UNL     1      -1.030  -1.651   2.298  1.00  0.00    -0.394 OA
HETATM   31  C11 UNL     1      -1.877  -2.712   2.440  1.00  0.00     0.201 C 
ENDBRANCH  29  30
ENDBRANCH  28  29
ENDBRANCH  27  28
BRANCH  27  32
HETATM   32  C12 UNL     1      -3.489  -0.092  -1.027  1.00  0.00     0.078 A 
HETATM   33  C13 UNL     1      -4.157   0.965  -0.474  1.00  0.00     0.037 A 
HETATM   34  C14 UNL     1      -5.557   1.068  -0.598  1.00  0.00     0.050 A 
HETATM   35  C15 UNL     1      -6.237   0.095  -1.278  1.00  0.00     0.102 A 
HETATM   36  N3  UNL     1      -5.568  -0.934  -1.814  1.00  0.00    -0.329 N 
HETATM   37  C23 UNL     1      -4.212  -1.048  -1.703  1.00  0.00     0.145 A 
ATOM     38  H3  UNL     1      -6.086  -1.653  -2.319  1.00  0.00     0.168 HD
HETATM   39  N4  UNL     1      -3.555  -2.147  -2.283  1.00  0.00    -0.080 NA
BRANCH  35  40
HETATM   40  N2  UNL     1      -7.497   0.123  -1.419  1.00  0.00    -0.373 N 
ATOM     41  H2  UNL     1      -7.962  -0.624  -1.935  1.00  0.00     0.161 HD
BRANCH  40  42
HETATM   42  C16 UNL     1      -8.281   1.195  -0.861  1.00  0.00     0.164 C 
BRANCH  42  43
HETATM   43  C17 UNL     1      -9.755   0.824  -0.807  1.00  0.00     0.119 C 
HETATM   44  F1  UNL     1     -10.212   0.561  -2.092  1.00  0.00    -0.241 F 
HETATM   45  C18 UNL     1      -9.926  -0.380   0.093  1.00  0.00     0.045 C 
HETATM   46  C19 UNL     1     -10.415  -0.052   1.464  1.00  0.00     0.003 C 
HETATM   47  C20 UNL     1      -9.910   1.245   2.009  1.00  0.00     0.000 C 
HETATM   48  C21 UNL     1     -10.034   2.402   1.064  1.00  0.00     0.003 C 
HETATM   49  C22 UNL     1     -10.517   2.016  -0.307  1.00  0.00     0.045 C 
ENDBRANCH  42  43
ENDBRANCH  40  42
ENDBRANCH  35  40
ENDBRANCH  27  32
ENDBRANCH   1  27
TORSDOF 16
