REMARK  15 active torsions:
REMARK  status: ('A' for Active; 'I' for Inactive)
REMARK    1  A    between atoms: C2_2  and  C3_3 
REMARK    2  A    between atoms: N1_5  and  C5_6 
REMARK    3  A    between atoms: C7_11  and  N3_12 
REMARK    4  A    between atoms: N4_15  and  C10_16 
REMARK    5  A    between atoms: C10_16  and  N5_18 
REMARK    6  A    between atoms: N5_18  and  C11_20 
REMARK    7  A    between atoms: C11_20  and  C12_21 
REMARK    8  A    between atoms: C12_21  and  C13_22 
REMARK    9  A    between atoms: C13_22  and  C14_23 
REMARK   10  A    between atoms: C14_23  and  N6_24 
REMARK   11  A    between atoms: N6_24  and  S2_26 
REMARK   12  A    between atoms: S2_26  and  C15_29 
REMARK   13  A    between atoms: C23_38  and  C24_39 
REMARK   14  A    between atoms: C24_39  and  O3_40 
REMARK   15  A    between atoms: O3_40  and  C25_41 
ROOT
HETATM    1  C5  UNL     1      -2.785   0.272  -0.605  1.00  0.00     0.126 A 
HETATM    2  N2  UNL     1      -2.182   0.004   0.589  1.00  0.00    -0.330 N 
ATOM      3  H2  UNL     1      -2.764  -0.324   1.360  1.00  0.00     0.168 HD
HETATM    4  C6  UNL     1      -0.863   0.149   0.805  1.00  0.00     0.132 A 
HETATM    5 CL1  UNL     1      -0.172  -0.241   2.391  1.00  0.00    -0.062 Cl
HETATM    6  C7  UNL     1      -0.055   0.588  -0.205  1.00  0.00     0.071 A 
HETATM    7  C19 UNL     1      -0.647   0.868  -1.442  1.00  0.00     0.060 A 
HETATM    8  C20 UNL     1      -2.022   0.710  -1.647  1.00  0.00     0.080 A 
HETATM    9 CL2  UNL     1      -2.741   1.034  -3.207  1.00  0.00    -0.080 Cl
ENDROOT
BRANCH   6  10
HETATM   10  N3  UNL     1       1.367   0.813  -0.061  1.00  0.00    -0.375 N 
HETATM   11  C8  UNL     1       1.838   1.913   0.738  1.00  0.00     0.143 C 
HETATM   12  C9  UNL     1       2.881   1.552   1.679  1.00  0.00     0.145 C 
HETATM   13  N4  UNL     1       3.756   0.447   1.269  1.00  0.00    -0.355 N 
HETATM   14  C17 UNL     1       3.601  -0.259   0.054  1.00  0.00     0.145 C 
HETATM   15  C18 UNL     1       2.325  -0.015  -0.709  1.00  0.00     0.143 C 
BRANCH  13  16
HETATM   16  C10 UNL     1       4.783   0.159   2.197  1.00  0.00     0.169 C 
HETATM   17  S1  UNL     1       4.787   1.152   3.586  1.00  0.00    -0.041 SA
BRANCH  16  18
HETATM   18  N5  UNL     1       5.782  -0.794   2.158  1.00  0.00    -0.367 N 
ATOM     19  H5  UNL     1       6.416  -0.798   2.957  1.00  0.00     0.161 HD
BRANCH  18  20
HETATM   20  C11 UNL     1       6.047  -1.762   1.167  1.00  0.00     0.122 C 
BRANCH  20  21
HETATM   21  C12 UNL     1       7.325  -2.563   1.491  1.00  0.00     0.021 C 
BRANCH  21  22
HETATM   22  C13 UNL     1       8.516  -1.667   1.578  1.00  0.00     0.022 C 
BRANCH  22  23
HETATM   23  C14 UNL     1       8.781  -0.929   0.272  1.00  0.00     0.132 C 
BRANCH  23  24
HETATM   24  N6  UNL     1       9.041  -1.805  -0.805  1.00  0.00    -0.320 N 
ATOM     25  H6  UNL     1       9.055  -2.818  -0.689  1.00  0.00     0.172 HD
BRANCH  24  26
HETATM   26  S2  UNL     1       9.327  -1.067  -2.300  1.00  0.00     0.226 S 
HETATM   27  O1  UNL     1       8.108  -0.254  -2.743  1.00  0.00    -0.206 OA
HETATM   28  O2  UNL     1       9.458  -2.172  -3.357  1.00  0.00    -0.206 OA
BRANCH  26  29
HETATM   29  C15 UNL     1      10.712  -0.007  -2.373  1.00  0.00     0.158 C 
HETATM   30  C16 UNL     1      10.597   1.158  -1.452  1.00  0.00     0.023 C 
ENDBRANCH  26  29
ENDBRANCH  24  26
ENDBRANCH  23  24
ENDBRANCH  22  23
ENDBRANCH  21  22
ENDBRANCH  20  21
ENDBRANCH  18  20
ENDBRANCH  16  18
ENDBRANCH  13  16
ENDBRANCH   6  10
BRANCH   1  31
HETATM   31  N1  UNL     1      -4.224   0.118  -0.653  1.00  0.00    -0.365 N 
HETATM   32  C4  UNL     1      -4.751  -0.908   0.185  1.00  0.00     0.129 C 
HETATM   33  C3  UNL     1      -6.192  -0.982   0.427  1.00  0.00     0.009 C 
HETATM   34  C23 UNL     1      -7.063  -0.012  -0.318  1.00  0.00     0.016 C 
HETATM   35  C22 UNL     1      -6.309   1.280  -0.594  1.00  0.00     0.027 C 
HETATM   36  C21 UNL     1      -5.071   0.947  -1.444  1.00  0.00     0.125 C 
BRANCH  33  37
HETATM   37  C2  UNL     1      -6.474  -1.095   1.904  1.00  0.00     0.002 C 
HETATM   38  C1  UNL     1      -5.970   0.017   2.746  1.00  0.00     0.005 C 
ENDBRANCH  33  37
BRANCH  34  39
HETATM   39  C24 UNL     1      -8.306   0.343   0.402  1.00  0.00     0.173 C 
BRANCH  39  40
HETATM   40  O3  UNL     1      -9.169   1.202  -0.251  1.00  0.00    -0.386 OA
BRANCH  40  41
HETATM   41  C25 UNL     1      -9.670   0.617  -1.383  1.00  0.00     0.113 C 
HETATM   42  C26 UNL     1      -9.626   1.453  -2.614  1.00  0.00     0.039 C 
HETATM   43  C27 UNL     1     -11.169   0.377  -1.082  1.00  0.00     0.039 C 
ENDBRANCH  40  41
ENDBRANCH  39  40
ENDBRANCH  34  39
ENDBRANCH   1  31
TORSDOF 15
