REMARK  15 active torsions:
REMARK  status: ('A' for Active; 'I' for Inactive)
REMARK    1  A    between atoms: C2_2  and  C4_4 
REMARK    2  A    between atoms: C4_4  and  O1_5 
REMARK    3  A    between atoms: O1_5  and  C5_6 
REMARK       I    between atoms: C5_6  and  N1_8 
REMARK    4  A    between atoms: N1_8  and  C6_10 
REMARK    5  A    between atoms: C6_10  and  C7_11 
REMARK    6  A    between atoms: C7_11  and  C8_12 
REMARK    7  A    between atoms: C8_12  and  C9_13 
REMARK    8  A    between atoms: C9_13  and  C10_14 
REMARK    9  A    between atoms: C11_15  and  C12_16 
REMARK   10  A    between atoms: C12_16  and  C13_17 
REMARK       I    between atoms: C13_17  and  N2_19 
REMARK       I    between atoms: N3_22  and  C16_23 
REMARK   11  A    between atoms: C16_23  and  C17_25 
REMARK   12  A    between atoms: C17_25  and  C18_26 
REMARK   13  A    between atoms: C20_29  and  C21_30 
REMARK   14  A    between atoms: C20_29  and  C23_38 
REMARK       I    between atoms: C21_30  and  N4_32 
REMARK   15  A    between atoms: N4_32  and  C22_34 
ROOT
HETATM    1  C13 UNL     1       0.396   0.406  -0.404  1.00  0.00     0.223 C 
HETATM    2  O3  UNL     1       0.935   1.144   0.473  1.00  0.00    -0.273 OA
HETATM    3  N2  UNL     1      -0.982   0.067  -0.145  1.00  0.00    -0.349 N 
HETATM    4  C14 UNL     1      -1.514   0.498   1.110  1.00  0.00     0.145 C 
HETATM    5  C15 UNL     1      -2.810  -0.085   1.506  1.00  0.00     0.145 C 
HETATM    6  N3  UNL     1      -3.679  -0.361   0.397  1.00  0.00    -0.349 N 
HETATM    7  C16 UNL     1      -5.089  -0.459   0.685  1.00  0.00     0.220 C 
HETATM    8  O4  UNL     1      -5.472  -0.238   1.851  1.00  0.00    -0.273 OA
HETATM    9  C27 UNL     1      -3.192  -0.489  -0.928  1.00  0.00     0.145 C 
HETATM   10  C28 UNL     1      -1.730  -0.625  -1.148  1.00  0.00     0.145 C 
ENDROOT
BRANCH   7  11
HETATM   11  C17 UNL     1      -6.116  -0.803  -0.338  1.00  0.00     0.113 C 
BRANCH  11  12
HETATM   12  C18 UNL     1      -7.369   0.031  -0.224  1.00  0.00     0.068 C 
HETATM   13  C19 UNL     1      -7.081   1.516  -0.432  1.00  0.00     0.179 C 
HETATM   14  O5  UNL     1      -7.212   1.276  -1.808  1.00  0.00    -0.364 OA
HETATM   15  C20 UNL     1      -8.133   0.261  -1.451  1.00  0.00     0.180 C 
BRANCH  15  16
HETATM   16  C21 UNL     1      -9.466   0.919  -1.359  1.00  0.00     0.261 C 
HETATM   17  O6  UNL     1      -9.728   2.053  -1.782  1.00  0.00    -0.270 OA
HETATM   18  N4  UNL     1     -10.559   0.191  -0.724  1.00  0.00    -0.310 N 
ATOM     19  H4  UNL     1     -10.373  -0.742  -0.355  1.00  0.00     0.166 HD
BRANCH  18  20
HETATM   20  C22 UNL     1     -11.875   0.723  -0.595  1.00  0.00     0.269 C 
HETATM   21 CL1  UNL     1     -12.821  -0.312   0.498  1.00  0.00    -0.060 Cl
HETATM   22 CL2  UNL     1     -12.746   0.761  -2.152  1.00  0.00    -0.060 Cl
HETATM   23 CL3  UNL     1     -11.912   2.367   0.092  1.00  0.00    -0.060 Cl
ENDBRANCH  18  20
ENDBRANCH  15  16
BRANCH  15  24
HETATM   24  C23 UNL     1      -8.046  -0.826  -2.492  1.00  0.00     0.027 A 
HETATM   25  C24 UNL     1      -8.916  -1.829  -2.767  1.00  0.00     0.019 A 
HETATM   26  C25 UNL     1      -8.612  -2.676  -3.768  1.00  0.00     0.008 A 
HETATM   27  C26 UNL     1      -7.436  -2.456  -4.436  1.00  0.00     0.050 A 
HETATM   28  S1  UNL     1      -6.797  -1.088  -3.657  1.00  0.00    -0.103 SA
ENDBRANCH  15  24
ENDBRANCH  11  12
ENDBRANCH   7  11
BRANCH   1  29
HETATM   29  C12 UNL     1       1.066  -0.097  -1.594  1.00  0.00     0.129 C 
BRANCH  29  30
HETATM   30  C11 UNL     1       1.810   0.899  -2.351  1.00  0.00    -0.022 C 
HETATM   31  C10 UNL     1       2.903   1.676  -1.808  1.00  0.00    -0.030 C 
BRANCH  31  32
HETATM   32  C9  UNL     1       4.149   1.088  -1.367  1.00  0.00     0.027 C 
BRANCH  32  33
HETATM   33  C8  UNL     1       4.197   0.167  -0.200  1.00  0.00     0.005 C 
BRANCH  33  34
HETATM   34  C7  UNL     1       5.705  -0.165   0.074  1.00  0.00     0.020 C 
BRANCH  34  35
HETATM   35  C6  UNL     1       5.790  -1.016   1.303  1.00  0.00     0.125 C 
BRANCH  35  36
HETATM   36  N1  UNL     1       7.162  -1.333   1.645  1.00  0.00    -0.337 N 
HETATM   37  C5  UNL     1       8.057  -0.288   1.933  1.00  0.00     0.360 C 
HETATM   38  O2  UNL     1       7.748   0.936   1.921  1.00  0.00    -0.239 OA
ATOM     39  H1  UNL     1       7.475  -2.303   1.676  1.00  0.00     0.164 HD
BRANCH  37  40
HETATM   40  O1  UNL     1       9.418  -0.570   2.264  1.00  0.00    -0.304 OA
BRANCH  40  41
HETATM   41  C4  UNL     1      10.252   0.574   2.507  1.00  0.00     0.184 C 
BRANCH  41  42
HETATM   42  C2  UNL     1      11.628   0.100   2.865  1.00  0.00     0.002 C 
HETATM   43  C1  UNL     1      12.523   1.315   3.091  1.00  0.00     0.011 C 
HETATM   44  C3  UNL     1      11.495  -0.657   4.186  1.00  0.00     0.011 C 
ENDBRANCH  41  42
ENDBRANCH  40  41
ENDBRANCH  37  40
ENDBRANCH  35  36
ENDBRANCH  34  35
ENDBRANCH  33  34
ENDBRANCH  32  33
ENDBRANCH  31  32
ENDBRANCH  29  30
ENDBRANCH   1  29
TORSDOF 15
