REMARK  4 active torsions:
REMARK  status: ('A' for Active; 'I' for Inactive)
REMARK    1  A    between atoms: C2_2  and  C3_3 
REMARK    2  A    between atoms: C2_2  and  C6_6 
REMARK    3  A    between atoms: C7_7  and  O1_8 
REMARK       I    between atoms: N1_15  and  C13_16 
REMARK       I    between atoms: C13_16  and  N2_18 
REMARK    4  A    between atoms: N2_18  and  C14_20 
ROOT
HETATM    1  C3  UNL     1      -3.249  -1.363  -0.342  1.00  0.00    -0.070 C 
HETATM    2  C4  UNL     1      -4.373  -1.644  -0.684  1.00  0.00    -0.106 C 
HETATM    3  C5  UNL     1      -5.736  -2.000  -1.089  1.00  0.00     0.112 C 
ENDROOT
BRANCH   1   4
HETATM    4  C2  UNL     1      -1.884  -1.037   0.066  1.00  0.00     0.011 C 
HETATM    5  C1  UNL     1      -1.333  -1.810   0.957  1.00  0.00     0.031 C 
BRANCH   4   6
HETATM    6  C6  UNL     1      -1.229   0.151  -0.556  1.00  0.00     0.159 C 
HETATM    7  C7  UNL     1      -1.900   1.421  -0.235  1.00  0.00     0.156 C 
HETATM    8  C8  UNL     1      -0.781   2.422  -0.144  1.00  0.00     0.062 C 
HETATM    9  C9  UNL     1      -0.957   3.379   0.957  1.00  0.00    -0.021 C 
HETATM   10  C12 UNL     1       0.406   1.571   0.280  1.00  0.00     0.103 C 
HETATM   11  C10 UNL     1      -0.350   2.944   2.021  1.00  0.00    -0.028 C 
HETATM   12  C11 UNL     1       0.301   1.645   1.756  1.00  0.00     0.053 C 
HETATM   13  N1  UNL     1       0.149   0.287  -0.323  1.00  0.00    -0.317 N 
HETATM   14  C13 UNL     1       1.193  -0.639  -0.641  1.00  0.00     0.319 C 
HETATM   15  O2  UNL     1       0.882  -1.703  -1.214  1.00  0.00    -0.247 OA
HETATM   16  N2  UNL     1       2.548  -0.396  -0.333  1.00  0.00    -0.339 N 
ATOM     17  H2  UNL     1       2.789   0.477   0.136  1.00  0.00     0.164 HD
BRANCH   7  18
HETATM   18  O1  UNL     1      -2.562   1.266   0.985  1.00  0.00    -0.392 OA
ATOM     19  H1  UNL     1      -2.995   2.086   1.192  1.00  0.00     0.210 HD
ENDBRANCH   7  18
BRANCH  16  20
HETATM   20  C14 UNL     1       3.600  -1.310  -0.645  1.00  0.00     0.078 C 
HETATM   21  C15 UNL     1       4.371  -1.802   0.537  1.00  0.00     0.032 C 
HETATM   22  C16 UNL     1       4.572  -0.662  -1.624  1.00  0.00     0.032 C 
ENDBRANCH  16  20
ENDBRANCH   4   6
ENDBRANCH   1   4
TORSDOF 4
