REMARK  3 active torsions:
REMARK  status: ('A' for Active; 'I' for Inactive)
REMARK       I    between atoms: C1_2  and  N1_3 
REMARK       I    between atoms: C1_2  and  N2_19 
REMARK       I    between atoms: N1_3  and  C2_5 
REMARK    1  A    between atoms: C2_5  and  C3_7 
REMARK    2  A    between atoms: C12_16  and  O3_17 
REMARK    3  A    between atoms: N2_19  and  C13_21 
ROOT
HETATM    1  C3  UNL     1      -0.669   0.320  -0.137  1.00  0.00     0.107 C 
HETATM    2  C4  UNL     1      -1.247  -0.636  -1.119  1.00  0.00     0.021 C 
HETATM    3  C5  UNL     1      -2.726  -0.644  -1.045  1.00  0.00    -0.013 C 
HETATM    4  C6  UNL     1      -3.235   0.746  -0.884  1.00  0.00     0.010 C 
HETATM    5  C7  UNL     1      -3.370   1.143   0.553  1.00  0.00    -0.007 C 
HETATM    6  C8  UNL     1      -4.592   0.352   1.066  1.00  0.00     0.010 C 
HETATM    7  C9  UNL     1      -3.574  -0.778   1.304  1.00  0.00    -0.007 C 
HETATM    8  C10 UNL     1      -3.290  -1.523   0.035  1.00  0.00     0.010 C 
HETATM    9  C11 UNL     1      -2.585   0.321   1.509  1.00  0.00     0.023 C 
HETATM   10  C12 UNL     1      -1.177   0.029   1.216  1.00  0.00     0.136 C 
ENDROOT
BRANCH   1  11
HETATM   11  C2  UNL     1       0.847   0.244  -0.148  1.00  0.00     0.232 C 
HETATM   12  N1  UNL     1       1.577   0.603  -1.284  1.00  0.00    -0.279 N 
HETATM   13  C1  UNL     1       2.948   0.574  -1.413  1.00  0.00     0.323 C 
ATOM     14  H1  UNL     1       1.044   0.916  -2.095  1.00  0.00     0.173 HD
HETATM   15  O1  UNL     1       3.422   0.949  -2.556  1.00  0.00    -0.247 OA
HETATM   16  N2  UNL     1       3.853   0.178  -0.424  1.00  0.00    -0.338 N 
ATOM     17  H2  UNL     1       3.536  -0.128   0.496  1.00  0.00     0.164 HD
HETATM   18  O2  UNL     1       1.389  -0.149   0.890  1.00  0.00    -0.273 OA
BRANCH  16  19
HETATM   19  C13 UNL     1       5.295   0.222  -0.772  1.00  0.00     0.086 A 
HETATM   20  C14 UNL     1       6.110  -0.911  -0.165  1.00  0.00     0.027 A 
HETATM   21  C15 UNL     1       6.257   0.553   0.319  1.00  0.00     0.027 A 
ENDBRANCH  16  19
ENDBRANCH   1  11
BRANCH  10  22
HETATM   22  O3  UNL     1      -0.349   0.702   2.157  1.00  0.00    -0.394 OA
ATOM     23  H3  UNL     1      -0.676   0.514   3.029  1.00  0.00     0.210 HD
ENDBRANCH  10  22
TORSDOF 3
