REMARK  3 active torsions:
REMARK  status: ('A' for Active; 'I' for Inactive)
REMARK    1  A    between atoms: C2_7  and  C3_8 
REMARK    2  A    between atoms: C3_8  and  C4_9 
REMARK    3  A    between atoms: C4_9  and  C5_10 
ROOT
HETATM    1  C3  UNL     1       1.915  -0.826   0.000  1.00  0.00     0.069 C 
ENDROOT
BRANCH   1   2
HETATM    2  C2  UNL     1       3.277  -0.330  -0.035  1.00  0.00     0.094 A 
HETATM    3  N2  UNL     1       4.254  -1.286  -0.041  1.00  0.00    -0.295 N 
HETATM    4  N1  UNL     1       5.531  -0.968  -0.072  1.00  0.00    -0.251 N 
ATOM      5  H2  UNL     1       3.987  -2.270  -0.021  1.00  0.00     0.187 HD
HETATM    6  C1  UNL     1       5.905   0.313  -0.099  1.00  0.00     0.341 A 
ATOM      7  H1  UNL     1       6.238  -1.704  -0.075  1.00  0.00     0.191 HD
HETATM    8  O1  UNL     1       7.140   0.588  -0.129  1.00  0.00    -0.245 OA
HETATM    9  N4  UNL     1       4.982   1.285  -0.095  1.00  0.00    -0.273 N 
HETATM   10  C14 UNL     1       3.674   0.986  -0.064  1.00  0.00     0.273 A 
ATOM     11  H4  UNL     1       5.277   2.261  -0.116  1.00  0.00     0.173 HD
HETATM   12  O2  UNL     1       2.767   1.847  -0.058  1.00  0.00    -0.266 OA
ENDBRANCH   1   2
BRANCH   1  13
HETATM   13  C4  UNL     1       0.818   0.157   0.013  1.00  0.00     0.047 C 
BRANCH  13  14
HETATM   14  C5  UNL     1      -0.474  -0.624   0.050  1.00  0.00    -0.034 A 
HETATM   15  C6  UNL     1      -0.644  -1.992   0.068  1.00  0.00     0.095 A 
HETATM   16  N3  UNL     1      -1.964  -2.228   0.099  1.00  0.00    -0.368 N 
HETATM   17  C7  UNL     1      -2.673  -1.097   0.103  1.00  0.00     0.016 A 
ATOM     18  H3  UNL     1      -2.377  -3.161   0.117  1.00  0.00     0.165 HD
HETATM   19  C8  UNL     1      -1.729  -0.078   0.072  1.00  0.00    -0.024 A 
HETATM   20  C12 UNL     1      -4.114  -0.744   0.132  1.00  0.00     0.062 C 
HETATM   21  C9  UNL     1      -2.261   1.308   0.069  1.00  0.00     0.022 C 
HETATM   22  C10 UNL     1      -3.392   1.378  -0.933  1.00  0.00     0.014 C 
HETATM   23  C13 UNL     1      -3.332   1.350   1.166  1.00  0.00     0.014 C 
HETATM   24  C11 UNL     1      -4.281   0.753   0.121  1.00  0.00    -0.008 C 
ENDBRANCH  13  14
ENDBRANCH   1  13
TORSDOF 3
