REMARK  4 active torsions:
REMARK  status: ('A' for Active; 'I' for Inactive)
REMARK    1  A    between atoms: C2_2  and  O1_3 
REMARK    2  A    between atoms: C2_2  and  C3_5 
REMARK       I    between atoms: N1_7  and  C5_8 
REMARK       I    between atoms: C5_8  and  N2_10 
REMARK    3  A    between atoms: N2_10  and  C6_12 
REMARK    4  A    between atoms: C6_12  and  C7_13 
ROOT
HETATM    1  C3  UNL     1      -3.505   0.568   0.587  1.00  0.00     0.231 C 
HETATM    2  C4  UNL     1      -2.030   0.811   0.595  1.00  0.00     0.163 C 
HETATM    3  N1  UNL     1      -1.304  -0.269  -0.070  1.00  0.00    -0.332 N 
HETATM    4  C5  UNL     1       0.001  -0.472   0.439  1.00  0.00     0.318 C 
HETATM    5  O2  UNL     1       0.434   0.239   1.372  1.00  0.00    -0.247 OA
HETATM    6  N2  UNL     1       0.807  -1.491  -0.123  1.00  0.00    -0.343 N 
ATOM      7  H2  UNL     1       0.430  -2.059  -0.882  1.00  0.00     0.164 HD
HETATM    8  C13 UNL     1      -1.685  -1.148  -1.141  1.00  0.00     0.129 C 
HETATM    9  C14 UNL     1      -3.054  -0.902  -1.679  1.00  0.00     0.047 C 
HETATM   10  C15 UNL     1      -3.427   0.538  -1.815  1.00  0.00     0.234 C 
HETATM   11  N3  UNL     1      -4.041   1.100  -0.644  1.00  0.00    -0.067 N 
ATOM     12  H31 UNL     1      -3.983   2.118  -0.656  1.00  0.00     0.277 HD
ATOM     13  H32 UNL     1      -5.055   0.990  -0.677  1.00  0.00     0.277 HD
ENDROOT
BRANCH   1  14
HETATM   14  C2  UNL     1      -4.215   1.248   1.735  1.00  0.00     0.146 C 
HETATM   15  C1  UNL     1      -5.695   0.960   1.619  1.00  0.00     0.041 C 
BRANCH  14  16
HETATM   16  O1  UNL     1      -4.031   2.622   1.722  1.00  0.00    -0.394 OA
ATOM     17  H1  UNL     1      -3.101   2.803   1.795  1.00  0.00     0.210 HD
ENDBRANCH  14  16
ENDBRANCH   1  14
BRANCH   6  18
HETATM   18  C6  UNL     1       2.131  -1.746   0.341  1.00  0.00     0.129 C 
BRANCH  18  19
HETATM   19  C7  UNL     1       3.089  -0.585   0.200  1.00  0.00     0.003 C 
HETATM   20  C8  UNL     1       4.428  -1.092   0.756  1.00  0.00     0.006 C 
HETATM   21  C9  UNL     1       5.489  -0.030   0.594  1.00  0.00     0.000 C 
HETATM   22  C10 UNL     1       5.655   0.432  -0.815  1.00  0.00     0.000 C 
HETATM   23  C11 UNL     1       4.380   0.662  -1.553  1.00  0.00     0.000 C 
HETATM   24  C12 UNL     1       3.317  -0.369  -1.280  1.00  0.00     0.006 C 
ENDBRANCH  18  19
ENDBRANCH   6  18
TORSDOF 4
