REMARK  5 active torsions:
REMARK  status: ('A' for Active; 'I' for Inactive)
REMARK    1  A    between atoms: N1_1  and  C1_4 
REMARK    2  A    between atoms: C3_6  and  N2_7 
REMARK    3  A    between atoms: C8_14  and  N4_15 
REMARK    4  A    between atoms: N4_15  and  C9_17 
REMARK    5  A    between atoms: C9_17  and  C10_18 
ROOT
HETATM    1  C1  UNL     1       1.548  -2.279   1.301  1.00  0.00     0.118 A 
HETATM    2  C2  UNL     1       2.711  -1.614   0.989  1.00  0.00     0.097 A 
HETATM    3  C3  UNL     1       2.725  -0.497   0.190  1.00  0.00     0.122 A 
HETATM    4  N3  UNL     1       1.524  -0.088  -0.272  1.00  0.00    -0.177 N 
ATOM      5  H3  UNL     1       1.481   0.738  -0.869  1.00  0.00     0.185 HD
HETATM    6  C8  UNL     1       0.383  -0.731   0.028  1.00  0.00     0.681 A 
HETATM    7  N5  UNL     1       0.393  -1.817   0.808  1.00  0.00    -0.177 N 
ATOM      8  H5  UNL     1      -0.481  -2.294   1.028  1.00  0.00     0.185 HD
ENDROOT
BRANCH   6   9
HETATM    9  N4  UNL     1      -0.722  -0.245  -0.476  1.00  0.00    -0.226 N 
ATOM     10  H4  UNL     1      -0.715   0.584  -1.070  1.00  0.00     0.177 HD
BRANCH   9  11
HETATM   11  C9  UNL     1      -1.956  -0.932  -0.157  1.00  0.00     0.142 C 
BRANCH  11  12
HETATM   12  C10 UNL     1      -3.105  -0.192  -0.859  1.00  0.00     0.004 C 
HETATM   13  C11 UNL     1      -3.169   1.199  -0.387  1.00  0.00     0.006 C 
HETATM   14  C12 UNL     1      -4.490   1.813  -0.185  1.00  0.00     0.000 C 
HETATM   15  C13 UNL     1      -5.667   0.961  -0.560  1.00  0.00     0.000 C 
HETATM   16  C14 UNL     1      -5.421  -0.401   0.096  1.00  0.00     0.000 C 
HETATM   17  C15 UNL     1      -4.317  -1.023  -0.710  1.00  0.00     0.006 C 
ENDBRANCH  11  12
ENDBRANCH   9  11
ENDBRANCH   6   9
BRANCH   3  18
HETATM   18  N2  UNL     1       3.935   0.200  -0.139  1.00  0.00    -0.367 N 
HETATM   19  C4  UNL     1       5.262  -0.136   0.289  1.00  0.00     0.124 C 
HETATM   20  C5  UNL     1       6.115   1.029  -0.089  1.00  0.00     0.021 C 
HETATM   21  C6  UNL     1       5.212   2.128  -0.560  1.00  0.00     0.021 C 
HETATM   22  C7  UNL     1       3.973   1.381  -0.980  1.00  0.00     0.124 C 
ENDBRANCH   3  18
BRANCH   1  23
HETATM   23  N1  UNL     1       1.576  -3.344   2.068  1.00  0.00    -0.385 N 
ATOM     24  H12 UNL     1       2.456  -3.696   2.444  1.00  0.00     0.157 HD
ATOM     25  H11 UNL     1       0.714  -3.837   2.299  1.00  0.00     0.157 HD
ENDBRANCH   1  23
TORSDOF 5
