REMARK  4 active torsions:
REMARK  status: ('A' for Active; 'I' for Inactive)
REMARK    1  A    between atoms: C4_7  and  N3_8 
REMARK    2  A    between atoms: N3_8  and  C5_10 
REMARK    3  A    between atoms: C5_10  and  C6_11 
REMARK    4  A    between atoms: N5_20  and  C13_22 
ROOT
HETATM    1  N1  UNL     1       4.756   1.597   2.559  1.00  0.00    -0.191 NA
HETATM    2  C1  UNL     1       3.741   1.627   2.002  1.00  0.00     0.104 C 
HETATM    3  C2  UNL     1       2.478   1.704   1.331  1.00  0.00     0.104 A 
HETATM    4  C3  UNL     1       1.707   2.855   1.550  1.00  0.00     0.132 A 
HETATM    5  N2  UNL     1       0.523   2.969   0.944  1.00  0.00    -0.200 N 
ATOM      6  H2  UNL     1      -0.042   3.804   1.100  1.00  0.00     0.183 HD
HETATM    7  C4  UNL     1       0.062   1.999   0.130  1.00  0.00     0.679 A 
HETATM    8  N4  UNL     1       0.777   0.912  -0.084  1.00  0.00    -0.175 N 
ATOM      9  H4  UNL     1       0.405   0.192  -0.704  1.00  0.00     0.186 HD
HETATM   10  C12 UNL     1       2.020   0.713   0.506  1.00  0.00     0.139 A 
HETATM   11  N5  UNL     1       2.621  -0.336   0.249  1.00  0.00    -0.370 N 
ATOM     12  H5  UNL     1       2.056  -0.896  -0.390  1.00  0.00     0.161 HD
ENDROOT
BRANCH  11  13
HETATM   13  C13 UNL     1       3.770  -1.001   0.521  1.00  0.00     0.083 C 
HETATM   14  C14 UNL     1       5.011  -0.726  -0.316  1.00  0.00     0.025 C 
HETATM   15  C15 UNL     1       5.310  -2.231  -0.278  1.00  0.00     0.004 C 
HETATM   16  C16 UNL     1       3.837  -2.457  -0.042  1.00  0.00     0.025 C 
ENDBRANCH  11  13
BRANCH   7  17
HETATM   17  N3  UNL     1      -1.099   2.195  -0.416  1.00  0.00    -0.226 N 
ATOM     18  H3  UNL     1      -1.587   3.064  -0.198  1.00  0.00     0.177 HD
BRANCH  17  19
HETATM   19  C5  UNL     1      -1.745   1.264  -1.312  1.00  0.00     0.142 C 
BRANCH  19  20
HETATM   20  C6  UNL     1      -2.507   0.233  -0.506  1.00  0.00     0.004 C 
HETATM   21  C7  UNL     1      -3.555   0.888   0.345  1.00  0.00     0.006 C 
HETATM   22  C8  UNL     1      -4.892   0.211   0.153  1.00  0.00     0.000 C 
HETATM   23  C9  UNL     1      -4.802  -1.266   0.390  1.00  0.00     0.000 C 
HETATM   24  C10 UNL     1      -3.713  -1.887  -0.462  1.00  0.00     0.000 C 
HETATM   25  C11 UNL     1      -3.145  -0.810  -1.364  1.00  0.00     0.006 C 
ENDBRANCH  19  20
ENDBRANCH  17  19
ENDBRANCH   7  17
TORSDOF 4
