REMARK  3 active torsions:
REMARK  status: ('A' for Active; 'I' for Inactive)
REMARK    1  A    between atoms: C3_3  and  C4_4 
REMARK    2  A    between atoms: C4_4  and  C5_5 
REMARK    3  A    between atoms: C5_5  and  C6_6 
ROOT
HETATM    1  C1  UNL     1       4.494   1.291   0.322  1.00  0.00     0.012 C 
HETATM    2  C2  UNL     1       3.672   0.413   0.307  1.00  0.00    -0.117 C 
HETATM    3  C3  UNL     1       2.674  -0.675   0.304  1.00  0.00     0.093 C 
ENDROOT
BRANCH   3   4
HETATM    4  C4  UNL     1       1.277  -0.094   0.035  1.00  0.00     0.014 C 
BRANCH   4   5
HETATM    5  C5  UNL     1       0.332  -1.259   0.049  1.00  0.00     0.026 C 
BRANCH   5   6
HETATM    6  C6  UNL     1      -1.101  -0.893  -0.197  1.00  0.00     0.083 C 
HETATM    7  C7  UNL     1      -1.289  -0.228  -1.543  1.00  0.00     0.027 C 
HETATM    8  C8  UNL     1      -2.000   1.094  -1.224  1.00  0.00     0.022 C 
HETATM    9  C9  UNL     1      -2.712   0.687   0.069  1.00  0.00     0.122 C 
HETATM   10  N1  UNL     1      -1.642   0.025   0.764  1.00  0.00    -0.395 N 
HETATM   11  C10 UNL     1      -1.266   0.219   1.977  1.00  0.00     0.115 C 
ENDBRANCH   5   6
ENDBRANCH   4   5
ENDBRANCH   3   4
TORSDOF 3
