REMARK  4 active torsions:
REMARK  status: ('A' for Active; 'I' for Inactive)
REMARK    1  A    between atoms: N1_2  and  C2_4 
REMARK    2  A    between atoms: C2_4  and  C3_5 
REMARK    3  A    between atoms: C3_5  and  C4_6 
REMARK    4  A    between atoms: C5_7  and  N2_8 
ROOT
HETATM    1  C4  UNL     1      -0.106   0.597   0.659  1.00  0.00     0.064 C 
HETATM    2  C5  UNL     1       0.056  -0.390  -0.386  1.00  0.00     0.067 C 
ENDROOT
BRANCH   1   3
HETATM    3  C3  UNL     1      -1.177   1.125   1.160  1.00  0.00    -0.135 C 
BRANCH   3   4
HETATM    4  C2  UNL     1      -2.300   1.679   1.685  1.00  0.00     0.203 C 
BRANCH   4   5
HETATM    5  N1  UNL     1      -2.450   1.382   3.123  1.00  0.00    -0.398 N 
HETATM    6  C1  UNL     1      -3.514   0.864   3.533  1.00  0.00     0.112 C 
ATOM      7  H1  UNL     1      -1.696   1.596   3.775  1.00  0.00     0.158 HD
ENDBRANCH   4   5
ENDBRANCH   3   4
ENDBRANCH   1   3
BRANCH   2   8
HETATM    8  N2  UNL     1       0.856   0.022  -1.530  1.00  0.00    -0.292 NA
HETATM    9  C6  UNL     1       2.241   0.157  -1.122  1.00  0.00     0.095 C 
HETATM   10  C7  UNL     1       2.767  -1.293  -1.243  1.00  0.00     0.016 C 
HETATM   11  C8  UNL     1       2.251  -1.576  -2.643  1.00  0.00     0.016 C 
HETATM   12  C9  UNL     1       0.849  -1.025  -2.550  1.00  0.00     0.095 C 
ENDBRANCH   2   8
TORSDOF 4
