REMARK  3 active torsions:
REMARK  status: ('A' for Active; 'I' for Inactive)
REMARK    1  A    between atoms: C2_2  and  C3_3 
REMARK    2  A    between atoms: C3_3  and  C4_4 
REMARK    3  A    between atoms: C4_4  and  N1_5 
ROOT
HETATM    1  N1  UNL     1      -0.248  -0.182  -0.043  1.00  0.00     0.088 N 
HETATM    2  C5  UNL     1      -0.914   0.788   0.773  1.00  0.00     0.272 C 
HETATM    3  C6  UNL     1      -2.280   1.181   0.333  1.00  0.00     0.030 C 
HETATM    4  C7  UNL     1      -2.963   0.343  -0.659  1.00  0.00     0.003 C 
HETATM    5  C8  UNL     1      -2.265  -0.909  -1.077  1.00  0.00     0.030 C 
HETATM    6  C9  UNL     1      -1.140  -1.315  -0.194  1.00  0.00     0.272 C 
ENDROOT
BRANCH   1   7
HETATM    7  C4  UNL     1       1.032  -0.542   0.454  1.00  0.00     0.276 C 
BRANCH   7   8
HETATM    8  C3  UNL     1       2.016   0.591   0.334  1.00  0.00     0.056 C 
BRANCH   8   9
HETATM    9  C2  UNL     1       3.308   0.058   0.881  1.00  0.00    -0.035 C 
HETATM   10  C1  UNL     1       4.424  -0.029   0.195  1.00  0.00     0.007 C 
ENDBRANCH   8   9
ENDBRANCH   7   8
ENDBRANCH   1   7
TORSDOF 3
