REMARK  3 active torsions:
REMARK  status: ('A' for Active; 'I' for Inactive)
REMARK    1  A    between atoms: C3_3  and  C4_4 
REMARK    2  A    between atoms: C4_4  and  C5_5 
REMARK    3  A    between atoms: C5_5  and  N1_6 
ROOT
HETATM    1  N1  UNL     1       1.081  -0.039  -0.276  1.00  0.00     0.013 N 
HETATM    2  C6  UNL     1       1.599   0.907   0.677  1.00  0.00     0.262 C 
HETATM    3  C7  UNL     1       3.102   0.628   0.451  1.00  0.00     0.054 C 
HETATM    4  C8  UNL     1       2.944  -0.467  -0.565  1.00  0.00     0.136 C 
HETATM    5  C9  UNL     1       1.784  -1.255   0.004  1.00  0.00     0.283 C 
HETATM    6  N2  UNL     1       1.911   0.070  -1.427  1.00  0.00    -0.040 NA
ENDROOT
BRANCH   1   7
HETATM    7  C5  UNL     1      -0.267  -0.054  -0.595  1.00  0.00     0.261 C 
BRANCH   7   8
HETATM    8  C4  UNL     1      -1.189  -0.661   0.426  1.00  0.00     0.034 C 
BRANCH   8   9
HETATM    9  C3  UNL     1      -2.603  -0.570  -0.131  1.00  0.00    -0.013 A 
HETATM   10  C1  UNL     1      -3.174   0.760  -0.446  1.00  0.00     0.005 A 
HETATM   11  C2  UNL     1      -3.699  -0.024   0.696  1.00  0.00     0.005 A 
ENDBRANCH   8   9
ENDBRANCH   7   8
ENDBRANCH   1   7
TORSDOF 3
