REMARK  2 active torsions:
REMARK  status: ('A' for Active; 'I' for Inactive)
REMARK    1  A    between atoms: C2_2  and  C3_3 
REMARK    2  A    between atoms: C3_3  and  C4_4 
ROOT
HETATM    1  C4  UNL     1       0.698  -0.050   0.520  1.00  0.00     0.394 C 
HETATM    2  N1  UNL     1       0.706  -1.266   1.308  1.00  0.00    -0.021 N 
ATOM      3  H11 UNL     1       0.934  -1.235   2.302  1.00  0.00     0.281 HD
ATOM      4  H12 UNL     1       1.436  -1.965   1.170  1.00  0.00     0.281 HD
HETATM    5  C5  UNL     1      -0.635  -1.526   0.882  1.00  0.00     0.473 C 
HETATM    6  N2  UNL     1      -0.702  -0.203   0.330  1.00  0.00    -0.014 N 
HETATM    7  C6  UNL     1      -1.196  -0.190  -1.011  1.00  0.00     0.242 C 
HETATM    8  C7  UNL     1      -2.309   0.795  -1.112  1.00  0.00     0.030 C 
HETATM    9  C8  UNL     1      -2.557   1.287   0.276  1.00  0.00     0.030 C 
HETATM   10  C9  UNL     1      -1.452   0.740   1.110  1.00  0.00     0.242 C 
ENDROOT
BRANCH   1  11
HETATM   11  C3  UNL     1       1.578  -0.164  -0.681  1.00  0.00     0.089 C 
BRANCH  11  12
HETATM   12  C2  UNL     1       2.960  -0.427  -0.227  1.00  0.00    -0.033 C 
HETATM   13  C1  UNL     1       3.962   0.384  -0.503  1.00  0.00     0.007 C 
ENDBRANCH  11  12
ENDBRANCH   1  11
TORSDOF 2
