REMARK  3 active torsions:
REMARK  status: ('A' for Active; 'I' for Inactive)
REMARK    1  A    between atoms: C1_2  and  N1_3 
REMARK    2  A    between atoms: C4_6  and  N2_7 
REMARK       I    between atoms: N2_7  and  C5_9 
REMARK    3  A    between atoms: C5_9  and  C6_11 
ROOT
HETATM    1  N1  UNL     1      -3.180  -0.398  -0.193  1.00  0.00    -0.359 N 
HETATM    2  C2  UNL     1      -2.412  -1.437   0.447  1.00  0.00     0.127 C 
HETATM    3  C3  UNL     1      -1.006  -1.533   0.038  1.00  0.00     0.045 C 
HETATM    4  C4  UNL     1      -0.320  -0.266  -0.346  1.00  0.00     0.087 C 
HETATM    5  C9  UNL     1      -1.240   0.936  -0.359  1.00  0.00     0.045 C 
HETATM    6  C10 UNL     1      -2.506   0.508  -1.073  1.00  0.00     0.127 C 
ENDROOT
BRANCH   4   7
HETATM    7  N2  UNL     1       0.777   0.067   0.520  1.00  0.00    -0.356 N 
HETATM    8  C5  UNL     1       2.074   0.232   0.003  1.00  0.00     0.222 C 
HETATM    9  O2  UNL     1       2.324   0.095  -1.244  1.00  0.00    -0.273 OA
ATOM     10  H2  UNL     1       0.613   0.185   1.520  1.00  0.00     0.162 HD
BRANCH   8  11
HETATM   11  C6  UNL     1       3.257   0.577   0.846  1.00  0.00     0.078 A 
HETATM   12  C7  UNL     1       4.571   0.029   0.426  1.00  0.00     0.015 A 
HETATM   13  C8  UNL     1       4.250   1.508   0.199  1.00  0.00     0.015 A 
ENDBRANCH   8  11
ENDBRANCH   4   7
BRANCH   1  14
HETATM   14  C1  UNL     1      -4.571  -0.252   0.023  1.00  0.00     0.350 C 
HETATM   15  O1  UNL     1      -5.185   0.665  -0.558  1.00  0.00    -0.284 OA
ENDBRANCH   1  14
TORSDOF 3
