REMARK  4 active torsions:
REMARK  status: ('A' for Active; 'I' for Inactive)
REMARK    1  A    between atoms: C3_3  and  C4_4 
REMARK       I    between atoms: N1_7  and  C7_8 
REMARK    2  A    between atoms: C7_8  and  C8_10 
REMARK    3  A    between atoms: C8_10  and  C9_11 
REMARK    4  A    between atoms: C9_11  and  N2_12 
ROOT
HETATM    1  C1  UNL     1       4.431   1.318   0.805  1.00  0.00     0.012 C 
HETATM    2  C2  UNL     1       4.045   0.203   0.536  1.00  0.00    -0.117 C 
HETATM    3  C3  UNL     1       3.607  -1.138   0.223  1.00  0.00     0.097 C 
ENDROOT
BRANCH   3   4
HETATM    4  C4  UNL     1       2.133  -1.213  -0.096  1.00  0.00    -0.000 C 
HETATM    5  C5  UNL     1       1.728  -0.385  -1.259  1.00  0.00     0.025 C 
HETATM    6  C6  UNL     1       0.890   0.761  -0.802  1.00  0.00     0.126 C 
HETATM    7  N1  UNL     1      -0.297   0.255  -0.148  1.00  0.00    -0.352 N 
HETATM    8  C7  UNL     1      -1.549   0.713  -0.621  1.00  0.00     0.221 C 
HETATM    9  C10 UNL     1      -0.099  -0.672   0.928  1.00  0.00     0.126 C 
HETATM   10  O1  UNL     1      -1.645   1.530  -1.574  1.00  0.00    -0.273 OA
HETATM   11  C11 UNL     1       1.356  -0.990   1.158  1.00  0.00     0.025 C 
BRANCH   8  12
HETATM   12  C8  UNL     1      -2.819   0.217   0.025  1.00  0.00     0.130 C 
BRANCH  12  13
HETATM   13  C9  UNL     1      -4.012   0.855  -0.661  1.00  0.00     0.238 C 
BRANCH  13  14
HETATM   14  N2  UNL     1      -5.257   0.432  -0.102  1.00  0.00    -0.079 N 
ATOM     15  H23 UNL     1      -5.333  -0.585  -0.104  1.00  0.00     0.274 HD
ATOM     16  H22 UNL     1      -5.282   0.596   0.904  1.00  0.00     0.274 HD
ATOM     17  H21 UNL     1      -6.059   0.861  -0.563  1.00  0.00     0.274 HD
ENDBRANCH  13  14
ENDBRANCH  12  13
ENDBRANCH   8  12
ENDBRANCH   3   4
TORSDOF 4
