REMARK  3 active torsions:
REMARK  status: ('A' for Active; 'I' for Inactive)
REMARK    1  A    between atoms: C1_2  and  C2_3 
REMARK       I    between atoms: C1_2  and  N2_8 
REMARK    2  A    between atoms: C2_3  and  N1_4 
REMARK    3  A    between atoms: N2_8  and  C6_10 
ROOT
HETATM    1  O1  UNL     1      -0.321   0.577  -0.973  1.00  0.00    -0.272 OA
HETATM    2  C1  UNL     1      -0.477   0.257   0.249  1.00  0.00     0.246 C 
HETATM    3  N2  UNL     1       0.638  -0.228   0.940  1.00  0.00    -0.350 N 
ATOM      4  H2  UNL     1       0.509  -0.485   1.919  1.00  0.00     0.163 HD
ENDROOT
BRANCH   3   5
HETATM    5  C6  UNL     1       1.897  -0.386   0.402  1.00  0.00     0.033 C 
HETATM    6  C7  UNL     1       2.143  -1.290  -0.770  1.00  0.00     0.031 C 
HETATM    7  C8  UNL     1       3.646  -1.001  -0.981  1.00  0.00     0.007 C 
HETATM    8  C9  UNL     1       3.855   0.014   0.089  1.00  0.00    -0.010 C 
HETATM    9  C10 UNL     1       2.613   0.892  -0.066  1.00  0.00     0.035 C 
HETATM   10  C11 UNL     1       3.093  -0.616   1.264  1.00  0.00     0.035 C 
ENDBRANCH   3   5
BRANCH   2  11
HETATM   11  C2  UNL     1      -1.812   0.423   0.825  1.00  0.00     0.374 C 
BRANCH  11  12
HETATM   12  N1  UNL     1      -2.783   0.941  -0.103  1.00  0.00     0.097 N 
HETATM   13  C3  UNL     1      -4.105   1.128   0.395  1.00  0.00     0.275 C 
HETATM   14  C4  UNL     1      -4.625   0.510  -0.909  1.00  0.00     0.060 C 
HETATM   15  C5  UNL     1      -3.194   0.043  -1.152  1.00  0.00     0.275 C 
ENDBRANCH  11  12
ENDBRANCH   2  11
TORSDOF 3
