REMARK  3 active torsions:
REMARK  status: ('A' for Active; 'I' for Inactive)
REMARK    1  A    between atoms: S1_2  and  N1_4 
REMARK    2  A    between atoms: S1_2  and  C6_11 
REMARK    3  A    between atoms: N1_4  and  C1_6 
ROOT
HETATM    1  N1  UNL     1      -0.381   0.457  -1.546  1.00  0.00    -0.309 N 
ATOM      2  H1  UNL     1      -0.611   1.078  -2.322  1.00  0.00     0.173 HD
ENDROOT
BRANCH   1   3
HETATM    3  S1  UNL     1       1.163  -0.122  -1.497  1.00  0.00     0.231 S 
HETATM    4  O1  UNL     1       1.951   0.513  -2.643  1.00  0.00    -0.206 OA
HETATM    5  O2  UNL     1       1.335  -1.605  -1.552  1.00  0.00    -0.206 OA
BRANCH   3   6
HETATM    6  C6  UNL     1       1.991   0.406  -0.014  1.00  0.00     0.129 A 
HETATM    7  C7  UNL     1       2.038  -0.472   1.192  1.00  0.00     0.023 A 
HETATM    8  C8  UNL     1       3.237  -0.334   0.336  1.00  0.00     0.023 A 
ENDBRANCH   3   6
ENDBRANCH   1   3
BRANCH   1   9
HETATM    9  C1  UNL     1      -1.381   0.194  -0.660  1.00  0.00     0.044 A 
HETATM   10  C2  UNL     1      -1.907  -1.111  -0.197  1.00  0.00     0.032 A 
HETATM   11  C3  UNL     1      -2.153  -0.573   1.220  1.00  0.00     0.010 A 
HETATM   12  C4  UNL     1      -1.511   0.719   0.768  1.00  0.00     0.017 A 
HETATM   13  C5  UNL     1      -2.250   1.426  -0.305  1.00  0.00     0.039 A 
ENDBRANCH   1   9
TORSDOF 3
