REMARK  3 active torsions:
REMARK  status: ('A' for Active; 'I' for Inactive)
REMARK    1  A    between atoms: C2_2  and  C3_3 
REMARK    2  A    between atoms: C4_4  and  C5_5 
REMARK       I    between atoms: C5_5  and  N1_7 
REMARK    3  A    between atoms: C8_10  and  C9_11 
ROOT
HETATM    1  C5  UNL     1       1.039   0.205   0.411  1.00  0.00     0.243 C 
HETATM    2  O1  UNL     1       1.428   1.224   1.043  1.00  0.00    -0.268 OA
HETATM    3  N1  UNL     1      -0.367  -0.017   0.266  1.00  0.00    -0.348 N 
HETATM    4  C6  UNL     1      -0.946  -1.134  -0.430  1.00  0.00     0.127 C 
HETATM    5  C7  UNL     1      -2.319  -0.617  -0.804  1.00  0.00     0.037 C 
HETATM    6  C8  UNL     1      -2.699   0.147   0.443  1.00  0.00     0.106 C 
HETATM    7  C10 UNL     1      -1.425   0.849   0.801  1.00  0.00     0.141 C 
ENDROOT
BRANCH   1   8
HETATM    8  C4  UNL     1       1.980  -0.719  -0.153  1.00  0.00     0.074 C 
HETATM    9  C3  UNL     1       3.281  -0.690  -0.129  1.00  0.00     0.005 C 
BRANCH   9  10
HETATM   10  C2  UNL     1       4.150   0.291   0.481  1.00  0.00    -0.010 C 
HETATM   11  C1  UNL     1       5.489   0.161   0.408  1.00  0.00     0.011 C 
ENDBRANCH   9  10
ENDBRANCH   1   8
BRANCH   6  12
HETATM   12  C9  UNL     1      -3.831   1.050   0.246  1.00  0.00     0.178 C 
HETATM   13  O2  UNL     1      -3.691   2.274   0.439  1.00  0.00    -0.648 OA
HETATM   14  O3  UNL     1      -5.057   0.566  -0.153  1.00  0.00    -0.648 OA
ENDBRANCH   6  12
TORSDOF 3
