REMARK  3 active torsions:
REMARK  status: ('A' for Active; 'I' for Inactive)
REMARK       I    between atoms: C1_2  and  N1_3 
REMARK    1  A    between atoms: C1_2  and  C5_8 
REMARK    2  A    between atoms: N1_3  and  C2_5 
REMARK    3  A    between atoms: N2_12  and  C9_13 
ROOT
HETATM    1  C5  UNL     1      -0.427   0.039  -1.378  1.00  0.00     0.314 C 
HETATM    2  C6  UNL     1      -0.570  -1.422  -1.867  1.00  0.00     0.047 C 
HETATM    3  C7  UNL     1      -2.069  -1.572  -1.797  1.00  0.00     0.033 C 
HETATM    4  C8  UNL     1      -2.382  -0.842  -0.506  1.00  0.00     0.274 C 
HETATM    5  N2  UNL     1      -1.219  -0.059  -0.165  1.00  0.00     0.106 N 
ENDROOT
BRANCH   1   6
HETATM    6  C1  UNL     1       1.009   0.236  -1.122  1.00  0.00     0.251 C 
HETATM    7  O1  UNL     1       1.728   0.573  -2.110  1.00  0.00    -0.271 OA
HETATM    8  N1  UNL     1       1.620   0.071   0.136  1.00  0.00    -0.355 N 
ATOM      9  H1  UNL     1       1.063  -0.202   0.946  1.00  0.00     0.162 HD
BRANCH   8  10
HETATM   10  C2  UNL     1       3.040   0.291   0.271  1.00  0.00     0.084 A 
HETATM   11  C3  UNL     1       3.856  -0.768   0.949  1.00  0.00     0.027 A 
HETATM   12  C4  UNL     1       3.667   0.595   1.566  1.00  0.00     0.027 A 
ENDBRANCH   8  10
ENDBRANCH   1   6
BRANCH   5  13
HETATM   13  C9  UNL     1      -1.490   1.210   0.427  1.00  0.00     0.224 A 
HETATM   14  C10 UNL     1      -1.731   1.142   1.948  1.00  0.00     0.038 A 
HETATM   15  C11 UNL     1      -2.812   1.525   1.003  1.00  0.00     0.038 A 
ENDBRANCH   5  13
TORSDOF 3
