REMARK  3 active torsions:
REMARK  status: ('A' for Active; 'I' for Inactive)
REMARK    1  A    between atoms: C1_2  and  C2_4 
REMARK    2  A    between atoms: C2_4  and  C8_13 
REMARK       I    between atoms: N2_5  and  C3_7 
REMARK    3  A    between atoms: C3_7  and  C4_9 
ROOT
HETATM    1  C2  UNL     1       1.204   0.932  -0.494  1.00  0.00     0.081 C 
HETATM    2  N2  UNL     1       0.216   0.790  -1.266  1.00  0.00    -0.326 N 
ATOM      3  H2  UNL     1       0.092   1.495  -1.992  1.00  0.00     0.168 HD
HETATM    4  C3  UNL     1      -0.729  -0.249  -1.219  1.00  0.00     0.226 C 
HETATM    5  O2  UNL     1      -0.777  -1.060  -2.203  1.00  0.00    -0.273 OA
ENDROOT
BRANCH   1   6
HETATM    6  C1  UNL     1       2.093   2.081  -0.687  1.00  0.00     0.277 C 
HETATM    7  N1  UNL     1       3.229   2.321   0.134  1.00  0.00    -0.056 NA
HETATM    8  O1  UNL     1       1.884   2.926  -1.608  1.00  0.00    -0.270 OA
ENDBRANCH   1   6
BRANCH   1   9
HETATM    9  C8  UNL     1       1.512   0.007   0.604  1.00  0.00     0.041 A 
HETATM   10  C9  UNL     1       2.876  -0.654   0.652  1.00  0.00     0.011 A 
HETATM   11  C10 UNL     1       1.686  -1.447   0.260  1.00  0.00     0.011 A 
ENDBRANCH   1   9
BRANCH   4  12
HETATM   12  C4  UNL     1      -1.619  -0.365  -0.057  1.00  0.00     0.078 C 
HETATM   13  C5  UNL     1      -2.585  -1.530  -0.099  1.00  0.00     0.014 C 
HETATM   14  C6  UNL     1      -3.639  -0.601   0.470  1.00  0.00     0.002 C 
HETATM   15  C7  UNL     1      -2.854   0.547  -0.131  1.00  0.00     0.014 C 
ENDBRANCH   4  12
TORSDOF 3
