REMARK  12 active torsions:
REMARK  status: ('A' for Active; 'I' for Inactive)
REMARK    1  A    between atoms: C3_5  and  N2_6 
REMARK    2  A    between atoms: C4_11  and  N4_12 
REMARK    3  A    between atoms: C5_15  and  N5_16 
REMARK    4  A    between atoms: C7_18  and  C8_19 
REMARK    5  A    between atoms: C9_22  and  C10_23 
REMARK    6  A    between atoms: N8_27  and  C12_28 
REMARK    7  A    between atoms: C12_28  and  C13_29 
REMARK    8  A    between atoms: C13_29  and  O2_30 
REMARK    9  A    between atoms: C13_29  and  N9_32 
REMARK   10  A    between atoms: N9_32  and  C14_34 
REMARK   11  A    between atoms: C15_37  and  N11_38 
REMARK   12  A    between atoms: C18_43  and  N13_44 
ROOT
HETATM    1  C8  UNL     1       0.818  -0.198   0.514  1.00  0.00     0.138 A 
HETATM    2  N6  UNL     1       1.039  -0.689   1.768  1.00  0.00    -0.335 N 
ATOM      3  H6  UNL     1       1.961  -0.900   2.150  1.00  0.00     0.168 HD
HETATM    4  C9  UNL     1      -0.115  -0.858   2.433  1.00  0.00     0.115 A 
HETATM    5  C11 UNL     1      -1.083  -0.451   1.541  1.00  0.00     0.128 A 
HETATM    6  N8  UNL     1      -0.507  -0.053   0.378  1.00  0.00    -0.331 N 
ENDROOT
BRANCH   1   7
HETATM    7  C7  UNL     1       1.902   0.122  -0.433  1.00  0.00     0.107 A 
HETATM    8  C6  UNL     1       3.258  -0.032  -0.134  1.00  0.00     0.149 A 
HETATM    9  N5  UNL     1       3.993   0.352  -1.188  1.00  0.00    -0.243 N 
HETATM   10  N15 UNL     1       3.134   0.734  -2.117  1.00  0.00    -0.015 NA
HETATM   11  N14 UNL     1       1.902   0.595  -1.663  1.00  0.00    -0.279 N 
ATOM     12  H14 UNL     1       1.062   0.823  -2.194  1.00  0.00     0.184 HD
BRANCH   9  13
HETATM   13  C5  UNL     1       5.399   0.326  -1.201  1.00  0.00     0.120 A 
HETATM   14  C2  UNL     1       6.154   1.239  -0.507  1.00  0.00     0.054 A 
HETATM   15  C1  UNL     1       5.507   2.302   0.283  1.00  0.00     0.071 C 
HETATM   16  N1  UNL     1       7.520   1.190  -0.532  1.00  0.00    -0.194 N 
HETATM   17  C3  UNL     1       8.121   0.232  -1.248  1.00  0.00     0.677 A 
ATOM     18  H1  UNL     1       8.072   1.873  -0.013  1.00  0.00     0.184 HD
HETATM   19  N3  UNL     1       7.426  -0.682  -1.942  1.00  0.00    -0.175 N 
HETATM   20  C4  UNL     1       6.054  -0.640  -1.922  1.00  0.00     0.145 A 
ATOM     21  H3  UNL     1       7.912  -1.400  -2.479  1.00  0.00     0.186 HD
BRANCH  17  22
HETATM   22  N2  UNL     1       9.417   0.184  -1.267  1.00  0.00    -0.234 N 
ATOM     23  H22 UNL     1       9.945   0.879  -0.739  1.00  0.00     0.174 HD
ATOM     24  H21 UNL     1       9.875  -0.546  -1.813  1.00  0.00     0.174 HD
ENDBRANCH  17  22
BRANCH  20  25
HETATM   25  N4  UNL     1       5.441  -1.542  -2.609  1.00  0.00    -0.383 N 
ATOM     26  H42 UNL     1       5.928  -2.260  -3.145  1.00  0.00     0.157 HD
ATOM     27  H41 UNL     1       4.422  -1.511  -2.594  1.00  0.00     0.157 HD
ENDBRANCH  20  25
ENDBRANCH   9  13
ENDBRANCH   1   7
BRANCH   6  28
HETATM   28  C12 UNL     1      -1.265   0.388  -0.785  1.00  0.00     0.214 C 
BRANCH  28  29
HETATM   29  C13 UNL     1      -1.769  -0.745  -1.579  1.00  0.00     0.135 C 
BRANCH  29  30
HETATM   30  O2  UNL     1      -0.823  -1.397  -2.209  1.00  0.00    -0.348 OA
ATOM     31  H2  UNL     1      -1.148  -2.128  -2.721  1.00  0.00     0.219 HD
ENDBRANCH  29  30
BRANCH  29  32
HETATM   32  N9  UNL     1      -3.035  -1.243  -1.786  1.00  0.00    -0.322 N 
ATOM     33  H9  UNL     1      -3.052  -2.045  -2.415  1.00  0.00     0.169 HD
BRANCH  32  34
HETATM   34  C14 UNL     1      -4.312  -0.882  -1.315  1.00  0.00     0.174 A 
HETATM   35  N10 UNL     1      -4.659   0.073  -0.465  1.00  0.00    -0.172 N 
HETATM   36  C15 UNL     1      -5.999   0.108  -0.249  1.00  0.00     0.683 A 
ATOM     37  H10 UNL     1      -3.995   0.709  -0.023  1.00  0.00     0.186 HD
HETATM   38  N12 UNL     1      -6.507  -0.855  -0.984  1.00  0.00    -0.167 N 
HETATM   39  C18 UNL     1      -5.528  -1.492  -1.656  1.00  0.00     0.233 A 
ATOM     40  H12 UNL     1      -7.499  -1.087  -1.038  1.00  0.00     0.186 HD
BRANCH  36  41
HETATM   41  N11 UNL     1      -6.683   1.026   0.600  1.00  0.00    -0.226 N 
HETATM   42  C16 UNL     1      -8.127   0.969   0.739  1.00  0.00     0.168 C 
HETATM   43  C17 UNL     1      -5.975   2.041   1.348  1.00  0.00     0.168 C 
ENDBRANCH  36  41
BRANCH  39  44
HETATM   44  N13 UNL     1      -5.722  -2.579  -2.535  1.00  0.00    -0.093 N 
HETATM   45  O3  UNL     1      -5.039  -2.781  -3.530  1.00  0.00    -0.530 OA
HETATM   46  O4  UNL     1      -6.748  -3.458  -2.273  1.00  0.00    -0.530 OA
ENDBRANCH  39  44
ENDBRANCH  32  34
ENDBRANCH  29  32
ENDBRANCH  28  29
ENDBRANCH   6  28
BRANCH   4  47
HETATM   47  C10 UNL     1      -0.330  -1.363   3.776  1.00  0.00     0.282 C 
HETATM   48  N7  UNL     1       0.774  -1.807   4.529  1.00  0.00    -0.056 NA
HETATM   49  O1  UNL     1      -1.473  -1.405   4.253  1.00  0.00    -0.269 OA
ENDBRANCH   4  47
TORSDOF 12
