REMARK  11 active torsions:
REMARK  status: ('A' for Active; 'I' for Inactive)
REMARK    1  A    between atoms: N1_1  and  C1_4 
REMARK    2  A    between atoms: C2_7  and  C3_8 
REMARK    3  A    between atoms: C3_8  and  C4_9 
REMARK    4  A    between atoms: C5_14  and  S1_15 
REMARK    5  A    between atoms: S1_15  and  C6_16 
REMARK    6  A    between atoms: C6_16  and  C7_17 
REMARK    7  A    between atoms: C7_17  and  S2_18 
REMARK    8  A    between atoms: S2_18  and  C8_19 
REMARK    9  A    between atoms: C10_25  and  N7_26 
REMARK   10  A    between atoms: N8_34  and  N9_35 
REMARK       I    between atoms: N9_35  and  C13_37 
REMARK   11  A    between atoms: C13_37  and  C14_39 
ROOT
HETATM    1  C4  UNL     1      -3.255   0.582   1.516  1.00  0.00     0.127 A 
HETATM    2  N3  UNL     1      -3.089   1.721   2.175  1.00  0.00    -0.285 N 
ATOM      3  H3  UNL     1      -3.715   2.060   2.905  1.00  0.00     0.188 HD
HETATM    4  N4  UNL     1      -2.024   2.350   1.770  1.00  0.00    -0.277 N 
ATOM      5  H4  UNL     1      -1.680   3.245   2.117  1.00  0.00     0.189 HD
HETATM    6  C5  UNL     1      -1.447   1.577   0.781  1.00  0.00     0.182 A 
HETATM    7  N8  UNL     1      -2.210   0.491   0.624  1.00  0.00    -0.215 N 
ENDROOT
BRANCH   6   8
HETATM    8  S1  UNL     1       0.074   2.093  -0.017  1.00  0.00    -0.090 SA
BRANCH   8   9
HETATM    9  C6  UNL     1       1.488   1.599   1.012  1.00  0.00     0.093 C 
BRANCH   9  10
HETATM   10  C7  UNL     1       1.586   0.118   1.094  1.00  0.00     0.091 C 
BRANCH  10  11
HETATM   11  S2  UNL     1       2.949  -0.404   2.140  1.00  0.00    -0.105 SA
BRANCH  11  12
HETATM   12  C8  UNL     1       4.486   0.097   1.372  1.00  0.00     0.148 A 
HETATM   13  N5  UNL     1       5.060  -0.711   0.486  1.00  0.00    -0.329 N 
HETATM   14  C9  UNL     1       6.254  -0.346  -0.102  1.00  0.00     0.150 A 
ATOM     15  H5  UNL     1       4.619  -1.598   0.242  1.00  0.00     0.168 HD
HETATM   16  N6  UNL     1       6.940  -1.025  -0.984  1.00  0.00    -0.320 N 
HETATM   17  C11 UNL     1       6.747   0.862   0.304  1.00  0.00     0.168 A 
HETATM   18  C10 UNL     1       8.076  -0.507  -1.440  1.00  0.00     0.146 A 
ATOM     19  H6  UNL     1       6.611  -1.932  -1.315  1.00  0.00     0.169 HD
HETATM   20  S3  UNL     1       8.190   0.975  -0.607  1.00  0.00    -0.025 SA
HETATM   21  O1  UNL     1       6.142   1.650   1.199  1.00  0.00    -0.262 OA
HETATM   22  C12 UNL     1       5.001   1.313   1.768  1.00  0.00     0.323 A 
HETATM   23  O2  UNL     1       4.435   2.052   2.609  1.00  0.00    -0.257 OA
BRANCH  18  24
HETATM   24  N7  UNL     1       8.920  -0.999  -2.318  1.00  0.00    -0.380 N 
ATOM     25  H72 UNL     1       8.852  -1.886  -2.817  1.00  0.00     0.158 HD
ATOM     26  H71 UNL     1       9.792  -0.601  -2.668  1.00  0.00     0.158 HD
ENDBRANCH  18  24
ENDBRANCH  11  12
ENDBRANCH  10  11
ENDBRANCH   9  10
ENDBRANCH   8   9
ENDBRANCH   6   8
BRANCH   7  27
HETATM   27  N9  UNL     1      -2.060  -0.568  -0.228  1.00  0.00    -0.250 N 
HETATM   28  C13 UNL     1      -1.250  -0.792  -1.336  1.00  0.00     0.337 C 
HETATM   29  O3  UNL     1      -0.449  -0.014  -1.826  1.00  0.00    -0.259 OA
ATOM     30  H9  UNL     1      -2.668  -1.356  -0.005  1.00  0.00     0.191 HD
BRANCH  28  31
HETATM   31  C14 UNL     1      -1.342  -2.108  -2.026  1.00  0.00     0.271 C 
HETATM   32  O4  UNL     1      -2.134  -2.952  -1.580  1.00  0.00    -0.640 OA
HETATM   33  O5  UNL     1      -0.573  -2.399  -3.134  1.00  0.00    -0.640 OA
ENDBRANCH  28  31
ENDBRANCH   7  27
BRANCH   1  34
HETATM   34  C3  UNL     1      -4.342  -0.371   1.718  1.00  0.00     0.158 C 
BRANCH  34  35
HETATM   35  C2  UNL     1      -5.490  -0.038   0.801  1.00  0.00     0.119 A 
HETATM   36  N2  UNL     1      -6.533   0.780   1.032  1.00  0.00    -0.178 N 
HETATM   37  C1  UNL     1      -7.344   0.801  -0.047  1.00  0.00     0.691 A 
ATOM     38  H2  UNL     1      -6.688   1.305   1.893  1.00  0.00     0.185 HD
HETATM   39  N11 UNL     1      -6.788  -0.023  -0.965  1.00  0.00    -0.131 N 
HETATM   40  N10 UNL     1      -5.669  -0.521  -0.438  1.00  0.00    -0.274 N 
ATOM     41  H11 UNL     1      -7.158  -0.227  -1.893  1.00  0.00     0.205 HD
ATOM     42  H10 UNL     1      -5.041  -1.173  -0.908  1.00  0.00     0.189 HD
BRANCH  37  43
HETATM   43  N1  UNL     1      -8.432   1.488  -0.144  1.00  0.00    -0.233 N 
ATOM     44  H12 UNL     1      -8.851   2.109   0.548  1.00  0.00     0.174 HD
ATOM     45  H11 UNL     1      -9.045   1.504  -0.959  1.00  0.00     0.174 HD
ENDBRANCH  37  43
ENDBRANCH  34  35
ENDBRANCH   1  34
TORSDOF 11
