REMARK  12 active torsions:
REMARK  status: ('A' for Active; 'I' for Inactive)
REMARK    1  A    between atoms: O1_2  and  C2_3 
REMARK    2  A    between atoms: C2_3  and  C4_5 
REMARK    3  A    between atoms: C2_3  and  O3_11 
REMARK    4  A    between atoms: C4_5  and  N1_6 
REMARK       I    between atoms: N1_6  and  C5_8 
REMARK    5  A    between atoms: O3_11  and  C7_12 
REMARK    6  A    between atoms: C7_12  and  C8_14 
REMARK    7  A    between atoms: C8_14  and  S1_15 
REMARK    8  A    between atoms: S1_15  and  C9_16 
REMARK    9  A    between atoms: C12_21  and  N3_22 
REMARK   10  A    between atoms: C15_29  and  O5_30 
REMARK   11  A    between atoms: N8_38  and  C17_39 
REMARK   12  A    between atoms: C18_45  and  N11_46 
ROOT
HETATM    1  C9  UNL     1      -1.984   0.742   0.433  1.00  0.00     0.169 A 
HETATM    2  N2  UNL     1      -2.702  -0.293   0.801  1.00  0.00    -0.332 N 
ATOM      3  H2  UNL     1      -2.316  -0.922   1.505  1.00  0.00     0.168 HD
HETATM    4  C10 UNL     1      -3.985  -0.585   0.273  1.00  0.00     0.085 A 
HETATM    5  C11 UNL     1      -4.495   0.276  -0.684  1.00  0.00     0.120 A 
HETATM    6  C12 UNL     1      -5.741  -0.017  -1.188  1.00  0.00     0.131 A 
HETATM    7  N4  UNL     1      -6.437  -1.115  -0.755  1.00  0.00    -0.325 N 
ATOM      8  H4  UNL     1      -7.358  -1.299  -1.152  1.00  0.00     0.169 HD
HETATM    9  C13 UNL     1      -5.955  -1.956   0.170  1.00  0.00     0.140 A 
HETATM   10  C14 UNL     1      -4.708  -1.685   0.691  1.00  0.00     0.091 A 
HETATM   11  C15 UNL     1      -4.471  -2.694   1.602  1.00  0.00     0.171 A 
HETATM   12  N5  UNL     1      -5.555  -3.510   1.595  1.00  0.00    -0.276 N 
ATOM     13  H5  UNL     1      -5.656  -4.343   2.175  1.00  0.00     0.189 HD
HETATM   14  N6  UNL     1      -6.463  -3.081   0.736  1.00  0.00    -0.278 N 
HETATM   15  C16 UNL     1      -7.767  -3.702   0.454  1.00  0.00     0.179 C 
HETATM   16  N7  UNL     1      -3.720   1.404  -1.091  1.00  0.00    -0.284 N 
ATOM     17  H7  UNL     1      -4.096   2.038  -1.796  1.00  0.00     0.188 HD
HETATM   18  N8  UNL     1      -2.449   1.662  -0.542  1.00  0.00    -0.211 N 
ENDROOT
BRANCH   1  19
HETATM   19  S1  UNL     1      -0.377   1.025   1.159  1.00  0.00    -0.082 SA
BRANCH  19  20
HETATM   20  C8  UNL     1       0.897   0.316   0.091  1.00  0.00     0.193 C 
BRANCH  20  21
HETATM   21  C7  UNL     1       2.235   0.622   0.677  1.00  0.00     0.271 C 
HETATM   22  O4  UNL     1       2.283   1.279   1.753  1.00  0.00    -0.264 OA
BRANCH  21  23
HETATM   23  O3  UNL     1       3.424   0.233   0.117  1.00  0.00    -0.281 OA
BRANCH  23  24
HETATM   24  C2  UNL     1       4.670   0.589   0.751  1.00  0.00     0.184 C 
HETATM   25  C3  UNL     1       4.632   2.125   0.861  1.00  0.00     0.081 C 
BRANCH  24  26
HETATM   26  O1  UNL     1       4.757   0.107   2.001  1.00  0.00    -0.358 OA
HETATM   27  C1  UNL     1       4.708  -1.194   2.309  1.00  0.00     0.205 C 
ENDBRANCH  24  26
BRANCH  24  28
HETATM   28  C4  UNL     1       5.760   0.294  -0.217  1.00  0.00     0.191 C 
BRANCH  28  29
HETATM   29  N1  UNL     1       5.992  -1.048  -0.586  1.00  0.00    -0.356 N 
HETATM   30  C5  UNL     1       7.084  -1.294  -1.498  1.00  0.00     0.213 C 
HETATM   31  C6  UNL     1       7.452  -2.636  -1.973  1.00  0.00     0.117 C 
HETATM   32  O2  UNL     1       7.777  -0.318  -1.926  1.00  0.00    -0.274 OA
ATOM     33  H1  UNL     1       5.416  -1.808  -0.226  1.00  0.00     0.162 HD
ENDBRANCH  28  29
ENDBRANCH  24  28
ENDBRANCH  23  24
ENDBRANCH  21  23
ENDBRANCH  20  21
ENDBRANCH  19  20
ENDBRANCH   1  19
BRANCH  18  34
HETATM   34  C17 UNL     1      -1.689   2.797  -0.957  1.00  0.00     0.197 A 
HETATM   35  N9  UNL     1      -0.891   2.974  -2.017  1.00  0.00    -0.220 N 
HETATM   36  O6  UNL     1      -0.403   4.180  -1.981  1.00  0.00    -0.153 OA
ATOM     37  H9  UNL     1      -0.697   2.277  -2.736  1.00  0.00     0.198 HD
HETATM   38  N10 UNL     1      -0.832   4.822  -0.953  1.00  0.00    -0.222 N 
HETATM   39  C18 UNL     1      -1.635   4.012  -0.279  1.00  0.00     0.169 A 
ATOM     40  H10 UNL     1      -0.597   5.782  -0.702  1.00  0.00     0.198 HD
BRANCH  39  41
HETATM   41  N11 UNL     1      -2.289   4.230   0.817  1.00  0.00    -0.381 N 
ATOM     42 2H11 UNL     1      -2.907   3.606   1.336  1.00  0.00     0.157 HD
ATOM     43 1H11 UNL     1      -2.249   5.120   1.314  1.00  0.00     0.157 HD
ENDBRANCH  39  41
ENDBRANCH  18  34
BRANCH   6  44
HETATM   44  N3  UNL     1      -6.256   0.743  -2.073  1.00  0.00    -0.383 N 
ATOM     45  H32 UNL     1      -5.738   1.560  -2.395  1.00  0.00     0.157 HD
ATOM     46  H31 UNL     1      -7.180   0.526  -2.447  1.00  0.00     0.157 HD
ENDBRANCH   6  44
BRANCH  11  47
HETATM   47  O5  UNL     1      -3.323  -2.789   2.345  1.00  0.00    -0.344 OA
ATOM     48  H5  UNL     1      -3.160  -3.484   2.972  1.00  0.00     0.219 HD
ENDBRANCH  11  47
TORSDOF 12
