REMARK  10 active torsions:
REMARK  status: ('A' for Active; 'I' for Inactive)
REMARK       I    between atoms: C2_2  and  N1_4 
REMARK    1  A    between atoms: N1_4  and  C3_6 
REMARK    2  A    between atoms: C4_7  and  N2_8 
REMARK    3  A    between atoms: N2_8  and  C5_9 
REMARK    4  A    between atoms: C9_22  and  C10_23 
REMARK    5  A    between atoms: C10_23  and  O5_25 
REMARK    6  A    between atoms: C12_27  and  N6_28 
REMARK       I    between atoms: N6_28  and  C13_30 
REMARK    7  A    between atoms: C13_30  and  C14_32 
REMARK    8  A    between atoms: C15_35  and  N8_36 
REMARK    9  A    between atoms: N8_36  and  C16_38 
REMARK   10  A    between atoms: C18_43  and  N10_44 
ROOT
HETATM    1  C3  UNL     1      -1.796   0.167   0.099  1.00  0.00     0.132 A 
HETATM    2  C4  UNL     1      -2.760  -0.735  -0.180  1.00  0.00     0.271 A 
HETATM    3  O4  UNL     1      -2.346  -1.773  -0.929  1.00  0.00    -0.202 OA
HETATM    4  N5  UNL     1      -1.194  -1.901  -1.337  1.00  0.00    -0.257 N 
ATOM      5  H5  UNL     1      -0.951  -2.708  -1.912  1.00  0.00     0.195 HD
HETATM    6  C9  UNL     1      -0.187  -0.932  -1.016  1.00  0.00     0.090 A 
HETATM    7  C12 UNL     1      -0.416   0.163  -0.264  1.00  0.00     0.095 A 
ENDROOT
BRANCH   7   8
HETATM    8  N6  UNL     1       0.312   0.961   0.309  1.00  0.00    -0.316 N 
HETATM    9  C13 UNL     1       1.639   1.365   0.331  1.00  0.00     0.297 C 
HETATM   10  O6  UNL     1       1.924   2.564   0.013  1.00  0.00    -0.263 OA
ATOM     11  H6  UNL     1      -0.228   1.501   0.985  1.00  0.00     0.169 HD
BRANCH   9  12
HETATM   12  C14 UNL     1       2.845   0.574   0.671  1.00  0.00     0.221 A 
HETATM   13  N7  UNL     1       4.091   0.956   0.494  1.00  0.00    -0.315 N 
HETATM   14  C15 UNL     1       4.939  -0.006   0.867  1.00  0.00     0.163 A 
ATOM     15  H7  UNL     1       4.372   1.864   0.122  1.00  0.00     0.169 HD
HETATM   16  C18 UNL     1       4.155  -1.049   1.338  1.00  0.00     0.261 A 
HETATM   17  O9  UNL     1       2.900  -0.611   1.184  1.00  0.00    -0.263 OA
BRANCH  14  18
HETATM   18  N8  UNL     1       6.370   0.015   0.792  1.00  0.00    -0.344 N 
ATOM     19  H8  UNL     1       6.911  -0.784   1.123  1.00  0.00     0.163 HD
BRANCH  18  20
HETATM   20  C16 UNL     1       7.044   1.172   0.246  1.00  0.00     0.311 A 
HETATM   21  C17 UNL     1       8.468   1.493   0.465  1.00  0.00     0.289 A 
HETATM   22  N9  UNL     1       8.116   0.705  -0.731  1.00  0.00    -0.049 N 
ATOM     23  H92 UNL     1       8.403  -0.191  -1.124  1.00  0.00     0.279 HD
ATOM     24  H91 UNL     1       8.276   0.793  -1.735  1.00  0.00     0.279 HD
ENDBRANCH  18  20
ENDBRANCH  14  18
BRANCH  16  25
HETATM   25  N10 UNL     1       4.483  -2.303   1.830  1.00  0.00    -0.086 N 
HETATM   26  O7  UNL     1       3.502  -3.022   2.219  1.00  0.00    -0.530 OA
HETATM   27  O8  UNL     1       5.742  -2.782   1.960  1.00  0.00    -0.530 OA
ENDBRANCH  16  25
ENDBRANCH   9  12
ENDBRANCH   7   8
BRANCH   1  28
HETATM   28  N1  UNL     1      -2.353   1.508   0.263  1.00  0.00    -0.321 N 
HETATM   29  C2  UNL     1      -2.281   2.430  -0.736  1.00  0.00     0.218 C 
HETATM   30  C1  UNL     1      -2.956   3.812  -0.789  1.00  0.00     0.117 C 
HETATM   31  O1  UNL     1      -1.600   2.185  -1.793  1.00  0.00    -0.274 OA
ATOM     32  H1  UNL     1      -2.804   1.758   1.143  1.00  0.00     0.169 HD
ENDBRANCH   1  28
BRANCH   6  33
HETATM   33  C10 UNL     1       1.108  -1.206  -1.710  1.00  0.00     0.168 C 
HETATM   34  C11 UNL     1       0.732  -2.050  -3.040  1.00  0.00     0.046 C 
BRANCH  33  35
HETATM   35  O5  UNL     1       1.776  -2.243  -1.030  1.00  0.00    -0.390 OA
ATOM     36  H5  UNL     1       2.599  -2.417  -1.471  1.00  0.00     0.210 HD
ENDBRANCH  33  35
ENDBRANCH   6  33
BRANCH   2  37
HETATM   37  N2  UNL     1      -4.097  -0.806   0.203  1.00  0.00    -0.358 NA
BRANCH  37  38
HETATM   38  C5  UNL     1      -5.349  -0.851   0.571  1.00  0.00     0.191 A 
HETATM   39  C6  UNL     1      -6.181  -1.983   0.222  1.00  0.00     0.138 A 
HETATM   40  C7  UNL     1      -7.402  -2.199   0.610  1.00  0.00     0.253 A 
HETATM   41  O2  UNL     1      -8.109  -3.221   0.285  1.00  0.00    -0.268 OA
HETATM   42  N3  UNL     1      -8.018  -1.278   1.423  1.00  0.00    -0.275 N 
HETATM   43  C8  UNL     1      -7.306  -0.208   1.768  1.00  0.00     0.329 A 
ATOM     44  H3  UNL     1      -8.976  -1.409   1.747  1.00  0.00     0.173 HD
HETATM   45  O3  UNL     1      -7.815   0.685   2.516  1.00  0.00    -0.247 OA
HETATM   46  N4  UNL     1      -6.016   0.043   1.380  1.00  0.00    -0.283 N 
ATOM     47  H4  UNL     1      -5.548   0.894   1.691  1.00  0.00     0.173 HD
ENDBRANCH  37  38
ENDBRANCH   2  37
TORSDOF 10
