REMARK  6 active torsions:
REMARK  status: ('A' for Active; 'I' for Inactive)
REMARK    1  A    between atoms: C2_2  and  C3_3 
REMARK    2  A    between atoms: C3_3  and  C4_4 
REMARK    3  A    between atoms: C24_29  and  C26_31 
REMARK    4  A    between atoms: C28_34  and  C29_35 
REMARK    5  A    between atoms: C33_40  and  O7_41 
REMARK    6  A    between atoms: C34_43  and  O8_44 
ROOT
HETATM    1  C3  UNL     1       0.716  -1.447   0.133  1.00  0.00     0.154 C 
HETATM    2  O4  UNL     1       0.337  -2.222  -1.056  1.00  0.00    -0.223 OA
HETATM    3  O5  UNL     1      -0.858  -2.717  -0.886  1.00  0.00    -0.226 OA
HETATM    4  C19 UNL     1      -1.846  -1.840  -1.340  1.00  0.00     0.127 C 
HETATM    5  C20 UNL     1      -1.863  -2.144  -2.828  1.00  0.00     0.052 C 
HETATM    6  C21 UNL     1      -3.214  -2.235  -0.855  1.00  0.00     0.044 C 
HETATM    7  C22 UNL     1      -4.201  -1.106  -1.126  1.00  0.00     0.010 C 
HETATM    8  C23 UNL     1      -3.753  -0.001  -0.249  1.00  0.00     0.013 C 
HETATM    9  C24 UNL     1      -4.609   1.135   0.043  1.00  0.00     0.025 C 
HETATM   10  C25 UNL     1      -5.334   0.850   1.384  1.00  0.00     0.024 C 
HETATM   11  C28 UNL     1      -3.632   2.268   0.310  1.00  0.00     0.016 C 
HETATM   12  C30 UNL     1      -2.225   1.662   0.164  1.00  0.00     0.019 C 
HETATM   13  C31 UNL     1      -2.457   0.552  -0.784  1.00  0.00    -0.002 C 
HETATM   14  C32 UNL     1      -2.724   1.257  -2.127  1.00  0.00     0.019 C 
HETATM   15  C33 UNL     1      -1.376  -0.482  -0.952  1.00  0.00     0.128 C 
HETATM   16  C34 UNL     1      -0.364  -0.487   0.204  1.00  0.00     0.197 C 
ENDROOT
BRANCH   1  17
HETATM   17  C2  UNL     1       0.261  -2.645   1.074  1.00  0.00     0.042 C 
HETATM   18  C1  UNL     1       0.787  -3.957   0.629  1.00  0.00     0.008 C 
ENDBRANCH   1  17
BRANCH   1  19
HETATM   19  C4  UNL     1       2.133  -1.266   0.187  1.00  0.00     0.212 C 
HETATM   20  O1  UNL     1       2.827  -2.395   0.672  1.00  0.00    -0.231 OA
HETATM   21  O2  UNL     1       2.965  -2.477   1.918  1.00  0.00    -0.233 OA
HETATM   22  C5  UNL     1       3.322  -1.532   2.761  1.00  0.00     0.187 C 
HETATM   23  C6  UNL     1       4.783  -1.185   2.481  1.00  0.00     0.204 C 
HETATM   24  C17 UNL     1       2.523  -0.288   2.875  1.00  0.00     0.017 C 
HETATM   25  O3  UNL     1       4.909  -1.341   1.152  1.00  0.00    -0.373 OA
HETATM   26  C7  UNL     1       4.411  -0.368   0.311  1.00  0.00     0.085 C 
HETATM   27  C8  UNL     1       5.302   0.815   0.588  1.00  0.00     0.051 C 
HETATM   28  C9  UNL     1       4.809  -0.837  -1.047  1.00  0.00     0.008 C 
HETATM   29  C15 UNL     1       2.941  -0.054   0.393  1.00  0.00     0.028 C 
HETATM   30  C10 UNL     1       4.346  -0.202  -2.084  1.00  0.00    -0.019 C 
HETATM   31  C11 UNL     1       3.458   0.936  -1.936  1.00  0.00    -0.029 C 
HETATM   32  C12 UNL     1       4.216   2.217  -2.218  1.00  0.00     0.019 C 
HETATM   33  C13 UNL     1       2.507   0.886  -3.152  1.00  0.00     0.019 C 
HETATM   34  C14 UNL     1       2.766   1.064  -0.634  1.00  0.00     0.028 C 
HETATM   35  C16 UNL     1       2.712   0.619   1.731  1.00  0.00     0.022 C 
HETATM   36  C18 UNL     1       3.041   0.424   4.141  1.00  0.00     0.012 C 
ENDBRANCH   1  19
BRANCH  16  37
HETATM   37  O8  UNL     1      -1.180  -0.780   1.345  1.00  0.00    -0.389 OA
ATOM     38  H8  UNL     1      -1.889  -0.150   1.392  1.00  0.00     0.210 HD
ENDBRANCH  16  37
BRANCH  15  39
HETATM   39  O7  UNL     1      -0.652  -0.007  -2.039  1.00  0.00    -0.383 OA
ATOM     40  H7  UNL     1      -0.352   0.860  -1.791  1.00  0.00     0.210 HD
ENDBRANCH  15  39
BRANCH   9  41
HETATM   41  C26 UNL     1      -5.681   1.501  -0.865  1.00  0.00     0.132 C 
HETATM   42  C27 UNL     1      -6.528   2.684  -0.569  1.00  0.00     0.091 C 
HETATM   43  O6  UNL     1      -5.902   0.862  -1.860  1.00  0.00    -0.298 OA
ENDBRANCH   9  41
BRANCH  11  44
HETATM   44  C29 UNL     1      -3.794   2.806   1.742  1.00  0.00     0.120 C 
HETATM   45 CL1  UNL     1      -2.573   4.123   1.875  1.00  0.00    -0.130 Cl
ENDBRANCH  11  44
TORSDOF 6
