REMARK  4 active torsions:
REMARK  status: ('A' for Active; 'I' for Inactive)
REMARK    1  A    between atoms: N1_2  and  C3_4 
REMARK    2  A    between atoms: C3_4  and  C4_5 
REMARK    3  A    between atoms: C4_5  and  N2_6 
REMARK    4  A    between atoms: C5_8  and  C6_9 
ROOT
HETATM    1  N2  UNL     1       0.597   1.291   0.007  1.00  0.00    -0.294 N 
HETATM    2  S1  UNL     1      -0.633   0.649   1.097  1.00  0.00    -0.024 SA
HETATM    3  C5  UNL     1      -1.970   0.567  -0.172  1.00  0.00     0.175 C 
HETATM    4  N3  UNL     1      -1.112   0.347  -1.331  1.00  0.00    -0.351 N 
ATOM      5  H3  UNL     1      -1.344  -0.291  -2.092  1.00  0.00     0.163 HD
HETATM    6  C10 UNL     1       0.068   1.108  -1.286  1.00  0.00     0.181 C 
HETATM    7  S2  UNL     1       0.737   1.716  -2.679  1.00  0.00    -0.040 SA
ENDROOT
BRANCH   1   8
HETATM    8  C4  UNL     1       1.814   1.890   0.397  1.00  0.00     0.169 C 
BRANCH   8   9
HETATM    9  C3  UNL     1       3.101   1.239   0.062  1.00  0.00     0.292 C 
BRANCH   9  10
HETATM   10  N1  UNL     1       3.398  -0.039   0.558  1.00  0.00     0.081 N 
HETATM   11  C1  UNL     1       2.639  -1.085  -0.033  1.00  0.00     0.309 C 
HETATM   12  C2  UNL     1       4.814  -0.321   0.428  1.00  0.00     0.309 C 
ENDBRANCH   9  10
ENDBRANCH   8   9
ENDBRANCH   1   8
BRANCH   3  13
HETATM   13  C6  UNL     1      -2.927  -0.517   0.108  1.00  0.00    -0.020 C 
HETATM   14  C7  UNL     1      -2.329  -1.892   0.138  1.00  0.00     0.017 C 
HETATM   15  C8  UNL     1      -3.466  -0.264   1.529  1.00  0.00     0.017 C 
HETATM   16  C9  UNL     1      -4.115  -0.407  -0.801  1.00  0.00     0.017 C 
ENDBRANCH   3  13
TORSDOF 4
