REMARK  2 active torsions:
REMARK  status: ('A' for Active; 'I' for Inactive)
REMARK    1  A    between atoms: C2_3  and  N2_4 
REMARK    2  A    between atoms: N2_4  and  C3_7 
ROOT
HETATM    1  N1  UNL     1       5.269   0.444   0.833  1.00  0.00    -0.196 NA
HETATM    2  C1  UNL     1       4.264   0.003   0.408  1.00  0.00     0.086 C 
HETATM    3  C2  UNL     1       3.002  -0.496  -0.097  1.00  0.00     0.356 C 
ENDROOT
BRANCH   3   4
HETATM    4  N2  UNL     1       2.233   0.623  -0.642  1.00  0.00    -0.057 N 
ATOM      5  H22 UNL     1       2.291   1.478  -0.088  1.00  0.00     0.278 HD
ATOM      6  H21 UNL     1       2.621   1.017  -1.499  1.00  0.00     0.278 HD
BRANCH   4   7
HETATM    7  C3  UNL     1       0.885   0.099  -0.786  1.00  0.00     0.218 C 
HETATM    8  C4  UNL     1       0.033   0.883  -1.758  1.00  0.00     0.207 C 
HETATM    9  O1  UNL     1      -1.276   0.780  -1.314  1.00  0.00    -0.331 OA
HETATM   10  C5  UNL     1      -1.304   0.256  -0.054  1.00  0.00     0.284 C 
HETATM   11  C6  UNL     1       0.091   0.396   0.509  1.00  0.00     0.137 C 
HETATM   12  O2  UNL     1      -1.629  -1.082  -0.127  1.00  0.00    -0.331 OA
HETATM   13  O3  UNL     1      -2.166   0.869   0.823  1.00  0.00    -0.331 OA
HETATM   14  C7  UNL     1      -2.948  -1.161   0.316  1.00  0.00     0.200 C 
HETATM   15  C8  UNL     1      -2.939  -0.146   1.426  1.00  0.00     0.200 C 
ENDBRANCH   4   7
ENDBRANCH   3   4
TORSDOF 2
