REMARK  2 active torsions:
REMARK  status: ('A' for Active; 'I' for Inactive)
REMARK    1  A    between atoms: O1_3  and  C2_4 
REMARK    2  A    between atoms: C5_8  and  C6_9 
ROOT
HETATM    1  N1  UNL     1       5.666  -0.015   0.860  1.00  0.00    -0.164 NA
HETATM    2  C1  UNL     1       4.562  -0.351   0.762  1.00  0.00     0.231 C 
HETATM    3  O1  UNL     1       3.240  -0.732   0.638  1.00  0.00    -0.248 OA
ENDROOT
BRANCH   3   4
HETATM    4  C2  UNL     1       2.183   0.184   0.532  1.00  0.00     0.310 C 
HETATM    5  O2  UNL     1       1.206  -0.101   1.512  1.00  0.00    -0.349 OA
HETATM    6  C3  UNL     1       0.425  -0.773   0.559  1.00  0.00     0.159 C 
HETATM    7  C4  UNL     1      -1.002  -0.332   0.702  1.00  0.00     0.052 C 
HETATM    8  C8  UNL     1       1.169  -0.135  -0.554  1.00  0.00     0.206 C 
HETATM    9  C5  UNL     1      -1.586   0.040  -0.639  1.00  0.00     0.113 C 
HETATM   10  C7  UNL     1      -0.713   1.025  -1.309  1.00  0.00     0.184 C 
HETATM   11  O5  UNL     1       0.613   0.875  -1.211  1.00  0.00    -0.377 OA
BRANCH   9  12
HETATM   12  C6  UNL     1      -2.931   0.617  -0.379  1.00  0.00     0.179 C 
HETATM   13  O3  UNL     1      -3.168   1.778  -0.731  1.00  0.00    -0.648 OA
HETATM   14  O4  UNL     1      -3.943  -0.094   0.247  1.00  0.00    -0.648 OA
ENDBRANCH   9  12
ENDBRANCH   3   4
TORSDOF 2
