REMARK  2 active torsions:
REMARK  status: ('A' for Active; 'I' for Inactive)
REMARK    1  A    between atoms: N2_9  and  N3_11 
REMARK    2  A    between atoms: C8_13  and  C9_15 
ROOT
HETATM    1  N1  UNL     1      -1.991  -3.121  -0.059  1.00  0.00    -0.197 NA
HETATM    2  C1  UNL     1      -1.557  -2.180   0.488  1.00  0.00     0.070 C 
HETATM    3  C2  UNL     1      -1.023  -1.002   1.162  1.00  0.00     0.140 C 
HETATM    4  C3  UNL     1      -2.195  -0.066   1.434  1.00  0.00     0.025 C 
HETATM    5  C4  UNL     1      -2.933   0.275   0.196  1.00  0.00     0.002 C 
HETATM    6  C5  UNL     1      -2.136   0.618  -0.987  1.00  0.00     0.006 C 
HETATM    7  C6  UNL     1      -0.715   0.210  -1.022  1.00  0.00     0.055 C 
HETATM    8  C7  UNL     1      -0.140  -0.229   0.250  1.00  0.00     0.021 C 
HETATM    9  N2  UNL     1       1.067  -0.004   0.648  1.00  0.00    -0.306 N 
ATOM     10  H2  UNL     1       1.399  -0.343   1.551  1.00  0.00     0.186 HD
ENDROOT
BRANCH   9  11
HETATM   11  N3  UNL     1       1.896   0.717  -0.200  1.00  0.00    -0.285 N 
HETATM   12  C8  UNL     1       3.184   0.502  -0.264  1.00  0.00     0.168 C 
HETATM   13  N4  UNL     1       3.891   1.317  -1.175  1.00  0.00    -0.078 NA
ATOM     14  H3  UNL     1       1.487   1.439  -0.793  1.00  0.00     0.188 HD
BRANCH  12  15
HETATM   15  C9  UNL     1       3.849  -0.491   0.531  1.00  0.00     0.304 C 
HETATM   16  O1  UNL     1       5.080  -0.680   0.454  1.00  0.00    -0.299 OA
ENDBRANCH  12  15
ENDBRANCH   9  11
TORSDOF 2
