REMARK  3 active torsions:
REMARK  status: ('A' for Active; 'I' for Inactive)
REMARK    1  A    between atoms: C8_9  and  O1_10 
REMARK    2  A    between atoms: O1_10  and  N2_11 
REMARK    3  A    between atoms: N2_11  and  O2_13 
ROOT
HETATM    1  N1  UNL     1      -2.551   3.308   0.362  1.00  0.00    -0.195 NA
HETATM    2  C1  UNL     1      -1.884   2.347   0.277  1.00  0.00     0.099 C 
HETATM    3  C2  UNL     1      -1.064   1.155   0.178  1.00  0.00     0.214 C 
HETATM    4  C3  UNL     1      -1.891  -0.083   0.402  1.00  0.00     0.059 C 
HETATM    5  C4  UNL     1      -1.030  -1.312   0.279  1.00  0.00    -0.009 C 
HETATM    6  C5  UNL     1      -0.387  -1.306  -1.074  1.00  0.00     0.012 C 
HETATM    7  C6  UNL     1       0.476  -0.077  -1.247  1.00  0.00     0.023 C 
HETATM    8  C7  UNL     1      -0.378   1.148  -1.173  1.00  0.00     0.062 C 
HETATM    9  C8  UNL     1       1.535  -0.114  -0.170  1.00  0.00     0.189 C 
HETATM   10  C9  UNL     1       0.813   0.033   1.158  1.00  0.00     0.220 C 
HETATM   11  C10 UNL     1       0.024  -1.244   1.362  1.00  0.00     0.040 C 
HETATM   12  N3  UNL     1      -0.030   1.207   1.182  1.00  0.00    -0.046 N 
ATOM     13  H31 UNL     1      -0.424   1.359   2.110  1.00  0.00     0.279 HD
ATOM     14  H32 UNL     1       0.523   2.060   1.099  1.00  0.00     0.279 HD
ENDROOT
BRANCH   9  15
HETATM   15  O1  UNL     1       2.540   0.825  -0.346  1.00  0.00    -0.252 OA
BRANCH  15  16
HETATM   16  N2  UNL     1       3.837   0.403  -0.498  1.00  0.00    -0.174 N 
ATOM     17  H2  UNL     1       4.562   0.823   0.083  1.00  0.00     0.223 HD
BRANCH  16  18
HETATM   18  O2  UNL     1       4.163  -0.484  -1.330  1.00  0.00    -0.269 OA
ATOM     19  H2  UNL     1       5.061  -0.776  -1.435  1.00  0.00     0.246 HD
ENDBRANCH  16  18
ENDBRANCH  15  16
ENDBRANCH   9  15
TORSDOF 3
