REMARK  2 active torsions:
REMARK  status: ('A' for Active; 'I' for Inactive)
REMARK       I    between atoms: C1_2  and  N1_3 
REMARK    1  A    between atoms: C1_2  and  C5_11 
REMARK    2  A    between atoms: N1_3  and  N2_5 
ROOT
HETATM    1  O1  UNL     1       0.676  -1.671   1.266  1.00  0.00    -0.264 OA
HETATM    2  C1  UNL     1       0.909  -0.796   0.397  1.00  0.00     0.289 C 
HETATM    3  N1  UNL     1      -0.195  -0.326  -0.359  1.00  0.00    -0.281 N 
ATOM      4  H1  UNL     1      -0.021   0.385  -1.069  1.00  0.00     0.184 HD
ENDROOT
BRANCH   3   5
HETATM    5  N2  UNL     1      -1.478  -0.767  -0.195  1.00  0.00    -0.200 NA
HETATM    6  C2  UNL     1      -2.095  -0.419   1.051  1.00  0.00     0.145 C 
HETATM    7  C3  UNL     1      -2.918   0.850   0.954  1.00  0.00     0.226 C 
HETATM    8  O2  UNL     1      -2.877   1.351  -0.332  1.00  0.00    -0.239 OA
HETATM    9  O3  UNL     1      -3.269   0.421  -1.159  1.00  0.00    -0.225 OA
HETATM   10  C4  UNL     1      -2.325  -0.579  -1.340  1.00  0.00     0.323 C 
ENDBRANCH   3   5
BRANCH   2  11
HETATM   11  C5  UNL     1       2.267  -0.292   0.183  1.00  0.00     0.143 A 
HETATM   12  C6  UNL     1       2.654   0.647  -0.715  1.00  0.00     0.045 A 
HETATM   13  C7  UNL     1       4.015   0.804  -0.562  1.00  0.00     0.027 A 
HETATM   14  C8  UNL     1       4.405  -0.061   0.441  1.00  0.00     0.143 A 
HETATM   15  O4  UNL     1       3.315  -0.675   0.833  1.00  0.00    -0.317 OA
ENDBRANCH   2  11
TORSDOF 2
