REMARK  3 active torsions:
REMARK  status: ('A' for Active; 'I' for Inactive)
REMARK    1  A    between atoms: C2_2  and  C4_4 
REMARK    2  A    between atoms: C4_4  and  N4_11 
REMARK    3  A    between atoms: N1_5  and  N2_7 
ROOT
HETATM    1  N2  UNL     1      -0.913   2.085   1.411  1.00  0.00    -0.235 N 
ATOM      2  H2  UNL     1      -0.258   2.098   2.193  1.00  0.00     0.199 HD
HETATM    3  C5  UNL     1      -1.239   3.271   0.762  1.00  0.00     0.197 C 
HETATM    4  N3  UNL     1      -1.508   4.264   0.207  1.00  0.00    -0.170 NA
ENDROOT
BRANCH   1   5
HETATM    5  N1  UNL     1      -1.464   0.907   1.007  1.00  0.00    -0.276 N 
HETATM    6  C4  UNL     1      -0.930  -0.037   0.358  1.00  0.00     0.123 C 
ATOM      7  H1  UNL     1      -2.441   0.767   1.263  1.00  0.00     0.189 HD
BRANCH   6   8
HETATM    8  C2  UNL     1      -1.753  -1.201   0.051  1.00  0.00    -0.026 C 
HETATM    9  C1  UNL     1      -1.278  -2.224  -0.618  1.00  0.00     0.022 C 
HETATM   10  C3  UNL     1      -3.191  -1.254   0.503  1.00  0.00     0.051 C 
ENDBRANCH   6   8
BRANCH   6  11
HETATM   11  N4  UNL     1       0.417  -0.047  -0.096  1.00  0.00    -0.362 N 
HETATM   12  C6  UNL     1       1.485  -0.738   0.609  1.00  0.00     0.150 C 
HETATM   13  C7  UNL     1       2.672   0.234   0.606  1.00  0.00     0.187 C 
HETATM   14  O1  UNL     1       3.120   0.485  -0.666  1.00  0.00    -0.388 OA
HETATM   15  C8  UNL     1       2.212   0.162  -1.654  1.00  0.00     0.187 C 
HETATM   16  C9  UNL     1       0.814   0.649  -1.319  1.00  0.00     0.150 C 
ENDBRANCH   6  11
ENDBRANCH   1   5
TORSDOF 3
