REMARK  9 active torsions:
REMARK  status: ('A' for Active; 'I' for Inactive)
REMARK    1  A    between atoms: N1_1  and  C1_4 
REMARK    2  A    between atoms: N6_16  and  C5_17 
REMARK    3  A    between atoms: C5_17  and  C6_18 
REMARK    4  A    between atoms: C6_18  and  N7_19 
REMARK    5  A    between atoms: N7_19  and  C7_21 
REMARK    6  A    between atoms: C9_23  and  N8_24 
REMARK    7  A    between atoms: N8_24  and  C10_26 
REMARK    8  A    between atoms: C14_32  and  N10_33 
REMARK    9  A    between atoms: N10_33  and  C15_35 
ROOT
HETATM    1  N7  UNL     1       0.644  -2.311  -0.522  1.00  0.00    -0.374 N 
ATOM      2  H7  UNL     1       0.737  -3.317  -0.662  1.00  0.00     0.161 HD
ENDROOT
BRANCH   1   3
HETATM    3  C6  UNL     1       1.809  -1.494  -0.765  1.00  0.00     0.143 C 
BRANCH   3   4
HETATM    4  C5  UNL     1       2.524  -1.139   0.518  1.00  0.00     0.172 C 
BRANCH   4   5
HETATM    5  N6  UNL     1       3.677  -0.326   0.252  1.00  0.00    -0.258 N 
HETATM    6  C3  UNL     1       3.742   1.032   0.191  1.00  0.00     0.157 A 
HETATM    7  N3  UNL     1       2.805   1.974   0.352  1.00  0.00    -0.335 N 
HETATM    8  C4  UNL     1       5.041   1.398  -0.091  1.00  0.00     0.139 A 
HETATM    9  C2  UNL     1       3.123   3.270   0.241  1.00  0.00     0.183 A 
ATOM     10  H3  UNL     1       1.844   1.703   0.560  1.00  0.00     0.168 HD
HETATM   11  N2  UNL     1       4.392   3.613  -0.034  1.00  0.00    -0.337 N 
HETATM   12  C1  UNL     1       5.394   2.734  -0.210  1.00  0.00     0.132 A 
ATOM     13  H2  UNL     1       4.610   4.606  -0.115  1.00  0.00     0.168 HD
HETATM   14  N4  UNL     1       5.719   0.265  -0.191  1.00  0.00    -0.279 N 
HETATM   15  N5  UNL     1       4.907  -0.742   0.012  1.00  0.00    -0.238 N 
ATOM     16  H4  UNL     1       6.716   0.189  -0.394  1.00  0.00     0.189 HD
ATOM     17  H5  UNL     1       5.189  -1.722  -0.012  1.00  0.00     0.208 HD
BRANCH  12  18
HETATM   18  N1  UNL     1       6.605   3.089  -0.474  1.00  0.00    -0.383 N 
ATOM     19  H12 UNL     1       6.865   4.072  -0.562  1.00  0.00     0.157 HD
ATOM     20  H11 UNL     1       7.365   2.422  -0.608  1.00  0.00     0.157 HD
ENDBRANCH  12  18
ENDBRANCH   4   5
ENDBRANCH   3   4
ENDBRANCH   1   3
BRANCH   1  21
HETATM   21  C7  UNL     1      -0.502  -1.868  -0.143  1.00  0.00     0.120 A 
HETATM   22  C8  UNL     1      -0.719  -0.528   0.069  1.00  0.00     0.097 A 
HETATM   23  C9  UNL     1      -1.958  -0.051   0.478  1.00  0.00     0.120 A 
HETATM   24  N9  UNL     1      -2.907  -0.994   0.646  1.00  0.00    -0.177 N 
HETATM   25  C14 UNL     1      -2.690  -2.298   0.438  1.00  0.00     0.681 A 
ATOM     26  H9  UNL     1      -3.836  -0.699   0.946  1.00  0.00     0.185 HD
HETATM   27  N11 UNL     1      -1.492  -2.751   0.043  1.00  0.00    -0.177 N 
ATOM     28  H11 UNL     1      -1.337  -3.747  -0.113  1.00  0.00     0.185 HD
BRANCH  23  29
HETATM   29  N8  UNL     1      -2.211   1.324   0.704  1.00  0.00    -0.371 N 
ATOM     30  H8  UNL     1      -3.143   1.608   1.005  1.00  0.00     0.161 HD
BRANCH  29  31
HETATM   31  C10 UNL     1      -1.205   2.334   0.526  1.00  0.00     0.083 C 
HETATM   32  C11 UNL     1      -1.703   3.754   0.826  1.00  0.00     0.025 C 
HETATM   33  C12 UNL     1      -2.231   3.760  -0.614  1.00  0.00     0.004 C 
HETATM   34  C13 UNL     1      -1.103   2.768  -0.920  1.00  0.00     0.025 C 
ENDBRANCH  29  31
ENDBRANCH  23  29
BRANCH  25  35
HETATM   35  N10 UNL     1      -3.645  -3.175   0.614  1.00  0.00    -0.221 N 
ATOM     36  H10 UNL     1      -4.564  -2.849   0.914  1.00  0.00     0.178 HD
BRANCH  35  37
HETATM   37  C15 UNL     1      -3.444  -4.574   0.400  1.00  0.00     0.099 A 
HETATM   38  C16 UNL     1      -4.626  -5.428   0.134  1.00  0.00     0.028 A 
HETATM   39  C17 UNL     1      -3.578  -5.182  -0.943  1.00  0.00     0.028 A 
ENDBRANCH  35  37
ENDBRANCH  25  35
ENDBRANCH   1  21
TORSDOF 9
