REMARK  7 active torsions:
REMARK  status: ('A' for Active; 'I' for Inactive)
REMARK    1  A    between atoms: N1_1  and  C1_4 
REMARK    2  A    between atoms: C4_12  and  C5_13 
REMARK    3  A    between atoms: C5_13  and  N4_14 
REMARK    4  A    between atoms: N4_14  and  C6_16 
REMARK    5  A    between atoms: C6_16  and  C7_17 
REMARK    6  A    between atoms: N5_20  and  C10_21 
REMARK    7  A    between atoms: C10_21  and  C11_22 
ROOT
HETATM    1  C1  UNL     1      -7.402   0.986  -0.499  1.00  0.00     0.678 A 
HETATM    2  N2  UNL     1      -6.294   1.353  -1.153  1.00  0.00    -0.176 N 
ATOM      3  H2  UNL     1      -6.323   2.161  -1.774  1.00  0.00     0.186 HD
HETATM    4  C2  UNL     1      -5.147   0.677  -1.006  1.00  0.00     0.137 A 
HETATM    5  N3  UNL     1      -4.082   1.092  -1.679  1.00  0.00    -0.308 N 
ATOM      6  H3  UNL     1      -4.148   1.902  -2.295  1.00  0.00     0.170 HD
HETATM    7  C3  UNL     1      -2.913   0.436  -1.543  1.00  0.00     0.254 A 
HETATM    8  O1  UNL     1      -1.865   0.798  -2.159  1.00  0.00    -0.268 OA
HETATM    9  C4  UNL     1      -2.814  -0.661  -0.716  1.00  0.00     0.028 A 
HETATM   10  C16 UNL     1      -3.912  -1.108  -0.009  1.00  0.00     0.033 A 
HETATM   11  C17 UNL     1      -5.087  -0.411  -0.167  1.00  0.00     0.051 A 
HETATM   12  C18 UNL     1      -6.257  -0.800   0.524  1.00  0.00     0.145 A 
HETATM   13  N8  UNL     1      -6.159  -1.937   1.374  1.00  0.00    -0.081 NA
HETATM   14  N9  UNL     1      -7.361  -0.093   0.335  1.00  0.00    -0.178 N 
ATOM     15  H9  UNL     1      -8.210  -0.365   0.830  1.00  0.00     0.185 HD
ENDROOT
BRANCH   9  16
HETATM   16  C5  UNL     1      -1.502  -1.387  -0.573  1.00  0.00     0.163 C 
BRANCH  16  17
HETATM   17  N4  UNL     1      -0.576  -0.449   0.036  1.00  0.00    -0.397 N 
ATOM     18  H4  UNL     1      -0.808   0.538   0.151  1.00  0.00     0.158 HD
BRANCH  17  19
HETATM   19  C6  UNL     1       0.660  -0.975   0.459  1.00  0.00     0.062 C 
BRANCH  19  20
HETATM   20  C7  UNL     1       1.555   0.128   0.865  1.00  0.00     0.043 C 
HETATM   21  C8  UNL     1       1.976   1.078  -0.194  1.00  0.00     0.031 C 
HETATM   22  C9  UNL     1       3.287   1.663   0.348  1.00  0.00     0.123 C 
HETATM   23  N5  UNL     1       3.739   0.814   1.368  1.00  0.00    -0.388 N 
HETATM   24  C15 UNL     1       2.854  -0.284   1.547  1.00  0.00     0.132 C 
BRANCH  23  25
HETATM   25  C10 UNL     1       5.089   0.669   1.678  1.00  0.00     0.099 C 
BRANCH  25  26
HETATM   26  C11 UNL     1       6.007   0.232   0.631  1.00  0.00     0.010 A 
HETATM   27  C12 UNL     1       6.948   1.125   0.093  1.00  0.00     0.103 A 
HETATM   28  N6  UNL     1       7.807   0.735  -0.874  1.00  0.00    -0.361 N 
HETATM   29  C13 UNL     1       7.784  -0.502  -1.347  1.00  0.00     0.180 A 
ATOM     30  H6  UNL     1       8.483   1.403  -1.245  1.00  0.00     0.166 HD
HETATM   31  N7  UNL     1       6.882  -1.374  -0.839  1.00  0.00    -0.361 N 
HETATM   32  C14 UNL     1       6.009  -1.047   0.120  1.00  0.00     0.103 A 
ATOM     33  H7  UNL     1       6.867  -2.326  -1.205  1.00  0.00     0.166 HD
ENDBRANCH  25  26
ENDBRANCH  23  25
ENDBRANCH  19  20
ENDBRANCH  17  19
ENDBRANCH  16  17
ENDBRANCH   9  16
BRANCH   1  34
HETATM   34  N1  UNL     1      -8.499   1.612  -0.597  1.00  0.00    -0.234 N 
ATOM     35  H12 UNL     1      -8.530   2.419  -1.221  1.00  0.00     0.174 HD
ATOM     36  H11 UNL     1      -9.344   1.332  -0.098  1.00  0.00     0.174 HD
ENDBRANCH   1  34
TORSDOF 7
