REMARK  6 active torsions:
REMARK  status: ('A' for Active; 'I' for Inactive)
REMARK    1  A    between atoms: C6_9  and  S1_10 
REMARK    2  A    between atoms: S1_10  and  C7_11 
REMARK    3  A    between atoms: C7_11  and  C8_12 
REMARK    4  A    between atoms: C8_12  and  N3_13 
REMARK    5  A    between atoms: C9_15  and  C10_16 
REMARK    6  A    between atoms: C11_17  and  O1_18 
ROOT
HETATM    1  C7  UNL     1       1.177   1.548   2.557  1.00  0.00     0.102 C 
ENDROOT
BRANCH   1   2
HETATM    2  S1  UNL     1       0.674   2.288   0.957  1.00  0.00    -0.092 SA
BRANCH   2   3
HETATM    3  C6  UNL     1      -0.976   1.696   0.525  1.00  0.00     0.147 A 
HETATM    4  N2  UNL     1      -1.064   0.562  -0.207  1.00  0.00    -0.338 N 
HETATM    5  C5  UNL     1      -2.270   0.114  -0.532  1.00  0.00     0.043 A 
ATOM      6  H2  UNL     1      -0.224   0.064  -0.502  1.00  0.00     0.168 HD
HETATM    7  C4  UNL     1      -2.536  -1.113  -1.329  1.00  0.00     0.061 C 
HETATM    8  C15 UNL     1      -3.411   0.814  -0.119  1.00  0.00     0.121 A 
HETATM    9  C3  UNL     1      -3.639  -1.857  -0.608  1.00  0.00     0.026 C 
HETATM   10  C2  UNL     1      -4.941  -1.125  -0.628  1.00  0.00     0.123 C 
HETATM   11  N1  UNL     1      -4.719   0.322  -0.477  1.00  0.00    -0.379 N 
HETATM   12  C1  UNL     1      -5.758   1.292  -0.671  1.00  0.00     0.150 C 
HETATM   13  C14 UNL     1      -3.307   1.965   0.624  1.00  0.00     0.276 A 
HETATM   14  N6  UNL     1      -2.062   2.387   0.934  1.00  0.00    -0.302 N 
HETATM   15  O4  UNL     1      -4.345   2.577   0.984  1.00  0.00    -0.266 OA
ATOM     16  H6  UNL     1      -1.940   3.238   1.484  1.00  0.00     0.171 HD
ENDBRANCH   2   3
ENDBRANCH   1   2
BRANCH   1  17
HETATM   17  C8  UNL     1       1.337   0.057   2.364  1.00  0.00     0.129 C 
BRANCH  17  18
HETATM   18  N3  UNL     1       2.339  -0.258   1.374  1.00  0.00    -0.397 N 
HETATM   19  C9  UNL     1       3.562   0.100   1.458  1.00  0.00     0.104 C 
ATOM     20  H3  UNL     1       2.053  -0.799   0.558  1.00  0.00     0.158 HD
BRANCH  19  21
HETATM   21  C10 UNL     1       4.497  -0.264   0.412  1.00  0.00     0.098 A 
HETATM   22  C11 UNL     1       4.062  -0.997  -0.672  1.00  0.00     0.161 A 
HETATM   23  N4  UNL     1       4.922  -1.349  -1.661  1.00  0.00    -0.288 N 
HETATM   24  C12 UNL     1       6.202  -0.982  -1.584  1.00  0.00     0.329 A 
ATOM     25  H4  UNL     1       4.591  -1.891  -2.459  1.00  0.00     0.172 HD
HETATM   26  O2  UNL     1       7.015  -1.303  -2.499  1.00  0.00    -0.247 OA
HETATM   27  N5  UNL     1       6.663  -0.266  -0.541  1.00  0.00    -0.275 N 
HETATM   28  C13 UNL     1       5.830   0.091   0.445  1.00  0.00     0.265 A 
ATOM     29  H5  UNL     1       7.646   0.004  -0.502  1.00  0.00     0.173 HD
HETATM   30  O3  UNL     1       6.215   0.761   1.441  1.00  0.00    -0.267 OA
BRANCH  22  31
HETATM   31  O1  UNL     1       2.735  -1.375  -0.746  1.00  0.00    -0.345 OA
ATOM     32  H1  UNL     1       2.435  -1.880  -1.493  1.00  0.00     0.219 HD
ENDBRANCH  22  31
ENDBRANCH  19  21
ENDBRANCH  17  18
ENDBRANCH   1  17
TORSDOF 6
