REMARK  6 active torsions:
REMARK  status: ('A' for Active; 'I' for Inactive)
REMARK    1  A    between atoms: C2_2  and  C3_3 
REMARK    2  A    between atoms: C3_3  and  C4_4 
REMARK    3  A    between atoms: C4_4  and  C5_5 
REMARK    4  A    between atoms: C4_4  and  N1_8 
REMARK    5  A    between atoms: C5_5  and  O1_6 
REMARK    6  A    between atoms: C8_13  and  N3_14 
REMARK       I    between atoms: N3_14  and  C9_16 
REMARK       I    between atoms: C9_16  and  N4_17 
REMARK       I    between atoms: C9_16  and  N5_21 
ROOT
HETATM    1  N1  UNL     1      -1.196  -0.354  -0.946  1.00  0.00    -0.320 N 
HETATM    2  C6  UNL     1      -0.523  -0.133  -2.090  1.00  0.00     0.185 A 
HETATM    3  N2  UNL     1       0.783  -0.045  -1.762  1.00  0.00    -0.346 N 
ATOM      4  H2  UNL     1       1.543   0.120  -2.422  1.00  0.00     0.167 HD
HETATM    5  C7  UNL     1       0.932  -0.207  -0.437  1.00  0.00     0.122 A 
HETATM    6  C8  UNL     1       2.035  -0.212   0.428  1.00  0.00     0.136 A 
HETATM    7  N6  UNL     1       1.852  -0.407   1.744  1.00  0.00    -0.337 N 
ATOM      8  H6  UNL     1       2.656  -0.409   2.371  1.00  0.00     0.168 HD
HETATM    9  C10 UNL     1       0.614  -0.600   2.244  1.00  0.00     0.183 A 
HETATM   10  N7  UNL     1      -0.438  -0.594   1.409  1.00  0.00    -0.336 N 
ATOM     11  H7  UNL     1      -1.369  -0.740   1.798  1.00  0.00     0.168 HD
HETATM   12  C11 UNL     1      -0.318  -0.402   0.069  1.00  0.00     0.141 A 
ENDROOT
BRANCH   6  13
HETATM   13  N3  UNL     1       3.172  -0.020  -0.140  1.00  0.00    -0.325 N 
HETATM   14  C9  UNL     1       4.362  -0.007   0.655  1.00  0.00     0.481 C 
HETATM   15  N4  UNL     1       4.507   1.192   1.462  1.00  0.00    -0.033 N 
HETATM   16  N5  UNL     1       5.566  -0.137  -0.145  1.00  0.00    -0.033 N 
ATOM     17  H43 UNL     1       4.453   2.028   0.880  1.00  0.00     0.278 HD
ATOM     18  H42 UNL     1       3.682   1.337   2.044  1.00  0.00     0.278 HD
ATOM     19  H41 UNL     1       5.355   1.201   2.029  1.00  0.00     0.278 HD
ATOM     20  H53 UNL     1       5.527  -0.969  -0.734  1.00  0.00     0.278 HD
ATOM     21  H52 UNL     1       5.602   0.577  -0.872  1.00  0.00     0.278 HD
ATOM     22  H51 UNL     1       6.414  -0.128   0.422  1.00  0.00     0.278 HD
ATOM     23  H3  UNL     1       3.226   0.122  -1.149  1.00  0.00     0.165 HD
ENDBRANCH   6  13
BRANCH   1  24
HETATM   24  C4  UNL     1      -2.621  -0.519  -0.792  1.00  0.00     0.119 C 
BRANCH  24  25
HETATM   25  C3  UNL     1      -3.374   0.785  -0.798  1.00  0.00     0.054 C 
BRANCH  25  26
HETATM   26  C2  UNL     1      -2.812   1.636   0.305  1.00  0.00    -0.035 C 
HETATM   27  C1  UNL     1      -3.578   2.057   1.299  1.00  0.00     0.007 C 
ENDBRANCH  25  26
ENDBRANCH  24  25
BRANCH  24  28
HETATM   28  C5  UNL     1      -3.109  -1.460  -1.872  1.00  0.00     0.190 C 
BRANCH  28  29
HETATM   29  O1  UNL     1      -2.408  -2.646  -1.850  1.00  0.00    -0.399 OA
ATOM     30  H1  UNL     1      -2.714  -3.237  -2.528  1.00  0.00     0.209 HD
ENDBRANCH  28  29
ENDBRANCH  24  28
ENDBRANCH   1  24
TORSDOF 6
