REMARK  6 active torsions:
REMARK  status: ('A' for Active; 'I' for Inactive)
REMARK    1  A    between atoms: N2_4  and  N3_6 
REMARK    2  A    between atoms: N3_6  and  N4_8 
REMARK    3  A    between atoms: N4_8  and  C1_9 
REMARK    4  A    between atoms: C1_9  and  C2_10 
REMARK    5  A    between atoms: C9_22  and  C10_23 
REMARK    6  A    between atoms: N8_24  and  O1_26 
ROOT
HETATM    1  C2  UNL     1       0.689  -0.100   0.018  1.00  0.00     0.054 A 
HETATM    2  N5  UNL     1      -0.002  -1.118  -0.518  1.00  0.00    -0.355 N 
ATOM      3  H5  UNL     1       0.509  -1.896  -0.934  1.00  0.00     0.166 HD
HETATM    4  C3  UNL     1      -1.365  -1.146  -0.524  1.00  0.00     0.061 A 
HETATM    5  C4  UNL     1      -2.066  -2.187  -1.071  1.00  0.00     0.032 A 
HETATM    6  C5  UNL     1      -3.445  -2.206  -1.072  1.00  0.00     0.004 A 
HETATM    7  C6  UNL     1      -4.118  -1.146  -0.505  1.00  0.00     0.029 A 
HETATM    8  C7  UNL     1      -3.425  -0.090   0.051  1.00  0.00     0.075 A 
HETATM    9  N6  UNL     1      -4.080   1.017   0.643  1.00  0.00    -0.100 NA
HETATM   10  C8  UNL     1      -2.043  -0.088   0.043  1.00  0.00     0.084 A 
HETATM   11  N7  UNL     1      -1.379   0.953   0.591  1.00  0.00    -0.350 N 
ATOM     12  H7  UNL     1      -1.887   1.733   1.008  1.00  0.00     0.166 HD
HETATM   13  C9  UNL     1      -0.015   0.941   0.575  1.00  0.00     0.074 A 
ENDROOT
BRANCH   1  14
HETATM   14  C1  UNL     1       2.173  -0.090   0.013  1.00  0.00     0.196 C 
BRANCH  14  15
HETATM   15  N4  UNL     1       2.735  -1.249  -0.606  1.00  0.00    -0.118 NA
BRANCH  15  16
HETATM   16  N3  UNL     1       4.119  -1.158  -0.567  1.00  0.00    -0.232 N 
ATOM     17  H3  UNL     1       4.632  -1.731   0.103  1.00  0.00     0.205 HD
BRANCH  16  18
HETATM   18  N2  UNL     1       4.833  -0.308  -1.415  1.00  0.00    -0.238 N 
HETATM   19  N1  UNL     1       5.647  -0.776  -2.270  1.00  0.00    -0.330 N 
ATOM     20  H12 UNL     1       5.769  -1.787  -2.325  1.00  0.00     0.178 HD
ATOM     21  H11 UNL     1       6.168  -0.155  -2.889  1.00  0.00     0.178 HD
ATOM     22  H2  UNL     1       4.699   0.701  -1.347  1.00  0.00     0.209 HD
ENDBRANCH  16  18
ENDBRANCH  15  16
ENDBRANCH  14  15
ENDBRANCH   1  14
BRANCH  13  23
HETATM   23  C10 UNL     1       0.707   2.058   1.164  1.00  0.00     0.145 C 
HETATM   24  N8  UNL     1       0.067   3.042   1.690  1.00  0.00    -0.278 N 
ATOM     25  H8  UNL     1      -0.953   3.037   1.693  1.00  0.00     0.193 HD
BRANCH  24  26
HETATM   26  O1  UNL     1       0.737   4.090   2.242  1.00  0.00    -0.290 OA
ATOM     27  H1  UNL     1       0.264   4.817   2.630  1.00  0.00     0.244 HD
ENDBRANCH  24  26
ENDBRANCH  13  23
TORSDOF 6
