REMARK  10 active torsions:
REMARK  status: ('A' for Active; 'I' for Inactive)
REMARK    1  A    between atoms: N1_1  and  N2_4 
REMARK    2  A    between atoms: N2_4  and  C1_5 
REMARK    3  A    between atoms: C1_5  and  C2_6 
REMARK    4  A    between atoms: C2_6  and  O1_7 
REMARK    5  A    between atoms: O1_7  and  C3_8 
REMARK    6  A    between atoms: C3_8  and  C4_9 
REMARK    7  A    between atoms: C4_9  and  N3_10 
REMARK    8  A    between atoms: N3_10  and  C5_12 
REMARK    9  A    between atoms: C6_15  and  N5_16 
REMARK   10  A    between atoms: C9_27  and  N9_28 
ROOT
HETATM    1  C5  UNL     1      -0.946  -0.142   0.278  1.00  0.00     0.134 A 
HETATM    2  N4  UNL     1      -1.219  -1.348  -0.237  1.00  0.00    -0.176 N 
ATOM      3  H4  UNL     1      -0.466  -2.031  -0.316  1.00  0.00     0.186 HD
HETATM    4  C6  UNL     1      -2.467  -1.695  -0.659  1.00  0.00     0.679 A 
HETATM    5  N6  UNL     1      -3.447  -0.795  -0.551  1.00  0.00    -0.176 N 
ATOM      6  H6  UNL     1      -4.381  -1.057  -0.867  1.00  0.00     0.186 HD
HETATM    7  C7  UNL     1      -3.268   0.425  -0.053  1.00  0.00     0.139 A 
HETATM    8  N7  UNL     1      -4.268   1.314   0.046  1.00  0.00    -0.337 N 
ATOM      9  H7  UNL     1      -5.202   1.053  -0.270  1.00  0.00     0.168 HD
HETATM   10  C8  UNL     1      -4.059   2.561   0.561  1.00  0.00     0.183 A 
HETATM   11  N8  UNL     1      -2.837   2.914   0.979  1.00  0.00    -0.338 N 
ATOM     12  H8  UNL     1      -2.678   3.845   1.364  1.00  0.00     0.168 HD
HETATM   13  C9  UNL     1      -1.820   2.040   0.890  1.00  0.00     0.117 A 
HETATM   14  C10 UNL     1      -2.003   0.770   0.372  1.00  0.00     0.096 A 
ENDROOT
BRANCH   1  15
HETATM   15  N3  UNL     1       0.196   0.262   0.696  1.00  0.00    -0.373 N 
ATOM     16  H3  UNL     1       0.289   1.206   1.071  1.00  0.00     0.161 HD
BRANCH  15  17
HETATM   17  C4  UNL     1       1.351  -0.599   0.644  1.00  0.00     0.147 C 
BRANCH  17  18
HETATM   18  C3  UNL     1       2.031  -0.583  -0.697  1.00  0.00     0.187 C 
BRANCH  18  19
HETATM   19  O1  UNL     1       3.121  -1.413  -0.708  1.00  0.00    -0.383 OA
BRANCH  19  20
HETATM   20  C2  UNL     1       4.105  -1.116   0.198  1.00  0.00     0.229 C 
BRANCH  20  21
HETATM   21  C1  UNL     1       4.641   0.261  -0.042  1.00  0.00     0.207 C 
BRANCH  21  22
HETATM   22  N2  UNL     1       5.336   0.511  -1.045  1.00  0.00    -0.348 NA
BRANCH  22  23
HETATM   23  N1  UNL     1       6.230   0.798  -1.867  1.00  0.00    -0.281 N 
ATOM     24  H12 UNL     1       6.910   0.915  -1.116  1.00  0.00     0.191 HD
ATOM     25  H11 UNL     1       6.799   1.003  -2.688  1.00  0.00     0.191 HD
ENDBRANCH  22  23
ENDBRANCH  21  22
ENDBRANCH  20  21
ENDBRANCH  19  20
ENDBRANCH  18  19
ENDBRANCH  17  18
ENDBRANCH  15  17
ENDBRANCH   1  15
BRANCH   4  26
HETATM   26  N5  UNL     1      -2.692  -2.874  -1.153  1.00  0.00    -0.234 N 
ATOM     27  H52 UNL     1      -1.943  -3.562  -1.236  1.00  0.00     0.174 HD
ATOM     28  H51 UNL     1      -3.626  -3.134  -1.469  1.00  0.00     0.174 HD
ENDBRANCH   4  26
BRANCH  13  29
HETATM   29  N9  UNL     1      -0.614   2.347   1.286  1.00  0.00    -0.385 N 
ATOM     30  H92 UNL     1      -0.479   3.283   1.668  1.00  0.00     0.157 HD
ATOM     31  H91 UNL     1       0.158   1.684   1.218  1.00  0.00     0.157 HD
ENDBRANCH  13  29
TORSDOF 10
