REMARK  10 active torsions:
REMARK  status: ('A' for Active; 'I' for Inactive)
REMARK    1  A    between atoms: C2_2  and  N4_21 
REMARK    2  A    between atoms: C3_3  and  C4_4 
REMARK    3  A    between atoms: C4_4  and  C5_5 
REMARK    4  A    between atoms: C5_5  and  C7_8 
REMARK    5  A    between atoms: C7_8  and  N2_9 
REMARK    6  A    between atoms: C7_8  and  C8_13 
REMARK    7  A    between atoms: C8_13  and  O1_14 
REMARK    8  A    between atoms: C8_13  and  N3_16 
REMARK    9  A    between atoms: N3_16  and  S1_18 
REMARK   10  A    between atoms: N4_21  and  N5_23 
ROOT
HETATM    1  C5  UNL     1      -0.114  -1.167  -0.078  1.00  0.00     0.131 C 
HETATM    2  C6  UNL     1      -0.660  -1.327   1.247  1.00  0.00     0.066 C 
HETATM    3  N1  UNL     1      -1.127  -1.463   2.308  1.00  0.00    -0.197 NA
ENDROOT
BRANCH   1   4
HETATM    4  C4  UNL     1      -1.244  -0.819  -1.039  1.00  0.00     0.050 C 
BRANCH   4   5
HETATM    5  C3  UNL     1      -1.916   0.457  -0.626  1.00  0.00     0.001 C 
HETATM    6  C2  UNL     1      -3.200   0.488  -0.325  1.00  0.00     0.017 C 
HETATM    7  C1  UNL     1      -4.050  -0.723  -0.374  1.00  0.00     0.069 C 
BRANCH   6   8
HETATM    8  N4  UNL     1      -3.785   1.719   0.059  1.00  0.00    -0.312 N 
ATOM      9  H4  UNL     1      -3.708   2.514  -0.575  1.00  0.00     0.186 HD
BRANCH   8  10
HETATM   10  N5  UNL     1      -4.453   1.890   1.249  1.00  0.00    -0.345 N 
ATOM     11  H52 UNL     1      -4.521   1.084   1.871  1.00  0.00     0.176 HD
ATOM     12  H51 UNL     1      -4.874   2.777   1.526  1.00  0.00     0.176 HD
ENDBRANCH   8  10
ENDBRANCH   6   8
ENDBRANCH   4   5
ENDBRANCH   1   4
BRANCH   1  13
HETATM   13  C7  UNL     1       1.005  -0.140  -0.176  1.00  0.00     0.249 C 
BRANCH  13  14
HETATM   14  N2  UNL     1       1.476  -0.159  -1.566  1.00  0.00    -0.070 N 
ATOM     15  H23 UNL     1       1.753  -1.088  -1.884  1.00  0.00     0.275 HD
ATOM     16  H22 UNL     1       0.730  -0.008  -2.245  1.00  0.00     0.275 HD
ATOM     17  H21 UNL     1       2.226   0.529  -1.632  1.00  0.00     0.275 HD
ENDBRANCH  13  14
BRANCH  13  18
HETATM   18  C8  UNL     1       2.095  -0.514   0.768  1.00  0.00     0.257 C 
BRANCH  18  19
HETATM   19  O1  UNL     1       1.627  -0.467   2.069  1.00  0.00    -0.374 OA
ATOM     20  H1  UNL     1       2.322  -0.706   2.671  1.00  0.00     0.212 HD
ENDBRANCH  18  19
BRANCH  18  21
HETATM   21  N3  UNL     1       3.242   0.327   0.689  1.00  0.00    -0.312 N 
ATOM     22  H3  UNL     1       3.309   1.090   1.362  1.00  0.00     0.172 HD
BRANCH  21  23
HETATM   23  S1  UNL     1       4.271   0.195  -0.223  1.00  0.00     0.107 S 
HETATM   24  C9  UNL     1       5.472   1.263  -0.127  1.00  0.00     0.152 C 
HETATM   25  O2  UNL     1       4.690  -1.239  -0.552  1.00  0.00    -0.236 OA
ENDBRANCH  21  23
ENDBRANCH  18  21
ENDBRANCH  13  18
ENDBRANCH   1  13
TORSDOF 10
