REMARK  19 active torsions:
REMARK  status: ('A' for Active; 'I' for Inactive)
REMARK    1  A    between atoms: C2_2  and  C3_3 
REMARK    2  A    between atoms: C3_3  and  C5_5 
REMARK    3  A    between atoms: C5_5  and  N1_6 
REMARK    4  A    between atoms: N1_6  and  C6_8 
REMARK    5  A    between atoms: C8_14  and  N4_15 
REMARK    6  A    between atoms: N4_15  and  C9_17 
REMARK    7  A    between atoms: C9_17  and  C10_18 
REMARK    8  A    between atoms: C10_18  and  C11_19 
REMARK    9  A    between atoms: C11_19  and  C12_20 
REMARK   10  A    between atoms: C12_20  and  N5_21 
REMARK       I    between atoms: N5_21  and  C13_23 
REMARK       I    between atoms: C13_23  and  N8_28 
REMARK   11  A    between atoms: N8_28  and  C15_30 
REMARK   12  A    between atoms: C15_30  and  C16_31 
REMARK   13  A    between atoms: C16_31  and  C17_32 
REMARK   14  A    between atoms: C17_32  and  N9_33 
REMARK   15  A    between atoms: N9_33  and  O1_34 
REMARK   16  A    between atoms: O1_34  and  C18_35 
REMARK   17  A    between atoms: C18_35  and  O2_36 
REMARK   18  A    between atoms: C18_35  and  C19_38 
REMARK   19  A    between atoms: C19_38  and  N10_39 
REMARK       I    between atoms: N10_39  and  C22_42 
ROOT
HETATM    1  N5  UNL     1       0.038  -0.228   0.119  1.00  0.00    -0.226 N 
ATOM      2  H5  UNL     1       0.802  -0.160   0.792  1.00  0.00     0.177 HD
HETATM    3  C13 UNL     1      -1.336   0.030   0.496  1.00  0.00     0.682 C 
HETATM    4  N6  UNL     1      -1.545   0.833   1.471  1.00  0.00    -0.126 N 
ATOM      5  H6  UNL     1      -2.500   1.039   1.765  1.00  0.00     0.197 HD
HETATM    6  C14 UNL     1      -0.472   1.425   2.131  1.00  0.00     0.196 C 
HETATM    7  N7  UNL     1       0.410   1.928   2.697  1.00  0.00    -0.171 NA
HETATM    8  N8  UNL     1      -2.377  -0.618  -0.234  1.00  0.00    -0.226 N 
ATOM      9  H8  UNL     1      -2.756  -0.146  -1.055  1.00  0.00     0.177 HD
ENDROOT
BRANCH   1  10
HETATM   10  C12 UNL     1       0.264  -0.578  -1.229  1.00  0.00     0.138 C 
BRANCH  10  11
HETATM   11  C11 UNL     1       1.645  -0.758  -1.707  1.00  0.00     0.022 C 
BRANCH  11  12
HETATM   12  C10 UNL     1       2.505   0.438  -1.677  1.00  0.00     0.024 C 
BRANCH  12  13
HETATM   13  C9  UNL     1       2.895   1.083  -0.421  1.00  0.00     0.163 C 
BRANCH  13  14
HETATM   14  N4  UNL     1       3.715   0.231   0.409  1.00  0.00    -0.198 N 
HETATM   15  F1  UNL     1       3.434  -0.175   1.654  1.00  0.00    -0.097 F 
BRANCH  14  16
HETATM   16  C8  UNL     1       4.974  -0.199  -0.150  1.00  0.00     0.154 A 
HETATM   17  N3  UNL     1       5.185  -1.358  -0.746  1.00  0.00    -0.336 N 
HETATM   18  C7  UNL     1       6.405  -1.683  -1.263  1.00  0.00     0.183 A 
ATOM     19  H3  UNL     1       4.418  -2.026  -0.822  1.00  0.00     0.168 HD
HETATM   20  N2  UNL     1       7.415  -0.807  -1.166  1.00  0.00    -0.337 N 
HETATM   21  C6  UNL     1       7.298   0.386  -0.582  1.00  0.00     0.127 A 
ATOM     22  H2  UNL     1       8.320  -1.066  -1.559  1.00  0.00     0.168 HD
HETATM   23  C23 UNL     1       6.030   0.680  -0.064  1.00  0.00     0.101 A 
HETATM   24 BR1  UNL     1       5.830   2.374   0.788  1.00  0.00    -0.043 Br
BRANCH  21  25
HETATM   25  N1  UNL     1       8.228   1.216  -0.492  1.00  0.00    -0.354 N 
ATOM     26  H1  UNL     1       7.961   2.076  -0.013  1.00  0.00     0.166 HD
BRANCH  25  27
HETATM   27  C5  UNL     1       9.571   1.202  -0.919  1.00  0.00     0.067 C 
BRANCH  27  28
HETATM   28  C3  UNL     1      10.345  -0.055  -0.718  1.00  0.00     0.019 C 
HETATM   29  C4  UNL     1      11.766   0.225  -1.226  1.00  0.00     0.015 C 
BRANCH  28  30
HETATM   30  C2  UNL     1      10.446  -0.482   0.725  1.00  0.00     0.005 C 
HETATM   31  C1  UNL     1      11.070   0.556   1.611  1.00  0.00     0.006 C 
ENDBRANCH  28  30
ENDBRANCH  27  28
ENDBRANCH  25  27
ENDBRANCH  21  25
ENDBRANCH  14  16
ENDBRANCH  13  14
ENDBRANCH  12  13
ENDBRANCH  11  12
ENDBRANCH  10  11
ENDBRANCH   1  10
BRANCH   8  32
HETATM   32  C15 UNL     1      -2.918  -1.893   0.122  1.00  0.00     0.139 C 
BRANCH  32  33
HETATM   33  C16 UNL     1      -3.968  -2.307  -0.854  1.00  0.00     0.038 C 
BRANCH  33  34
HETATM   34  C17 UNL     1      -5.124  -1.355  -0.935  1.00  0.00     0.144 C 
BRANCH  34  35
HETATM   35  N9  UNL     1      -5.784  -1.237   0.375  1.00  0.00    -0.098 NA
BRANCH  35  36
HETATM   36  O1  UNL     1      -6.798  -0.396   0.200  1.00  0.00    -0.253 OA
BRANCH  36  37
HETATM   37  C18 UNL     1      -7.161   0.359   1.282  1.00  0.00     0.307 C 
BRANCH  37  38
HETATM   38  O2  UNL     1      -7.095   1.718   1.090  1.00  0.00    -0.368 OA
ATOM     39  H2  UNL     1      -7.347   2.242   1.841  1.00  0.00     0.212 HD
ENDBRANCH  37  38
BRANCH  37  40
HETATM   40  C19 UNL     1      -8.479  -0.126   1.826  1.00  0.00     0.308 C 
BRANCH  40  41
HETATM   41  N10 UNL     1      -9.578  -0.072   0.922  1.00  0.00    -0.013 N 
HETATM   42  C20 UNL     1      -9.734  -1.305   0.145  1.00  0.00     0.282 C 
HETATM   43  C21 UNL     1     -10.791  -0.037   1.769  1.00  0.00     0.282 C 
HETATM   44  C22 UNL     1      -9.626   1.029   0.063  1.00  0.00     0.286 C 
HETATM   45  N11 UNL     1      -9.312   0.978  -1.183  1.00  0.00    -0.367 N 
HETATM   46  N12 UNL     1     -10.047   2.292   0.565  1.00  0.00    -0.057 NA
ATOM     47 2H11 UNL     1      -9.010   0.073  -1.543  1.00  0.00     0.158 HD
ATOM     48 1H11 UNL     1      -9.347   1.782  -1.810  1.00  0.00     0.158 HD
ENDBRANCH  40  41
ENDBRANCH  37  40
ENDBRANCH  36  37
ENDBRANCH  35  36
ENDBRANCH  34  35
ENDBRANCH  33  34
ENDBRANCH  32  33
ENDBRANCH   8  32
TORSDOF 19
