REMARK  22 active torsions:
REMARK  status: ('A' for Active; 'I' for Inactive)
REMARK    1  A    between atoms: C2_2  and  C3_3 
REMARK    2  A    between atoms: C3_3  and  O1_4 
REMARK    3  A    between atoms: C3_3  and  C4_6 
REMARK    4  A    between atoms: C4_6  and  O2_7 
REMARK    5  A    between atoms: C4_6  and  C5_9 
REMARK    6  A    between atoms: C5_9  and  O3_10 
REMARK    7  A    between atoms: C5_9  and  C6_12 
REMARK    8  A    between atoms: C6_12  and  O4_13 
REMARK    9  A    between atoms: C6_12  and  C7_15 
REMARK   10  A    between atoms: C7_15  and  C8_16 
REMARK   11  A    between atoms: C7_15  and  S1_42 
REMARK   12  A    between atoms: C8_16  and  N1_17 
REMARK   13  A    between atoms: N1_17  and  C9_19 
REMARK   14  A    between atoms: C9_19  and  C10_20 
REMARK   15  A    between atoms: C10_20  and  N2_21 
REMARK   16  A    between atoms: C10_20  and  C21_36 
REMARK       I    between atoms: N2_21  and  C11_23 
REMARK   17  A    between atoms: C11_23  and  C12_25 
REMARK   18  A    between atoms: C12_25  and  C13_26 
REMARK   19  A    between atoms: C12_25  and  C15_30 
REMARK   20  A    between atoms: C13_26  and  C14_27 
REMARK   21  A    between atoms: C21_36  and  C22_38 
REMARK   22  A    between atoms: S1_42  and  N3_45 
ROOT
HETATM    1  N1  UNL     1       0.709   1.018  -1.224  1.00  0.00    -0.379 N 
ATOM      2  H1  UNL     1       1.613   1.183  -1.666  1.00  0.00     0.164 HD
ENDROOT
BRANCH   1   3
HETATM    3  C8  UNL     1       0.598   0.093  -0.197  1.00  0.00     0.084 C 
BRANCH   3   4
HETATM    4  C7  UNL     1       1.831  -0.571   0.323  1.00  0.00     0.193 C 
BRANCH   4   5
HETATM    5  C6  UNL     1       2.910   0.211   0.964  1.00  0.00     0.174 C 
BRANCH   5   6
HETATM    6  C5  UNL     1       3.617   1.264   0.261  1.00  0.00     0.180 C 
BRANCH   6   7
HETATM    7  C4  UNL     1       4.791   1.950   0.914  1.00  0.00     0.181 C 
BRANCH   7   8
HETATM    8  C3  UNL     1       5.936   1.152   1.374  1.00  0.00     0.171 C 
BRANCH   8   9
HETATM    9  C2  UNL     1       7.151   2.018   1.596  1.00  0.00    -0.003 C 
HETATM   10  C1  UNL     1       8.074   1.582   2.427  1.00  0.00     0.009 C 
ENDBRANCH   8   9
BRANCH   8  11
HETATM   11  O1  UNL     1       5.751   0.428   2.538  1.00  0.00    -0.389 OA
ATOM     12  H1  UNL     1       4.986  -0.117   2.398  1.00  0.00     0.210 HD
ENDBRANCH   8  11
ENDBRANCH   7   8
BRANCH   7  13
HETATM   13  O2  UNL     1       5.318   2.735  -0.187  1.00  0.00    -0.390 OA
ATOM     14  H2  UNL     1       4.578   3.251  -0.484  1.00  0.00     0.210 HD
ENDBRANCH   7  13
ENDBRANCH   6   7
BRANCH   6  15
HETATM   15  O3  UNL     1       2.808   2.377  -0.131  1.00  0.00    -0.390 OA
ATOM     16  H3  UNL     1       2.069   1.945  -0.542  1.00  0.00     0.210 HD
ENDBRANCH   6  15
ENDBRANCH   5   6
BRANCH   5  17
HETATM   17  O4  UNL     1       3.874  -0.827   1.297  1.00  0.00    -0.391 OA
ATOM     18  H4  UNL     1       3.411  -1.517   1.758  1.00  0.00     0.210 HD
ENDBRANCH   5  17
ENDBRANCH   4   5
BRANCH   4  19
HETATM   19  S1  UNL     1       1.220  -1.853   1.460  1.00  0.00     0.222 S 
HETATM   20  O7  UNL     1       0.168  -2.604   0.724  1.00  0.00    -0.210 OA
HETATM   21  O8  UNL     1       0.535  -1.089   2.576  1.00  0.00    -0.210 OA
BRANCH  19  22
HETATM   22  N3  UNL     1       2.482  -2.833   2.041  1.00  0.00    -0.218 NA
HETATM   23  C26 UNL     1       2.640  -2.606   3.472  1.00  0.00     0.128 C 
HETATM   24  C27 UNL     1       2.175  -4.249   1.856  1.00  0.00     0.128 C 
ENDBRANCH  19  22
ENDBRANCH   4  19
ENDBRANCH   3   4
ENDBRANCH   1   3
BRANCH   1  25
HETATM   25  C9  UNL     1      -0.405   1.716  -1.649  1.00  0.00     0.093 C 
BRANCH  25  26
HETATM   26  C10 UNL     1      -1.523   1.104  -2.412  1.00  0.00     0.193 C 
BRANCH  26  27
HETATM   27  N2  UNL     1      -2.204   0.042  -1.642  1.00  0.00    -0.345 N 
HETATM   28  C11 UNL     1      -3.337   0.358  -0.873  1.00  0.00     0.223 C 
HETATM   29  O5  UNL     1      -3.729   1.587  -0.873  1.00  0.00    -0.273 OA
ATOM     30  H2  UNL     1      -1.853  -0.915  -1.669  1.00  0.00     0.163 HD
BRANCH  28  31
HETATM   31  C12 UNL     1      -4.150  -0.559  -0.052  1.00  0.00     0.087 C 
BRANCH  31  32
HETATM   32  C13 UNL     1      -5.113  -1.290  -0.867  1.00  0.00     0.085 C 
BRANCH  32  33
HETATM   33  C14 UNL     1      -4.532  -2.160  -1.947  1.00  0.00     0.354 C 
HETATM   34  F1  UNL     1      -5.546  -2.810  -2.657  1.00  0.00    -0.214 F 
HETATM   35  F2  UNL     1      -3.730  -3.171  -1.468  1.00  0.00    -0.214 F 
ENDBRANCH  32  33
ENDBRANCH  31  32
BRANCH  31  36
HETATM   36  C15 UNL     1      -4.674   0.159   1.144  1.00  0.00    -0.001 C 
HETATM   37  C16 UNL     1      -3.558   0.693   2.010  1.00  0.00     0.005 C 
HETATM   38  C17 UNL     1      -3.019  -0.351   2.937  1.00  0.00     0.000 C 
HETATM   39  C18 UNL     1      -4.144  -0.675   3.932  1.00  0.00     0.000 C 
HETATM   40  C19 UNL     1      -5.169  -1.417   3.065  1.00  0.00     0.000 C 
HETATM   41  C20 UNL     1      -5.681  -0.522   1.971  1.00  0.00     0.005 C 
ENDBRANCH  31  36
ENDBRANCH  28  31
ENDBRANCH  26  27
BRANCH  26  42
HETATM   42  C21 UNL     1      -1.200   0.615  -3.752  1.00  0.00     0.162 C 
HETATM   43  O6  UNL     1      -1.383  -0.592  -3.993  1.00  0.00    -0.294 OA
BRANCH  42  44
HETATM   44  C22 UNL     1      -0.674   1.412  -4.871  1.00  0.00     0.019 A 
HETATM   45  C23 UNL     1      -0.512   2.894  -4.686  1.00  0.00     0.023 C 
HETATM   46  C24 UNL     1       0.237   0.780  -5.871  1.00  0.00     0.018 A 
HETATM   47  C25 UNL     1      -1.181   1.007  -6.277  1.00  0.00     0.018 A 
ENDBRANCH  42  44
ENDBRANCH  26  42
ENDBRANCH  25  26
ENDBRANCH   1  25
TORSDOF 22
