REMARK  21 active torsions:
REMARK  status: ('A' for Active; 'I' for Inactive)
REMARK    1  A    between atoms: C2_2  and  C3_3 
REMARK    2  A    between atoms: C3_3  and  C5_5 
REMARK    3  A    between atoms: C5_5  and  O1_6 
REMARK    4  A    between atoms: C5_5  and  C6_8 
REMARK    5  A    between atoms: C6_8  and  N1_9 
REMARK    6  A    between atoms: N1_9  and  C7_12 
REMARK    7  A    between atoms: C7_12  and  C9_14 
REMARK    8  A    between atoms: C9_14  and  C10_15 
REMARK    9  A    between atoms: C10_15  and  C11_16 
REMARK       I    between atoms: C11_16  and  N2_18 
REMARK   10  A    between atoms: N3_21  and  C14_22 
REMARK   11  A    between atoms: C14_22  and  C15_23 
REMARK   12  A    between atoms: C16_24  and  C17_25 
REMARK   13  A    between atoms: C20_28  and  O3_29 
REMARK   14  A    between atoms: O3_29  and  C21_30 
REMARK   15  A    between atoms: C25_36  and  C26_37 
REMARK   16  A    between atoms: C26_37  and  C27_38 
REMARK   17  A    between atoms: C27_38  and  N4_39 
REMARK   18  A    between atoms: C27_38  and  C28_43 
REMARK   19  A    between atoms: C28_43  and  O4_44 
REMARK   20  A    between atoms: C28_43  and  C29_46 
REMARK   21  A    between atoms: C29_46  and  N5_47 
ROOT
HETATM    1  C11 UNL     1       0.672   1.058   0.747  1.00  0.00     0.220 C 
HETATM    2  O2  UNL     1       1.014   0.460   1.831  1.00  0.00    -0.273 OA
HETATM    3  N2  UNL     1      -0.672   0.945   0.346  1.00  0.00    -0.341 N 
HETATM    4  C12 UNL     1      -1.574   0.138   1.187  1.00  0.00     0.170 C 
HETATM    5  C13 UNL     1      -2.023  -1.008   0.319  1.00  0.00     0.078 C 
HETATM    6  N3  UNL     1      -2.661  -0.540  -0.844  1.00  0.00    -0.386 N 
HETATM    7  C24 UNL     1      -1.983   0.431  -1.641  1.00  0.00     0.147 C 
HETATM    8  C25 UNL     1      -1.306   1.508  -0.808  1.00  0.00     0.107 C 
ENDROOT
BRANCH   1   9
HETATM    9  C10 UNL     1       1.730   1.789   0.067  1.00  0.00     0.105 C 
BRANCH   9  10
HETATM   10  C9  UNL     1       3.121   1.339   0.184  1.00  0.00     0.042 C 
BRANCH  10  11
HETATM   11  C7  UNL     1       3.560   0.056  -0.404  1.00  0.00     0.182 C 
HETATM   12  C8  UNL     1       2.815  -1.179  -0.140  1.00  0.00     0.040 C 
BRANCH  11  13
HETATM   13  N1  UNL     1       4.991  -0.168  -0.139  1.00  0.00    -0.069 N 
ATOM     14  H12 UNL     1       5.167  -0.422   0.833  1.00  0.00     0.277 HD
ATOM     15  H11 UNL     1       5.527   0.699  -0.163  1.00  0.00     0.277 HD
BRANCH  13  16
HETATM   16  C6  UNL     1       5.498  -1.138  -1.047  1.00  0.00     0.264 C 
BRANCH  16  17
HETATM   17  C5  UNL     1       7.013  -1.314  -0.873  1.00  0.00     0.147 C 
BRANCH  17  18
HETATM   18  C3  UNL     1       7.330  -1.863   0.478  1.00  0.00     0.012 C 
HETATM   19  C4  UNL     1       6.640  -3.179   0.691  1.00  0.00     0.012 C 
BRANCH  18  20
HETATM   20  C2  UNL     1       8.840  -2.081   0.546  1.00  0.00     0.002 C 
HETATM   21  C1  UNL     1       9.281  -3.050  -0.511  1.00  0.00     0.005 C 
ENDBRANCH  18  20
ENDBRANCH  17  18
BRANCH  17  22
HETATM   22  O1  UNL     1       7.655  -0.111  -1.116  1.00  0.00    -0.394 OA
ATOM     23  H1  UNL     1       7.453   0.238  -1.976  1.00  0.00     0.210 HD
ENDBRANCH  17  22
ENDBRANCH  16  17
ENDBRANCH  13  16
ENDBRANCH  11  13
ENDBRANCH  10  11
ENDBRANCH   9  10
ENDBRANCH   1   9
BRANCH   8  24
HETATM   24  C26 UNL     1      -2.337   2.515  -0.355  1.00  0.00     0.062 C 
BRANCH  24  25
HETATM   25  C27 UNL     1      -1.785   3.665   0.412  1.00  0.00     0.215 C 
BRANCH  25  26
HETATM   26  N4  UNL     1      -2.934   4.488   0.804  1.00  0.00    -0.072 N 
ATOM     27  H43 UNL     1      -3.518   4.769   0.017  1.00  0.00     0.274 HD
ATOM     28  H42 UNL     1      -3.650   3.968   1.312  1.00  0.00     0.274 HD
ATOM     29  H41 UNL     1      -2.556   5.276   1.330  1.00  0.00     0.274 HD
ENDBRANCH  25  26
BRANCH  25  30
HETATM   30  C28 UNL     1      -0.954   4.561  -0.493  1.00  0.00     0.166 C 
BRANCH  30  31
HETATM   31  O4  UNL     1      -1.730   4.971  -1.590  1.00  0.00    -0.392 OA
ATOM     32  H4  UNL     1      -1.211   5.531  -2.155  1.00  0.00     0.210 HD
ENDBRANCH  30  31
BRANCH  30  33
HETATM   33  C29 UNL     1      -0.430   5.710   0.312  1.00  0.00     0.155 C 
BRANCH  33  34
HETATM   34  N5  UNL     1      -1.467   6.535   0.848  1.00  0.00    -0.364 N 
HETATM   35  C30 UNL     1      -1.418   7.807   0.730  1.00  0.00     0.197 C 
HETATM   36  N6  UNL     1      -0.326   8.401   0.062  1.00  0.00    -0.067 NA
HETATM   37  N7  UNL     1      -2.460   8.590   1.271  1.00  0.00    -0.067 NA
ATOM     38  H5  UNL     1      -2.255   6.104   1.330  1.00  0.00     0.161 HD
ENDBRANCH  33  34
ENDBRANCH  30  33
ENDBRANCH  25  30
ENDBRANCH  24  25
ENDBRANCH   8  24
BRANCH   6  39
HETATM   39  C14 UNL     1      -4.067  -0.421  -0.740  1.00  0.00     0.149 C 
BRANCH  39  40
HETATM   40  C15 UNL     1      -4.653  -1.814  -0.638  1.00  0.00    -0.006 C 
HETATM   41  C16 UNL     1      -5.349  -2.182   0.401  1.00  0.00     0.009 C 
BRANCH  41  42
HETATM   42  C17 UNL     1      -5.918  -3.489   0.530  1.00  0.00    -0.036 A 
HETATM   43  C18 UNL     1      -5.803  -4.472  -0.416  1.00  0.00     0.014 A 
HETATM   44  C19 UNL     1      -6.387  -5.730  -0.242  1.00  0.00     0.038 A 
HETATM   45  C20 UNL     1      -7.091  -6.006   0.886  1.00  0.00     0.074 A 
HETATM   46  C22 UNL     1      -7.227  -5.023   1.872  1.00  0.00     0.038 A 
HETATM   47  C23 UNL     1      -6.644  -3.793   1.679  1.00  0.00     0.014 A 
BRANCH  45  48
HETATM   48  O3  UNL     1      -7.684  -7.208   1.119  1.00  0.00    -0.290 OA
BRANCH  48  49
HETATM   49  C21 UNL     1      -7.676  -8.331   0.295  1.00  0.00     0.505 C 
HETATM   50  F1  UNL     1      -7.145  -9.423   0.968  1.00  0.00    -0.184 F 
HETATM   51  F2  UNL     1      -8.989  -8.625  -0.039  1.00  0.00    -0.184 F 
ENDBRANCH  48  49
ENDBRANCH  45  48
ENDBRANCH  41  42
ENDBRANCH  39  40
ENDBRANCH   6  39
TORSDOF 21
