REMARK  13 active torsions:
REMARK  status: ('A' for Active; 'I' for Inactive)
REMARK    1  A    between atoms: C2_2  and  O1_3 
REMARK    2  A    between atoms: C2_2  and  C3_5 
REMARK    3  A    between atoms: C3_5  and  C4_6 
REMARK    4  A    between atoms: C4_6  and  C5_7 
REMARK    5  A    between atoms: C4_6  and  C20_36 
REMARK       I    between atoms: C5_7  and  N1_9 
REMARK    6  A    between atoms: N1_9  and  C6_11 
REMARK    7  A    between atoms: C6_11  and  C7_12 
REMARK    8  A    between atoms: C6_11  and  C17_33 
REMARK       I    between atoms: C7_12  and  N2_14 
REMARK    9  A    between atoms: N2_14  and  C8_16 
REMARK   10  A    between atoms: C8_16  and  C9_17 
REMARK   11  A    between atoms: C8_16  and  C15_29 
REMARK       I    between atoms: C9_17  and  N3_19 
REMARK   12  A    between atoms: N3_19  and  C10_21 
REMARK   13  A    between atoms: C15_29  and  O6_31 
ROOT
HETATM    1  C7  UNL     1       0.793   0.123   1.382  1.00  0.00     0.265 C 
HETATM    2  O3  UNL     1       0.892   0.950   0.483  1.00  0.00    -0.266 OA
HETATM    3  N2  UNL     1       1.930  -0.642   1.749  1.00  0.00    -0.340 N 
ATOM      4  H2  UNL     1       1.838  -1.365   2.462  1.00  0.00     0.163 HD
ENDROOT
BRANCH   1   5
HETATM    5  C6  UNL     1      -0.492  -0.052   2.060  1.00  0.00     0.083 C 
BRANCH   5   6
HETATM    6  N1  UNL     1      -1.688   0.019   1.300  1.00  0.00    -0.325 N 
HETATM    7  C5  UNL     1      -2.291   0.922   0.489  1.00  0.00     0.226 C 
HETATM    8  O2  UNL     1      -1.721   2.046   0.225  1.00  0.00    -0.273 OA
ATOM      9  H1  UNL     1      -2.239  -0.835   1.387  1.00  0.00     0.168 HD
BRANCH   7  10
HETATM   10  C4  UNL     1      -3.622   0.722  -0.143  1.00  0.00     0.084 C 
BRANCH  10  11
HETATM   11  C3  UNL     1      -3.564   0.973  -1.585  1.00  0.00     0.045 C 
BRANCH  11  12
HETATM   12  C2  UNL     1      -2.572   0.050  -2.292  1.00  0.00     0.114 C 
HETATM   13  C1  UNL     1      -2.556   0.344  -3.786  1.00  0.00     0.039 C 
BRANCH  12  14
HETATM   14  O1  UNL     1      -2.955  -1.286  -2.159  1.00  0.00    -0.396 OA
ATOM     15  H1  UNL     1      -2.965  -1.469  -1.227  1.00  0.00     0.210 HD
ENDBRANCH  12  14
ENDBRANCH  11  12
ENDBRANCH  10  11
BRANCH  10  16
HETATM   16  C20 UNL     1      -4.671   1.474   0.642  1.00  0.00    -0.001 C 
HETATM   17  C21 UNL     1      -4.639   2.942   0.602  1.00  0.00     0.005 C 
HETATM   18  C22 UNL     1      -5.668   3.631  -0.254  1.00  0.00     0.000 C 
HETATM   19  C23 UNL     1      -6.648   2.807  -0.968  1.00  0.00     0.000 C 
HETATM   20  C24 UNL     1      -6.967   1.455  -0.460  1.00  0.00     0.000 C 
HETATM   21  C25 UNL     1      -6.067   0.958   0.601  1.00  0.00     0.005 C 
ENDBRANCH  10  16
ENDBRANCH   7  10
ENDBRANCH   5   6
BRANCH   5  22
HETATM   22  C17 UNL     1      -0.527  -1.019   3.205  1.00  0.00     0.033 C 
HETATM   23  C18 UNL     1      -1.634  -0.552   4.133  1.00  0.00     0.016 C 
HETATM   24  C19 UNL     1      -0.739  -2.433   2.802  1.00  0.00     0.016 C 
ENDBRANCH   5  22
ENDBRANCH   1   5
BRANCH   3  25
HETATM   25  C8  UNL     1       3.235  -0.411   1.121  1.00  0.00     0.205 C 
BRANCH  25  26
HETATM   26  C9  UNL     1       3.590  -1.370   0.068  1.00  0.00     0.243 C 
HETATM   27  O4  UNL     1       2.989  -2.410  -0.210  1.00  0.00    -0.271 OA
HETATM   28  N3  UNL     1       4.744  -1.051  -0.711  1.00  0.00    -0.354 N 
ATOM     29  H3  UNL     1       5.242  -0.187  -0.494  1.00  0.00     0.162 HD
BRANCH  28  30
HETATM   30  C10 UNL     1       5.252  -1.869  -1.784  1.00  0.00     0.094 C 
HETATM   31  C11 UNL     1       6.701  -2.146  -1.539  1.00  0.00     0.045 C 
HETATM   32  C12 UNL     1       7.653  -1.153  -2.144  1.00  0.00     0.124 C 
HETATM   33  N4  UNL     1       6.958   0.096  -2.380  1.00  0.00    -0.361 N 
HETATM   34  C13 UNL     1       5.775   0.039  -3.144  1.00  0.00     0.219 C 
ATOM     35  H4  UNL     1       7.310   0.979  -2.009  1.00  0.00     0.162 HD
HETATM   36  O5  UNL     1       5.395   1.035  -3.789  1.00  0.00    -0.274 OA
HETATM   37  C14 UNL     1       5.000  -1.265  -3.146  1.00  0.00     0.128 C 
ENDBRANCH  28  30
ENDBRANCH  25  26
BRANCH  25  38
HETATM   38  C15 UNL     1       4.270  -0.273   2.229  1.00  0.00     0.146 C 
HETATM   39  C16 UNL     1       4.269  -1.508   3.106  1.00  0.00     0.042 C 
BRANCH  38  40
HETATM   40  O6  UNL     1       5.557  -0.059   1.802  1.00  0.00    -0.393 OA
ATOM     41  H6  UNL     1       6.203   0.027   2.493  1.00  0.00     0.210 HD
ENDBRANCH  38  40
ENDBRANCH  25  38
ENDBRANCH   3  25
TORSDOF 13
