REMARK  14 active torsions:
REMARK  status: ('A' for Active; 'I' for Inactive)
REMARK    1  A    between atoms: C5_7  and  C6_8 
REMARK    2  A    between atoms: C6_8  and  C7_9 
REMARK    3  A    between atoms: C7_9  and  C8_10 
REMARK    4  A    between atoms: C7_9  and  N3_17 
REMARK    5  A    between atoms: C9_11  and  C10_12 
REMARK    6  A    between atoms: C10_12  and  N2_13 
REMARK    7  A    between atoms: N3_17  and  C11_19 
REMARK    8  A    between atoms: C11_19  and  C12_20 
REMARK    9  A    between atoms: C12_20  and  C13_21 
REMARK   10  A    between atoms: C13_21  and  C14_22 
REMARK   11  A    between atoms: C14_22  and  N4_23 
REMARK   12  A    between atoms: C15_27  and  O1_28 
REMARK   13  A    between atoms: C15_27  and  N5_30 
REMARK   14  A    between atoms: C26_46  and  O2_47 
ROOT
HETATM    1  C11 UNL     1      -1.149  -1.505  -0.022  1.00  0.00     0.076 C 
HETATM    2  C15 UNL     1      -0.017  -0.680   0.235  1.00  0.00     0.172 C 
ENDROOT
BRANCH   1   3
HETATM    3  N3  UNL     1      -2.304  -0.890   0.711  1.00  0.00    -0.379 N 
ATOM      4  H3  UNL     1      -2.540  -1.189   1.657  1.00  0.00     0.160 HD
BRANCH   3   5
HETATM    5  C7  UNL     1      -3.051   0.105   0.065  1.00  0.00     0.109 C 
BRANCH   5   6
HETATM    6  C6  UNL     1      -4.496   0.142   0.481  1.00  0.00     0.069 C 
BRANCH   6   7
HETATM    7  C5  UNL     1      -5.173  -1.183   0.423  1.00  0.00    -0.032 A 
HETATM    8  C2  UNL     1      -5.657  -1.731  -0.736  1.00  0.00     0.011 A 
HETATM    9  C1  UNL     1      -5.669  -1.180  -2.133  1.00  0.00     0.068 C 
HETATM   10  N1  UNL     1      -6.185  -2.926  -0.424  1.00  0.00    -0.369 N 
HETATM   11  C3  UNL     1      -6.065  -3.171   0.871  1.00  0.00     0.088 A 
ATOM     12  H1  UNL     1      -6.620  -3.559  -1.095  1.00  0.00     0.165 HD
HETATM   13  C4  UNL     1      -5.427  -2.083   1.431  1.00  0.00     0.026 A 
ENDBRANCH   6   7
ENDBRANCH   5   6
BRANCH   5  14
HETATM   14  C8  UNL     1      -2.471   1.476   0.115  1.00  0.00    -0.004 C 
HETATM   15  C9  UNL     1      -2.326   2.292   1.300  1.00  0.00    -0.002 C 
BRANCH  15  16
HETATM   16  C10 UNL     1      -3.442   2.727   2.152  1.00  0.00     0.256 C 
BRANCH  16  17
HETATM   17  N2  UNL     1      -2.911   3.650   3.210  1.00  0.00    -0.076 N 
ATOM     18  H23 UNL     1      -2.151   3.232   3.747  1.00  0.00     0.274 HD
ATOM     19  H22 UNL     1      -2.391   4.435   2.817  1.00  0.00     0.274 HD
ATOM     20  H21 UNL     1      -3.685   3.952   3.801  1.00  0.00     0.274 HD
ENDBRANCH  16  17
ENDBRANCH  15  16
ENDBRANCH   5  14
ENDBRANCH   3   5
ENDBRANCH   1   3
BRANCH   1  21
HETATM   21  C12 UNL     1      -1.662  -2.209  -1.143  1.00  0.00     0.008 C 
BRANCH  21  22
HETATM   22  C13 UNL     1      -0.796  -3.043  -2.046  1.00  0.00     0.056 C 
BRANCH  22  23
HETATM   23  C14 UNL     1      -1.780  -3.677  -3.073  1.00  0.00     0.233 C 
BRANCH  23  24
HETATM   24  N4  UNL     1      -2.447  -2.661  -3.820  1.00  0.00    -0.079 N 
ATOM     25  H43 UNL     1      -2.915  -1.989  -3.212  1.00  0.00     0.274 HD
ATOM     26  H42 UNL     1      -1.787  -2.026  -4.269  1.00  0.00     0.274 HD
ATOM     27  H41 UNL     1      -3.092  -3.076  -4.493  1.00  0.00     0.274 HD
ENDBRANCH  23  24
ENDBRANCH  22  23
ENDBRANCH  21  22
ENDBRANCH   1  21
BRANCH   2  28
HETATM   28  O1  UNL     1      -0.017  -0.490   1.578  1.00  0.00    -0.344 OA
ATOM     29  H1  UNL     1       0.738   0.060   1.749  1.00  0.00     0.219 HD
ENDBRANCH   2  28
BRANCH   2  30
HETATM   30  N5  UNL     1       1.057  -0.007  -0.360  1.00  0.00    -0.292 N 
HETATM   31  C16 UNL     1       1.301  -0.043  -1.843  1.00  0.00     0.136 C 
HETATM   32  C17 UNL     1       2.394  -0.898  -2.331  1.00  0.00     0.039 C 
HETATM   33  C18 UNL     1       3.815  -0.504  -2.268  1.00  0.00     0.115 C 
HETATM   34  N6  UNL     1       4.647  -1.134  -1.303  1.00  0.00    -0.418 N 
HETATM   35  C19 UNL     1       5.698  -0.344  -0.689  1.00  0.00     0.142 C 
ATOM     36  H6  UNL     1       4.509  -2.112  -1.050  1.00  0.00     0.153 HD
HETATM   37  C20 UNL     1       5.975  -0.624   0.718  1.00  0.00     0.009 C 
HETATM   38  C21 UNL     1       6.123   0.365   1.780  1.00  0.00     0.080 C 
HETATM   39  N7  UNL     1       5.443   1.557   1.891  1.00  0.00    -0.399 N 
HETATM   40  C22 UNL     1       4.477   1.807   2.923  1.00  0.00     0.120 C 
ATOM     41  H7  UNL     1       5.634   2.293   1.211  1.00  0.00     0.158 HD
HETATM   42  C23 UNL     1       3.561   2.975   2.791  1.00  0.00     0.039 C 
HETATM   43  C24 UNL     1       2.243   2.824   2.057  1.00  0.00     0.127 C 
HETATM   44  N8  UNL     1       2.434   2.006   0.824  1.00  0.00    -0.351 N 
HETATM   45  C25 UNL     1       3.292   2.768  -0.012  1.00  0.00     0.153 C 
HETATM   46  C26 UNL     1       1.951   0.758   0.483  1.00  0.00     0.223 C 
BRANCH  46  47
HETATM   47  O2  UNL     1       2.519  -0.175   1.213  1.00  0.00    -0.332 OA
ATOM     48  H2  UNL     1       3.106   0.327   1.766  1.00  0.00     0.221 HD
ENDBRANCH  46  47
ENDBRANCH   2  30
TORSDOF 14
