REMARK  13 active torsions:
REMARK  status: ('A' for Active; 'I' for Inactive)
REMARK       I    between atoms: C1_4  and  N3_6 
REMARK    1  A    between atoms: N3_6  and  C2_8 
REMARK    2  A    between atoms: C2_8  and  C3_9 
REMARK    3  A    between atoms: C3_9  and  C4_10 
REMARK    4  A    between atoms: C4_10  and  C5_11 
REMARK    5  A    between atoms: C5_11  and  N4_12 
REMARK    6  A    between atoms: C5_11  and  C15_29 
REMARK    7  A    between atoms: N4_12  and  S1_14 
REMARK    8  A    between atoms: S1_14  and  N5_17 
REMARK    9  A    between atoms: N5_17  and  C6_19 
REMARK   10  A    between atoms: C15_29  and  O4_30 
REMARK   11  A    between atoms: C15_29  and  C16_32 
REMARK   12  A    between atoms: C16_32  and  O5_33 
REMARK   13  A    between atoms: C16_32  and  N6_35 
ROOT
HETATM    1  C5  UNL     1      -0.494  -1.342   0.674  1.00  0.00     0.131 C 
ENDROOT
BRANCH   1   2
HETATM    2  C4  UNL     1      -1.230  -0.225   0.041  1.00  0.00     0.030 C 
BRANCH   2   3
HETATM    3  C3  UNL     1      -0.401   0.611  -0.893  1.00  0.00     0.022 C 
BRANCH   3   4
HETATM    4  C2  UNL     1      -1.239   1.748  -1.492  1.00  0.00     0.122 C 
BRANCH   4   5
HETATM    5  N3  UNL     1      -1.744   2.606  -0.454  1.00  0.00    -0.365 N 
HETATM    6  C1  UNL     1      -2.541   3.739  -0.745  1.00  0.00     0.181 C 
HETATM    7  N1  UNL     1      -2.177   4.936  -0.362  1.00  0.00    -0.374 N 
HETATM    8  N2  UNL     1      -3.755   3.628  -1.460  1.00  0.00    -0.064 NA
ATOM      9  H12 UNL     1      -2.751   5.752  -0.572  1.00  0.00     0.158 HD
ATOM     10  H11 UNL     1      -1.301   5.016   0.154  1.00  0.00     0.158 HD
ATOM     11  H3  UNL     1      -1.522   2.392   0.518  1.00  0.00     0.162 HD
ENDBRANCH   4   5
ENDBRANCH   3   4
ENDBRANCH   2   3
ENDBRANCH   1   2
BRANCH   1  12
HETATM   12  N4  UNL     1       0.624  -1.012   1.480  1.00  0.00    -0.295 N 
ATOM     13  H4  UNL     1       0.537  -0.338   2.240  1.00  0.00     0.174 HD
BRANCH  12  14
HETATM   14  S1  UNL     1       2.098  -1.757   1.155  1.00  0.00     0.315 S 
HETATM   15  O1  UNL     1       1.964  -3.083   0.450  1.00  0.00    -0.183 OA
HETATM   16  O2  UNL     1       2.914  -1.979   2.416  1.00  0.00    -0.183 OA
BRANCH  14  17
HETATM   17  N5  UNL     1       3.060  -0.762   0.146  1.00  0.00    -0.298 N 
ATOM     18  H5  UNL     1       3.062  -0.835  -0.871  1.00  0.00     0.174 HD
BRANCH  17  19
HETATM   19  C6  UNL     1       3.870   0.193   0.874  1.00  0.00     0.094 C 
HETATM   20  C7  UNL     1       5.299  -0.160   0.632  1.00  0.00     0.029 C 
HETATM   21  C8  UNL     1       6.252   0.970   0.473  1.00  0.00     0.040 C 
HETATM   22  C9  UNL     1       5.598   1.989  -0.442  1.00  0.00     0.061 C 
HETATM   23  C10 UNL     1       6.580   3.006  -0.974  1.00  0.00     0.040 C 
HETATM   24  O3  UNL     1       5.016   1.393  -1.554  1.00  0.00    -0.380 OA
HETATM   25  C13 UNL     1       4.481   2.601   0.376  1.00  0.00     0.040 C 
HETATM   26  C11 UNL     1       7.112   2.242  -2.188  1.00  0.00     0.029 C 
HETATM   27  C12 UNL     1       6.001   1.288  -2.523  1.00  0.00     0.168 C 
HETATM   28  C14 UNL     1       3.425   1.555   0.547  1.00  0.00     0.029 C 
ENDBRANCH  17  19
ENDBRANCH  14  17
ENDBRANCH  12  14
ENDBRANCH   1  12
BRANCH   1  29
HETATM   29  C15 UNL     1      -1.501  -2.220   1.439  1.00  0.00     0.216 C 
BRANCH  29  30
HETATM   30  O4  UNL     1      -1.920  -1.521   2.513  1.00  0.00    -0.385 OA
ATOM     31  H4  UNL     1      -2.541  -2.063   2.985  1.00  0.00     0.210 HD
ENDBRANCH  29  30
BRANCH  29  32
HETATM   32  C16 UNL     1      -2.539  -2.692   0.518  1.00  0.00     0.149 C 
BRANCH  32  33
HETATM   33  O5  UNL     1      -2.085  -3.154  -0.621  1.00  0.00    -0.347 OA
ATOM     34  H5  UNL     1      -2.758  -3.460  -1.218  1.00  0.00     0.219 HD
ENDBRANCH  32  33
BRANCH  32  35
HETATM   35  N6  UNL     1      -3.928  -2.707   0.712  1.00  0.00    -0.343 N 
HETATM   36  C17 UNL     1      -4.648  -3.189  -0.473  1.00  0.00     0.130 C 
HETATM   37  C18 UNL     1      -5.666  -2.144  -0.835  1.00  0.00     0.020 C 
HETATM   38  C19 UNL     1      -6.843  -2.119   0.086  1.00  0.00     0.002 C 
HETATM   39  C20 UNL     1      -6.721  -3.097   1.221  1.00  0.00     0.005 C 
HETATM   40  C21 UNL     1      -5.833  -2.647   2.315  1.00  0.00     0.045 C 
HETATM   41  C22 UNL     1      -4.424  -2.299   1.966  1.00  0.00     0.066 C 
ENDBRANCH  32  35
ENDBRANCH  29  32
ENDBRANCH   1  29
TORSDOF 13
