REMARK  7 active torsions:
REMARK  status: ('A' for Active; 'I' for Inactive)
REMARK    1  A    between atoms: C2_2  and  N1_3 
REMARK    2  A    between atoms: N1_3  and  C3_4 
REMARK    3  A    between atoms: N1_3  and  C5_8 
REMARK    4  A    between atoms: C3_4  and  C4_5 
REMARK    5  A    between atoms: C15_18  and  C17_20 
REMARK    6  A    between atoms: C17_20  and  N2_21 
REMARK    7  A    between atoms: N2_21  and  S1_23 
ROOT
HETATM    1  C5  UNL     1      -4.298   1.160  -0.989  1.00  0.00     0.010 C 
HETATM    2  C6  UNL     1      -4.428   1.798   0.430  1.00  0.00     0.068 C 
HETATM    3  C7  UNL     1      -2.913   0.941  -1.231  1.00  0.00    -0.049 C 
HETATM    4  C8  UNL     1      -2.494   0.722  -2.699  1.00  0.00     0.037 C 
HETATM    5  C9  UNL     1      -1.007   0.406  -2.628  1.00  0.00     0.010 C 
HETATM    6  C10 UNL     1      -0.676   0.699  -1.204  1.00  0.00     0.003 C 
HETATM    7  C11 UNL     1       0.618   0.301  -0.706  1.00  0.00    -0.001 C 
HETATM    8  C12 UNL     1       1.452  -0.621  -1.604  1.00  0.00     0.033 C 
HETATM    9  C13 UNL     1       2.864  -0.583  -1.093  1.00  0.00    -0.022 C 
HETATM   10  C14 UNL     1       3.053  -0.781   0.227  1.00  0.00    -0.065 C 
HETATM   11  C15 UNL     1       4.439  -0.739   0.706  1.00  0.00    -0.004 C 
HETATM   12  C16 UNL     1       5.293  -1.585  -0.216  1.00  0.00     0.021 C 
HETATM   13  C19 UNL     1       4.637  -1.224   2.104  1.00  0.00     0.015 C 
HETATM   14  C20 UNL     1       3.406  -1.708   2.805  1.00  0.00     0.002 C 
HETATM   15  C21 UNL     1       2.294  -0.758   2.509  1.00  0.00     0.014 C 
HETATM   16  C22 UNL     1       1.845  -1.030   1.061  1.00  0.00    -0.016 C 
HETATM   17  C23 UNL     1       1.539  -2.482   1.014  1.00  0.00     0.020 C 
HETATM   18  C24 UNL     1       0.722  -0.097   0.745  1.00  0.00     0.003 C 
HETATM   19  C25 UNL     1      -0.549  -0.598   1.327  1.00  0.00     0.007 C 
HETATM   20  C26 UNL     1      -1.744   0.292   0.934  1.00  0.00     0.014 C 
HETATM   21  C27 UNL     1      -1.943   0.103  -0.521  1.00  0.00    -0.015 C 
HETATM   22  C28 UNL     1      -2.007  -1.374  -0.818  1.00  0.00     0.020 C 
ENDROOT
BRANCH   1  23
HETATM   23  N1  UNL     1      -5.385   0.352  -1.277  1.00  0.00    -0.354 N 
BRANCH  23  24
HETATM   24  C2  UNL     1      -6.650   1.059  -1.262  1.00  0.00     0.124 C 
HETATM   25  C1  UNL     1      -7.533   0.833  -0.088  1.00  0.00     0.027 C 
ENDBRANCH  23  24
BRANCH  23  26
HETATM   26  C3  UNL     1      -5.426  -1.011  -1.440  1.00  0.00     0.175 C 
BRANCH  26  27
HETATM   27  C4  UNL     1      -5.822  -1.911  -0.352  1.00  0.00     0.214 C 
HETATM   28  O1  UNL     1      -6.169  -3.104  -0.559  1.00  0.00    -0.643 OA
HETATM   29  O2  UNL     1      -5.831  -1.505   0.962  1.00  0.00    -0.643 OA
ENDBRANCH  26  27
ENDBRANCH  23  26
ENDBRANCH   1  23
BRANCH  11  30
HETATM   30  C17 UNL     1       4.916   0.705   0.537  1.00  0.00     0.145 C 
BRANCH  30  31
HETATM   31  N2  UNL     1       6.261   0.881   0.959  1.00  0.00    -0.319 N 
ATOM     32  H2  UNL     1       6.818   0.109   1.326  1.00  0.00     0.172 HD
BRANCH  31  33
HETATM   33  S1  UNL     1       6.883   2.449   0.816  1.00  0.00     0.222 S 
HETATM   34  C18 UNL     1       6.912   3.034  -0.866  1.00  0.00     0.185 C 
HETATM   35  O3  UNL     1       8.336   2.412   1.270  1.00  0.00    -0.206 OA
HETATM   36  O4  UNL     1       6.199   3.443   1.709  1.00  0.00    -0.206 OA
ENDBRANCH  31  33
ENDBRANCH  30  31
ENDBRANCH  11  30
TORSDOF 7
