REMARK  7 active torsions:
REMARK  status: ('A' for Active; 'I' for Inactive)
REMARK    1  A    between atoms: C9_10  and  C10_11 
REMARK    2  A    between atoms: C10_11  and  N1_12 
REMARK       I    between atoms: N1_12  and  C11_14 
REMARK    3  A    between atoms: C11_14  and  C12_16 
REMARK    4  A    between atoms: C12_16  and  C13_17 
REMARK    5  A    between atoms: C13_17  and  C14_18 
REMARK    6  A    between atoms: C17_21  and  C18_22 
REMARK    7  A    between atoms: C18_22  and  N2_23 
ROOT
HETATM    1  C14 UNL     1       0.867   0.373  -1.132  1.00  0.00    -0.058 A 
HETATM    2  C15 UNL     1       1.435   0.528   0.115  1.00  0.00     0.007 A 
HETATM    3  C16 UNL     1       2.760   0.958   0.252  1.00  0.00     0.009 A 
HETATM    4  C17 UNL     1       3.546   1.240  -0.850  1.00  0.00    -0.040 A 
HETATM    5  C27 UNL     1       2.949   1.075  -2.099  1.00  0.00     0.009 A 
HETATM    6  C28 UNL     1       1.644   0.653  -2.234  1.00  0.00     0.007 A 
ENDROOT
BRANCH   1   7
HETATM    7  C13 UNL     1      -0.540  -0.075  -1.303  1.00  0.00     0.047 C 
BRANCH   7   8
HETATM    8  C12 UNL     1      -1.379   1.195  -1.336  1.00  0.00     0.107 C 
BRANCH   8   9
HETATM    9  C11 UNL     1      -2.807   0.811  -1.512  1.00  0.00     0.218 C 
HETATM   10  N1  UNL     1      -3.761   1.891  -1.589  1.00  0.00    -0.357 N 
ATOM     11  H1  UNL     1      -3.461   2.864  -1.525  1.00  0.00     0.162 HD
HETATM   12  O2  UNL     1      -3.161  -0.382  -1.588  1.00  0.00    -0.274 OA
BRANCH  10  13
HETATM   13  C10 UNL     1      -5.136   1.556  -1.758  1.00  0.00     0.161 C 
BRANCH  13  14
HETATM   14  C9  UNL     1      -5.762   1.081  -0.492  1.00  0.00    -0.040 A 
HETATM   15  C8  UNL     1      -5.075   1.077   0.703  1.00  0.00     0.009 A 
HETATM   16  C7  UNL     1      -5.725   0.619   1.848  1.00  0.00     0.009 A 
HETATM   17  C6  UNL     1      -7.037   0.173   1.802  1.00  0.00    -0.044 A 
HETATM   18  C5  UNL     1      -7.887  -0.349   2.899  1.00  0.00     0.118 C 
HETATM   19  C30 UNL     1      -7.741   0.170   0.616  1.00  0.00    -0.036 A 
HETATM   20  C4  UNL     1      -9.252  -0.245   2.325  1.00  0.00     0.143 C 
HETATM   21  C2  UNL     1      -9.112  -0.350   0.862  1.00  0.00     0.041 C 
HETATM   22  O1  UNL     1     -10.294  -0.100   2.948  1.00  0.00    -0.296 OA
HETATM   23  C1  UNL     1     -10.116   0.518   0.129  1.00  0.00     0.028 C 
HETATM   24  C3  UNL     1      -9.298  -1.773   0.423  1.00  0.00     0.028 C 
HETATM   25  C29 UNL     1      -7.067   0.630  -0.499  1.00  0.00     0.017 A 
ENDBRANCH  13  14
ENDBRANCH  10  13
ENDBRANCH   8   9
ENDBRANCH   7   8
ENDBRANCH   1   7
BRANCH   4  26
HETATM   26  C18 UNL     1       4.932   1.701  -0.786  1.00  0.00     0.175 C 
BRANCH  26  27
HETATM   27  N2  UNL     1       5.842   0.629  -0.530  1.00  0.00    -0.265 N 
HETATM   28  C19 UNL     1       6.407  -0.116  -1.628  1.00  0.00     0.326 C 
HETATM   29  O3  UNL     1       6.104   0.167  -2.796  1.00  0.00    -0.247 OA
HETATM   30  N3  UNL     1       7.307  -1.162  -1.295  1.00  0.00    -0.333 N 
HETATM   31  C20 UNL     1       7.922  -1.150   0.015  1.00  0.00     0.043 C 
ATOM     32  H3  UNL     1       7.515  -1.904  -1.963  1.00  0.00     0.165 HD
HETATM   33  C21 UNL     1       8.841   0.053   0.053  1.00  0.00     0.039 C 
HETATM   34  C22 UNL     1       8.740  -2.388   0.183  1.00  0.00     0.039 C 
HETATM   35  C23 UNL     1       6.813  -1.041   1.042  1.00  0.00     0.059 C 
HETATM   36  C24 UNL     1       5.815  -2.124   0.739  1.00  0.00     0.027 C 
HETATM   37  C25 UNL     1       7.296  -1.191   2.447  1.00  0.00     0.027 C 
HETATM   38  C26 UNL     1       6.197   0.300   0.810  1.00  0.00     0.238 C 
HETATM   39  O4  UNL     1       5.994   1.113   1.731  1.00  0.00    -0.272 OA
ENDBRANCH  26  27
ENDBRANCH   4  26
TORSDOF 7
