REMARK  7 active torsions:
REMARK  status: ('A' for Active; 'I' for Inactive)
REMARK    1  A    between atoms: C2_2  and  N1_3 
REMARK    2  A    between atoms: N1_3  and  C3_6 
REMARK    3  A    between atoms: C3_6  and  C4_7 
REMARK    4  A    between atoms: C4_7  and  C5_8 
REMARK    5  A    between atoms: C5_8  and  C7_10 
REMARK    6  A    between atoms: C7_10  and  C8_11 
REMARK    7  A    between atoms: C8_11  and  N2_12 
ROOT
HETATM    1  N2  UNL     1       2.037   0.219  -0.022  1.00  0.00    -0.348 N 
HETATM    2  C9  UNL     1       1.409   0.814  -1.147  1.00  0.00     0.160 C 
HETATM    3  C10 UNL     1      -0.082   0.827  -1.108  1.00  0.00    -0.060 C 
HETATM    4  C11 UNL     1      -0.705   1.350  -2.129  1.00  0.00    -0.021 C 
HETATM    5  C12 UNL     1      -2.159   1.482  -2.326  1.00  0.00     0.033 C 
HETATM    6  C13 UNL     1      -2.966   0.896  -1.151  1.00  0.00     0.004 C 
HETATM    7  C14 UNL     1      -3.603  -0.292  -1.754  1.00  0.00     0.016 C 
HETATM    8  C15 UNL     1      -4.669   0.409  -2.618  1.00  0.00     0.034 C 
HETATM    9  C16 UNL     1      -5.604   0.678  -1.466  1.00  0.00    -0.022 C 
HETATM   10  C17 UNL     1      -5.450  -0.230  -0.535  1.00  0.00    -0.060 C 
HETATM   11  C18 UNL     1      -6.108  -0.434   0.765  1.00  0.00     0.034 C 
HETATM   12  C19 UNL     1      -6.595  -1.877   0.603  1.00  0.00     0.131 C 
HETATM   13  N3  UNL     1      -6.634  -2.241  -0.842  1.00  0.00    -0.359 N 
ATOM     14  H3  UNL     1      -7.477  -2.680  -1.212  1.00  0.00     0.162 HD
HETATM   15  C20 UNL     1      -5.538  -2.001  -1.735  1.00  0.00     0.230 C 
HETATM   16  O1  UNL     1      -5.501  -2.399  -2.862  1.00  0.00    -0.272 OA
HETATM   17  C21 UNL     1      -4.475  -1.198  -1.053  1.00  0.00     0.065 C 
HETATM   18  C22 UNL     1      -3.848  -2.270  -0.272  1.00  0.00     0.031 C 
HETATM   19  C23 UNL     1      -5.225  -0.107   1.860  1.00  0.00     0.015 C 
HETATM   20  C24 UNL     1      -4.289   1.035   1.519  1.00  0.00    -0.009 A 
HETATM   21  C25 UNL     1      -4.049   1.868   2.795  1.00  0.00     0.005 A 
HETATM   22  C26 UNL     1      -2.573   1.598   2.568  1.00  0.00     0.006 A 
HETATM   23  C27 UNL     1      -2.868   0.717   1.382  1.00  0.00    -0.001 A 
HETATM   24  C28 UNL     1      -2.195   0.998   0.079  1.00  0.00    -0.028 C 
HETATM   25  C29 UNL     1      -1.906   2.520   0.238  1.00  0.00     0.016 C 
HETATM   26  C30 UNL     1      -0.907   0.279  -0.011  1.00  0.00     0.033 C 
HETATM   27  C31 UNL     1      -0.122   0.158   1.253  1.00  0.00     0.113 C 
HETATM   28  C32 UNL     1       1.262  -0.321   1.033  1.00  0.00     0.220 C 
HETATM   29  O2  UNL     1       1.773  -1.200   1.761  1.00  0.00    -0.273 OA
ENDROOT
BRANCH   1  30
HETATM   30  C8  UNL     1       3.480   0.142   0.092  1.00  0.00     0.126 C 
BRANCH  30  31
HETATM   31  C7  UNL     1       4.053  -1.118  -0.508  1.00  0.00     0.024 C 
BRANCH  31  32
HETATM   32  C5  UNL     1       5.540  -1.122  -0.344  1.00  0.00    -0.015 C 
HETATM   33  C6  UNL     1       6.086  -2.397  -0.954  1.00  0.00     0.010 C 
BRANCH  32  34
HETATM   34  C4  UNL     1       6.215   0.055  -1.017  1.00  0.00     0.031 C 
BRANCH  34  35
HETATM   35  C3  UNL     1       7.713  -0.053  -0.777  1.00  0.00     0.232 C 
BRANCH  35  36
HETATM   36  N1  UNL     1       7.918  -0.021   0.640  1.00  0.00    -0.075 N 
ATOM     37  H12 UNL     1       7.370  -0.748   1.099  1.00  0.00     0.277 HD
ATOM     38  H11 UNL     1       7.482   0.806   1.048  1.00  0.00     0.277 HD
BRANCH  36  39
HETATM   39  C2  UNL     1       9.301  -0.108   1.027  1.00  0.00     0.228 C 
HETATM   40  C1  UNL     1       9.392  -0.061   2.552  1.00  0.00     0.034 C 
ENDBRANCH  36  39
ENDBRANCH  35  36
ENDBRANCH  34  35
ENDBRANCH  32  34
ENDBRANCH  31  32
ENDBRANCH  30  31
ENDBRANCH   1  30
TORSDOF 7
