REMARK  7 active torsions:
REMARK  status: ('A' for Active; 'I' for Inactive)
REMARK    1  A    between atoms: C2_2  and  N1_3 
REMARK    2  A    between atoms: N1_3  and  C3_4 
REMARK    3  A    between atoms: N1_3  and  S1_6 
REMARK    4  A    between atoms: S1_6  and  C5_9 
REMARK    5  A    between atoms: C8_12  and  C9_13 
REMARK    6  A    between atoms: C12_16  and  N2_17 
REMARK       I    between atoms: N2_17  and  C13_19 
REMARK    7  A    between atoms: C13_19  and  C14_21 
ROOT
HETATM    1  C9  UNL     1      -1.383  -1.091   0.348  1.00  0.00    -0.026 A 
HETATM    2  C10 UNL     1      -0.620  -2.095  -0.185  1.00  0.00     0.014 A 
HETATM    3  C11 UNL     1       0.778  -1.981  -0.212  1.00  0.00     0.030 A 
HETATM    4  C12 UNL     1       1.435  -0.883   0.282  1.00  0.00     0.035 A 
HETATM    5  C24 UNL     1       0.614   0.122   0.819  1.00  0.00     0.030 A 
HETATM    6  C25 UNL     1      -0.734   0.022   0.851  1.00  0.00     0.014 A 
ENDROOT
BRANCH   4   7
HETATM    7  N2  UNL     1       2.823  -0.710   0.287  1.00  0.00    -0.323 N 
HETATM    8  C13 UNL     1       3.796  -1.655   0.040  1.00  0.00     0.256 C 
HETATM    9  O3  UNL     1       3.520  -2.871  -0.210  1.00  0.00    -0.267 OA
ATOM     10  H2  UNL     1       3.156   0.230   0.499  1.00  0.00     0.169 HD
BRANCH   8  11
HETATM   11  C14 UNL     1       5.206  -1.277   0.067  1.00  0.00     0.039 A 
HETATM   12  C15 UNL     1       6.079  -2.003   0.859  1.00  0.00     0.020 A 
HETATM   13  C16 UNL     1       7.420  -1.649   1.016  1.00  0.00     0.033 A 
HETATM   14  C17 UNL     1       7.870  -0.530   0.350  1.00  0.00     0.063 A 
HETATM   15  N3  UNL     1       9.059   0.135   0.248  1.00  0.00    -0.296 N 
HETATM   16  C20 UNL     1       6.996   0.177  -0.431  1.00  0.00     0.052 A 
HETATM   17  N4  UNL     1       8.904   1.200  -0.560  1.00  0.00    -0.274 N 
ATOM     18  H3  UNL     1       9.927  -0.133   0.711  1.00  0.00     0.187 HD
HETATM   19  C18 UNL     1       9.943   2.116  -0.887  1.00  0.00     0.180 C 
HETATM   20  C19 UNL     1       7.635   1.242  -0.987  1.00  0.00     0.172 A 
HETATM   21  O4  UNL     1       6.846   2.067  -1.815  1.00  0.00    -0.334 OA
HETATM   22  C23 UNL     1       5.425   2.085  -1.490  1.00  0.00     0.182 C 
HETATM   23  C22 UNL     1       4.904   0.643  -1.570  1.00  0.00     0.067 C 
HETATM   24  C21 UNL     1       5.655  -0.167  -0.600  1.00  0.00    -0.024 A 
ENDBRANCH   8  11
ENDBRANCH   4   7
BRANCH   1  25
HETATM   25  C8  UNL     1      -2.825  -1.148   0.389  1.00  0.00    -0.026 A 
HETATM   26  C7  UNL     1      -3.496  -0.520   1.440  1.00  0.00     0.014 A 
HETATM   27  C6  UNL     1      -4.862  -0.512   1.534  1.00  0.00     0.025 A 
HETATM   28  C5  UNL     1      -5.626  -1.134   0.579  1.00  0.00     0.074 A 
HETATM   29  C27 UNL     1      -5.006  -1.762  -0.465  1.00  0.00     0.025 A 
HETATM   30  C26 UNL     1      -3.608  -1.768  -0.560  1.00  0.00     0.014 A 
BRANCH  28  31
HETATM   31  S1  UNL     1      -7.350  -1.100   0.714  1.00  0.00     0.243 S 
HETATM   32  O1  UNL     1      -7.859  -1.193   2.110  1.00  0.00    -0.206 OA
HETATM   33  O2  UNL     1      -7.915  -2.319  -0.009  1.00  0.00    -0.206 OA
BRANCH  31  34
HETATM   34  N1  UNL     1      -7.961   0.266  -0.124  1.00  0.00    -0.207 NA
BRANCH  34  35
HETATM   35  C2  UNL     1      -7.688   0.271  -1.529  1.00  0.00     0.103 C 
HETATM   36  C1  UNL     1      -6.410   0.996  -1.802  1.00  0.00     0.021 C 
ENDBRANCH  34  35
BRANCH  34  37
HETATM   37  C3  UNL     1      -7.622   1.515   0.520  1.00  0.00     0.103 C 
HETATM   38  C4  UNL     1      -8.592   1.988   1.541  1.00  0.00     0.021 C 
ENDBRANCH  34  37
ENDBRANCH  31  34
ENDBRANCH  28  31
ENDBRANCH   1  25
TORSDOF 7
