REMARK  8 active torsions:
REMARK  status: ('A' for Active; 'I' for Inactive)
REMARK       I    between atoms: C3_3  and  N1_5 
REMARK    1  A    between atoms: C4_7  and  N2_8 
REMARK    2  A    between atoms: C4_7  and  C13_22 
REMARK    3  A    between atoms: N2_8  and  C5_10 
REMARK    4  A    between atoms: C8_13  and  S1_14 
REMARK    5  A    between atoms: S1_14  and  N3_17 
REMARK    6  A    between atoms: C16_25  and  C17_26 
REMARK       I    between atoms: C17_26  and  N4_28 
REMARK    7  A    between atoms: N4_28  and  C18_30 
REMARK    8  A    between atoms: C21_33  and  C22_34 
ROOT
HETATM    1  C1  UNL     1      -4.464   4.592  -0.650  1.00  0.00     0.022 C 
HETATM    2  C2  UNL     1      -4.032   3.773  -1.421  1.00  0.00    -0.016 C 
HETATM    3  C3  UNL     1      -3.518   2.807  -2.352  1.00  0.00     0.301 C 
HETATM    4  O1  UNL     1      -4.228   2.446  -3.331  1.00  0.00    -0.258 OA
HETATM    5  N1  UNL     1      -2.235   2.247  -2.205  1.00  0.00    -0.301 N 
ATOM      6  H1  UNL     1      -1.663   2.161  -3.045  1.00  0.00     0.171 HD
HETATM    7  C4  UNL     1      -1.730   1.840  -1.115  1.00  0.00     0.119 C 
ENDROOT
BRANCH   7   8
HETATM    8  N2  UNL     1      -2.477   1.935   0.087  1.00  0.00    -0.342 N 
ATOM      9  H2  UNL     1      -2.326   2.707   0.736  1.00  0.00     0.167 HD
BRANCH   8  10
HETATM   10  C5  UNL     1      -3.440   0.930   0.364  1.00  0.00     0.033 A 
HETATM   11  C6  UNL     1      -4.210   0.946   1.520  1.00  0.00     0.031 A 
HETATM   12  C7  UNL     1      -5.142  -0.042   1.769  1.00  0.00     0.027 A 
HETATM   13  C8  UNL     1      -5.348  -1.087   0.884  1.00  0.00     0.079 A 
HETATM   14  C11 UNL     1      -4.580  -1.097  -0.259  1.00  0.00     0.027 A 
HETATM   15  C12 UNL     1      -3.655  -0.115  -0.508  1.00  0.00     0.031 A 
BRANCH  13  16
HETATM   16  S1  UNL     1      -6.533  -2.276   1.282  1.00  0.00     0.260 S 
HETATM   17  O2  UNL     1      -6.547  -2.491   2.749  1.00  0.00    -0.200 OA
HETATM   18  O3  UNL     1      -6.093  -3.588   0.647  1.00  0.00    -0.200 OA
BRANCH  16  19
HETATM   19  N3  UNL     1      -8.098  -1.932   0.732  1.00  0.00    -0.315 N 
HETATM   20  C9  UNL     1      -8.220  -1.830  -0.696  1.00  0.00     0.162 C 
HETATM   21  C10 UNL     1      -8.799  -0.938   1.463  1.00  0.00     0.162 C 
ENDBRANCH  16  19
ENDBRANCH  13  16
ENDBRANCH   8  10
ENDBRANCH   7   8
BRANCH   7  22
HETATM   22  C13 UNL     1      -0.392   1.270  -1.038  1.00  0.00     0.008 A 
HETATM   23  C14 UNL     1       0.169   0.569  -2.089  1.00  0.00     0.016 A 
HETATM   24  C15 UNL     1       1.455   0.043  -1.970  1.00  0.00     0.018 A 
HETATM   25  C16 UNL     1       2.167   0.219  -0.806  1.00  0.00     0.032 A 
HETATM   26  C26 UNL     1       1.641   0.899   0.234  1.00  0.00     0.018 A 
HETATM   27  C27 UNL     1       0.356   1.421   0.104  1.00  0.00     0.016 A 
BRANCH  25  28
HETATM   28  C17 UNL     1       3.522  -0.357  -0.699  1.00  0.00     0.256 C 
HETATM   29  O4  UNL     1       3.780  -1.358  -1.433  1.00  0.00    -0.267 OA
HETATM   30  N4  UNL     1       4.432   0.214   0.181  1.00  0.00    -0.323 N 
ATOM     31  H4  UNL     1       4.114   1.023   0.714  1.00  0.00     0.169 HD
BRANCH  30  32
HETATM   32  C18 UNL     1       5.755  -0.221   0.406  1.00  0.00     0.035 A 
HETATM   33  C19 UNL     1       6.266  -1.428   0.030  1.00  0.00     0.030 A 
HETATM   34  C20 UNL     1       7.610  -1.768   0.281  1.00  0.00     0.009 A 
HETATM   35  C21 UNL     1       8.474  -0.910   0.916  1.00  0.00    -0.058 A 
HETATM   36  C24 UNL     1       7.959   0.308   1.297  1.00  0.00     0.009 A 
HETATM   37  C25 UNL     1       6.655   0.649   1.057  1.00  0.00     0.030 A 
BRANCH  35  38
HETATM   38  C22 UNL     1       9.884  -1.274   1.176  1.00  0.00     0.034 C 
HETATM   39  C23 UNL     1      10.783  -0.857   0.013  1.00  0.00     0.010 C 
ENDBRANCH  35  38
ENDBRANCH  30  32
ENDBRANCH  25  28
ENDBRANCH   7  22
TORSDOF 8
