REMARK  7 active torsions:
REMARK  status: ('A' for Active; 'I' for Inactive)
REMARK    1  A    between atoms: C3_3  and  N1_4 
REMARK       I    between atoms: N1_4  and  C5_6 
REMARK       I    between atoms: C5_6  and  N2_8 
REMARK    2  A    between atoms: N2_8  and  C7_10 
REMARK    3  A    between atoms: C10_13  and  N3_14 
REMARK       I    between atoms: N3_14  and  C11_16 
REMARK    4  A    between atoms: C11_16  and  C12_18 
REMARK    5  A    between atoms: C15_21  and  N4_22 
REMARK    6  A    between atoms: N4_22  and  S1_24 
REMARK    7  A    between atoms: S1_24  and  C16_27 
ROOT
HETATM    1  C1  UNL     1      10.700   3.059   0.892  1.00  0.00     0.014 C 
HETATM    2  C2  UNL     1      10.451   2.028   0.321  1.00  0.00    -0.098 C 
HETATM    3  C3  UNL     1      10.143   0.765  -0.406  1.00  0.00     0.220 C 
ENDROOT
BRANCH   3   4
HETATM    4  N1  UNL     1       8.928   0.944  -1.157  1.00  0.00    -0.328 N 
HETATM    5  C4  UNL     1       9.168   1.517  -2.517  1.00  0.00     0.155 C 
HETATM    6  C5  UNL     1       7.617   0.662  -0.780  1.00  0.00     0.325 C 
HETATM    7  O1  UNL     1       6.719   0.972  -1.654  1.00  0.00    -0.247 OA
HETATM    8  N2  UNL     1       7.110   0.094   0.393  1.00  0.00    -0.304 N 
HETATM    9  C6  UNL     1       7.849  -0.428   1.510  1.00  0.00     0.161 C 
BRANCH   8  10
HETATM   10  C7  UNL     1       5.663  -0.028   0.539  1.00  0.00     0.038 A 
HETATM   11  C8  UNL     1       5.013   0.624   1.556  1.00  0.00     0.032 A 
HETATM   12  C9  UNL     1       3.659   0.500   1.680  1.00  0.00     0.032 A 
HETATM   13  C10 UNL     1       2.889  -0.284   0.792  1.00  0.00     0.035 A 
HETATM   14  C27 UNL     1       3.591  -0.904  -0.195  1.00  0.00     0.032 A 
HETATM   15  C28 UNL     1       4.970  -0.799  -0.350  1.00  0.00     0.032 A 
BRANCH  13  16
HETATM   16  N3  UNL     1       1.481  -0.332   0.986  1.00  0.00    -0.323 N 
HETATM   17  C11 UNL     1       0.667  -1.328   0.476  1.00  0.00     0.256 C 
HETATM   18  O2  UNL     1       1.110  -2.283  -0.196  1.00  0.00    -0.267 OA
ATOM     19  H3  UNL     1       1.046   0.411   1.533  1.00  0.00     0.169 HD
BRANCH  17  20
HETATM   20  C12 UNL     1      -0.791  -1.282   0.723  1.00  0.00     0.032 A 
HETATM   21  C13 UNL     1      -1.433  -0.155   1.163  1.00  0.00     0.019 A 
HETATM   22  C14 UNL     1      -2.789  -0.164   1.384  1.00  0.00     0.031 A 
HETATM   23  C15 UNL     1      -3.579  -1.301   1.179  1.00  0.00     0.042 A 
HETATM   24  C25 UNL     1      -2.921  -2.426   0.737  1.00  0.00     0.031 A 
HETATM   25  C26 UNL     1      -1.560  -2.424   0.513  1.00  0.00     0.019 A 
BRANCH  23  26
HETATM   26  N4  UNL     1      -4.971  -1.224   1.423  1.00  0.00    -0.281 N 
ATOM     27  H4  UNL     1      -5.309  -0.810   2.292  1.00  0.00     0.179 HD
BRANCH  26  28
HETATM   28  S1  UNL     1      -6.092  -1.816   0.278  1.00  0.00     0.264 S 
HETATM   29  O3  UNL     1      -5.372  -2.607  -0.807  1.00  0.00    -0.200 OA
HETATM   30  O4  UNL     1      -6.943  -2.866   0.986  1.00  0.00    -0.200 OA
BRANCH  28  31
HETATM   31  C16 UNL     1      -7.073  -0.587  -0.441  1.00  0.00     0.091 A 
HETATM   32  C17 UNL     1      -8.264  -0.217   0.195  1.00  0.00    -0.038 A 
HETATM   33  C18 UNL     1      -8.656  -0.868   1.470  1.00  0.00     0.050 C 
HETATM   34  C19 UNL     1      -9.095   0.763  -0.347  1.00  0.00     0.015 A 
HETATM   35  C20 UNL     1      -8.710   1.358  -1.530  1.00  0.00    -0.061 A 
HETATM   36  C21 UNL     1      -9.575   2.395  -2.119  1.00  0.00     0.048 C 
HETATM   37  C22 UNL     1      -7.535   0.984  -2.145  1.00  0.00     0.015 A 
HETATM   38  C23 UNL     1      -6.715   0.016  -1.608  1.00  0.00    -0.038 A 
HETATM   39  C24 UNL     1      -5.487  -0.331  -2.319  1.00  0.00     0.050 C 
ENDBRANCH  28  31
ENDBRANCH  26  28
ENDBRANCH  23  26
ENDBRANCH  17  20
ENDBRANCH  13  16
ENDBRANCH   8  10
ENDBRANCH   3   4
TORSDOF 7
