REMARK  7 active torsions:
REMARK  status: ('A' for Active; 'I' for Inactive)
REMARK    1  A    between atoms: C2_2  and  C3_3 
REMARK    2  A    between atoms: C3_3  and  C4_4 
REMARK    3  A    between atoms: C4_4  and  C5_5 
REMARK    4  A    between atoms: C5_5  and  N1_6 
REMARK    5  A    between atoms: C15_17  and  S1_18 
REMARK    6  A    between atoms: S1_18  and  N2_21 
REMARK    7  A    between atoms: C17_26  and  C18_27 
ROOT
HETATM    1  N1  UNL     1      -4.052  -0.964  -0.151  1.00  0.00    -0.313 N 
HETATM    2  C6  UNL     1      -4.171  -2.295   0.014  1.00  0.00     0.259 A 
HETATM    3  O1  UNL     1      -5.306  -2.739   0.323  1.00  0.00    -0.267 OA
HETATM    4  C7  UNL     1      -3.089  -3.134  -0.150  1.00  0.00     0.043 A 
HETATM    5  C8  UNL     1      -3.249  -4.484   0.032  1.00  0.00     0.018 A 
HETATM    6  C9  UNL     1      -2.182  -5.335  -0.121  1.00  0.00     0.001 A 
HETATM    7  C10 UNL     1      -0.927  -4.824  -0.465  1.00  0.00     0.001 A 
HETATM    8  C11 UNL     1      -0.747  -3.457  -0.653  1.00  0.00     0.013 A 
HETATM    9  C12 UNL     1      -1.836  -2.643  -0.491  1.00  0.00    -0.008 A 
HETATM   10  C13 UNL     1      -1.715  -1.279  -0.658  1.00  0.00     0.004 A 
HETATM   11  C14 UNL     1      -0.487  -0.735  -0.981  1.00  0.00     0.040 A 
HETATM   12  C15 UNL     1      -0.344   0.650  -1.134  1.00  0.00     0.081 A 
HETATM   13  C24 UNL     1      -1.451   1.429  -0.954  1.00  0.00     0.027 A 
HETATM   14  C25 UNL     1      -2.692   0.887  -0.631  1.00  0.00     0.032 A 
HETATM   15  C26 UNL     1      -2.843  -0.479  -0.479  1.00  0.00     0.048 A 
ENDROOT
BRANCH  12  16
HETATM   16  S1  UNL     1       1.222   1.312  -1.591  1.00  0.00     0.276 S 
HETATM   17  O2  UNL     1       1.126   2.801  -1.248  1.00  0.00    -0.200 OA
HETATM   18  O3  UNL     1       1.414   1.224  -3.063  1.00  0.00    -0.200 OA
BRANCH  16  19
HETATM   19  N2  UNL     1       2.475   0.665  -0.657  1.00  0.00    -0.112 N 
HETATM   20  C16 UNL     1       3.681   1.094  -0.766  1.00  0.00     0.695 A 
HETATM   21  N3  UNL     1       4.639   0.513   0.023  1.00  0.00    -0.194 N 
HETATM   22  N4  UNL     1       4.091   2.066  -1.583  1.00  0.00    -0.155 N 
HETATM   23  C17 UNL     1       5.920   0.889  -0.015  1.00  0.00     0.039 A 
ATOM     24  H3  UNL     1       4.364  -0.233   0.662  1.00  0.00     0.184 HD
HETATM   25  C22 UNL     1       6.315   1.908  -0.878  1.00  0.00     0.101 A 
HETATM   26  C23 UNL     1       5.359   2.498  -1.675  1.00  0.00     0.261 A 
HETATM   27  O4  UNL     1       5.690   3.414  -2.458  1.00  0.00    -0.268 OA
ATOM     28  H4  UNL     1       3.393   2.512  -2.179  1.00  0.00     0.187 HD
ATOM     29  H2  UNL     1       2.269  -0.082   0.007  1.00  0.00     0.197 HD
BRANCH  23  30
HETATM   30  C18 UNL     1       6.924   0.192   0.838  1.00  0.00    -0.008 C 
HETATM   31  C19 UNL     1       6.246  -0.920   1.594  1.00  0.00     0.021 C 
HETATM   32  C20 UNL     1       7.986  -0.414  -0.094  1.00  0.00     0.021 C 
HETATM   33  C21 UNL     1       7.537   1.180   1.782  1.00  0.00     0.021 C 
ENDBRANCH  23  30
ENDBRANCH  16  19
ENDBRANCH  12  16
BRANCH   1  34
HETATM   34  C5  UNL     1      -5.233  -0.114   0.004  1.00  0.00     0.132 C 
BRANCH  34  35
HETATM   35  C4  UNL     1      -5.436   0.424   1.369  1.00  0.00     0.020 C 
BRANCH  35  36
HETATM   36  C3  UNL     1      -6.704   1.241   1.392  1.00  0.00     0.001 C 
BRANCH  36  37
HETATM   37  C2  UNL     1      -6.689   2.391   0.439  1.00  0.00    -0.004 C 
HETATM   38  C1  UNL     1      -8.029   3.107   0.589  1.00  0.00     0.005 C 
ENDBRANCH  36  37
ENDBRANCH  35  36
ENDBRANCH  34  35
ENDBRANCH   1  34
TORSDOF 7
