REMARK  7 active torsions:
REMARK  status: ('A' for Active; 'I' for Inactive)
REMARK    1  A    between atoms: C3_3  and  C5_5 
REMARK    2  A    between atoms: C10_12  and  C11_13 
REMARK    3  A    between atoms: C11_13  and  N2_14 
REMARK       I    between atoms: N2_14  and  C13_16 
REMARK    4  A    between atoms: C13_16  and  C14_18 
REMARK    5  A    between atoms: C14_18  and  C15_19 
REMARK    6  A    between atoms: C18_22  and  N3_23 
REMARK    7  A    between atoms: C25_30  and  C26_31 
ROOT
HETATM    1  C1  UNL     1      -7.210   3.012   2.465  1.00  0.00     0.012 C 
HETATM    2  C2  UNL     1      -7.280   1.821   2.254  1.00  0.00    -0.108 C 
HETATM    3  C3  UNL     1      -7.360   0.372   2.022  1.00  0.00     0.093 C 
HETATM    4  C4  UNL     1      -8.429   0.131   1.011  1.00  0.00     0.028 C 
ENDROOT
BRANCH   3   5
HETATM    5  C5  UNL     1      -6.018  -0.045   1.532  1.00  0.00    -0.042 A 
HETATM    6  C6  UNL     1      -5.317  -0.981   2.241  1.00  0.00     0.011 A 
HETATM    7  C7  UNL     1      -4.057  -1.384   1.798  1.00  0.00     0.031 A 
HETATM    8  C8  UNL     1      -3.519  -0.831   0.635  1.00  0.00     0.046 A 
HETATM    9  N1  UNL     1      -2.309  -1.197   0.180  1.00  0.00    -0.354 N 
HETATM   10  C29 UNL     1      -4.225   0.115  -0.085  1.00  0.00     0.042 A 
HETATM   11  C9  UNL     1      -1.731  -0.704  -0.933  1.00  0.00     0.056 A 
ATOM     12  H1  UNL     1      -1.792  -1.896   0.714  1.00  0.00     0.166 HD
HETATM   13  C10 UNL     1      -0.473  -1.142  -1.329  1.00  0.00    -0.013 A 
HETATM   14  C27 UNL     1      -2.418   0.256  -1.687  1.00  0.00     0.055 A 
HETATM   15  C23 UNL     1       0.067  -0.609  -2.467  1.00  0.00     0.012 A 
HETATM   16  C24 UNL     1      -0.611   0.333  -3.203  1.00  0.00     0.016 A 
HETATM   17  C25 UNL     1      -1.879   0.796  -2.833  1.00  0.00     0.016 A 
HETATM   18  C28 UNL     1      -3.658   0.636  -1.227  1.00  0.00     0.197 A 
HETATM   19  O2  UNL     1      -4.312   1.486  -1.858  1.00  0.00    -0.286 OA
HETATM   20  C30 UNL     1      -5.465   0.480   0.395  1.00  0.00     0.026 A 
BRANCH  13  21
HETATM   21  C11 UNL     1       0.210  -2.167  -0.486  1.00  0.00     0.166 C 
BRANCH  21  22
HETATM   22  N2  UNL     1       1.506  -2.521  -1.028  1.00  0.00    -0.352 N 
HETATM   23  C12 UNL     1       1.564  -3.632  -1.983  1.00  0.00     0.152 C 
HETATM   24  C13 UNL     1       2.678  -1.823  -0.650  1.00  0.00     0.223 C 
HETATM   25  O1  UNL     1       3.776  -2.169  -1.151  1.00  0.00    -0.273 OA
BRANCH  24  26
HETATM   26  C14 UNL     1       2.583  -0.705   0.324  1.00  0.00     0.141 C 
BRANCH  26  27
HETATM   27  C15 UNL     1       3.931  -0.111   0.582  1.00  0.00    -0.049 A 
HETATM   28  C16 UNL     1       4.441   0.930  -0.161  1.00  0.00     0.010 A 
HETATM   29  C17 UNL     1       5.704   1.460   0.107  1.00  0.00     0.030 A 
HETATM   30  C18 UNL     1       6.471   0.952   1.125  1.00  0.00     0.029 A 
HETATM   31  C21 UNL     1       5.944  -0.095   1.863  1.00  0.00     0.030 A 
HETATM   32  C22 UNL     1       4.701  -0.621   1.603  1.00  0.00     0.010 A 
BRANCH  30  33
HETATM   33  N3  UNL     1       7.748   1.429   1.457  1.00  0.00    -0.390 N 
HETATM   34  C19 UNL     1       7.910   2.491   2.421  1.00  0.00     0.149 C 
HETATM   35  C20 UNL     1       8.928   0.863   0.837  1.00  0.00     0.149 C 
ENDBRANCH  30  33
ENDBRANCH  26  27
ENDBRANCH  24  26
ENDBRANCH  21  22
ENDBRANCH  13  21
BRANCH  17  36
HETATM   36  C26 UNL     1      -2.572   1.794  -3.632  1.00  0.00     0.124 C 
HETATM   37  N4  UNL     1      -3.439   1.419  -4.697  1.00  0.00    -0.089 NA
HETATM   38  S1  UNL     1      -2.378   3.394  -3.357  1.00  0.00    -0.063 SA
ENDBRANCH  17  36
ENDBRANCH   3   5
TORSDOF 7
