REMARK  4 active torsions:
REMARK  status: ('A' for Active; 'I' for Inactive)
REMARK    1  A    between atoms: N1_2  and  C2_4 
REMARK    2  A    between atoms: C2_4  and  N2_6 
REMARK    3  A    between atoms: N2_6  and  N3_8 
REMARK    4  A    between atoms: C3_10  and  C4_11 
ROOT
HETATM    1  N3  UNL     1      -0.620   0.372   0.044  1.00  0.00    -0.309 N 
ATOM      2  H3  UNL     1      -0.118   1.255  -0.053  1.00  0.00     0.186 HD
HETATM    3  C3  UNL     1       0.043  -0.693   0.312  1.00  0.00     0.121 C 
ENDROOT
BRANCH   1   4
HETATM    4  N2  UNL     1      -2.000   0.362  -0.119  1.00  0.00    -0.277 N 
ATOM      5  H2  UNL     1      -2.443  -0.516  -0.388  1.00  0.00     0.189 HD
BRANCH   4   6
HETATM    6  C2  UNL     1      -2.824   1.486   0.064  1.00  0.00     0.186 C 
HETATM    7  S1  UNL     1      -2.177   2.911   0.491  1.00  0.00    -0.040 SA
BRANCH   6   8
HETATM    8  N1  UNL     1      -4.221   1.386  -0.123  1.00  0.00    -0.370 N 
HETATM    9  C1  UNL     1      -4.798   0.120  -0.503  1.00  0.00     0.148 C 
ATOM     10  H1  UNL     1      -4.817   2.203   0.010  1.00  0.00     0.161 HD
ENDBRANCH   6   8
ENDBRANCH   4   6
ENDBRANCH   1   4
BRANCH   3  11
HETATM   11  C4  UNL     1       1.528  -0.647   0.480  1.00  0.00     0.013 A 
HETATM   12  C5  UNL     1       2.271   0.474   0.369  1.00  0.00     0.029 A 
HETATM   13  C6  UNL     1       3.621   0.352   0.551  1.00  0.00    -0.019 A 
HETATM   14  C7  UNL     1       4.659   1.450   0.479  1.00  0.00     0.056 C 
HETATM   15  S2  UNL     1       3.822  -1.308   0.871  1.00  0.00    -0.079 SA
HETATM   16  C8  UNL     1       2.200  -1.806   0.767  1.00  0.00     0.099 A 
HETATM   17  N4  UNL     1       1.686  -3.137   0.943  1.00  0.00    -0.093 NA
ENDBRANCH   3  11
TORSDOF 4
