REMARK  4 active torsions:
REMARK  status: ('A' for Active; 'I' for Inactive)
REMARK    1  A    between atoms: C7_8  and  O1_9 
REMARK    2  A    between atoms: O1_9  and  C8_10 
REMARK    3  A    between atoms: C10_14  and  N3_15 
REMARK    4  A    between atoms: C11_20  and  N5_21 
ROOT
HETATM    1  N1  UNL     1      -2.587  -2.164   3.028  1.00  0.00    -0.191 NA
HETATM    2  C1  UNL     1      -2.570  -1.556   2.043  1.00  0.00     0.102 C 
HETATM    3  C2  UNL     1      -2.565  -0.790   0.810  1.00  0.00     0.078 A 
HETATM    4  C3  UNL     1      -3.732  -0.606   0.131  1.00  0.00     0.025 A 
HETATM    5  C4  UNL     1      -3.803   0.110  -1.046  1.00  0.00     0.002 A 
HETATM    6  C5  UNL     1      -2.637   0.645  -1.527  1.00  0.00     0.003 A 
HETATM    7  C6  UNL     1      -1.445   0.472  -0.858  1.00  0.00     0.039 A 
HETATM    8  C7  UNL     1      -1.366  -0.245   0.324  1.00  0.00     0.097 A 
ENDROOT
BRANCH   8   9
HETATM    9  O1  UNL     1      -0.227  -0.465   1.047  1.00  0.00    -0.304 OA
BRANCH   9  10
HETATM   10  C8  UNL     1       1.054  -0.065   0.675  1.00  0.00     0.136 A 
HETATM   11  C9  UNL     1       1.710   0.915   1.431  1.00  0.00     0.147 A 
HETATM   12  N2  UNL     1       2.941   1.279   1.048  1.00  0.00    -0.199 N 
HETATM   13  C10 UNL     1       3.567   0.760  -0.006  1.00  0.00     0.677 A 
ATOM     14  H2  UNL     1       3.425   1.992   1.593  1.00  0.00     0.183 HD
HETATM   15  N4  UNL     1       2.969  -0.176  -0.746  1.00  0.00    -0.175 N 
HETATM   16  C11 UNL     1       1.716  -0.586  -0.404  1.00  0.00     0.150 A 
ATOM     17  H4  UNL     1       3.443  -0.578  -1.555  1.00  0.00     0.186 HD
BRANCH  13  18
HETATM   18  N3  UNL     1       4.735   1.155  -0.310  1.00  0.00    -0.234 N 
ATOM     19  H32 UNL     1       5.192   1.870   0.256  1.00  0.00     0.174 HD
ATOM     20  H31 UNL     1       5.215   0.757  -1.118  1.00  0.00     0.174 HD
ENDBRANCH  13  18
BRANCH  16  21
HETATM   21  N5  UNL     1       1.206  -1.535  -1.114  1.00  0.00    -0.383 N 
ATOM     22  H52 UNL     1       0.268  -1.842  -0.858  1.00  0.00     0.157 HD
ATOM     23  H51 UNL     1       1.699  -1.923  -1.918  1.00  0.00     0.157 HD
ENDBRANCH  16  21
ENDBRANCH   9  10
ENDBRANCH   8   9
TORSDOF 4
