REMARK  2 active torsions:
REMARK  status: ('A' for Active; 'I' for Inactive)
REMARK    1  A    between atoms: C3_4  and  C4_5 
REMARK    2  A    between atoms: C4_5  and  N1_6 
ROOT
HETATM    1  N1  UNL     1      -1.317   1.773  -0.381  1.00  0.00    -0.219 N 
ATOM      2  H1  UNL     1      -1.636   2.657   0.015  1.00  0.00     0.178 HD
HETATM    3  C5  UNL     1      -0.113   1.416  -0.177  1.00  0.00     0.693 A 
HETATM    4  N2  UNL     1       0.804   2.213   0.588  1.00  0.00    -0.132 N 
ATOM      5  H2  UNL     1       0.507   3.101   0.993  1.00  0.00     0.205 HD
HETATM    6  N3  UNL     1       2.115   1.749   0.768  1.00  0.00    -0.284 N 
ATOM      7  H3  UNL     1       2.759   2.322   1.314  1.00  0.00     0.187 HD
HETATM    8  C6  UNL     1       2.590   0.538   0.238  1.00  0.00     0.075 A 
HETATM    9  C7  UNL     1       3.890   0.130   0.446  1.00  0.00     0.033 A 
HETATM   10  C8  UNL     1       4.361  -1.075  -0.081  1.00  0.00     0.002 A 
HETATM   11  C9  UNL     1       3.494  -1.850  -0.817  1.00  0.00     0.002 A 
HETATM   12  C10 UNL     1       2.179  -1.420  -1.017  1.00  0.00     0.032 A 
HETATM   13  C11 UNL     1       1.722  -0.237  -0.497  1.00  0.00     0.077 A 
HETATM   14  N4  UNL     1       0.359   0.195  -0.712  1.00  0.00    -0.188 N 
ATOM     15  H4  UNL     1      -0.272  -0.391  -1.259  1.00  0.00     0.184 HD
ENDROOT
BRANCH   1  16
HETATM   16  C4  UNL     1      -2.240   0.997  -1.136  1.00  0.00     0.203 C 
BRANCH  16  17
HETATM   17  C3  UNL     1      -2.972   0.027  -0.248  1.00  0.00     0.070 A 
HETATM   18  O1  UNL     1      -2.666  -1.203   0.045  1.00  0.00    -0.325 OA
HETATM   19  C2  UNL     1      -3.514  -1.769   0.846  1.00  0.00     0.142 A 
HETATM   20  C1  UNL     1      -4.510  -0.853   1.145  1.00  0.00     0.027 A 
HETATM   21  C12 UNL     1      -4.153   0.280   0.444  1.00  0.00     0.036 A 
ENDBRANCH  16  17
ENDBRANCH   1  16
TORSDOF 2
