REMARK  5 active torsions:
REMARK  status: ('A' for Active; 'I' for Inactive)
REMARK    1  A    between atoms: S1_3  and  C2_4 
REMARK    2  A    between atoms: C6_8  and  N2_9 
REMARK    3  A    between atoms: N2_9  and  C7_11 
REMARK    4  A    between atoms: C7_11  and  N3_13 
REMARK    5  A    between atoms: N3_13  and  N4_15 
ROOT
HETATM    1  N1  UNL     1       3.365   3.205  -0.974  1.00  0.00    -0.184 NA
HETATM    2  C1  UNL     1       3.644   2.111  -0.666  1.00  0.00     0.139 C 
HETATM    3  S1  UNL     1       4.060   0.468  -0.174  1.00  0.00    -0.011 SA
ENDROOT
BRANCH   3   4
HETATM    4  C2  UNL     1       2.525  -0.421   0.053  1.00  0.00     0.017 A 
HETATM    5  C3  UNL     1       2.547  -1.742   0.442  1.00  0.00     0.019 A 
HETATM    6  C4  UNL     1       1.409  -2.487   0.635  1.00  0.00     0.004 A 
HETATM    7  C5  UNL     1       0.173  -1.847   0.418  1.00  0.00     0.029 A 
HETATM    8  C6  UNL     1       0.090  -0.547   0.036  1.00  0.00     0.035 A 
HETATM    9  C8  UNL     1       1.300   0.160  -0.145  1.00  0.00     0.049 A 
BRANCH   8  10
HETATM   10  N2  UNL     1      -1.098   0.159  -0.165  1.00  0.00    -0.332 N 
ATOM     11  H2  UNL     1      -1.042   0.917  -0.845  1.00  0.00     0.168 HD
BRANCH  10  12
HETATM   12  C7  UNL     1      -2.356  -0.017   0.427  1.00  0.00     0.190 C 
HETATM   13  S2  UNL     1      -2.617  -1.127   1.566  1.00  0.00    -0.039 SA
BRANCH  12  14
HETATM   14  N3  UNL     1      -3.440   0.820   0.051  1.00  0.00    -0.283 N 
ATOM     15  H3  UNL     1      -4.364   0.709   0.469  1.00  0.00     0.188 HD
BRANCH  14  16
HETATM   16  N4  UNL     1      -3.193   1.808  -0.920  1.00  0.00    -0.343 N 
ATOM     17  H42 UNL     1      -2.264   1.906  -1.329  1.00  0.00     0.176 HD
ATOM     18  H41 UNL     1      -3.972   2.409  -1.190  1.00  0.00     0.176 HD
ENDBRANCH  14  16
ENDBRANCH  12  14
ENDBRANCH  10  12
ENDBRANCH   8  10
ENDBRANCH   3   4
TORSDOF 5
