REMARK  3 active torsions:
REMARK  status: ('A' for Active; 'I' for Inactive)
REMARK    1  A    between atoms: C3_3  and  S1_4 
REMARK    2  A    between atoms: S1_4  and  C4_5 
REMARK    3  A    between atoms: C9_12  and  N2_13 
ROOT
HETATM    1  C1  UNL     1       3.817   0.500   0.773  1.00  0.00     0.098 C 
HETATM    2  C2  UNL     1       3.291   0.024  -0.225  1.00  0.00    -0.177 C 
HETATM    3  C3  UNL     1       2.681  -0.574  -1.438  1.00  0.00     0.158 C 
ENDROOT
BRANCH   3   4
HETATM    4  S1  UNL     1       1.557  -1.870  -1.039  1.00  0.00    -0.117 SA
BRANCH   4   5
HETATM    5  C4  UNL     1       0.042  -1.467  -0.284  1.00  0.00     0.020 A 
HETATM    6  C5  UNL     1      -0.813  -2.470   0.223  1.00  0.00     0.020 A 
HETATM    7  C6  UNL     1      -1.988  -2.040   0.765  1.00  0.00     0.004 A 
HETATM    8  C7  UNL     1      -2.374  -0.748   0.845  1.00  0.00     0.031 A 
HETATM    9  C8  UNL     1      -1.541   0.277   0.346  1.00  0.00     0.052 A 
HETATM   10  N1  UNL     1      -1.810   1.565   0.354  1.00  0.00    -0.336 N 
HETATM   11  C10 UNL     1      -0.353  -0.124  -0.206  1.00  0.00     0.052 A 
HETATM   12  C9  UNL     1      -0.922   2.409  -0.169  1.00  0.00     0.143 A 
ATOM     13  H1  UNL     1      -2.683   1.911   0.753  1.00  0.00     0.168 HD
HETATM   14  S2  UNL     1       0.323   1.369  -0.688  1.00  0.00    -0.051 SA
BRANCH  12  15
HETATM   15  N2  UNL     1      -1.007   3.720  -0.256  1.00  0.00    -0.380 N 
ATOM     16  H22 UNL     1      -1.753   4.343   0.055  1.00  0.00     0.158 HD
ATOM     17  H21 UNL     1      -0.327   4.366  -0.656  1.00  0.00     0.158 HD
ENDBRANCH  12  15
ENDBRANCH   4   5
ENDBRANCH   3   4
TORSDOF 3
