REMARK  2 active torsions:
REMARK  status: ('A' for Active; 'I' for Inactive)
REMARK    1  A    between atoms: C4_4  and  C5_5 
REMARK    2  A    between atoms: C11_13  and  N2_14 
ROOT
HETATM    1  C1  UNL     1      -2.017   2.520   0.864  1.00  0.00     0.052 C 
HETATM    2  C2  UNL     1      -1.537   1.168   0.477  1.00  0.00    -0.017 C 
HETATM    3  C3  UNL     1      -0.146   1.056   0.324  1.00  0.00     0.026 C 
HETATM    4  C4  UNL     1       0.563  -0.125   0.072  1.00  0.00     0.023 C 
HETATM    5  C9  UNL     1       0.106  -1.385   0.372  1.00  0.00     0.101 C 
HETATM    6  C10 UNL     1       1.088  -2.273   0.928  1.00  0.00     0.104 C 
HETATM    7  N1  UNL     1       1.869  -2.980   1.402  1.00  0.00    -0.191 NA
HETATM    8  C11 UNL     1      -1.201  -1.877   0.216  1.00  0.00     0.122 C 
HETATM    9  N3  UNL     1      -2.323  -1.112   0.103  1.00  0.00    -0.328 N 
ATOM     10  H3  UNL     1      -3.156  -1.620  -0.195  1.00  0.00     0.169 HD
HETATM   11  C12 UNL     1      -2.516   0.210   0.321  1.00  0.00     0.106 C 
HETATM   12  N4  UNL     1      -3.762   0.596   0.386  1.00  0.00    -0.385 N 
ATOM     13  H41 UNL     1      -4.486  -0.113   0.271  1.00  0.00     0.157 HD
ATOM     14  H42 UNL     1      -3.907   1.592   0.550  1.00  0.00     0.157 HD
ENDROOT
BRANCH   4  15
HETATM   15  C5  UNL     1       1.899   0.000  -0.527  1.00  0.00     0.086 A 
HETATM   16  C6  UNL     1       2.734  -0.902  -1.086  1.00  0.00     0.040 A 
HETATM   17  C7  UNL     1       3.876  -0.216  -1.495  1.00  0.00     0.027 A 
HETATM   18  C8  UNL     1       3.673   1.099  -1.158  1.00  0.00     0.142 A 
HETATM   19  O1  UNL     1       2.512   1.183  -0.598  1.00  0.00    -0.322 OA
ENDBRANCH   4  15
BRANCH   8  20
HETATM   20  N2  UNL     1      -1.286  -3.153   0.188  1.00  0.00    -0.384 N 
ATOM     21  H22 UNL     1      -0.446  -3.726   0.273  1.00  0.00     0.157 HD
ATOM     22  H21 UNL     1      -2.235  -3.510   0.075  1.00  0.00     0.157 HD
ENDBRANCH   8  20
TORSDOF 2
