REMARK  3 active torsions:
REMARK  status: ('A' for Active; 'I' for Inactive)
REMARK    1  A    between atoms: C4_4  and  C5_5 
REMARK    2  A    between atoms: C5_5  and  N1_6 
REMARK    3  A    between atoms: N1_6  and  C6_8 
ROOT
HETATM    1  C5  UNL     1       0.141  -0.400   0.401  1.00  0.00     0.153 C 
ENDROOT
BRANCH   1   2
HETATM    2  C4  UNL     1      -1.312  -0.509   0.016  1.00  0.00     0.203 C 
HETATM    3  C3  UNL     1      -2.130  -0.736   1.266  1.00  0.00     0.035 C 
HETATM    4  C2  UNL     1      -3.598  -0.914   0.930  1.00  0.00     0.004 C 
HETATM    5  C1  UNL     1      -4.016   0.362   0.190  1.00  0.00     0.027 C 
HETATM    6  C10 UNL     1      -3.166   0.417  -1.067  1.00  0.00     0.233 C 
HETATM    7  N3  UNL     1      -1.770   0.577  -0.785  1.00  0.00    -0.069 N 
ATOM      8  H32 UNL     1      -1.566   1.481  -0.359  1.00  0.00     0.277 HD
ATOM      9  H31 UNL     1      -1.217   0.687  -1.635  1.00  0.00     0.277 HD
ENDBRANCH   1   2
BRANCH   1  10
HETATM   10  N1  UNL     1       1.006  -0.183  -0.718  1.00  0.00    -0.378 N 
ATOM     11  H1  UNL     1       0.637  -0.115  -1.666  1.00  0.00     0.160 HD
BRANCH  10  12
HETATM   12  C6  UNL     1       2.412  -0.065  -0.457  1.00  0.00     0.072 C 
HETATM   13  N2  UNL     1       3.048  -0.604   0.509  1.00  0.00    -0.380 N 
HETATM   14  C7  UNL     1       4.461  -0.280   0.476  1.00  0.00     0.121 C 
ATOM     15  H2  UNL     1       2.614  -1.193   1.220  1.00  0.00     0.160 HD
HETATM   16  C8  UNL     1       4.497   0.980  -0.367  1.00  0.00     0.027 C 
HETATM   17  C9  UNL     1       3.339   0.725  -1.308  1.00  0.00     0.077 C 
ENDBRANCH  10  12
ENDBRANCH   1  10
TORSDOF 3
