REMARK  3 active torsions:
REMARK  status: ('A' for Active; 'I' for Inactive)
REMARK    1  A    between atoms: C6_6  and  N1_7 
REMARK    2  A    between atoms: C7_9  and  C8_11 
REMARK    3  A    between atoms: C8_11  and  C9_12 
ROOT
HETATM    1  N1  UNL     1       0.426  -0.620   0.432  1.00  0.00    -0.377 N 
ATOM      2  H1  UNL     1       0.339  -1.423   1.055  1.00  0.00     0.160 HD
HETATM    3  C7  UNL     1       1.561  -0.344  -0.156  1.00  0.00     0.090 C 
HETATM    4  N2  UNL     1       1.699   0.767  -1.023  1.00  0.00    -0.088 NA
ENDROOT
BRANCH   1   5
HETATM    5  C6  UNL     1      -0.683   0.231   0.179  1.00  0.00     0.086 C 
HETATM    6  C2  UNL     1      -1.669  -0.322  -0.824  1.00  0.00     0.004 C 
HETATM    7  C1  UNL     1      -2.234  -1.645  -0.436  1.00  0.00     0.012 C 
HETATM    8  C3  UNL     1      -2.760   0.755  -0.720  1.00  0.00     0.006 C 
HETATM    9  C4  UNL     1      -2.908   0.828   0.795  1.00  0.00     0.002 C 
HETATM   10  C5  UNL     1      -1.550   0.508   1.368  1.00  0.00     0.025 C 
ENDBRANCH   1   5
BRANCH   3  11
HETATM   11  C8  UNL     1       2.766  -1.188   0.060  1.00  0.00     0.084 C 
BRANCH  11  12
HETATM   12  C9  UNL     1       3.843  -0.323   0.666  1.00  0.00     0.093 C 
HETATM   13  S1  UNL     1       4.294   1.056  -0.390  1.00  0.00    -0.097 SA
ENDBRANCH  11  12
ENDBRANCH   3  11
TORSDOF 3
