REMARK  4 active torsions:
REMARK  status: ('A' for Active; 'I' for Inactive)
REMARK    1  A    between atoms: C2_2  and  O1_4 
REMARK    2  A    between atoms: O1_4  and  C4_5 
REMARK    3  A    between atoms: C10_11  and  N1_12 
REMARK    4  A    between atoms: C10_11  and  N2_16 
ROOT
HETATM    1  C4  UNL     1       0.134  -0.313   0.756  1.00  0.00     0.186 C 
HETATM    2  C5  UNL     1      -0.573   0.631   1.716  1.00  0.00     0.036 C 
HETATM    3  C6  UNL     1      -1.168   1.820   1.001  1.00  0.00     0.003 C 
HETATM    4  C7  UNL     1      -2.359   1.276   0.225  1.00  0.00     0.000 C 
HETATM    5  C8  UNL     1      -1.826   0.770  -1.073  1.00  0.00     0.004 C 
HETATM    6  C9  UNL     1      -1.522  -0.680  -1.114  1.00  0.00     0.072 C 
HETATM    7  C10 UNL     1      -0.817  -1.243   0.068  1.00  0.00     0.307 C 
ENDROOT
BRANCH   7   8
HETATM    8  N1  UNL     1      -1.722  -1.768   1.075  1.00  0.00    -0.042 N 
ATOM      9  H13 UNL     1      -1.235  -2.205   1.858  1.00  0.00     0.277 HD
ATOM     10  H12 UNL     1      -2.195  -1.036   1.604  1.00  0.00     0.277 HD
ATOM     11  H11 UNL     1      -2.370  -2.401   0.606  1.00  0.00     0.277 HD
ENDBRANCH   7   8
BRANCH   7  12
HETATM   12  N2  UNL     1      -0.041  -2.385  -0.396  1.00  0.00    -0.042 N 
ATOM     13  H23 UNL     1       0.751  -2.119  -0.981  1.00  0.00     0.277 HD
ATOM     14  H22 UNL     1       0.491  -2.836   0.348  1.00  0.00     0.277 HD
ATOM     15  H21 UNL     1      -0.689  -3.018  -0.865  1.00  0.00     0.277 HD
ENDBRANCH   7  12
BRANCH   1  16
HETATM   16  O1  UNL     1       0.890   0.331  -0.172  1.00  0.00    -0.377 OA
BRANCH  16  17
HETATM   17  C2  UNL     1       2.225   0.104  -0.165  1.00  0.00     0.114 C 
HETATM   18  C1  UNL     1       2.833  -0.430  -1.404  1.00  0.00     0.039 C 
HETATM   19  C3  UNL     1       2.986   1.384   0.210  1.00  0.00     0.039 C 
ENDBRANCH  16  17
ENDBRANCH   1  16
TORSDOF 4
