REMARK  3 active torsions:
REMARK  status: ('A' for Active; 'I' for Inactive)
REMARK    1  A    between atoms: C1_1  and  C5_13 
REMARK    2  A    between atoms: N1_2  and  N2_4 
REMARK    3  A    between atoms: N2_4  and  C2_6 
ROOT
HETATM    1  C1  UNL     1      -0.005   0.201   0.878  1.00  0.00     0.084 C 
HETATM    2  N1  UNL     1       0.669  -0.683   1.536  1.00  0.00    -0.313 N 
ATOM      3  H1  UNL     1       0.232  -1.583   1.735  1.00  0.00     0.185 HD
ENDROOT
BRANCH   2   4
HETATM    4  N2  UNL     1       1.965  -0.457   1.984  1.00  0.00    -0.272 N 
ATOM      5  H2  UNL     1       2.148  -0.390   2.985  1.00  0.00     0.190 HD
BRANCH   4   6
HETATM    6  C2  UNL     1       3.035  -0.319   1.064  1.00  0.00     0.190 C 
HETATM    7  N3  UNL     1       4.016  -1.165   0.895  1.00  0.00    -0.360 N 
HETATM    8  C3  UNL     1       4.922  -0.697  -0.128  1.00  0.00     0.142 C 
ATOM      9  H3  UNL     1       4.127  -2.036   1.414  1.00  0.00     0.162 HD
HETATM   10  C4  UNL     1       4.078   0.305  -0.879  1.00  0.00     0.142 C 
HETATM   11  N4  UNL     1       3.195   0.785   0.175  1.00  0.00    -0.360 N 
ATOM     12  H4  UNL     1       2.780   1.713   0.259  1.00  0.00     0.162 HD
ENDBRANCH   4   6
ENDBRANCH   2   4
BRANCH   1  13
HETATM   13  C5  UNL     1      -1.364  -0.141   0.453  1.00  0.00     0.025 C 
HETATM   14  C6  UNL     1      -1.432  -0.699  -0.949  1.00  0.00     0.010 C 
HETATM   15  C7  UNL     1      -2.765  -0.458  -1.576  1.00  0.00     0.001 C 
HETATM   16  C8  UNL     1      -3.903  -0.444  -0.603  1.00  0.00     0.000 C 
HETATM   17  C9  UNL     1      -3.708   0.474   0.556  1.00  0.00     0.001 C 
HETATM   18  C10 UNL     1      -2.306   1.065   0.481  1.00  0.00     0.010 C 
ENDBRANCH   1  13
TORSDOF 3
