REMARK  6 active torsions:
REMARK  status: ('A' for Active; 'I' for Inactive)
REMARK    1  A    between atoms: O1_2  and  C2_3 
REMARK    2  A    between atoms: C2_3  and  C3_4 
REMARK    3  A    between atoms: C4_5  and  C5_6 
REMARK    4  A    between atoms: C10_11  and  C11_12 
REMARK    5  A    between atoms: C11_12  and  N2_16 
REMARK    6  A    between atoms: N2_16  and  N3_18 
ROOT
HETATM    1  C2  UNL     1       0.250  -0.473  -0.494  1.00  0.00     0.131 C 
HETATM    2  C8  UNL     1      -0.060  -0.733   0.980  1.00  0.00     0.034 C 
HETATM    3  C9  UNL     1      -1.457  -1.253   0.918  1.00  0.00     0.021 C 
HETATM    4  C10 UNL     1      -2.052  -0.277  -0.116  1.00  0.00     0.062 C 
HETATM    5  C12 UNL     1      -0.842   0.569  -0.354  1.00  0.00     0.045 C 
HETATM    6  C13 UNL     1      -0.252   0.786   1.047  1.00  0.00     0.018 C 
ENDROOT
BRANCH   4   7
HETATM    7  C11 UNL     1      -3.202   0.449   0.411  1.00  0.00     0.093 C 
HETATM    8  N1  UNL     1      -3.295   1.730   0.527  1.00  0.00    -0.388 N 
ATOM      9  H12 UNL     1      -2.483   2.263   0.216  1.00  0.00     0.157 HD
ATOM     10  H11 UNL     1      -4.099   2.238   0.896  1.00  0.00     0.157 HD
BRANCH   7  11
HETATM   11  N2  UNL     1      -4.336  -0.296   0.845  1.00  0.00    -0.296 N 
ATOM     12  H2  UNL     1      -4.339  -0.788   1.738  1.00  0.00     0.187 HD
BRANCH  11  13
HETATM   13  N3  UNL     1      -5.452  -0.324  -0.011  1.00  0.00    -0.344 N 
ATOM     14  H32 UNL     1      -5.434   0.173  -0.901  1.00  0.00     0.176 HD
ATOM     15  H31 UNL     1      -6.264  -0.857   0.300  1.00  0.00     0.176 HD
ENDBRANCH  11  13
ENDBRANCH   7  11
ENDBRANCH   4   7
BRANCH   1  16
HETATM   16  O1  UNL     1      -0.062  -1.543  -1.313  1.00  0.00    -0.371 OA
HETATM   17  C1  UNL     1       0.785  -2.613  -1.162  1.00  0.00     0.204 C 
ENDBRANCH   1  16
BRANCH   1  18
HETATM   18  C3  UNL     1       1.579   0.108  -0.680  1.00  0.00    -0.067 C 
HETATM   19  C4  UNL     1       2.683   0.579  -0.852  1.00  0.00    -0.099 C 
BRANCH  19  20
HETATM   20  C5  UNL     1       4.020   1.136  -1.083  1.00  0.00     0.065 A 
HETATM   21  C6  UNL     1       4.494   2.248  -0.137  1.00  0.00     0.018 A 
HETATM   22  C7  UNL     1       5.003   0.868  -0.005  1.00  0.00     0.018 A 
ENDBRANCH  19  20
ENDBRANCH   1  18
TORSDOF 6
