REMARK  3 active torsions:
REMARK  status: ('A' for Active; 'I' for Inactive)
REMARK    1  A    between atoms: O1_1  and  C1_3 
REMARK    2  A    between atoms: C8_10  and  O2_11 
REMARK    3  A    between atoms: O2_11  and  C9_12 
ROOT
HETATM    1  C1  UNL     1      -1.323   1.516   0.296  1.00  0.00     0.128 C 
HETATM    2  C2  UNL     1      -2.208   0.385   0.788  1.00  0.00     0.015 C 
HETATM    3  C3  UNL     1      -3.149   0.031  -0.336  1.00  0.00     0.012 C 
HETATM    4  C4  UNL     1      -2.318  -0.373  -1.528  1.00  0.00    -0.013 C 
HETATM    5  C5  UNL     1      -1.532  -1.602  -1.135  1.00  0.00     0.012 C 
HETATM    6  C6  UNL     1      -0.574  -1.218  -0.040  1.00  0.00     0.016 C 
HETATM    7  C7  UNL     1      -1.314  -0.755   1.178  1.00  0.00     0.014 C 
HETATM    8  C8  UNL     1       0.353  -0.129  -0.586  1.00  0.00     0.132 C 
HETATM    9  C12 UNL     1      -0.454   1.092  -0.856  1.00  0.00     0.044 C 
HETATM   10  C13 UNL     1      -1.417   0.750  -2.003  1.00  0.00     0.014 C 
ENDROOT
BRANCH   8  11
HETATM   11  O2  UNL     1       1.371   0.027   0.315  1.00  0.00    -0.376 OA
BRANCH  11  12
HETATM   12  C9  UNL     1       2.610  -0.315  -0.103  1.00  0.00     0.173 C 
HETATM   13  C10 UNL     1       3.709   0.733   0.106  1.00  0.00     0.265 C 
HETATM   14  N1  UNL     1       4.625  -0.413   0.222  1.00  0.00    -0.070 N 
HETATM   15  C11 UNL     1       3.479  -1.125   0.820  1.00  0.00     0.265 C 
ATOM     16  H12 UNL     1       5.130  -0.784  -0.583  1.00  0.00     0.277 HD
ATOM     17  H11 UNL     1       5.523  -0.339   0.700  1.00  0.00     0.277 HD
ENDBRANCH  11  12
ENDBRANCH   8  11
BRANCH   1  18
HETATM   18  O1  UNL     1      -0.640   2.120   1.320  1.00  0.00    -0.395 OA
ATOM     19  H1  UNL     1      -0.086   2.828   1.012  1.00  0.00     0.210 HD
ENDBRANCH   1  18
TORSDOF 3
