REMARK  3 active torsions:
REMARK  status: ('A' for Active; 'I' for Inactive)
REMARK    1  A    between atoms: C2_2  and  C4_4 
REMARK    2  A    between atoms: C5_5  and  C6_6 
REMARK    3  A    between atoms: C6_6  and  O1_8 
ROOT
HETATM    1  C4  UNL     1      -0.350  -0.357   0.315  1.00  0.00     0.030 C 
HETATM    2  C5  UNL     1      -0.031   0.957   0.834  1.00  0.00     0.219 C 
HETATM    3  N1  UNL     1       1.447   0.863   1.109  1.00  0.00    -0.060 N 
ATOM      4  H11 UNL     1       1.758   1.483   1.856  1.00  0.00     0.278 HD
ATOM      5  H12 UNL     1       2.021   1.260   0.366  1.00  0.00     0.278 HD
HETATM    6  C8  UNL     1       1.725  -0.500   1.362  1.00  0.00     0.215 C 
HETATM    7  C9  UNL     1       3.107  -0.879   0.964  1.00  0.00     0.004 C 
HETATM    8  C10 UNL     1       3.138  -1.354  -0.267  1.00  0.00    -0.009 C 
HETATM    9  C11 UNL     1       1.738  -1.340  -0.836  1.00  0.00     0.122 C 
HETATM   10  C12 UNL     1       1.649  -0.372  -1.883  1.00  0.00     0.068 C 
HETATM   11  N2  UNL     1       1.589   0.389  -2.744  1.00  0.00    -0.197 NA
HETATM   12  C13 UNL     1       0.894  -1.188   0.303  1.00  0.00     0.048 C 
ENDROOT
BRANCH   1  13
HETATM   13  C2  UNL     1      -1.360  -0.685  -0.681  1.00  0.00    -0.016 C 
HETATM   14  C1  UNL     1      -2.772  -0.370  -0.263  1.00  0.00     0.010 C 
HETATM   15  C3  UNL     1      -1.323  -2.209  -0.905  1.00  0.00     0.010 C 
ENDBRANCH   1  13
BRANCH   2  16
HETATM   16  C6  UNL     1      -0.193   2.212   0.064  1.00  0.00     0.145 C 
HETATM   17  C7  UNL     1      -1.594   2.743  -0.106  1.00  0.00     0.041 C 
BRANCH  16  18
HETATM   18  O1  UNL     1       0.396   3.217   0.939  1.00  0.00    -0.394 OA
ATOM     19  H1  UNL     1       0.292   4.022   0.445  1.00  0.00     0.210 HD
ENDBRANCH  16  18
ENDBRANCH   2  16
TORSDOF 3
