REMARK  5 active torsions:
REMARK  status: ('A' for Active; 'I' for Inactive)
REMARK    1  A    between atoms: C2_2  and  C4_4 
REMARK    2  A    between atoms: C4_4  and  N1_5 
REMARK    3  A    between atoms: N1_5  and  C5_7 
REMARK    4  A    between atoms: C5_7  and  N2_9 
REMARK    5  A    between atoms: N2_9  and  C6_11 
ROOT
HETATM    1  N2  UNL     1       1.860   1.265   0.845  1.00  0.00    -0.312 N 
ATOM      2  H2  UNL     1       1.574   2.222   1.052  1.00  0.00     0.170 HD
ENDROOT
BRANCH   1   3
HETATM    3  C5  UNL     1       1.207   0.172   1.477  1.00  0.00     0.173 C 
HETATM    4  S1  UNL     1       2.098  -0.678   2.548  1.00  0.00    -0.041 SA
BRANCH   3   5
HETATM    5  N1  UNL     1      -0.127  -0.193   1.227  1.00  0.00    -0.367 N 
ATOM      6  H1  UNL     1      -0.506  -0.994   1.732  1.00  0.00     0.161 HD
BRANCH   5   7
HETATM    7  C4  UNL     1      -0.994   0.495   0.300  1.00  0.00     0.126 C 
BRANCH   7   8
HETATM    8  C2  UNL     1      -2.364  -0.103   0.227  1.00  0.00    -0.005 C 
HETATM    9  C1  UNL     1      -2.375  -1.531  -0.209  1.00  0.00     0.011 C 
HETATM   10  C3  UNL     1      -3.252   0.703  -0.681  1.00  0.00     0.011 C 
ENDBRANCH   7   8
ENDBRANCH   5   7
ENDBRANCH   3   5
ENDBRANCH   1   3
BRANCH   1  11
HETATM   11  C6  UNL     1       2.835   1.036  -0.008  1.00  0.00     0.168 A 
HETATM   12  N3  UNL     1       3.331  -0.138  -0.391  1.00  0.00    -0.331 N 
HETATM   13  C7  UNL     1       4.315  -0.132  -1.263  1.00  0.00     0.189 A 
ATOM     14  H3  UNL     1       2.960  -1.013  -0.021  1.00  0.00     0.168 HD
HETATM   15  N4  UNL     1       4.747   1.053  -1.703  1.00  0.00    -0.320 N 
HETATM   16  S2  UNL     1       3.768   2.148  -0.889  1.00  0.00     0.024 SA
ATOM     17  H4  UNL     1       5.492   1.246  -2.372  1.00  0.00     0.175 HD
ENDBRANCH   1  11
TORSDOF 5
