REMARK  10 active torsions:
REMARK  status: ('A' for Active; 'I' for Inactive)
REMARK    1  A    between atoms: S1_2  and  C2_3 
REMARK    2  A    between atoms: C2_3  and  N1_5 
REMARK       I    between atoms: C3_7  and  N2_8 
REMARK       I    between atoms: C3_7  and  N4_27 
REMARK    3  A    between atoms: N2_8  and  C4_10 
REMARK    4  A    between atoms: C4_10  and  C5_11 
REMARK    5  A    between atoms: C4_10  and  C8_16 
REMARK    6  A    between atoms: C5_11  and  C6_12 
REMARK    7  A    between atoms: C6_12  and  C7_13 
REMARK       I    between atoms: C8_16  and  N3_18 
REMARK    8  A    between atoms: C11_21  and  C12_22 
REMARK    9  A    between atoms: C17_30  and  C18_31 
REMARK   10  A    between atoms: C18_31  and  N5_32 
ROOT
HETATM    1  N1  UNL     1       2.279   1.932  -0.838  1.00  0.00    -0.176 N 
ATOM      2  H1  UNL     1       3.249   1.823  -1.135  1.00  0.00     0.185 HD
HETATM    3  C3  UNL     1       1.723   0.936  -0.188  1.00  0.00     0.678 C 
HETATM    4  N2  UNL     1       0.387   1.148   0.193  1.00  0.00    -0.213 N 
ATOM      5  H2  UNL     1       0.196   1.920   0.831  1.00  0.00     0.178 HD
HETATM    6  N4  UNL     1       2.554  -0.163   0.020  1.00  0.00    -0.218 N 
HETATM    7  C15 UNL     1       3.048  -0.605   1.298  1.00  0.00     0.141 C 
HETATM    8  C16 UNL     1       4.495  -0.953   1.316  1.00  0.00     0.027 C 
HETATM    9  C17 UNL     1       5.201  -1.084   0.025  1.00  0.00     0.014 C 
HETATM   10  C19 UNL     1       4.490  -0.658  -1.208  1.00  0.00     0.027 C 
HETATM   11  C20 UNL     1       3.009  -0.938  -1.119  1.00  0.00     0.141 C 
ENDROOT
BRANCH   4  12
HETATM   12  C4  UNL     1      -0.756   0.343  -0.257  1.00  0.00     0.192 C 
BRANCH  12  13
HETATM   13  C5  UNL     1      -0.681  -1.018   0.423  1.00  0.00     0.046 C 
BRANCH  13  14
HETATM   14  C6  UNL     1      -0.720  -0.858   1.937  1.00  0.00     0.116 C 
BRANCH  14  15
HETATM   15  C7  UNL     1      -0.650  -2.211   2.531  1.00  0.00     0.172 C 
HETATM   16  O1  UNL     1      -1.460  -3.115   2.166  1.00  0.00    -0.648 OA
HETATM   17  O2  UNL     1       0.306  -2.489   3.487  1.00  0.00    -0.648 OA
ENDBRANCH  14  15
ENDBRANCH  13  14
ENDBRANCH  12  13
BRANCH  12  18
HETATM   18  C8  UNL     1      -2.030   1.045   0.013  1.00  0.00     0.243 C 
HETATM   19  O3  UNL     1      -1.960   2.075   0.757  1.00  0.00    -0.271 OA
HETATM   20  N3  UNL     1      -3.299   0.706  -0.459  1.00  0.00    -0.350 N 
HETATM   21  C9  UNL     1      -3.516  -0.400  -1.350  1.00  0.00     0.127 C 
HETATM   22  C14 UNL     1      -4.458   1.468  -0.070  1.00  0.00     0.127 C 
HETATM   23  C10 UNL     1      -4.476  -1.364  -0.709  1.00  0.00     0.035 C 
HETATM   24  C11 UNL     1      -5.772  -0.663  -0.451  1.00  0.00     0.090 C 
HETATM   25  C13 UNL     1      -5.662   0.650   0.247  1.00  0.00     0.035 C 
BRANCH  24  26
HETATM   26  C12 UNL     1      -6.591  -0.622  -1.686  1.00  0.00     0.177 C 
HETATM   27  O4  UNL     1      -6.163  -1.159  -2.719  1.00  0.00    -0.648 OA
HETATM   28  O5  UNL     1      -7.830   0.011  -1.694  1.00  0.00    -0.648 OA
ENDBRANCH  24  26
ENDBRANCH  12  18
ENDBRANCH   4  12
BRANCH   1  29
HETATM   29  C2  UNL     1       1.640   3.121  -1.149  1.00  0.00     0.153 C 
HETATM   30  S2  UNL     1       0.426   3.176  -2.217  1.00  0.00    -0.052 SA
BRANCH  29  31
HETATM   31  S1  UNL     1       2.167   4.617  -0.358  1.00  0.00    -0.104 SA
HETATM   32  C1  UNL     1       1.238   6.068  -0.825  1.00  0.00     0.098 C 
ENDBRANCH  29  31
ENDBRANCH   1  29
BRANCH   9  33
HETATM   33  C18 UNL     1       5.780  -2.488  -0.192  1.00  0.00     0.234 C 
BRANCH  33  34
HETATM   34  N5  UNL     1       6.462  -2.544  -1.477  1.00  0.00    -0.079 N 
ATOM     35  H53 UNL     1       5.857  -2.255  -2.246  1.00  0.00     0.274 HD
ATOM     36  H52 UNL     1       7.172  -1.817  -1.567  1.00  0.00     0.274 HD
ATOM     37  H51 UNL     1       6.847  -3.477  -1.621  1.00  0.00     0.274 HD
ENDBRANCH  33  34
ENDBRANCH   9  33
TORSDOF 10
