REMARK  8 active torsions:
REMARK  status: ('A' for Active; 'I' for Inactive)
REMARK       I    between atoms: C1_2  and  N1_3 
REMARK       I    between atoms: C1_2  and  N4_27 
REMARK    1  A    between atoms: N1_3  and  C2_5 
REMARK    2  A    between atoms: C2_5  and  C3_6 
REMARK    3  A    between atoms: C2_5  and  C13_20 
REMARK    4  A    between atoms: C3_6  and  S1_7 
REMARK    5  A    between atoms: S1_7  and  N2_10 
REMARK       I    between atoms: C13_20  and  N3_22 
REMARK    6  A    between atoms: N3_22  and  C14_24 
REMARK    7  A    between atoms: C14_24  and  O5_25 
REMARK    8  A    between atoms: N4_27  and  C15_29 
ROOT
HETATM    1  C2  UNL     1       0.269   0.675   2.120  1.00  0.00     0.194 C 
ENDROOT
BRANCH   1   2
HETATM    2  N1  UNL     1       1.131  -0.297   1.479  1.00  0.00    -0.329 N 
HETATM    3  C1  UNL     1       2.280   0.054   0.735  1.00  0.00     0.317 C 
HETATM    4  O1  UNL     1       2.574   1.261   0.617  1.00  0.00    -0.247 OA
HETATM    5  N4  UNL     1       3.090  -0.927   0.129  1.00  0.00    -0.334 N 
ATOM      6  H4  UNL     1       2.813  -1.902   0.246  1.00  0.00     0.165 HD
ATOM      7  H1  UNL     1       0.897  -1.286   1.569  1.00  0.00     0.165 HD
BRANCH   5   8
HETATM    8  C15 UNL     1       4.271  -0.665  -0.638  1.00  0.00     0.035 C 
HETATM    9  C16 UNL     1       4.857  -1.988  -1.150  1.00  0.00     0.035 C 
HETATM   10  C17 UNL     1       6.161  -1.781  -1.853  1.00  0.00    -0.012 C 
HETATM   11  C18 UNL     1       5.926  -0.903  -3.053  1.00  0.00     0.009 C 
HETATM   12  C22 UNL     1       7.160  -1.115  -0.930  1.00  0.00     0.009 C 
HETATM   13  C19 UNL     1       5.300   0.393  -2.585  1.00  0.00    -0.012 C 
HETATM   14  C20 UNL     1       6.253   1.091  -1.665  1.00  0.00     0.009 C 
HETATM   15  C24 UNL     1       4.000   0.174  -1.855  1.00  0.00     0.035 C 
HETATM   16  C21 UNL     1       6.600   0.205  -0.502  1.00  0.00    -0.012 C 
HETATM   17  C23 UNL     1       5.315  -0.059   0.278  1.00  0.00     0.035 C 
ENDBRANCH   5   8
ENDBRANCH   1   2
BRANCH   1  18
HETATM   18  C3  UNL     1      -1.080   0.817   1.486  1.00  0.00     0.198 C 
BRANCH  18  19
HETATM   19  S1  UNL     1      -2.052  -0.638   1.459  1.00  0.00     0.231 S 
HETATM   20  O2  UNL     1      -1.301  -1.686   0.646  1.00  0.00    -0.206 OA
HETATM   21  O3  UNL     1      -2.234  -1.240   2.821  1.00  0.00    -0.206 OA
BRANCH  19  22
HETATM   22  N2  UNL     1      -3.580  -0.439   0.749  1.00  0.00    -0.310 N 
HETATM   23  C4  UNL     1      -4.443   0.492   1.391  1.00  0.00     0.135 C 
HETATM   24  C5  UNL     1      -5.673   0.834   0.621  1.00  0.00     0.025 C 
HETATM   25  C6  UNL     1      -6.065  -0.254  -0.354  1.00  0.00    -0.007 C 
HETATM   26  C7  UNL     1      -7.277   0.151  -1.124  1.00  0.00     0.005 C 
HETATM   27  C11 UNL     1      -4.921  -0.495  -1.313  1.00  0.00     0.008 C 
HETATM   28  C8  UNL     1      -7.329  -0.489  -2.510  1.00  0.00     0.000 C 
HETATM   29  C9  UNL     1      -6.188   0.016  -3.366  1.00  0.00     0.000 C 
HETATM   30  C10 UNL     1      -5.042   0.474  -2.479  1.00  0.00     0.007 C 
HETATM   31  C12 UNL     1      -3.580  -0.398  -0.677  1.00  0.00     0.140 C 
ENDBRANCH  19  22
ENDBRANCH  18  19
ENDBRANCH   1  18
BRANCH   1  32
HETATM   32  C13 UNL     1       0.226   0.516   3.575  1.00  0.00     0.243 C 
HETATM   33  O4  UNL     1       0.893  -0.388   4.122  1.00  0.00    -0.271 OA
HETATM   34  N3  UNL     1      -0.558   1.369   4.380  1.00  0.00    -0.338 N 
ATOM     35  H3  UNL     1      -1.104   2.110   3.940  1.00  0.00     0.164 HD
BRANCH  34  36
HETATM   36  C14 UNL     1      -0.602   1.214   5.814  1.00  0.00     0.290 C 
BRANCH  36  37
HETATM   37  O5  UNL     1       0.685   1.372   6.332  1.00  0.00    -0.382 OA
ATOM     38  H5  UNL     1       0.656   1.270   7.276  1.00  0.00     0.211 HD
ENDBRANCH  36  37
ENDBRANCH  34  36
ENDBRANCH   1  32
TORSDOF 8
