REMARK  8 active torsions:
REMARK  status: ('A' for Active; 'I' for Inactive)
REMARK    1  A    between atoms: C1_2  and  C2_4 
REMARK    2  A    between atoms: C2_4  and  C3_5 
REMARK    3  A    between atoms: C2_4  and  N1_11 
REMARK    4  A    between atoms: C13_16  and  C14_17 
REMARK    5  A    between atoms: C16_21  and  C17_22 
REMARK       I    between atoms: C17_22  and  N2_24 
REMARK    6  A    between atoms: N2_24  and  C18_26 
REMARK    7  A    between atoms: C18_26  and  C19_27 
REMARK       I    between atoms: C19_27  and  N3_29 
REMARK    8  A    between atoms: N3_29  and  C20_31 
ROOT
HETATM    1  N1  UNL     1      -2.619   0.590   0.093  1.00  0.00    -0.360 N 
HETATM    2  C9  UNL     1      -3.259   0.831   1.299  1.00  0.00     0.065 C 
HETATM    3  C10 UNL     1      -3.099   2.263   1.776  1.00  0.00     0.025 C 
HETATM    4  C11 UNL     1      -3.631   3.193   0.730  1.00  0.00     0.011 C 
HETATM    5  C12 UNL     1      -2.448   3.526  -0.167  1.00  0.00     0.024 C 
HETATM    6  C13 UNL     1      -1.306   2.639   0.348  1.00  0.00     0.078 C 
HETATM    7  C15 UNL     1      -1.637   2.634   1.822  1.00  0.00     0.033 C 
HETATM    8  C16 UNL     1      -1.429   1.273  -0.249  1.00  0.00     0.196 C 
ENDROOT
BRANCH   8   9
HETATM    9  C17 UNL     1      -0.206   0.455   0.055  1.00  0.00     0.242 C 
HETATM   10  O5  UNL     1       0.188   0.238   1.242  1.00  0.00    -0.271 OA
HETATM   11  N2  UNL     1       0.542  -0.103  -1.002  1.00  0.00    -0.341 N 
ATOM     12  H2  UNL     1       0.200   0.082  -1.945  1.00  0.00     0.163 HD
BRANCH  11  13
HETATM   13  C18 UNL     1       1.731  -0.903  -0.902  1.00  0.00     0.114 A 
HETATM   14  C26 UNL     1       1.882  -1.999  -1.947  1.00  0.00     0.044 A 
HETATM   15  C27 UNL     1       1.557  -2.358  -0.554  1.00  0.00     0.044 A 
BRANCH  13  16
HETATM   16  C19 UNL     1       2.957  -0.254  -0.369  1.00  0.00     0.246 C 
HETATM   17  O6  UNL     1       2.862   0.829   0.261  1.00  0.00    -0.271 OA
HETATM   18  N3  UNL     1       4.216  -0.839  -0.565  1.00  0.00    -0.354 N 
ATOM     19  H3  UNL     1       4.300  -1.717  -1.077  1.00  0.00     0.162 HD
BRANCH  18  20
HETATM   20  C20 UNL     1       5.420  -0.175  -0.025  1.00  0.00     0.084 C 
HETATM   21  C21 UNL     1       5.829  -0.939   1.227  1.00  0.00     0.025 C 
HETATM   22  C22 UNL     1       7.116  -0.361   1.747  1.00  0.00     0.002 C 
HETATM   23  C23 UNL     1       8.222  -0.607   0.724  1.00  0.00     0.000 C 
HETATM   24  C24 UNL     1       7.862   0.055  -0.563  1.00  0.00     0.002 C 
HETATM   25  C25 UNL     1       6.481  -0.205  -1.047  1.00  0.00     0.025 C 
ENDBRANCH  18  20
ENDBRANCH  13  16
ENDBRANCH  11  13
ENDBRANCH   8   9
BRANCH   1  26
HETATM   26  C2  UNL     1      -2.875  -0.542  -0.696  1.00  0.00     0.215 C 
BRANCH  26  27
HETATM   27  C1  UNL     1      -3.184  -0.137  -2.130  1.00  0.00     0.201 C 
HETATM   28  O1  UNL     1      -3.487   0.994  -2.508  1.00  0.00    -0.646 OA
HETATM   29  O2  UNL     1      -3.107  -1.176  -3.086  1.00  0.00    -0.646 OA
ENDBRANCH  26  27
BRANCH  26  30
HETATM   30  C3  UNL     1      -4.020  -1.393  -0.248  1.00  0.00    -0.051 C 
HETATM   31  C4  UNL     1      -5.130  -1.400  -1.012  1.00  0.00    -0.021 C 
HETATM   32  C5  UNL     1      -6.288  -2.212  -0.636  1.00  0.00     0.027 C 
HETATM   33  C6  UNL     1      -6.561  -2.228   0.839  1.00  0.00     0.004 C 
HETATM   34  C7  UNL     1      -5.345  -2.146   1.690  1.00  0.00     0.005 C 
HETATM   35  C8  UNL     1      -4.031  -2.213   0.964  1.00  0.00     0.036 C 
ENDBRANCH  26  30
ENDBRANCH   1  26
BRANCH   6  36
HETATM   36  C14 UNL     1      -0.002   3.275   0.040  1.00  0.00     0.184 C 
HETATM   37  O3  UNL     1       0.820   3.496   0.926  1.00  0.00    -0.647 OA
HETATM   38  O4  UNL     1       0.236   3.603  -1.288  1.00  0.00    -0.647 OA
ENDBRANCH   6  36
TORSDOF 8
