REMARK  9 active torsions:
REMARK  status: ('A' for Active; 'I' for Inactive)
REMARK    1  A    between atoms: C3_3  and  N1_4 
REMARK       I    between atoms: N1_4  and  C4_6 
REMARK    2  A    between atoms: C4_6  and  C5_8 
REMARK       I    between atoms: N2_12  and  C9_13 
REMARK    3  A    between atoms: C9_13  and  C10_15 
REMARK    4  A    between atoms: C10_15  and  C11_16 
REMARK    5  A    between atoms: C10_15  and  N5_30 
REMARK    6  A    between atoms: C11_16  and  C12_17 
REMARK    7  A    between atoms: C15_20  and  C16_21 
REMARK       I    between atoms: N5_30  and  C21_32 
REMARK    8  A    between atoms: C21_32  and  O4_34 
REMARK    9  A    between atoms: O4_34  and  C22_35 
ROOT
HETATM    1  C1  UNL     1      -1.400   2.830   6.556  1.00  0.00     0.014 C 
HETATM    2  C2  UNL     1      -2.253   3.477   5.988  1.00  0.00    -0.098 C 
HETATM    3  C3  UNL     1      -3.302   4.247   5.286  1.00  0.00     0.216 C 
ENDROOT
BRANCH   3   4
HETATM    4  N1  UNL     1      -3.870   3.491   4.179  1.00  0.00    -0.349 N 
HETATM    5  C4  UNL     1      -3.053   3.038   3.093  1.00  0.00     0.241 C 
HETATM    6  O1  UNL     1      -1.826   3.306   3.114  1.00  0.00    -0.271 OA
ATOM      7  H1  UNL     1      -4.868   3.280   4.177  1.00  0.00     0.163 HD
BRANCH   5   8
HETATM    8  C5  UNL     1      -3.649   2.282   1.995  1.00  0.00     0.179 C 
HETATM    9  C6  UNL     1      -4.556   3.185   1.183  1.00  0.00     0.037 C 
HETATM   10  C7  UNL     1      -3.616   4.025   0.394  1.00  0.00     0.022 C 
HETATM   11  C8  UNL     1      -2.371   3.172   0.250  1.00  0.00     0.127 C 
HETATM   12  N2  UNL     1      -2.639   1.950   0.969  1.00  0.00    -0.337 N 
HETATM   13  C9  UNL     1      -2.084   0.682   0.743  1.00  0.00     0.243 C 
HETATM   14  O2  UNL     1      -2.485  -0.301   1.473  1.00  0.00    -0.271 OA
BRANCH  13  15
HETATM   15  C10 UNL     1      -1.053   0.411  -0.308  1.00  0.00     0.179 C 
BRANCH  15  16
HETATM   16  C11 UNL     1       0.241   1.096  -0.015  1.00  0.00     0.040 C 
BRANCH  16  17
HETATM   17  C12 UNL     1       1.333   0.888  -1.020  1.00  0.00    -0.007 C 
HETATM   18  C13 UNL     1       2.558   1.704  -0.538  1.00  0.00     0.011 C 
HETATM   19  C14 UNL     1       3.036   0.466   0.128  1.00  0.00     0.001 C 
HETATM   20  C15 UNL     1       4.486   0.152   0.096  1.00  0.00     0.054 C 
HETATM   21  C20 UNL     1       2.212  -0.326  -0.861  1.00  0.00    -0.005 C 
HETATM   22  C17 UNL     1       5.065   0.308  -1.260  1.00  0.00     0.012 C 
HETATM   23  C18 UNL     1       4.227  -0.163  -2.397  1.00  0.00     0.001 C 
HETATM   24  C19 UNL     1       2.926  -0.780  -2.074  1.00  0.00     0.005 C 
BRANCH  20  25
HETATM   25  C16 UNL     1       4.705  -1.172   0.711  1.00  0.00     0.091 C 
HETATM   26  N3  UNL     1       5.247  -2.128   0.055  1.00  0.00    -0.391 N 
ATOM     27  H32 UNL     1       5.520  -1.938  -0.909  1.00  0.00     0.157 HD
ATOM     28  H31 UNL     1       5.398  -3.043   0.480  1.00  0.00     0.157 HD
HETATM   29  N4  UNL     1       4.322  -1.439   2.066  1.00  0.00    -0.088 NA
ENDBRANCH  20  25
ENDBRANCH  16  17
ENDBRANCH  15  16
BRANCH  15  30
HETATM   30  N5  UNL     1      -0.779  -1.019  -0.355  1.00  0.00    -0.324 N 
HETATM   31  C21 UNL     1      -1.052  -1.821  -1.473  1.00  0.00     0.361 C 
HETATM   32  O3  UNL     1      -1.570  -1.249  -2.479  1.00  0.00    -0.238 OA
ATOM     33  H5  UNL     1      -0.367  -1.460   0.468  1.00  0.00     0.165 HD
BRANCH  31  34
HETATM   34  O4  UNL     1      -0.808  -3.171  -1.580  1.00  0.00    -0.297 OA
BRANCH  34  35
HETATM   35  C22 UNL     1      -1.144  -3.848  -2.747  1.00  0.00     0.149 C 
HETATM   36  C23 UNL     1      -0.133  -4.849  -3.287  1.00  0.00     0.039 C 
HETATM   37  C24 UNL     1      -0.940  -5.546  -4.318  1.00  0.00    -0.023 C 
HETATM   38  C27 UNL     1      -0.475  -5.659  -2.043  1.00  0.00     0.022 C 
HETATM   39  C25 UNL     1      -2.123  -5.735  -3.679  1.00  0.00    -0.023 C 
HETATM   40  C26 UNL     1      -1.885  -5.139  -2.366  1.00  0.00     0.039 C 
ENDBRANCH  34  35
ENDBRANCH  31  34
ENDBRANCH  15  30
ENDBRANCH  13  15
ENDBRANCH   5   8
ENDBRANCH   3   4
TORSDOF 9
