REMARK  8 active torsions:
REMARK  status: ('A' for Active; 'I' for Inactive)
REMARK    1  A    between atoms: C2_2  and  O2_4 
REMARK    2  A    between atoms: O2_4  and  C3_5 
REMARK    3  A    between atoms: C3_5  and  C4_6 
REMARK    4  A    between atoms: C4_6  and  C5_7 
REMARK    5  A    between atoms: C5_7  and  C6_8 
REMARK    6  A    between atoms: C6_8  and  C8_10 
REMARK    7  A    between atoms: C17_21  and  C18_22 
REMARK    8  A    between atoms: C22_28  and  O7_29 
ROOT
HETATM    1  C8  UNL     1       2.267  -0.568   0.372  1.00  0.00     0.137 C 
HETATM    2  O3  UNL     1       2.058  -1.736  -0.365  1.00  0.00    -0.373 OA
HETATM    3  C9  UNL     1       0.692  -1.682   0.009  1.00  0.00     0.072 C 
HETATM    4  C10 UNL     1       0.246  -3.103   0.191  1.00  0.00     0.047 C 
HETATM    5  C11 UNL     1      -0.128  -0.814  -0.896  1.00  0.00     0.032 C 
HETATM    6  C12 UNL     1      -0.548  -1.675  -2.040  1.00  0.00     0.086 C 
HETATM    7  C13 UNL     1      -1.907  -2.169  -1.830  1.00  0.00     0.132 C 
HETATM    8  O4  UNL     1      -2.205  -3.333  -1.850  1.00  0.00    -0.298 OA
HETATM    9  C14 UNL     1      -2.900  -1.137  -1.591  1.00  0.00     0.064 C 
HETATM   10  C15 UNL     1      -4.289  -1.692  -1.543  1.00  0.00     0.014 C 
HETATM   11  C16 UNL     1      -5.312  -0.780  -0.982  1.00  0.00     0.026 C 
HETATM   12  C17 UNL     1      -4.921   0.610  -0.743  1.00  0.00     0.081 C 
HETATM   13  C19 UNL     1      -5.451   1.132   0.574  1.00  0.00     0.149 C 
HETATM   14  O6  UNL     1      -6.533   0.799   1.019  1.00  0.00    -0.296 OA
HETATM   15  C20 UNL     1      -4.496   2.057   1.193  1.00  0.00     0.082 C 
HETATM   16  C21 UNL     1      -5.169   3.419   1.414  1.00  0.00     0.020 C 
HETATM   17  C22 UNL     1      -3.434   2.163   0.089  1.00  0.00     0.135 C 
HETATM   18  C23 UNL     1      -3.482   0.943  -0.696  1.00  0.00     0.047 C 
HETATM   19  C24 UNL     1      -2.592  -0.238  -0.383  1.00  0.00    -0.022 C 
HETATM   20  C25 UNL     1      -2.979  -1.003   0.827  1.00  0.00     0.017 C 
HETATM   21  C26 UNL     1      -1.124   0.096  -0.313  1.00  0.00     0.002 C 
HETATM   22  C27 UNL     1      -0.726   0.633   1.025  1.00  0.00     0.007 C 
HETATM   23  C28 UNL     1       0.240  -0.066   1.868  1.00  0.00     0.015 C 
HETATM   24  C29 UNL     1       1.176  -1.041   1.260  1.00  0.00     0.014 C 
HETATM   25  C30 UNL     1       1.708  -2.005   2.287  1.00  0.00     0.021 C 
ENDROOT
BRANCH   1  26
HETATM   26  C6  UNL     1       3.680  -0.578   0.895  1.00  0.00     0.011 C 
HETATM   27  C7  UNL     1       4.043   0.725   1.574  1.00  0.00     0.012 C 
BRANCH  26  28
HETATM   28  C5  UNL     1       4.611  -0.648  -0.332  1.00  0.00     0.009 C 
BRANCH  28  29
HETATM   29  C4  UNL     1       6.053  -0.634   0.128  1.00  0.00     0.027 C 
BRANCH  29  30
HETATM   30  C3  UNL     1       7.015  -0.700  -1.013  1.00  0.00     0.178 C 
BRANCH  30  31
HETATM   31  O2  UNL     1       6.927   0.340  -1.933  1.00  0.00    -0.322 OA
BRANCH  31  32
HETATM   32  C2  UNL     1       7.111   1.675  -1.682  1.00  0.00     0.254 C 
HETATM   33  C1  UNL     1       6.984   2.672  -2.762  1.00  0.00     0.126 C 
HETATM   34  O1  UNL     1       7.388   2.055  -0.526  1.00  0.00    -0.266 OA
ENDBRANCH  31  32
ENDBRANCH  30  31
ENDBRANCH  29  30
ENDBRANCH  28  29
ENDBRANCH  26  28
ENDBRANCH   1  26
BRANCH  12  35
HETATM   35  C18 UNL     1      -5.562   1.506  -1.780  1.00  0.00     0.249 C 
HETATM   36  O5  UNL     1      -6.630   2.028  -1.608  1.00  0.00    -0.306 OA
ENDBRANCH  12  35
BRANCH  17  37
HETATM   37  O7  UNL     1      -3.964   3.200  -0.744  1.00  0.00    -0.394 OA
ATOM     38  H7  UNL     1      -3.307   3.266  -1.427  1.00  0.00     0.210 HD
ENDBRANCH  17  37
TORSDOF 8
