REMARK  9 active torsions:
REMARK  status: ('A' for Active; 'I' for Inactive)
REMARK    1  A    between atoms: C2_2  and  O2_4 
REMARK    2  A    between atoms: O2_4  and  C3_5 
REMARK    3  A    between atoms: C5_7  and  C6_8 
REMARK    4  A    between atoms: C6_8  and  C7_10 
REMARK    5  A    between atoms: C7_10  and  S1_11 
REMARK    6  A    between atoms: S1_11  and  C8_12 
REMARK    7  A    between atoms: C8_12  and  C9_13 
REMARK    8  A    between atoms: C9_13  and  O4_14 
REMARK    9  A    between atoms: C20_29  and  N2_30 
ROOT
HETATM    1  C3  UNL     1       0.157  -0.695   1.257  1.00  0.00     0.141 C 
HETATM    2  C4  UNL     1       1.147   0.346   0.843  1.00  0.00     0.046 C 
HETATM    3  C5  UNL     1       2.325  -0.354   0.198  1.00  0.00     0.065 C 
HETATM    4  C10 UNL     1       2.112  -0.335  -1.262  1.00  0.00     0.033 C 
HETATM    5  C11 UNL     1       3.228  -1.167  -1.904  1.00  0.00     0.238 C 
HETATM    6  N1  UNL     1       2.604  -2.368  -2.412  1.00  0.00    -0.074 N 
ATOM      7  H11 UNL     1       3.192  -3.198  -2.337  1.00  0.00     0.277 HD
ATOM      8  H12 UNL     1       2.506  -2.380  -3.427  1.00  0.00     0.277 HD
HETATM    9  C12 UNL     1       1.318  -2.484  -1.689  1.00  0.00     0.242 C 
HETATM   10  C13 UNL     1       0.882  -1.062  -1.738  1.00  0.00    -0.010 C 
HETATM   11  C14 UNL     1       0.886  -0.731  -3.250  1.00  0.00     0.018 C 
HETATM   12  C15 UNL     1      -0.398  -0.685  -1.205  1.00  0.00     0.007 C 
HETATM   13  C16 UNL     1      -1.529  -1.033  -2.171  1.00  0.00     0.007 C 
HETATM   14  C17 UNL     1      -2.765  -0.158  -1.878  1.00  0.00     0.012 C 
HETATM   15  C18 UNL     1      -3.195  -0.482  -0.508  1.00  0.00    -0.019 C 
HETATM   16  C19 UNL     1      -3.903  -1.823  -0.587  1.00  0.00     0.018 C 
HETATM   17  C20 UNL     1      -4.222   0.436   0.105  1.00  0.00     0.087 C 
HETATM   18  C25 UNL     1      -3.980   0.247   1.597  1.00  0.00     0.026 C 
HETATM   19  C26 UNL     1      -2.785  -0.689   1.726  1.00  0.00     0.008 C 
HETATM   20  C27 UNL     1      -2.095  -0.409   0.465  1.00  0.00     0.007 C 
HETATM   21  C28 UNL     1      -0.806  -1.132   0.171  1.00  0.00    -0.008 C 
HETATM   22  C29 UNL     1      -1.024  -2.596   0.303  1.00  0.00     0.018 C 
ENDROOT
BRANCH   3  23
HETATM   23  C6  UNL     1       3.566   0.408   0.514  1.00  0.00     0.140 C 
HETATM   24  O3  UNL     1       4.501  -0.096   1.118  1.00  0.00    -0.297 OA
BRANCH  23  25
HETATM   25  C7  UNL     1       3.695   1.831   0.092  1.00  0.00     0.152 C 
BRANCH  25  26
HETATM   26  S1  UNL     1       5.294   2.514   0.605  1.00  0.00    -0.160 SA
BRANCH  26  27
HETATM   27  C8  UNL     1       6.650   1.710  -0.272  1.00  0.00     0.100 C 
BRANCH  27  28
HETATM   28  C9  UNL     1       7.948   2.317   0.191  1.00  0.00     0.174 C 
BRANCH  28  29
HETATM   29  O4  UNL     1       8.066   2.110   1.564  1.00  0.00    -0.400 OA
ATOM     30  H4  UNL     1       8.885   2.493   1.856  1.00  0.00     0.209 HD
ENDBRANCH  28  29
ENDBRANCH  27  28
ENDBRANCH  26  27
ENDBRANCH  25  26
ENDBRANCH  23  25
ENDBRANCH   3  23
BRANCH   1  31
HETATM   31  O2  UNL     1       0.886  -1.758   1.837  1.00  0.00    -0.316 OA
BRANCH  31  32
HETATM   32  C2  UNL     1       0.887  -2.086   3.163  1.00  0.00     0.255 C 
HETATM   33  C1  UNL     1       1.690  -3.233   3.704  1.00  0.00     0.126 C 
HETATM   34  O1  UNL     1       0.199  -1.415   3.953  1.00  0.00    -0.266 OA
ENDBRANCH  31  32
ENDBRANCH   1  31
BRANCH  17  35
HETATM   35  N2  UNL     1      -4.269   1.752  -0.322  1.00  0.00    -0.407 N 
HETATM   36  C21 UNL     1      -3.276   2.703  -0.128  1.00  0.00     0.117 C 
HETATM   37  C22 UNL     1      -3.922   3.945  -0.796  1.00  0.00     0.021 C 
HETATM   38  C23 UNL     1      -5.300   3.884  -0.182  1.00  0.00     0.021 C 
HETATM   39  C24 UNL     1      -5.526   2.425  -0.006  1.00  0.00     0.117 C 
ENDBRANCH  17  35
TORSDOF 9
