REMARK  10 active torsions:
REMARK  status: ('A' for Active; 'I' for Inactive)
REMARK    1  A    between atoms: C2_2  and  C3_3 
REMARK    2  A    between atoms: C2_2  and  C5_6 
REMARK    3  A    between atoms: C3_3  and  O1_4 
REMARK    4  A    between atoms: C15_16  and  O2_17 
REMARK    5  A    between atoms: O2_17  and  C16_18 
REMARK    6  A    between atoms: C18_21  and  O4_22 
REMARK    7  A    between atoms: O4_22  and  C19_23 
REMARK    8  A    between atoms: C19_23  and  O5_25 
REMARK    9  A    between atoms: C21_27  and  N1_28 
REMARK   10  A    between atoms: C22_32  and  O6_33 
ROOT
HETATM    1  C5  UNL     1      -3.888   3.487   0.677  1.00  0.00     0.028 C 
HETATM    2  C6  UNL     1      -4.231   2.611   1.848  1.00  0.00    -0.009 C 
HETATM    3  C7  UNL     1      -5.632   2.558   2.312  1.00  0.00     0.011 C 
HETATM    4  C8  UNL     1      -3.719   1.192   1.532  1.00  0.00     0.010 C 
HETATM    5  C9  UNL     1      -3.200   1.295   0.147  1.00  0.00    -0.001 C 
HETATM    6  C10 UNL     1      -2.085   0.337  -0.216  1.00  0.00    -0.005 C 
HETATM    7  C11 UNL     1      -2.488  -1.103   0.133  1.00  0.00     0.006 C 
HETATM    8  C12 UNL     1      -1.410  -2.071  -0.360  1.00  0.00     0.006 C 
HETATM    9  C13 UNL     1      -0.141  -1.653   0.302  1.00  0.00    -0.004 C 
HETATM   10  C14 UNL     1       1.051  -2.482   0.215  1.00  0.00     0.037 C 
HETATM   11  C15 UNL     1       2.147  -1.512  -0.310  1.00  0.00     0.126 C 
HETATM   12  C23 UNL     1       1.659  -0.168   0.264  1.00  0.00     0.042 C 
HETATM   13  C24 UNL     1       0.230  -0.283  -0.220  1.00  0.00    -0.034 C 
HETATM   14  C25 UNL     1       0.301  -0.177  -1.718  1.00  0.00     0.016 C 
HETATM   15  C26 UNL     1      -0.764   0.637   0.403  1.00  0.00    -0.001 C 
HETATM   16  C27 UNL     1      -0.377   2.058   0.531  1.00  0.00     0.006 C 
HETATM   17  C28 UNL     1      -1.574   2.861   0.994  1.00  0.00     0.010 C 
HETATM   18  C29 UNL     1      -2.763   2.696   0.038  1.00  0.00    -0.032 C 
HETATM   19  C30 UNL     1      -2.302   3.192  -1.281  1.00  0.00     0.016 C 
ENDROOT
BRANCH  11  20
HETATM   20  O2  UNL     1       3.380  -1.894   0.094  1.00  0.00    -0.353 OA
BRANCH  20  21
HETATM   21  C16 UNL     1       4.098  -2.412  -0.996  1.00  0.00     0.290 C 
HETATM   22  O3  UNL     1       5.205  -1.762  -1.357  1.00  0.00    -0.356 OA
HETATM   23  C17 UNL     1       6.371  -2.464  -1.108  1.00  0.00     0.205 C 
HETATM   24  C18 UNL     1       6.333  -2.988   0.314  1.00  0.00     0.181 C 
HETATM   25  C21 UNL     1       5.295  -4.120   0.350  1.00  0.00     0.247 C 
HETATM   26  C22 UNL     1       4.317  -3.907  -0.785  1.00  0.00     0.206 C 
BRANCH  24  27
HETATM   27  O4  UNL     1       7.490  -3.294   0.908  1.00  0.00    -0.352 OA
BRANCH  27  28
HETATM   28  C19 UNL     1       8.381  -3.107   1.786  1.00  0.00     0.253 C 
HETATM   29  C20 UNL     1       9.636  -3.558   2.343  1.00  0.00     0.070 C 
BRANCH  28  30
HETATM   30  O5  UNL     1       7.998  -1.976   2.590  1.00  0.00    -0.372 OA
ATOM     31  H5  UNL     1       8.667  -1.836   3.249  1.00  0.00     0.212 HD
ENDBRANCH  28  30
ENDBRANCH  27  28
ENDBRANCH  24  27
BRANCH  25  32
HETATM   32  N1  UNL     1       5.933  -5.392   0.177  1.00  0.00    -0.070 N 
ATOM     33  H13 UNL     1       6.497  -5.421  -0.673  1.00  0.00     0.274 HD
ATOM     34  H12 UNL     1       6.678  -5.539   0.858  1.00  0.00     0.274 HD
ATOM     35  H11 UNL     1       5.244  -6.144   0.201  1.00  0.00     0.274 HD
ENDBRANCH  25  32
BRANCH  26  36
HETATM   36  O6  UNL     1       4.746  -4.566  -1.910  1.00  0.00    -0.388 OA
ATOM     37  H6  UNL     1       4.882  -5.497  -1.779  1.00  0.00     0.210 HD
ENDBRANCH  26  36
ENDBRANCH  20  21
ENDBRANCH  11  20
BRANCH   1  38
HETATM   38  C2  UNL     1      -5.025   3.804  -0.228  1.00  0.00    -0.061 C 
HETATM   39  C1  UNL     1      -5.303   3.415  -1.423  1.00  0.00     0.017 C 
BRANCH  38  40
HETATM   40  C3  UNL     1      -5.926   4.915   0.316  1.00  0.00     0.201 C 
BRANCH  40  41
HETATM   41  O1  UNL     1      -6.932   5.276  -0.579  1.00  0.00    -0.392 OA
HETATM   42  C4  UNL     1      -7.995   4.398  -0.471  1.00  0.00     0.201 C 
ENDBRANCH  40  41
ENDBRANCH  38  40
ENDBRANCH   1  38
TORSDOF 10
