REMARK  8 active torsions:
REMARK  status: ('A' for Active; 'I' for Inactive)
REMARK    1  A    between atoms: C2_2  and  C3_3 
REMARK    2  A    between atoms: C2_2  and  C23_27 
REMARK    3  A    between atoms: C3_3  and  C4_5 
REMARK    4  A    between atoms: C8_9  and  C10_11 
REMARK    5  A    between atoms: C10_11  and  C12_13 
REMARK    6  A    between atoms: C12_13  and  C13_14 
REMARK    7  A    between atoms: C13_14  and  C14_15 
REMARK    8  A    between atoms: C19_22  and  O4_23 
ROOT
HETATM    1  C4  UNL     1       0.101   0.633  -1.396  1.00  0.00     0.001 C 
HETATM    2  C5  UNL     1       0.136  -0.774  -1.859  1.00  0.00     0.028 A 
HETATM    3  C6  UNL     1      -0.343  -1.995  -1.379  1.00  0.00     0.016 A 
HETATM    4  C7  UNL     1       0.695  -1.469  -0.603  1.00  0.00     0.005 A 
HETATM    5  C8  UNL     1       2.221  -1.416  -0.774  1.00  0.00    -0.021 C 
HETATM    6  C9  UNL     1       2.584  -1.818  -2.197  1.00  0.00     0.017 C 
HETATM    7  C15 UNL     1       2.473   0.023  -0.505  1.00  0.00     0.013 C 
HETATM    8  C16 UNL     1       2.508   0.387   0.951  1.00  0.00     0.026 C 
HETATM    9  C17 UNL     1       3.674   0.683  -1.084  1.00  0.00    -0.047 C 
HETATM   10  C18 UNL     1       4.751   0.365  -1.724  1.00  0.00     0.018 C 
HETATM   11  C19 UNL     1       3.415   2.156  -0.780  1.00  0.00     0.154 C 
HETATM   12  C21 UNL     1       1.914   2.310  -0.835  1.00  0.00     0.072 C 
HETATM   13  C22 UNL     1       1.505   0.958  -1.255  1.00  0.00    -0.053 C 
ENDROOT
BRANCH   1  14
HETATM   14  C3  UNL     1      -0.893   1.044  -0.433  1.00  0.00     0.186 C 
HETATM   15  O1  UNL     1      -0.691   1.459   0.737  1.00  0.00    -0.287 OA
BRANCH  14  16
HETATM   16  C2  UNL     1      -2.353   1.022  -0.726  1.00  0.00     0.014 C 
HETATM   17  C1  UNL     1      -2.730   0.620  -1.924  1.00  0.00     0.025 C 
BRANCH  16  18
HETATM   18  C23 UNL     1      -3.383   1.425   0.227  1.00  0.00     0.184 C 
HETATM   19  C24 UNL     1      -3.450   0.733   1.526  1.00  0.00     0.208 C 
HETATM   20  O5  UNL     1      -4.121  -0.477   1.501  1.00  0.00    -0.353 OA
HETATM   21  C25 UNL     1      -5.441  -0.163   1.171  1.00  0.00     0.318 C 
HETATM   22  O6  UNL     1      -5.992   0.797   2.009  1.00  0.00    -0.321 OA
HETATM   23  C29 UNL     1      -5.521   0.523  -0.168  1.00  0.00     0.319 C 
HETATM   24  C26 UNL     1      -7.104   1.192   1.289  1.00  0.00     0.163 C 
HETATM   25  C27 UNL     1      -7.599   2.570   1.658  1.00  0.00     0.078 C 
HETATM   26  C28 UNL     1      -8.272   0.237   1.492  1.00  0.00     0.078 C 
HETATM   27  O7  UNL     1      -6.773   1.187  -0.040  1.00  0.00    -0.321 OA
HETATM   28  O8  UNL     1      -4.600   1.478  -0.378  1.00  0.00    -0.344 OA
ENDBRANCH  16  18
ENDBRANCH  14  16
ENDBRANCH   1  14
BRANCH   5  29
HETATM   29  C10 UNL     1       2.617  -2.501   0.167  1.00  0.00    -0.008 C 
HETATM   30  C11 UNL     1       1.904  -3.838  -0.296  1.00  0.00     0.011 C 
BRANCH  29  31
HETATM   31  C12 UNL     1       3.964  -2.977   0.416  1.00  0.00     0.015 C 
BRANCH  31  32
HETATM   32  C13 UNL     1       5.082  -2.273   1.047  1.00  0.00     0.113 C 
BRANCH  32  33
HETATM   33  C14 UNL     1       4.852  -2.001   2.520  1.00  0.00     0.172 C 
HETATM   34  O2  UNL     1       3.784  -2.377   3.046  1.00  0.00    -0.648 OA
HETATM   35  O3  UNL     1       5.791  -1.349   3.286  1.00  0.00    -0.648 OA
ENDBRANCH  32  33
ENDBRANCH  31  32
ENDBRANCH  29  31
ENDBRANCH   5  29
BRANCH  11  36
HETATM   36  O4  UNL     1       4.018   2.595   0.354  1.00  0.00    -0.386 OA
HETATM   37  C20 UNL     1       4.913   3.605   0.086  1.00  0.00     0.202 C 
ENDBRANCH  11  36
TORSDOF 8
