REMARK  7 active torsions:
REMARK  status: ('A' for Active; 'I' for Inactive)
REMARK    1  A    between atoms: C2_2  and  N1_4 
REMARK    2  A    between atoms: C2_2  and  C4_8 
REMARK    3  A    between atoms: C4_8  and  N2_9 
REMARK    4  A    between atoms: N2_9  and  C7_12 
REMARK    5  A    between atoms: C7_12  and  C8_13 
REMARK    6  A    between atoms: C8_13  and  N3_14 
REMARK       I    between atoms: N3_14  and  C9_16 
REMARK       I    between atoms: C9_16  and  N5_20 
REMARK    7  A    between atoms: N5_20  and  C10_22 
ROOT
HETATM    1  N3  UNL     1       0.926   0.982  -0.195  1.00  0.00    -0.225 N 
ATOM      2  H3  UNL     1       0.433   1.873  -0.140  1.00  0.00     0.177 HD
HETATM    3  C9  UNL     1       2.244   0.888   0.333  1.00  0.00     0.669 C 
HETATM    4  N4  UNL     1       2.746   1.859   0.972  1.00  0.00    -0.235 N 
ATOM      5  H41 UNL     1       3.691   1.792   1.350  1.00  0.00     0.174 HD
ATOM      6  H42 UNL     1       2.214   2.719   1.104  1.00  0.00     0.174 HD
HETATM    7  N5  UNL     1       2.980  -0.302   0.150  1.00  0.00    -0.197 N 
ATOM      8  H5  UNL     1       2.659  -1.145   0.626  1.00  0.00     0.180 HD
ENDROOT
BRANCH   1   9
HETATM    9  C8  UNL     1       0.270  -0.143  -0.803  1.00  0.00     0.166 C 
BRANCH   9  10
HETATM   10  C7  UNL     1      -1.172  -0.050  -1.018  1.00  0.00     0.256 C 
BRANCH  10  11
HETATM   11  N2  UNL     1      -2.088  -0.013   0.074  1.00  0.00    -0.071 N 
HETATM   12  C5  UNL     1      -2.276  -1.415   0.435  1.00  0.00     0.272 C 
HETATM   13  C6  UNL     1      -1.464   0.656   1.212  1.00  0.00     0.272 C 
BRANCH  11  14
HETATM   14  C4  UNL     1      -3.255   0.670  -0.351  1.00  0.00     0.274 C 
BRANCH  14  15
HETATM   15  C2  UNL     1      -4.599   0.261   0.028  1.00  0.00     0.140 C 
HETATM   16  C1  UNL     1      -5.555   1.304  -0.608  1.00  0.00     0.047 C 
HETATM   17  C3  UNL     1      -5.067  -1.055  -0.576  1.00  0.00     0.047 C 
BRANCH  15  18
HETATM   18  N1  UNL     1      -4.916   0.270   1.425  1.00  0.00    -0.070 N 
ATOM     19  H13 UNL     1      -4.864   1.194   1.854  1.00  0.00     0.275 HD
ATOM     20  H12 UNL     1      -5.902   0.103   1.626  1.00  0.00     0.275 HD
ATOM     21  H11 UNL     1      -4.287  -0.416   1.843  1.00  0.00     0.275 HD
ENDBRANCH  15  18
ENDBRANCH  14  15
ENDBRANCH  11  14
ENDBRANCH  10  11
ENDBRANCH   9  10
ENDBRANCH   1   9
BRANCH   7  22
HETATM   22  C10 UNL     1       4.158  -0.390  -0.671  1.00  0.00     0.304 C 
HETATM   23  N6  UNL     1       4.762  -1.701  -0.476  1.00  0.00    -0.053 N 
HETATM   24  C11 UNL     1       5.417  -1.545   0.801  1.00  0.00     0.239 C 
ATOM     25  H62 UNL     1       4.115  -2.487  -0.536  1.00  0.00     0.279 HD
ATOM     26  H61 UNL     1       5.366  -2.015  -1.235  1.00  0.00     0.279 HD
HETATM   27  C12 UNL     1       6.135  -0.222   0.624  1.00  0.00     0.019 A 
HETATM   28  C13 UNL     1       6.663   0.161  -0.692  1.00  0.00     0.015 A 
HETATM   29  C14 UNL     1       5.267   0.532  -0.287  1.00  0.00     0.042 A 
ENDBRANCH   7  22
TORSDOF 7
