REMARK  7 active torsions:
REMARK  status: ('A' for Active; 'I' for Inactive)
REMARK    1  A    between atoms: C3_3  and  N1_4 
REMARK    2  A    between atoms: N1_4  and  C4_5 
REMARK    3  A    between atoms: C5_6  and  O1_7 
REMARK    4  A    between atoms: C5_6  and  N2_9 
REMARK    5  A    between atoms: N2_9  and  C6_11 
REMARK    6  A    between atoms: C12_17  and  C13_18 
REMARK    7  A    between atoms: C13_18  and  O2_19 
ROOT
HETATM    1  C1  UNL     1      -2.376  -1.110  -3.426  1.00  0.00     0.013 C 
HETATM    2  C2  UNL     1      -1.670  -0.856  -2.473  1.00  0.00    -0.088 C 
HETATM    3  C3  UNL     1      -0.789  -0.567  -1.346  1.00  0.00     0.346 C 
ENDROOT
BRANCH   3   4
HETATM    4  N1  UNL     1      -1.393   0.237  -0.326  1.00  0.00     0.029 N 
HETATM    5  C11 UNL     1      -2.723   0.716  -0.752  1.00  0.00     0.281 C 
HETATM    6  C12 UNL     1      -3.672  -0.264  -0.157  1.00  0.00     0.135 C 
HETATM    7  N3  UNL     1      -3.085  -0.398   1.158  1.00  0.00    -0.347 N 
HETATM    8  C14 UNL     1      -1.673  -0.516   0.855  1.00  0.00     0.280 C 
ATOM      9  H3  UNL     1      -3.547  -0.407   2.067  1.00  0.00     0.163 HD
HETATM   10  N4  UNL     1      -0.932  -1.228   1.610  1.00  0.00    -0.365 N 
ATOM     11  H42 UNL     1       0.062  -1.311   1.397  1.00  0.00     0.159 HD
ATOM     12  H41 UNL     1      -1.132  -1.766   2.453  1.00  0.00     0.159 HD
BRANCH   4  13
HETATM   13  C4  UNL     1      -0.678   1.433  -0.019  1.00  0.00     0.268 C 
HETATM   14  C5  UNL     1       0.726   1.492   0.181  1.00  0.00     0.160 C 
BRANCH  14  15
HETATM   15  O1  UNL     1       1.206   2.675   0.442  1.00  0.00    -0.345 OA
ATOM     16  H1  UNL     1       2.146   2.714   0.576  1.00  0.00     0.219 HD
ENDBRANCH  14  15
BRANCH  14  17
HETATM   17  N2  UNL     1       1.690   0.490   0.146  1.00  0.00    -0.365 N 
ATOM     18  H2  UNL     1       1.397  -0.468  -0.047  1.00  0.00     0.162 HD
BRANCH  17  19
HETATM   19  C6  UNL     1       3.123   0.763   0.379  1.00  0.00     0.083 C 
HETATM   20  C7  UNL     1       3.928   0.351  -0.810  1.00  0.00     0.025 C 
HETATM   21  C8  UNL     1       5.005  -0.590  -0.330  1.00  0.00     0.002 C 
HETATM   22  C9  UNL     1       4.651  -0.979   1.081  1.00  0.00     0.002 C 
HETATM   23  C10 UNL     1       3.640   0.020   1.570  1.00  0.00     0.025 C 
ENDBRANCH  17  19
ENDBRANCH  14  17
ENDBRANCH   4  13
BRANCH   6  24
HETATM   24  C13 UNL     1      -5.090   0.276  -0.079  1.00  0.00     0.190 C 
BRANCH  24  25
HETATM   25  O2  UNL     1      -5.854  -0.598   0.664  1.00  0.00    -0.399 OA
ATOM     26  H2  UNL     1      -6.741  -0.260   0.713  1.00  0.00     0.209 HD
ENDBRANCH  24  25
ENDBRANCH   6  24
ENDBRANCH   3   4
TORSDOF 7
