REMARK  7 active torsions:
REMARK  status: ('A' for Active; 'I' for Inactive)
REMARK    1  A    between atoms: N2_6  and  C4_7 
REMARK    2  A    between atoms: C4_7  and  C5_8 
REMARK    3  A    between atoms: C6_9  and  N3_10 
REMARK    4  A    between atoms: C11_17  and  O1_18 
REMARK    5  A    between atoms: C12_20  and  C13_21 
REMARK    6  A    between atoms: C13_21  and  C14_22 
REMARK    7  A    between atoms: C14_22  and  O2_23 
ROOT
HETATM    1  C4  UNL     1       0.888  -1.495   0.740  1.00  0.00     0.158 C 
ENDROOT
BRANCH   1   2
HETATM    2  N2  UNL     1       1.947  -1.438  -0.248  1.00  0.00    -0.341 N 
HETATM    3  C3  UNL     1       2.290  -2.415  -1.140  1.00  0.00     0.183 A 
HETATM    4  N1  UNL     1       3.324  -1.977  -1.889  1.00  0.00    -0.354 N 
HETATM    5  C2  UNL     1       3.658  -0.734  -1.499  1.00  0.00     0.029 A 
ATOM      6  H1  UNL     1       3.780  -2.505  -2.633  1.00  0.00     0.166 HD
HETATM    7  C1  UNL     1       4.735   0.130  -2.044  1.00  0.00     0.070 C 
HETATM    8  C12 UNL     1       2.780  -0.432  -0.475  1.00  0.00     0.037 A 
BRANCH   8   9
HETATM    9  C13 UNL     1       2.800   0.860   0.254  1.00  0.00     0.085 C 
BRANCH   9  10
HETATM   10  C14 UNL     1       3.966   0.891   1.252  1.00  0.00     0.170 C 
BRANCH  10  11
HETATM   11  O2  UNL     1       4.000   2.080   1.936  1.00  0.00    -0.400 OA
ATOM     12  H2  UNL     1       4.722   2.099   2.554  1.00  0.00     0.209 HD
ENDBRANCH  10  11
ENDBRANCH   9  10
ENDBRANCH   8   9
ENDBRANCH   1   2
BRANCH   1  13
HETATM   13  C5  UNL     1      -0.404  -1.014   0.217  1.00  0.00     0.018 C 
HETATM   14  C6  UNL     1      -1.041   0.002   0.731  1.00  0.00     0.203 C 
BRANCH  14  15
HETATM   15  N3  UNL     1      -2.283   0.477   0.240  1.00  0.00    -0.022 N 
HETATM   16  C7  UNL     1      -1.986   1.205  -1.007  1.00  0.00     0.281 C 
HETATM   17  C8  UNL     1      -2.863   1.338   1.217  1.00  0.00     0.264 C 
HETATM   18  C9  UNL     1      -4.283   1.106   1.566  1.00  0.00     0.142 C 
HETATM   19  N4  UNL     1      -5.109   0.677   0.479  1.00  0.00    -0.415 N 
HETATM   20  C10 UNL     1      -4.538  -0.305  -0.366  1.00  0.00     0.176 C 
ATOM     21  H4  UNL     1      -6.044   1.053   0.324  1.00  0.00     0.153 HD
HETATM   22  C11 UNL     1      -3.111  -0.646  -0.139  1.00  0.00     0.345 C 
BRANCH  22  23
HETATM   23  O1  UNL     1      -2.991  -1.720   0.727  1.00  0.00    -0.368 OA
ATOM     24  H1  UNL     1      -3.535  -2.458   0.478  1.00  0.00     0.212 HD
ENDBRANCH  22  23
ENDBRANCH  14  15
ENDBRANCH   1  13
TORSDOF 7
