REMARK  5 active torsions:
REMARK  status: ('A' for Active; 'I' for Inactive)
REMARK    1  A    between atoms: N1_2  and  C2_3 
REMARK    2  A    between atoms: C2_3  and  C3_4 
REMARK    3  A    between atoms: C3_4  and  N2_5 
REMARK       I    between atoms: N2_5  and  C4_7 
REMARK       I    between atoms: C4_7  and  N4_11 
REMARK    4  A    between atoms: N4_11  and  C5_13 
REMARK    5  A    between atoms: C5_13  and  C6_14 
ROOT
HETATM    1  N2  UNL     1      -0.353  -1.518  -0.474  1.00  0.00    -0.225 N 
ATOM      2  H2  UNL     1       0.168  -2.253   0.005  1.00  0.00     0.177 HD
HETATM    3  C4  UNL     1       0.346  -0.462  -1.099  1.00  0.00     0.667 C 
HETATM    4  N3  UNL     1      -0.289   0.329  -1.890  1.00  0.00    -0.235 N 
ATOM      5  H31 UNL     1       0.216   1.092  -2.341  1.00  0.00     0.174 HD
ATOM      6  H32 UNL     1      -1.285   0.154  -2.026  1.00  0.00     0.174 HD
HETATM    7  N4  UNL     1       1.718  -0.221  -0.911  1.00  0.00    -0.225 N 
ATOM      8  H4  UNL     1       2.346  -0.479  -1.672  1.00  0.00     0.177 HD
ENDROOT
BRANCH   1   9
HETATM    9  C3  UNL     1      -1.807  -1.571  -0.505  1.00  0.00     0.166 C 
BRANCH   9  10
HETATM   10  C2  UNL     1      -2.364  -0.470   0.331  1.00  0.00     0.257 C 
BRANCH  10  11
HETATM   11  N1  UNL     1      -3.809  -0.422   0.360  1.00  0.00    -0.065 N 
HETATM   12  C1  UNL     1      -4.310  -1.768   0.477  1.00  0.00     0.272 C 
HETATM   13  C11 UNL     1      -4.297   0.262  -0.818  1.00  0.00     0.263 C 
HETATM   14  C12 UNL     1      -4.469   1.744  -0.580  1.00  0.00     0.195 C 
HETATM   15  O1  UNL     1      -5.421   2.011   0.400  1.00  0.00    -0.388 OA
HETATM   16  C13 UNL     1      -5.637   0.870   1.173  1.00  0.00     0.195 C 
HETATM   17  C14 UNL     1      -4.258   0.312   1.511  1.00  0.00     0.263 C 
ENDBRANCH  10  11
ENDBRANCH   9  10
ENDBRANCH   1   9
BRANCH   7  18
HETATM   18  C5  UNL     1       2.313   0.359   0.264  1.00  0.00     0.171 C 
BRANCH  18  19
HETATM   19  C6  UNL     1       3.805   0.524   0.128  1.00  0.00     0.204 C 
HETATM   20  C7  UNL     1       4.446  -0.823  -0.091  1.00  0.00     0.035 C 
HETATM   21  C8  UNL     1       5.957  -0.688  -0.119  1.00  0.00     0.004 C 
HETATM   22  C9  UNL     1       6.375   0.754   0.069  1.00  0.00     0.027 C 
HETATM   23  C10 UNL     1       5.741   1.300   1.311  1.00  0.00     0.233 C 
HETATM   24  N5  UNL     1       4.317   1.030   1.397  1.00  0.00    -0.069 N 
ATOM     25  H52 UNL     1       3.797   1.848   1.714  1.00  0.00     0.277 HD
ATOM     26  H51 UNL     1       4.099   0.400   2.169  1.00  0.00     0.277 HD
ENDBRANCH  18  19
ENDBRANCH   7  18
TORSDOF 5
