REMARK  8 active torsions:
REMARK  status: ('A' for Active; 'I' for Inactive)
REMARK    1  A    between atoms: C2_2  and  N1_3 
REMARK    2  A    between atoms: C2_2  and  C3_7 
REMARK    3  A    between atoms: C4_8  and  C5_9 
REMARK    4  A    between atoms: C5_9  and  C6_10 
REMARK    5  A    between atoms: C6_10  and  C7_12 
REMARK    6  A    between atoms: N2_13  and  N3_15 
REMARK    7  A    between atoms: N6_24  and  C9_25 
REMARK    8  A    between atoms: C9_25  and  C10_26 
ROOT
HETATM    1  C3  UNL     1       0.657   0.505   0.344  1.00  0.00     0.160 C 
HETATM    2  C4  UNL     1       1.451  -0.741   0.433  1.00  0.00     0.132 C 
HETATM    3  N4  UNL     1       1.109  -1.379  -0.800  1.00  0.00    -0.219 N 
ATOM      4  H4  UNL     1       1.712  -1.907  -1.431  1.00  0.00     0.178 HD
HETATM    5  C8  UNL     1      -0.319  -1.088  -0.933  1.00  0.00     0.674 C 
HETATM    6  N5  UNL     1      -1.042  -1.667  -1.826  1.00  0.00    -0.235 N 
ATOM      7  H51 UNL     1      -2.037  -1.464  -1.919  1.00  0.00     0.174 HD
ATOM      8  H52 UNL     1      -0.801  -2.355  -2.540  1.00  0.00     0.174 HD
HETATM    9  N6  UNL     1      -0.649  -0.144   0.046  1.00  0.00    -0.188 N 
ENDROOT
BRANCH   2  10
HETATM   10  C5  UNL     1       2.863  -0.732   0.778  1.00  0.00     0.112 C 
BRANCH  10  11
HETATM   11  C6  UNL     1       3.163  -0.150   2.108  1.00  0.00     0.168 C 
HETATM   12  O1  UNL     1       2.314   0.338   2.867  1.00  0.00    -0.292 OA
BRANCH  11  13
HETATM   13  C7  UNL     1       4.554  -0.160   2.537  1.00  0.00     0.156 C 
HETATM   14  N2  UNL     1       5.508  -0.645   1.826  1.00  0.00    -0.315 N 
ATOM     15  H2  UNL     1       5.313  -1.050   0.911  1.00  0.00     0.185 HD
BRANCH  14  16
HETATM   16  N3  UNL     1       6.813  -0.612   2.318  1.00  0.00    -0.345 N 
ATOM     17  H32 UNL     1       6.991  -0.203   3.235  1.00  0.00     0.176 HD
ATOM     18  H31 UNL     1       7.570  -0.997   1.754  1.00  0.00     0.176 HD
ENDBRANCH  14  16
ENDBRANCH  11  13
ENDBRANCH  10  11
ENDBRANCH   2  10
BRANCH   1  19
HETATM   19  C2  UNL     1       0.919   1.390  -0.817  1.00  0.00     0.205 C 
HETATM   20  C1  UNL     1      -0.020   2.598  -0.680  1.00  0.00     0.042 C 
BRANCH  19  21
HETATM   21  N1  UNL     1       2.235   1.898  -0.948  1.00  0.00    -0.073 N 
ATOM     22  H13 UNL     1       2.331   2.568  -1.711  1.00  0.00     0.274 HD
ATOM     23  H12 UNL     1       2.499   2.526  -0.189  1.00  0.00     0.274 HD
ATOM     24  H11 UNL     1       2.858   1.096  -1.039  1.00  0.00     0.274 HD
ENDBRANCH  19  21
ENDBRANCH   1  19
BRANCH   9  25
HETATM   25  C9  UNL     1      -1.831   0.189   0.713  1.00  0.00     0.091 C 
BRANCH  25  26
HETATM   26  C10 UNL     1      -3.149  -0.340   0.317  1.00  0.00    -0.018 C 
HETATM   27  C11 UNL     1      -3.551   0.073  -1.065  1.00  0.00     0.020 C 
HETATM   28  C12 UNL     1      -4.230   0.259   1.260  1.00  0.00     0.020 C 
HETATM   29  C13 UNL     1      -3.274  -1.840   0.462  1.00  0.00     0.020 C 
ENDBRANCH  25  26
ENDBRANCH   9  25
TORSDOF 8
