REMARK  5 active torsions:
REMARK  status: ('A' for Active; 'I' for Inactive)
REMARK    1  A    between atoms: N1_3  and  C3_5 
REMARK    2  A    between atoms: C4_6  and  C5_7 
REMARK    3  A    between atoms: C7_11  and  N2_12 
REMARK       I    between atoms: N2_12  and  C8_14 
REMARK       I    between atoms: C8_14  and  N3_16 
REMARK    4  A    between atoms: N3_16  and  N4_18 
REMARK    5  A    between atoms: C9_23  and  C10_24 
ROOT
HETATM    1  C1  UNL     1      -2.849   2.886   1.675  1.00  0.00     0.037 C 
HETATM    2  C2  UNL     1      -2.454   1.751   1.679  1.00  0.00    -0.005 C 
HETATM    3  N1  UNL     1      -1.983   0.433   1.699  1.00  0.00    -0.345 N 
ATOM      4  H1  UNL     1      -1.917  -0.060   2.590  1.00  0.00     0.170 HD
ENDROOT
BRANCH   3   5
HETATM    5  C3  UNL     1      -1.586  -0.248   0.481  1.00  0.00     0.111 C 
HETATM    6  C4  UNL     1      -1.126  -1.658   0.852  1.00  0.00     0.112 C 
HETATM    7  C6  UNL     1       0.306  -1.427   1.208  1.00  0.00     0.043 C 
HETATM    8  C7  UNL     1       0.775  -0.566   0.027  1.00  0.00     0.093 C 
HETATM    9  C9  UNL     1      -0.407   0.366  -0.160  1.00  0.00     0.036 C 
BRANCH   6  10
HETATM   10  C5  UNL     1      -1.930  -2.227   1.926  1.00  0.00     0.179 C 
HETATM   11  O1  UNL     1      -1.403  -2.566   2.997  1.00  0.00    -0.648 OA
HETATM   12  O2  UNL     1      -3.291  -2.394   1.759  1.00  0.00    -0.648 OA
ENDBRANCH   6  10
BRANCH   8  13
HETATM   13  N2  UNL     1       1.971   0.135   0.427  1.00  0.00    -0.337 N 
HETATM   14  C8  UNL     1       3.180  -0.119  -0.270  1.00  0.00     0.336 C 
HETATM   15  O3  UNL     1       3.243  -0.939  -1.229  1.00  0.00    -0.246 OA
HETATM   16  N3  UNL     1       4.362   0.554   0.103  1.00  0.00    -0.237 N 
ATOM     17  H3  UNL     1       4.349   1.223   0.873  1.00  0.00     0.193 HD
ATOM     18  H2  UNL     1       1.947   0.802   1.198  1.00  0.00     0.164 HD
BRANCH  16  19
HETATM   19  N4  UNL     1       5.541   0.303  -0.581  1.00  0.00    -0.245 N 
HETATM   20  N5  UNL     1       6.653   0.769  -0.197  1.00  0.00    -0.331 N 
ATOM     21  H52 UNL     1       6.665   1.346   0.644  1.00  0.00     0.178 HD
ATOM     22  H51 UNL     1       7.521   0.584  -0.700  1.00  0.00     0.178 HD
ATOM     23  H4  UNL     1       5.511  -0.276  -1.420  1.00  0.00     0.208 HD
ENDBRANCH  16  19
ENDBRANCH   8  13
BRANCH   9  24
HETATM   24  C10 UNL     1      -0.535   0.697  -1.607  1.00  0.00    -0.015 C 
HETATM   25  C11 UNL     1      -0.821  -0.503  -2.474  1.00  0.00     0.010 C 
HETATM   26  C12 UNL     1      -1.528   1.763  -1.925  1.00  0.00     0.010 C 
ENDBRANCH   9  24
ENDBRANCH   3   5
TORSDOF 5
