REMARK  10 active torsions:
REMARK  status: ('A' for Active; 'I' for Inactive)
REMARK    1  A    between atoms: C2_2  and  N1_3 
REMARK    2  A    between atoms: N1_3  and  C5_6 
REMARK    3  A    between atoms: C5_6  and  C6_7 
REMARK    4  A    between atoms: C6_7  and  N2_8 
REMARK       I    between atoms: N2_8  and  C7_10 
REMARK    5  A    between atoms: C7_10  and  C8_12 
REMARK    6  A    between atoms: C8_12  and  C9_13 
REMARK    7  A    between atoms: C8_12  and  N3_20 
REMARK    8  A    between atoms: C9_13  and  C10_14 
REMARK       I    between atoms: N3_20  and  C16_22 
REMARK    9  A    between atoms: C16_22  and  C17_24 
REMARK   10  A    between atoms: C17_24  and  N4_25 
ROOT
HETATM    1  C8  UNL     1      -1.653   1.730   0.475  1.00  0.00     0.177 C 
ENDROOT
BRANCH   1   2
HETATM    2  C7  UNL     1      -0.228   1.404   0.303  1.00  0.00     0.240 C 
HETATM    3  N2  UNL     1       0.473   0.828   1.398  1.00  0.00    -0.358 N 
ATOM      4  H2  UNL     1      -0.020   0.630   2.269  1.00  0.00     0.162 HD
HETATM    5  O1  UNL     1       0.332   1.653  -0.801  1.00  0.00    -0.271 OA
BRANCH   3   6
HETATM    6  C6  UNL     1       1.871   0.524   1.284  1.00  0.00     0.150 C 
BRANCH   6   7
HETATM    7  C5  UNL     1       2.151  -0.476   0.236  1.00  0.00     0.256 C 
BRANCH   7   8
HETATM    8  N1  UNL     1       3.566  -0.798   0.114  1.00  0.00    -0.073 N 
HETATM    9  C3  UNL     1       4.330   0.426   0.057  1.00  0.00     0.272 C 
HETATM   10  C4  UNL     1       3.728  -1.463  -1.181  1.00  0.00     0.272 C 
BRANCH   8  11
HETATM   11  C2  UNL     1       4.057  -1.602   1.191  1.00  0.00     0.232 C 
HETATM   12  C1  UNL     1       5.453  -2.093   0.842  1.00  0.00     0.034 C 
ENDBRANCH   8  11
ENDBRANCH   7   8
ENDBRANCH   6   7
ENDBRANCH   3   6
ENDBRANCH   1   2
BRANCH   1  13
HETATM   13  C9  UNL     1      -2.507   0.580   0.800  1.00  0.00     0.039 C 
BRANCH  13  14
HETATM   14  C10 UNL     1      -2.657  -0.534  -0.168  1.00  0.00    -0.012 C 
HETATM   15  C11 UNL     1      -1.472  -1.317  -0.562  1.00  0.00     0.005 C 
HETATM   16  C12 UNL     1      -1.905  -2.681  -1.156  1.00  0.00     0.000 C 
HETATM   17  C13 UNL     1      -2.452  -3.558  -0.048  1.00  0.00     0.000 C 
HETATM   18  C14 UNL     1      -2.933  -2.636   1.057  1.00  0.00     0.000 C 
HETATM   19  C15 UNL     1      -3.699  -1.510   0.412  1.00  0.00     0.005 C 
ENDBRANCH  13  14
ENDBRANCH   1  13
BRANCH   1  20
HETATM   20  N3  UNL     1      -2.155   2.439  -0.717  1.00  0.00    -0.346 N 
HETATM   21  C16 UNL     1      -2.581   3.788  -0.631  1.00  0.00     0.237 C 
HETATM   22  O2  UNL     1      -2.539   4.418   0.481  1.00  0.00    -0.272 OA
ATOM     23  H3  UNL     1      -2.196   1.953  -1.613  1.00  0.00     0.163 HD
BRANCH  21  24
HETATM   24  C17 UNL     1      -3.092   4.540  -1.801  1.00  0.00     0.241 C 
BRANCH  24  25
HETATM   25  N4  UNL     1      -3.460   5.880  -1.455  1.00  0.00    -0.334 N 
HETATM   26  N5  UNL     1      -2.643   6.649  -0.948  1.00  0.00    -0.349 N 
ATOM     27  H52 UNL     1      -1.695   6.311  -0.779  1.00  0.00     0.176 HD
ATOM     28  H51 UNL     1      -2.905   7.603  -0.702  1.00  0.00     0.176 HD
ATOM     29  H4  UNL     1      -4.412   6.202  -1.631  1.00  0.00     0.180 HD
ENDBRANCH  24  25
ENDBRANCH  21  24
ENDBRANCH   1  20
TORSDOF 10
