REMARK  8 active torsions:
REMARK  status: ('A' for Active; 'I' for Inactive)
REMARK    1  A    between atoms: N1_2  and  C2_4 
REMARK    2  A    between atoms: C2_4  and  C4_11 
REMARK    3  A    between atoms: C3_5  and  N2_6 
REMARK       I    between atoms: C4_11  and  N4_13 
REMARK    4  A    between atoms: N4_13  and  C5_15 
REMARK    5  A    between atoms: C5_15  and  C6_16 
REMARK    6  A    between atoms: C13_23  and  C14_24 
REMARK    7  A    between atoms: C14_24  and  C15_25 
REMARK    8  A    between atoms: C15_25  and  N5_26 
ROOT
HETATM    1  C5  UNL     1       0.849   0.851   1.403  1.00  0.00     0.161 C 
ENDROOT
BRANCH   1   2
HETATM    2  N4  UNL     1       2.305   0.828   1.234  1.00  0.00    -0.351 N 
HETATM    3  C4  UNL     1       2.795   0.868  -0.096  1.00  0.00     0.269 C 
HETATM    4  O1  UNL     1       2.029   0.921  -1.072  1.00  0.00    -0.266 OA
ATOM      5  H4  UNL     1       2.935   0.785   2.035  1.00  0.00     0.163 HD
BRANCH   3   6
HETATM    6  C2  UNL     1       4.274   0.828  -0.339  1.00  0.00     0.113 C 
HETATM    7  C3  UNL     1       4.936   2.039  -0.732  1.00  0.00     0.141 C 
BRANCH   6   8
HETATM    8  N1  UNL     1       4.824  -0.272   0.276  1.00  0.00    -0.389 N 
HETATM    9  C1  UNL     1       5.423  -1.370  -0.372  1.00  0.00     0.146 C 
ATOM     10  H1  UNL     1       4.796  -0.295   1.295  1.00  0.00     0.159 HD
ENDBRANCH   6   8
BRANCH   7  11
HETATM   11  N2  UNL     1       5.519   2.840   0.285  1.00  0.00    -0.316 N 
HETATM   12  N3  UNL     1       5.167   4.053   0.450  1.00  0.00    -0.345 N 
ATOM     13  H32 UNL     1       4.453   4.440  -0.167  1.00  0.00     0.176 HD
ATOM     14  H31 UNL     1       5.586   4.628   1.181  1.00  0.00     0.176 HD
ATOM     15  H2  UNL     1       6.232   2.437   0.894  1.00  0.00     0.185 HD
ENDBRANCH   7  11
ENDBRANCH   3   6
ENDBRANCH   1   2
BRANCH   1  16
HETATM   16  C6  UNL     1       0.274  -0.400   0.710  1.00  0.00    -0.041 C 
HETATM   17  C7  UNL     1       0.887  -1.559   0.909  1.00  0.00    -0.013 C 
HETATM   18  C8  UNL     1       0.706  -2.940   0.471  1.00  0.00     0.013 A 
HETATM   19  C9  UNL     1      -0.345  -3.717   1.285  1.00  0.00     0.014 A 
HETATM   20  C10 UNL     1      -0.462  -3.426  -0.181  1.00  0.00    -0.006 A 
HETATM   21  C11 UNL     1      -1.513  -2.501  -0.692  1.00  0.00     0.009 C 
HETATM   22  C12 UNL     1      -1.017  -1.211  -1.246  1.00  0.00     0.035 C 
HETATM   23  C13 UNL     1      -0.836  -0.170  -0.203  1.00  0.00    -0.071 C 
BRANCH  23  24
HETATM   24  C14 UNL     1      -2.055   0.350   0.473  1.00  0.00     0.062 C 
BRANCH  24  25
HETATM   25  C15 UNL     1      -3.144   0.592  -0.564  1.00  0.00     0.240 C 
BRANCH  25  26
HETATM   26  N5  UNL     1      -4.291   1.227  -0.015  1.00  0.00    -0.078 N 
HETATM   27  C16 UNL     1      -4.600   2.394  -0.881  1.00  0.00     0.271 C 
HETATM   28  C17 UNL     1      -4.028   1.803   1.295  1.00  0.00     0.271 C 
HETATM   29  C18 UNL     1      -5.486   0.447   0.075  1.00  0.00     0.271 C 
ENDBRANCH  25  26
ENDBRANCH  24  25
ENDBRANCH  23  24
ENDBRANCH   1  16
TORSDOF 8
