REMARK  11 active torsions:
REMARK  status: ('A' for Active; 'I' for Inactive)
REMARK    1  A    between atoms: C2_2  and  N1_3 
REMARK       I    between atoms: N1_3  and  C3_5 
REMARK       I    between atoms: C3_5  and  N2_7 
REMARK    2  A    between atoms: N2_7  and  C4_9 
REMARK    3  A    between atoms: C4_9  and  C5_10 
REMARK    4  A    between atoms: C5_10  and  N3_11 
REMARK    5  A    between atoms: N3_11  and  C8_14 
REMARK    6  A    between atoms: C8_14  and  C9_15 
REMARK       I    between atoms: C9_15  and  N4_17 
REMARK    7  A    between atoms: N4_17  and  C10_19 
REMARK    8  A    between atoms: C10_19  and  C11_20 
REMARK    9  A    between atoms: C11_20  and  N5_21 
REMARK   10  A    between atoms: N5_21  and  C14_24 
REMARK   11  A    between atoms: C14_24  and  O3_27 
ROOT
HETATM    1  C8  UNL     1       0.552  -0.315  -0.879  1.00  0.00     0.338 C 
ENDROOT
BRANCH   1   2
HETATM    2  N3  UNL     1       1.608   0.433  -0.248  1.00  0.00    -0.065 N 
HETATM    3  C6  UNL     1       1.281   0.689   1.142  1.00  0.00     0.272 C 
HETATM    4  C7  UNL     1       1.901   1.683  -0.886  1.00  0.00     0.272 C 
BRANCH   2   5
HETATM    5  C5  UNL     1       2.791  -0.424  -0.312  1.00  0.00     0.256 C 
BRANCH   5   6
HETATM    6  C4  UNL     1       4.061   0.353  -0.262  1.00  0.00     0.152 C 
BRANCH   6   7
HETATM    7  N2  UNL     1       5.175  -0.604  -0.331  1.00  0.00    -0.342 N 
HETATM    8  C3  UNL     1       6.520  -0.169  -0.305  1.00  0.00     0.316 C 
HETATM    9  N1  UNL     1       7.561  -1.118  -0.373  1.00  0.00    -0.344 N 
HETATM   10  O1  UNL     1       6.770   1.052  -0.221  1.00  0.00    -0.247 OA
ATOM     11  H1  UNL     1       7.343  -2.112  -0.440  1.00  0.00     0.164 HD
ATOM     12  H2  UNL     1       4.974  -1.602  -0.399  1.00  0.00     0.164 HD
BRANCH   9  13
HETATM   13  C2  UNL     1       8.934  -0.678  -0.347  1.00  0.00     0.120 C 
HETATM   14  C1  UNL     1       9.162   0.064   0.957  1.00  0.00     0.026 C 
ENDBRANCH   9  13
ENDBRANCH   6   7
ENDBRANCH   5   6
ENDBRANCH   2   5
ENDBRANCH   1   2
BRANCH   1  15
HETATM   15  C9  UNL     1      -0.799   0.210  -0.680  1.00  0.00     0.243 C 
HETATM   16  O2  UNL     1      -0.984   1.238  -0.003  1.00  0.00    -0.272 OA
HETATM   17  N4  UNL     1      -1.910  -0.445  -1.254  1.00  0.00    -0.358 N 
ATOM     18  H4  UNL     1      -1.713  -1.282  -1.803  1.00  0.00     0.162 HD
BRANCH  17  19
HETATM   19  C10 UNL     1      -3.281  -0.058  -1.146  1.00  0.00     0.150 C 
BRANCH  19  20
HETATM   20  C11 UNL     1      -3.744  -0.067   0.272  1.00  0.00     0.259 C 
BRANCH  20  21
HETATM   21  N5  UNL     1      -5.133   0.311   0.420  1.00  0.00    -0.042 N 
HETATM   22  C12 UNL     1      -5.380   0.462   1.854  1.00  0.00     0.276 C 
HETATM   23  C13 UNL     1      -5.347   1.590  -0.187  1.00  0.00     0.276 C 
BRANCH  21  24
HETATM   24  C14 UNL     1      -6.055  -0.651  -0.083  1.00  0.00     0.220 C 
HETATM   25  C15 UNL     1      -7.390  -0.442   0.625  1.00  0.00     0.078 C 
HETATM   26  C16 UNL     1      -5.649  -2.082   0.167  1.00  0.00     0.078 C 
BRANCH  24  27
HETATM   27  O3  UNL     1      -6.324  -0.503  -1.451  1.00  0.00    -0.365 OA
ATOM     28  H3  UNL     1      -6.939  -1.145  -1.787  1.00  0.00     0.212 HD
ENDBRANCH  24  27
ENDBRANCH  21  24
ENDBRANCH  20  21
ENDBRANCH  19  20
ENDBRANCH  17  19
ENDBRANCH   1  15
TORSDOF 11
