REMARK  2 active torsions:
REMARK  status: ('A' for Active; 'I' for Inactive)
REMARK    1  A    between atoms: C1_2  and  N1_3 
REMARK    2  A    between atoms: N1_3  and  C2_5 
ROOT
HETATM    1  C2  UNL     1       0.648   0.214  -0.187  1.00  0.00     0.095 C 
HETATM    2  C3  UNL     1      -0.176   0.137   1.101  1.00  0.00     0.035 C 
HETATM    3  C4  UNL     1      -1.509   0.810   0.947  1.00  0.00     0.239 C 
HETATM    4  N2  UNL     1      -1.877   0.989  -0.432  1.00  0.00    -0.074 N 
ATOM      5  H21 UNL     1      -1.457   1.825  -0.839  1.00  0.00     0.277 HD
ATOM      6  H22 UNL     1      -2.856   1.253  -0.540  1.00  0.00     0.277 HD
HETATM    7  C5  UNL     1      -1.549  -0.198  -1.167  1.00  0.00     0.239 C 
HETATM    8  C6  UNL     1      -0.283  -0.859  -0.719  1.00  0.00     0.035 C 
HETATM    9  C7  UNL     1      -0.395  -1.337   0.726  1.00  0.00     0.016 C 
ENDROOT
BRANCH   1  10
HETATM   10  N1  UNL     1       1.991  -0.209   0.084  1.00  0.00    -0.363 N 
ATOM     11  H1  UNL     1       2.167  -1.065   0.610  1.00  0.00     0.162 HD
BRANCH  10  12
HETATM   12  C1  UNL     1       3.067   0.574  -0.386  1.00  0.00     0.348 C 
HETATM   13  O1  UNL     1       2.916   1.637  -1.039  1.00  0.00    -0.284 OA
ENDBRANCH  10  12
ENDBRANCH   1  10
TORSDOF 2
