REMARK  1 active torsions:
REMARK  status: ('A' for Active; 'I' for Inactive)
REMARK    1  A    between atoms: C3_3  and  N1_4 
ROOT
HETATM    1  C1  UNL     1       2.765   1.709  -0.152  1.00  0.00     0.013 C 
HETATM    2  C2  UNL     1       2.103   0.729  -0.435  1.00  0.00    -0.089 C 
HETATM    3  C3  UNL     1       1.339  -0.444  -0.774  1.00  0.00     0.332 C 
ENDROOT
BRANCH   3   4
HETATM    4  N1  UNL     1       0.127  -0.579  -0.012  1.00  0.00    -0.039 N 
HETATM    5  C4  UNL     1       0.030  -1.964   0.476  1.00  0.00     0.276 C 
HETATM    6  C5  UNL     1       0.028   0.298   1.107  1.00  0.00     0.361 C 
HETATM    7  N2  UNL     1      -0.844   1.352   0.675  1.00  0.00    -0.355 N 
HETATM    8  C6  UNL     1      -1.759   0.774  -0.247  1.00  0.00     0.098 C 
ATOM      9  H2  UNL     1      -0.813   2.327   0.972  1.00  0.00     0.162 HD
HETATM   10  N3  UNL     1      -2.973   1.133  -0.523  1.00  0.00    -0.388 N 
HETATM   11  C7  UNL     1      -1.023  -0.373  -0.861  1.00  0.00     0.315 C 
ATOM     12  H32 UNL     1      -3.475   1.916  -0.104  1.00  0.00     0.157 HD
ATOM     13  H31 UNL     1      -3.629   0.718  -1.184  1.00  0.00     0.157 HD
ENDBRANCH   3   4
TORSDOF 1
