REMARK  1 active torsions:
REMARK  status: ('A' for Active; 'I' for Inactive)
REMARK    1  A    between atoms: C3_3  and  N1_4 
ROOT
HETATM    1  C1  UNL     1       3.429   0.713   0.085  1.00  0.00     0.013 C 
HETATM    2  C2  UNL     1       2.455   0.105  -0.309  1.00  0.00    -0.087 C 
HETATM    3  C3  UNL     1       1.292  -0.610  -0.797  1.00  0.00     0.358 C 
ENDROOT
BRANCH   3   4
HETATM    4  N1  UNL     1       0.169  -0.551   0.127  1.00  0.00     0.031 N 
HETATM    5  C4  UNL     1       0.550  -1.423   1.254  1.00  0.00     0.305 C 
HETATM    6  C5  UNL     1      -0.081   0.730   0.662  1.00  0.00     0.269 C 
HETATM    7  C6  UNL     1      -1.105   1.555  -0.014  1.00  0.00     0.051 C 
HETATM    8  C7  UNL     1      -2.257   0.766  -0.591  1.00  0.00     0.142 C 
HETATM    9  N2  UNL     1      -1.743  -0.412  -1.197  1.00  0.00    -0.316 N 
HETATM   10  N3  UNL     1      -0.901  -1.173  -0.487  1.00  0.00    -0.162 N 
ATOM     11  H2  UNL     1      -2.008  -0.671  -2.147  1.00  0.00     0.181 HD
ATOM     12  H3  UNL     1      -1.045  -2.179  -0.402  1.00  0.00     0.215 HD
ENDBRANCH   3   4
TORSDOF 1
