REMARK  1 active torsions:
REMARK  status: ('A' for Active; 'I' for Inactive)
REMARK    1  A    between atoms: O1_1  and  C1_3 
ROOT
HETATM    1  C1  UNL     1      -2.090  -0.337  -0.562  1.00  0.00     0.145 C 
HETATM    2  C2  UNL     1      -1.706   0.924   0.223  1.00  0.00     0.061 C 
HETATM    3  C3  UNL     1      -0.418   0.407   0.881  1.00  0.00     0.242 C 
HETATM    4  N1  UNL     1       0.250  -0.202  -0.230  1.00  0.00    -0.039 N 
HETATM    5  C4  UNL     1       1.148   0.782  -0.803  1.00  0.00     0.267 C 
HETATM    6  C5  UNL     1       2.280   0.775   0.217  1.00  0.00     0.262 C 
HETATM    7  N2  UNL     1       2.133  -0.467   0.964  1.00  0.00    -0.049 N 
ATOM      8  H21 UNL     1       1.858  -0.342   1.938  1.00  0.00     0.279 HD
ATOM      9  H22 UNL     1       3.012  -0.947   1.160  1.00  0.00     0.279 HD
HETATM   10  C6  UNL     1       1.197  -1.236   0.174  1.00  0.00     0.467 C 
HETATM   11  C7  UNL     1      -0.720  -0.702  -1.143  1.00  0.00     0.271 C 
ENDROOT
BRANCH   1  12
HETATM   12  O1  UNL     1      -2.447  -1.285   0.381  1.00  0.00    -0.394 OA
ATOM     13  H1  UNL     1      -2.685  -2.066  -0.105  1.00  0.00     0.210 HD
ENDBRANCH   1  12
TORSDOF 1
