REMARK  3 active torsions:
REMARK  status: ('A' for Active; 'I' for Inactive)
REMARK    1  A    between atoms: N1_2  and  C2_4 
REMARK    2  A    between atoms: C2_4  and  C3_5 
REMARK    3  A    between atoms: C4_6  and  C5_7 
ROOT
HETATM    1  C3  UNL     1      -0.568   0.655   0.710  1.00  0.00    -0.087 C 
HETATM    2  C4  UNL     1       0.587   0.515   0.333  1.00  0.00    -0.101 C 
ENDROOT
BRANCH   1   3
HETATM    3  C2  UNL     1      -1.954   0.854   1.153  1.00  0.00     0.208 C 
BRANCH   3   4
HETATM    4  N1  UNL     1      -2.819   0.604   0.049  1.00  0.00    -0.416 N 
HETATM    5  C1  UNL     1      -2.890  -0.770  -0.382  1.00  0.00     0.140 C 
ATOM      6  H1  UNL     1      -3.351   1.346  -0.405  1.00  0.00     0.153 HD
ENDBRANCH   3   4
ENDBRANCH   1   3
BRANCH   2   7
HETATM    7  C5  UNL     1       1.976   0.376  -0.110  1.00  0.00     0.057 C 
HETATM    8  C6  UNL     1       2.876   0.137   1.084  1.00  0.00     0.023 C 
HETATM    9  C7  UNL     1       2.045  -0.712  -1.132  1.00  0.00     0.023 C 
ENDBRANCH   2   7
TORSDOF 3
