REMARK  15 active torsions:
REMARK  status: ('A' for Active; 'I' for Inactive)
REMARK       I    between atoms: N1_1  and  C1_4 
REMARK       I    between atoms: C1_4  and  N3_6 
REMARK    1  A    between atoms: N3_6  and  C2_8 
REMARK    2  A    between atoms: C4_17  and  C5_18 
REMARK    3  A    between atoms: N8_20  and  C7_21 
REMARK    4  A    between atoms: C7_21  and  C8_22 
REMARK    5  A    between atoms: C8_22  and  C9_23 
REMARK    6  A    between atoms: C13_31  and  C14_32 
REMARK       I    between atoms: C14_32  and  N12_34 
REMARK    7  A    between atoms: N12_34  and  C15_36 
REMARK    8  A    between atoms: C15_36  and  N13_37 
REMARK    9  A    between atoms: N13_37  and  C16_39 
REMARK   10  A    between atoms: C16_39  and  C17_40 
REMARK   11  A    between atoms: C17_40  and  O2_41 
REMARK   12  A    between atoms: N14_43  and  O3_44 
REMARK   13  A    between atoms: C18_46  and  C19_47 
REMARK   14  A    between atoms: C19_47  and  N15_48 
REMARK   15  A    between atoms: C19_47  and  O4_52 
ROOT
HETATM    1  C5  UNL     1      -4.266   0.307  -0.601  1.00  0.00     0.081 A 
HETATM    2  C6  UNL     1      -2.930   0.557  -0.765  1.00  0.00     0.124 A 
HETATM    3  N8  UNL     1      -2.240  -0.023   0.233  1.00  0.00    -0.340 N 
HETATM    4  C18 UNL     1      -3.111  -0.641   1.035  1.00  0.00     0.141 A 
HETATM    5  N16 UNL     1      -4.351  -0.423   0.499  1.00  0.00    -0.339 N 
ATOM      6  H16 UNL     1      -5.223  -0.776   0.894  1.00  0.00     0.167 HD
ENDROOT
BRANCH   3   7
HETATM    7  C7  UNL     1      -0.828   0.077   0.324  1.00  0.00     0.136 C 
BRANCH   7   8
HETATM    8  C8  UNL     1      -0.113  -0.938  -0.494  1.00  0.00     0.079 C 
BRANCH   8   9
HETATM    9  C9  UNL     1       1.372  -0.766  -0.363  1.00  0.00     0.030 A 
HETATM   10  C10 UNL     1       2.107   0.048  -1.204  1.00  0.00     0.145 A 
HETATM   11  N9  UNL     1       3.377   0.030  -0.807  1.00  0.00    -0.221 N 
HETATM   12  C11 UNL     1       3.446  -0.766   0.245  1.00  0.00     0.156 A 
HETATM   13  N14 UNL     1       4.591   0.548  -1.089  1.00  0.00    -0.148 N 
HETATM   14  N10 UNL     1       2.226  -1.264   0.531  1.00  0.00    -0.341 N 
HETATM   15  C12 UNL     1       4.776  -0.747   0.645  1.00  0.00     0.128 A 
ATOM     16  H10 UNL     1       1.998  -1.904   1.292  1.00  0.00     0.167 HD
HETATM   17  N11 UNL     1       5.296  -1.463   1.737  1.00  0.00    -0.096 NA
HETATM   18  C13 UNL     1       5.509   0.094  -0.205  1.00  0.00     0.178 A 
BRANCH  18  19
HETATM   19  C14 UNL     1       6.910   0.397  -0.106  1.00  0.00     0.286 C 
HETATM   20  O1  UNL     1       7.600  -0.112   0.803  1.00  0.00    -0.265 OA
HETATM   21  N12 UNL     1       7.644   1.282  -0.997  1.00  0.00    -0.273 N 
ATOM     22  H12 UNL     1       7.139   1.729  -1.762  1.00  0.00     0.180 HD
BRANCH  21  23
HETATM   23  C15 UNL     1       8.915   1.530  -0.863  1.00  0.00     0.050 C 
BRANCH  23  24
HETATM   24  N13 UNL     1      10.139   1.769  -0.735  1.00  0.00    -0.341 N 
ATOM     25  H13 UNL     1      10.584   2.403  -1.398  1.00  0.00     0.170 HD
BRANCH  24  26
HETATM   26  C16 UNL     1      10.935   1.193   0.297  1.00  0.00     0.156 C 
BRANCH  26  27
HETATM   27  C17 UNL     1      11.244  -0.250  -0.085  1.00  0.00     0.184 C 
BRANCH  27  28
HETATM   28  O2  UNL     1      12.035  -0.833   0.931  1.00  0.00    -0.399 OA
ATOM     29  H2  UNL     1      12.228  -1.732   0.693  1.00  0.00     0.209 HD
ENDBRANCH  27  28
ENDBRANCH  26  27
ENDBRANCH  24  26
ENDBRANCH  23  24
ENDBRANCH  21  23
ENDBRANCH  18  19
BRANCH  13  30
HETATM   30  O3  UNL     1       4.807   1.410  -2.147  1.00  0.00    -0.267 OA
ATOM     31  H3  UNL     1       5.661   1.775  -2.345  1.00  0.00     0.247 HD
ENDBRANCH  13  30
ENDBRANCH   8   9
ENDBRANCH   7   8
ENDBRANCH   3   7
BRANCH   4  32
HETATM   32  C19 UNL     1      -2.906  -1.403   2.260  1.00  0.00     0.385 C 
BRANCH  32  33
HETATM   33  N15 UNL     1      -1.882  -2.387   2.276  1.00  0.00    -0.046 N 
ATOM     34 3H15 UNL     1      -2.031  -3.035   1.502  1.00  0.00     0.277 HD
ATOM     35 2H15 UNL     1      -1.000  -1.954   2.002  1.00  0.00     0.277 HD
ATOM     36 1H15 UNL     1      -1.739  -2.920   3.133  1.00  0.00     0.277 HD
ENDBRANCH  32  33
BRANCH  32  37
HETATM   37  O4  UNL     1      -2.715  -0.581   3.379  1.00  0.00    -0.364 OA
ATOM     38  H4  UNL     1      -2.581  -1.078   4.178  1.00  0.00     0.212 HD
ENDBRANCH  32  37
ENDBRANCH   4  32
BRANCH   1  39
HETATM   39  C4  UNL     1      -5.352   0.793  -1.456  1.00  0.00     0.125 A 
HETATM   40  N7  UNL     1      -5.246   1.479  -2.604  1.00  0.00    -0.279 N 
HETATM   41  N6  UNL     1      -6.440   1.776  -3.076  1.00  0.00    -0.219 N 
ATOM     42  H7  UNL     1      -4.365   1.735  -3.049  1.00  0.00     0.189 HD
HETATM   43  N5  UNL     1      -7.358   1.291  -2.248  1.00  0.00    -0.163 N 
ATOM     44  H6  UNL     1      -6.628   2.293  -3.935  1.00  0.00     0.210 HD
HETATM   45  N4  UNL     1      -8.662   1.381  -2.338  1.00  0.00    -0.284 N 
HETATM   46  C20 UNL     1      -6.709   0.675  -1.232  1.00  0.00     0.179 A 
HETATM   47  C3  UNL     1      -9.430   0.827  -1.351  1.00  0.00     0.158 A 
ATOM     48  H4  UNL     1      -9.096   1.855  -3.130  1.00  0.00     0.188 HD
HETATM   49  C2  UNL     1      -8.790   0.200  -0.312  1.00  0.00     0.126 A 
HETATM   50  N17 UNL     1      -7.433   0.129  -0.264  1.00  0.00    -0.323 N 
ATOM     51  H17 UNL     1      -6.973  -0.343   0.514  1.00  0.00     0.169 HD
BRANCH  49  52
HETATM   52  N3  UNL     1      -9.462  -0.313   0.661  1.00  0.00    -0.316 N 
HETATM   53  C1  UNL     1     -10.872  -0.208   0.635  1.00  0.00     0.187 C 
HETATM   54  N1  UNL     1     -11.548  -1.298   0.358  1.00  0.00    -0.373 N 
HETATM   55  N2  UNL     1     -11.487   1.037   0.906  1.00  0.00    -0.064 NA
ATOM     56  H12 UNL     1     -12.565  -1.222   0.339  1.00  0.00     0.158 HD
ATOM     57  H11 UNL     1     -11.105  -2.196   0.163  1.00  0.00     0.158 HD
ATOM     58  H3  UNL     1      -8.988  -0.784   1.432  1.00  0.00     0.170 HD
ENDBRANCH  49  52
ENDBRANCH   1  39
TORSDOF 15
