REMARK  16 active torsions:
REMARK  status: ('A' for Active; 'I' for Inactive)
REMARK    1  A    between atoms: N1_1  and  C1_5 
REMARK    2  A    between atoms: C1_5  and  C2_6 
REMARK    3  A    between atoms: C2_6  and  C3_7 
REMARK    4  A    between atoms: C2_6  and  C14_39 
REMARK    5  A    between atoms: C3_7  and  N2_8 
REMARK    6  A    between atoms: C6_13  and  O1_14 
REMARK    7  A    between atoms: C7_16  and  S1_17 
REMARK    8  A    between atoms: S1_17  and  S2_18 
REMARK    9  A    between atoms: S2_18  and  C8_19 
REMARK   10  A    between atoms: C8_19  and  C9_20 
REMARK   11  A    between atoms: C11_29  and  C12_30 
REMARK   12  A    between atoms: C12_30  and  O6_32 
REMARK   13  A    between atoms: O6_32  and  C13_33 
REMARK   14  A    between atoms: C13_33  and  O7_34 
REMARK   15  A    between atoms: C13_33  and  N6_36 
REMARK   16  A    between atoms: N6_36  and  O8_37 
ROOT
HETATM    1  N2  UNL     1       0.872  -0.373  -0.755  1.00  0.00    -0.270 N 
HETATM    2  N3  UNL     1       0.402   0.848  -0.868  1.00  0.00    -0.298 N 
ATOM      3  H3  UNL     1       0.811   1.555  -1.479  1.00  0.00     0.187 HD
HETATM    4  C4  UNL     1      -0.671   1.068  -0.097  1.00  0.00     0.066 A 
HETATM    5  C5  UNL     1      -0.904  -0.119   0.564  1.00  0.00     0.077 A 
HETATM    6  C6  UNL     1       0.069  -1.020   0.146  1.00  0.00     0.172 A 
HETATM    7  C7  UNL     1      -1.953  -0.508   1.529  1.00  0.00     0.112 C 
HETATM    8  N4  UNL     1      -2.968   0.173   1.870  1.00  0.00    -0.290 N 
ATOM      9  H4  UNL     1      -3.579  -0.273   2.554  1.00  0.00     0.187 HD
HETATM   10  N5  UNL     1      -3.376   1.445   1.448  1.00  0.00    -0.268 N 
ATOM     11  H5  UNL     1      -4.180   1.848   1.929  1.00  0.00     0.190 HD
HETATM   12  C10 UNL     1      -2.794   2.230   0.428  1.00  0.00     0.255 C 
HETATM   13  O4  UNL     1      -3.624   2.938  -0.207  1.00  0.00    -0.270 OA
HETATM   14  C11 UNL     1      -1.407   2.349  -0.002  1.00  0.00     0.231 C 
ENDROOT
BRANCH   1  15
HETATM   15  C3  UNL     1       1.965  -1.043  -1.369  1.00  0.00     0.162 C 
BRANCH  15  16
HETATM   16  C2  UNL     1       3.325  -0.927  -0.797  1.00  0.00     0.071 C 
BRANCH  16  17
HETATM   17  C1  UNL     1       4.192  -1.821  -1.727  1.00  0.00     0.240 C 
BRANCH  17  18
HETATM   18  N1  UNL     1       4.147  -1.341  -3.093  1.00  0.00    -0.079 N 
ATOM     19  H13 UNL     1       3.189  -1.261  -3.433  1.00  0.00     0.274 HD
ATOM     20  H12 UNL     1       4.416  -0.359  -3.157  1.00  0.00     0.274 HD
ATOM     21  H11 UNL     1       4.716  -1.928  -3.703  1.00  0.00     0.274 HD
ENDBRANCH  17  18
ENDBRANCH  16  17
BRANCH  16  22
HETATM   22  C14 UNL     1       3.574  -1.376   0.551  1.00  0.00     0.040 A 
HETATM   23  C15 UNL     1       4.039  -2.638   0.845  1.00  0.00     0.160 A 
HETATM   24  O9  UNL     1       4.237  -3.074   2.088  1.00  0.00    -0.273 OA
HETATM   25  C16 UNL     1       3.987  -2.284   3.121  1.00  0.00     0.372 A 
HETATM   26  O10 UNL     1       4.174  -2.699   4.307  1.00  0.00    -0.238 OA
HETATM   27  N7  UNL     1       3.539  -1.062   2.881  1.00  0.00    -0.269 N 
HETATM   28  C17 UNL     1       3.319  -0.563   1.635  1.00  0.00     0.258 A 
ATOM     29  H7  UNL     1       3.347  -0.457   3.680  1.00  0.00     0.174 HD
HETATM   30  O11 UNL     1       2.901   0.610   1.509  1.00  0.00    -0.267 OA
ENDBRANCH  16  22
ENDBRANCH  15  16
ENDBRANCH   1  15
BRANCH   6  31
HETATM   31  O1  UNL     1       0.198  -2.339   0.570  1.00  0.00    -0.344 OA
ATOM     32  H1  UNL     1      -0.359  -2.788   1.195  1.00  0.00     0.219 HD
ENDBRANCH   6  31
BRANCH  14  33
HETATM   33  C12 UNL     1      -1.376   3.131  -1.270  1.00  0.00     0.281 C 
HETATM   34  O5  UNL     1      -0.828   2.716  -2.306  1.00  0.00    -0.264 OA
BRANCH  33  35
HETATM   35  O6  UNL     1      -1.994   4.382  -1.284  1.00  0.00    -0.272 OA
BRANCH  35  36
HETATM   36  C13 UNL     1      -2.039   5.213  -2.406  1.00  0.00     0.393 C 
BRANCH  36  37
HETATM   37  O7  UNL     1      -3.313   5.656  -2.663  1.00  0.00    -0.356 OA
ATOM     38  H7  UNL     1      -3.344   6.221  -3.426  1.00  0.00     0.214 HD
ENDBRANCH  36  37
BRANCH  36  39
HETATM   39  N6  UNL     1      -1.226   6.422  -2.180  1.00  0.00    -0.042 NA
BRANCH  39  40
HETATM   40  O8  UNL     1      -1.327   7.168  -3.326  1.00  0.00    -0.292 OA
ATOM     41  H8  UNL     1      -0.803   7.947  -3.180  1.00  0.00     0.239 HD
ENDBRANCH  39  40
ENDBRANCH  36  39
ENDBRANCH  35  36
ENDBRANCH  33  35
ENDBRANCH  14  33
BRANCH   7  42
HETATM   42  S1  UNL     1      -1.703  -2.114   2.266  1.00  0.00    -0.037 SA
BRANCH  42  43
HETATM   43  S2  UNL     1      -3.505  -2.603   3.332  1.00  0.00    -0.080 SA
BRANCH  43  44
HETATM   44  C8  UNL     1      -4.536  -3.499   2.086  1.00  0.00     0.199 C 
BRANCH  44  45
HETATM   45  C9  UNL     1      -3.768  -4.736   1.806  1.00  0.00     0.183 C 
HETATM   46  O2  UNL     1      -2.788  -4.595   1.009  1.00  0.00    -0.647 OA
HETATM   47  O3  UNL     1      -4.058  -5.957   2.346  1.00  0.00    -0.647 OA
ENDBRANCH  44  45
ENDBRANCH  43  44
ENDBRANCH  42  43
ENDBRANCH   7  42
TORSDOF 16
