REMARK  13 active torsions:
REMARK  status: ('A' for Active; 'I' for Inactive)
REMARK    1  A    between atoms: O1_2  and  C2_3 
REMARK    2  A    between atoms: C2_3  and  C3_5 
REMARK    3  A    between atoms: C3_5  and  O3_6 
REMARK    4  A    between atoms: C3_5  and  C4_8 
REMARK    5  A    between atoms: C4_8  and  C5_9 
REMARK    6  A    between atoms: C4_8  and  N9_32 
REMARK    7  A    between atoms: C5_9  and  C6_10 
REMARK    8  A    between atoms: C5_9  and  N4_19 
REMARK    9  A    between atoms: C6_10  and  C7_11 
REMARK   10  A    between atoms: C9_22  and  N6_23 
REMARK   11  A    between atoms: N7_26  and  N8_27 
REMARK   12  A    between atoms: C12_34  and  N10_35 
REMARK       I    between atoms: N10_35  and  C13_37 
REMARK   13  A    between atoms: C13_37  and  C14_39 
ROOT
HETATM    1  C14 UNL     1       5.434  -0.078   0.171  1.00  0.00     0.073 A 
HETATM    2  C15 UNL     1       5.430   0.464   1.435  1.00  0.00     0.108 A 
HETATM    3  N11 UNL     1       6.596   0.676   2.080  1.00  0.00    -0.352 N 
ATOM      4  H11 UNL     1       6.595   1.079   3.017  1.00  0.00     0.166 HD
HETATM    5  C16 UNL     1       7.747   0.359   1.492  1.00  0.00     0.139 A 
HETATM    6  N12 UNL     1       8.982   0.590   2.192  1.00  0.00    -0.081 NA
HETATM    7  C17 UNL     1       7.803  -0.186   0.227  1.00  0.00     0.111 A 
HETATM    8  C18 UNL     1       9.069  -0.524  -0.396  1.00  0.00     0.105 C 
HETATM    9  N13 UNL     1      10.076  -0.807  -0.892  1.00  0.00    -0.191 NA
HETATM   10  C19 UNL     1       6.638  -0.403  -0.430  1.00  0.00     0.087 A 
HETATM   11  N14 UNL     1       6.642  -0.959  -1.727  1.00  0.00    -0.100 NA
ENDROOT
BRANCH   1  12
HETATM   12  C13 UNL     1       4.198  -0.325  -0.566  1.00  0.00     0.259 C 
HETATM   13  N10 UNL     1       2.962  -0.019  -0.014  1.00  0.00    -0.320 N 
ATOM     14  H10 UNL     1       2.935   0.384   0.922  1.00  0.00     0.169 HD
HETATM   15  O5  UNL     1       4.304  -0.823  -1.714  1.00  0.00    -0.267 OA
BRANCH  13  16
HETATM   16  C12 UNL     1       1.727  -0.242  -0.695  1.00  0.00     0.069 A 
HETATM   17  C11 UNL     1       0.465   0.051  -0.175  1.00  0.00     0.141 A 
HETATM   18  N9  UNL     1      -0.504  -0.264  -1.038  1.00  0.00    -0.292 N 
HETATM   19  N15 UNL     1       0.125  -0.761  -2.112  1.00  0.00    -0.307 N 
HETATM   20  C20 UNL     1       1.460  -0.757  -1.929  1.00  0.00     0.138 A 
ATOM     21  H15 UNL     1      -0.343  -1.097  -2.954  1.00  0.00     0.186 HD
BRANCH  18  22
HETATM   22  C4  UNL     1      -1.961  -0.125  -0.932  1.00  0.00     0.171 C 
BRANCH  22  23
HETATM   23  C3  UNL     1      -2.416   1.109  -1.669  1.00  0.00     0.244 C 
BRANCH  23  24
HETATM   24  C2  UNL     1      -2.071   2.388  -1.087  1.00  0.00     0.289 C 
HETATM   25  O2  UNL     1      -0.929   2.664  -0.687  1.00  0.00    -0.262 OA
BRANCH  24  26
HETATM   26  O1  UNL     1      -3.051   3.365  -0.964  1.00  0.00    -0.324 OA
HETATM   27  C1  UNL     1      -2.826   4.639  -0.415  1.00  0.00     0.213 C 
ENDBRANCH  24  26
ENDBRANCH  23  24
BRANCH  23  28
HETATM   28  O3  UNL     1      -3.742   1.060  -2.092  1.00  0.00    -0.383 OA
ATOM     29  H3  UNL     1      -3.969   0.220  -2.474  1.00  0.00     0.210 HD
ENDBRANCH  23  28
ENDBRANCH  22  23
BRANCH  22  30
HETATM   30  C5  UNL     1      -2.427  -0.284   0.447  1.00  0.00     0.148 C 
BRANCH  30  31
HETATM   31  C6  UNL     1      -1.963  -1.546   1.087  1.00  0.00     0.107 C 
BRANCH  31  32
HETATM   32  C7  UNL     1      -2.380  -2.798   0.448  1.00  0.00     0.098 A 
HETATM   33  N1  UNL     1      -3.524  -3.485   0.738  1.00  0.00    -0.340 N 
HETATM   34  C8  UNL     1      -3.626  -4.585   0.008  1.00  0.00     0.198 A 
ATOM     35  H1  UNL     1      -4.213  -3.188   1.429  1.00  0.00     0.168 HD
HETATM   36  N2  UNL     1      -2.532  -4.620  -0.772  1.00  0.00    -0.295 N 
HETATM   37  N3  UNL     1      -1.787  -3.537  -0.498  1.00  0.00    -0.288 N 
ATOM     38  H2  UNL     1      -2.307  -5.344  -1.454  1.00  0.00     0.187 HD
ATOM     39  H3  UNL     1      -0.899  -3.310  -0.945  1.00  0.00     0.188 HD
ENDBRANCH  31  32
ENDBRANCH  30  31
BRANCH  30  40
HETATM   40  N4  UNL     1      -3.840  -0.042   0.669  1.00  0.00    -0.219 N 
HETATM   41  N5  UNL     1      -4.887  -0.569   0.039  1.00  0.00    -0.124 N 
HETATM   42  C9  UNL     1      -6.038  -0.112   0.531  1.00  0.00     0.716 A 
ATOM     43  H5  UNL     1      -4.817  -1.240  -0.726  1.00  0.00     0.206 HD
HETATM   44  N7  UNL     1      -5.724   0.750   1.523  1.00  0.00    -0.036 N 
HETATM   45  C10 UNL     1      -4.384   0.776   1.588  1.00  0.00     0.377 A 
HETATM   46  O4  UNL     1      -3.721   1.486   2.418  1.00  0.00    -0.242 OA
BRANCH  42  47
HETATM   47  N6  UNL     1      -7.257  -0.386   0.185  1.00  0.00    -0.231 N 
ATOM     48  H62 UNL     1      -7.494  -1.037  -0.564  1.00  0.00     0.174 HD
ATOM     49  H61 UNL     1      -8.138  -0.036   0.562  1.00  0.00     0.174 HD
ENDBRANCH  42  47
BRANCH  44  50
HETATM   50  N8  UNL     1      -6.645   1.462   2.311  1.00  0.00    -0.320 N 
ATOM     51  H82 UNL     1      -7.664   1.442   2.262  1.00  0.00     0.178 HD
ATOM     52  H81 UNL     1      -6.408   2.113   3.060  1.00  0.00     0.178 HD
ENDBRANCH  44  50
ENDBRANCH  30  40
ENDBRANCH  22  30
ENDBRANCH  18  22
ENDBRANCH  13  16
ENDBRANCH   1  12
TORSDOF 13
