REMARK  4 active torsions:
REMARK  status: ('A' for Active; 'I' for Inactive)
REMARK    1  A    between atoms: C2_2  and  C5_5 
REMARK    2  A    between atoms: C8_8  and  C10_10 
REMARK    3  A    between atoms: C12_12  and  N1_13 
REMARK    4  A    between atoms: N1_13  and  C13_16 
ROOT
HETATM    1  C10 UNL     1      -0.132  -2.074  -0.680  1.00  0.00     0.026 A 
HETATM    2  C11 UNL     1       0.952  -2.349   0.347  1.00  0.00     0.041 A 
HETATM    3  C12 UNL     1       1.138  -1.439  -0.867  1.00  0.00     0.191 A 
ENDROOT
BRANCH   3   4
HETATM    4  N1  UNL     1       1.465  -0.082  -0.522  1.00  0.00    -0.066 N 
ATOM      5  H12 UNL     1       0.836   0.579  -0.977  1.00  0.00     0.278 HD
ATOM      6  H11 UNL     1       1.233   0.121   0.450  1.00  0.00     0.278 HD
BRANCH   4   7
HETATM    7  C13 UNL     1       2.848   0.224  -0.809  1.00  0.00     0.194 C 
HETATM    8  C14 UNL     1       3.181   1.632  -0.449  1.00  0.00     0.017 C 
HETATM    9  C15 UNL     1       3.410   1.827   1.033  1.00  0.00     0.011 C 
HETATM   10  C19 UNL     1       4.507   1.973  -1.134  1.00  0.00     0.011 C 
HETATM   11  C16 UNL     1       4.534   0.936   1.488  1.00  0.00    -0.013 C 
HETATM   12  C17 UNL     1       5.821   1.191   0.759  1.00  0.00     0.009 C 
HETATM   13  C22 UNL     1       4.102  -0.494   1.246  1.00  0.00     0.011 C 
HETATM   14  C18 UNL     1       5.560   0.990  -0.730  1.00  0.00    -0.013 C 
HETATM   15  C20 UNL     1       5.167  -0.442  -0.927  1.00  0.00     0.011 C 
HETATM   16  C21 UNL     1       3.832  -0.713  -0.210  1.00  0.00     0.017 C 
ENDBRANCH   4   7
ENDBRANCH   3   4
BRANCH   1  17
HETATM   17  C8  UNL     1      -1.407  -1.486  -0.214  1.00  0.00    -0.038 C 
HETATM   18  C7  UNL     1      -2.321  -1.303  -1.405  1.00  0.00     0.010 C 
HETATM   19  C6  UNL     1      -3.687  -0.831  -1.049  1.00  0.00     0.006 C 
HETATM   20  C5  UNL     1      -3.628   0.311  -0.074  1.00  0.00    -0.007 C 
HETATM   21  C24 UNL     1      -2.750   0.015   1.128  1.00  0.00     0.006 C 
HETATM   22  C23 UNL     1      -1.343  -0.218   0.539  1.00  0.00     0.010 C 
HETATM   23  C9  UNL     1      -2.060  -2.531   0.706  1.00  0.00     0.015 C 
BRANCH  20  24
HETATM   24  C2  UNL     1      -4.975   0.833   0.310  1.00  0.00    -0.048 C 
HETATM   25  C1  UNL     1      -5.873  -0.155   0.956  1.00  0.00     0.015 C 
HETATM   26  C3  UNL     1      -5.654   1.308  -0.975  1.00  0.00     0.015 C 
HETATM   27  C4  UNL     1      -4.799   2.040   1.187  1.00  0.00     0.015 C 
ENDBRANCH  20  24
ENDBRANCH   1  17
TORSDOF 4
