REMARK  4 active torsions:
REMARK  status: ('A' for Active; 'I' for Inactive)
REMARK    1  A    between atoms: C2_2  and  C3_3 
REMARK    2  A    between atoms: C3_3  and  N1_4 
REMARK       I    between atoms: N1_4  and  C4_6 
REMARK    3  A    between atoms: C4_6  and  O2_8 
REMARK    4  A    between atoms: O2_8  and  C5_9 
ROOT
HETATM    1  C5  UNL     1       2.166   0.376   0.026  1.00  0.00     0.134 C 
HETATM    2  C6  UNL     1       1.551   0.058  -1.324  1.00  0.00     0.033 C 
HETATM    3  C7  UNL     1       0.079  -0.223  -1.091  1.00  0.00     0.012 C 
HETATM    4  C8  UNL     1      -0.558   1.089  -0.686  1.00  0.00    -0.036 C 
HETATM    5  C9  UNL     1      -0.200   2.133  -1.697  1.00  0.00     0.016 C 
HETATM    6  C10 UNL     1      -0.007   1.471   0.653  1.00  0.00    -0.004 C 
HETATM    7  C11 UNL     1      -0.412   0.533   1.754  1.00  0.00     0.006 C 
HETATM    8  C12 UNL     1      -1.804   0.052   1.690  1.00  0.00     0.006 C 
HETATM    9  C13 UNL     1      -2.369  -0.168   0.336  1.00  0.00    -0.005 C 
HETATM   10  C14 UNL     1      -3.856  -0.268   0.432  1.00  0.00    -0.006 C 
HETATM   11  C15 UNL     1      -4.363  -1.457   1.173  1.00  0.00     0.005 C 
HETATM   12  C16 UNL     1      -5.720  -1.750   0.557  1.00  0.00     0.001 C 
HETATM   13  C17 UNL     1      -5.845  -0.828  -0.648  1.00  0.00     0.005 C 
HETATM   14  C18 UNL     1      -4.420  -0.533  -0.972  1.00  0.00    -0.010 C 
HETATM   15  C19 UNL     1      -4.192   0.703  -1.770  1.00  0.00     0.005 C 
HETATM   16  C20 UNL     1      -2.689   0.882  -1.924  1.00  0.00     0.006 C 
HETATM   17  C21 UNL     1      -2.048   1.009  -0.568  1.00  0.00    -0.002 C 
HETATM   18  C22 UNL     1       1.503   1.562   0.650  1.00  0.00     0.038 C 
ENDROOT
BRANCH   1  19
HETATM   19  O2  UNL     1       3.545   0.649  -0.080  1.00  0.00    -0.299 OA
BRANCH  19  20
HETATM   20  C4  UNL     1       4.499  -0.151   0.552  1.00  0.00     0.361 C 
HETATM   21  N1  UNL     1       5.880   0.087   0.471  1.00  0.00    -0.333 N 
ATOM     22  H1  UNL     1       6.235   0.876  -0.070  1.00  0.00     0.165 HD
HETATM   23  O1  UNL     1       4.054  -1.120   1.214  1.00  0.00    -0.238 OA
BRANCH  21  24
HETATM   24  C3  UNL     1       6.794  -0.795   1.160  1.00  0.00     0.151 C 
BRANCH  24  25
HETATM   25  C2  UNL     1       8.200  -0.421   0.984  1.00  0.00    -0.018 C 
HETATM   26  C1  UNL     1       9.053  -1.259   0.427  1.00  0.00     0.008 C 
ENDBRANCH  24  25
ENDBRANCH  21  24
ENDBRANCH  19  20
ENDBRANCH   1  19
TORSDOF 4
