REMARK  4 active torsions:
REMARK  status: ('A' for Active; 'I' for Inactive)
REMARK    1  A    between atoms: C2_2  and  O1_3 
REMARK    2  A    between atoms: C2_2  and  C14_18 
REMARK    3  A    between atoms: O1_3  and  C3_4 
REMARK    4  A    between atoms: C3_4  and  C4_8 
ROOT
HETATM    1  O1  UNL     1       0.275  -0.823  -1.626  1.00  0.00    -0.333 OA
ENDROOT
BRANCH   1   2
HETATM    2  C2  UNL     1      -1.079  -0.928  -1.557  1.00  0.00     0.134 C 
HETATM    3  C1  UNL     1      -1.586  -0.365  -2.915  1.00  0.00     0.041 C 
BRANCH   2   4
HETATM    4  C14 UNL     1      -1.866  -0.254  -0.486  1.00  0.00    -0.013 C 
HETATM    5  C15 UNL     1      -1.708   1.225  -0.538  1.00  0.00     0.017 C 
HETATM    6  C16 UNL     1      -2.493   1.894   0.576  1.00  0.00    -0.013 C 
HETATM    7  C17 UNL     1      -2.129   1.352   1.907  1.00  0.00     0.009 C 
HETATM    8  C22 UNL     1      -3.963   1.643   0.317  1.00  0.00     0.014 C 
HETATM    9  C18 UNL     1      -2.473  -0.120   1.919  1.00  0.00    -0.013 C 
HETATM   10  C19 UNL     1      -3.899  -0.427   1.623  1.00  0.00     0.014 C 
HETATM   11  C24 UNL     1      -1.576  -0.812   0.900  1.00  0.00     0.017 C 
HETATM   12  C20 UNL     1      -4.215   0.170   0.268  1.00  0.00    -0.043 C 
HETATM   13  C21 UNL     1      -5.647  -0.144  -0.072  1.00  0.00     0.015 C 
HETATM   14  C23 UNL     1      -3.345  -0.554  -0.743  1.00  0.00     0.021 C 
ENDBRANCH   2   4
ENDBRANCH   1   2
BRANCH   1  15
HETATM   15  C3  UNL     1       1.199  -1.290  -0.747  1.00  0.00     0.120 C 
HETATM   16  N1  UNL     1       0.967  -2.495  -0.269  1.00  0.00    -0.383 N 
ATOM     17  H12 UNL     1       0.126  -2.983  -0.579  1.00  0.00     0.158 HD
ATOM     18  H11 UNL     1       1.661  -2.846   0.391  1.00  0.00     0.158 HD
BRANCH  15  19
HETATM   19  C4  UNL     1       2.433  -0.574  -0.292  1.00  0.00     0.025 C 
HETATM   20  C5  UNL     1       2.147   0.732   0.336  1.00  0.00     0.022 C 
HETATM   21  C6  UNL     1       3.464   1.336   0.794  1.00  0.00    -0.013 C 
HETATM   22  C7  UNL     1       4.113   0.489   1.841  1.00  0.00     0.009 C 
HETATM   23  C11 UNL     1       4.377   1.517  -0.375  1.00  0.00     0.009 C 
HETATM   24  C8  UNL     1       4.410  -0.876   1.234  1.00  0.00    -0.013 C 
HETATM   25  C9  UNL     1       5.349  -0.701   0.061  1.00  0.00     0.009 C 
HETATM   26  C13 UNL     1       3.118  -1.449   0.759  1.00  0.00     0.022 C 
HETATM   27  C10 UNL     1       4.682   0.154  -0.971  1.00  0.00    -0.013 C 
HETATM   28  C12 UNL     1       3.417  -0.482  -1.442  1.00  0.00     0.022 C 
ENDBRANCH  15  19
ENDBRANCH   1  15
TORSDOF 4
