REMARK  6 active torsions:
REMARK  status: ('A' for Active; 'I' for Inactive)
REMARK    1  A    between atoms: C2_2  and  C3_3 
REMARK    2  A    between atoms: C3_3  and  S1_4 
REMARK    3  A    between atoms: S1_4  and  C4_5 
REMARK    4  A    between atoms: C4_5  and  C5_6 
REMARK    5  A    between atoms: C6_7  and  C7_8 
REMARK    6  A    between atoms: C7_8  and  O1_9 
ROOT
HETATM    1  C7  UNL     1       1.764  -0.056  -0.069  1.00  0.00     0.125 C 
HETATM    2  C8  UNL     1       2.135  -0.893   1.165  1.00  0.00     0.052 C 
HETATM    3  C9  UNL     1       0.835  -1.702   1.294  1.00  0.00     0.009 C 
HETATM    4  C10 UNL     1      -0.176  -0.611   1.217  1.00  0.00    -0.002 C 
HETATM    5  C11 UNL     1       0.422   0.461   0.340  1.00  0.00     0.037 C 
HETATM    6  C12 UNL     1      -0.428   0.757  -0.862  1.00  0.00     0.010 C 
HETATM    7  C13 UNL     1      -1.872   0.989  -0.548  1.00  0.00     0.011 C 
HETATM    8  C14 UNL     1      -2.462   0.071   0.464  1.00  0.00    -0.032 C 
HETATM    9  C15 UNL     1      -3.013   0.824   1.627  1.00  0.00     0.014 C 
HETATM   10  C16 UNL     1      -4.499   0.848   1.744  1.00  0.00     0.034 C 
HETATM   11  C17 UNL     1      -5.221   0.897   0.453  1.00  0.00    -0.089 C 
HETATM   12  C18 UNL     1      -6.302   1.633   0.303  1.00  0.00     0.014 C 
HETATM   13  C19 UNL     1      -4.697   0.091  -0.675  1.00  0.00     0.038 C 
HETATM   14  C20 UNL     1      -3.608  -0.759  -0.131  1.00  0.00    -0.002 C 
HETATM   15  C21 UNL     1      -2.857  -1.597  -1.104  1.00  0.00     0.006 C 
HETATM   16  C22 UNL     1      -1.682  -2.058  -0.221  1.00  0.00     0.006 C 
HETATM   17  C23 UNL     1      -1.533  -1.055   0.859  1.00  0.00    -0.001 C 
ENDROOT
BRANCH   1  18
HETATM   18  C6  UNL     1       2.772   0.971  -0.231  1.00  0.00    -0.067 C 
HETATM   19  C5  UNL     1       3.622   1.807  -0.375  1.00  0.00    -0.093 C 
BRANCH  19  20
HETATM   20  C4  UNL     1       4.610   2.837  -0.551  1.00  0.00     0.168 C 
BRANCH  20  21
HETATM   21  S1  UNL     1       6.313   2.395  -0.449  1.00  0.00    -0.153 SA
BRANCH  21  22
HETATM   22  C3  UNL     1       6.973   1.332  -1.707  1.00  0.00     0.101 C 
BRANCH  22  23
HETATM   23  C2  UNL     1       6.720  -0.094  -1.470  1.00  0.00    -0.027 C 
HETATM   24  C1  UNL     1       6.185  -0.580  -0.373  1.00  0.00     0.007 C 
ENDBRANCH  22  23
ENDBRANCH  21  22
ENDBRANCH  20  21
ENDBRANCH  19  20
ENDBRANCH   1  18
BRANCH   1  25
HETATM   25  O1  UNL     1       1.728  -0.940  -1.144  1.00  0.00    -0.377 OA
ATOM     26  H1  UNL     1       1.067  -1.614  -1.038  1.00  0.00     0.211 HD
ENDBRANCH   1  25
TORSDOF 6
