REMARK  3 active torsions:
REMARK  status: ('A' for Active; 'I' for Inactive)
REMARK    1  A    between atoms: C2_2  and  C3_3 
REMARK    2  A    between atoms: C3_3  and  N1_4 
REMARK    3  A    between atoms: C7_11  and  C9_13 
ROOT
HETATM    1  C9  UNL     1      -0.384   1.194  -0.443  1.00  0.00    -0.025 C 
HETATM    2  C10 UNL     1      -0.394   2.701  -0.339  1.00  0.00     0.011 C 
HETATM    3  C11 UNL     1       0.930   3.379  -0.265  1.00  0.00     0.001 C 
HETATM    4  C12 UNL     1       1.860   2.674   0.743  1.00  0.00     0.005 C 
HETATM    5  C13 UNL     1       1.964   1.318   0.169  1.00  0.00    -0.005 C 
HETATM    6  C14 UNL     1       3.025   0.427   0.723  1.00  0.00    -0.005 C 
HETATM    7  C15 UNL     1       4.257   0.558  -0.115  1.00  0.00     0.006 C 
HETATM    8  C16 UNL     1       4.492  -0.745  -0.812  1.00  0.00     0.005 C 
HETATM    9  C17 UNL     1       3.394  -1.682  -0.419  1.00  0.00    -0.014 C 
HETATM   10  C18 UNL     1       4.022  -2.788   0.423  1.00  0.00     0.010 C 
HETATM   11  C19 UNL     1       2.430  -0.940   0.443  1.00  0.00    -0.002 C 
HETATM   12  C20 UNL     1       1.078  -0.747  -0.169  1.00  0.00    -0.004 C 
HETATM   13  C21 UNL     1       1.056  -0.417  -1.603  1.00  0.00     0.006 C 
HETATM   14  C22 UNL     1       0.074   0.726  -1.807  1.00  0.00     0.011 C 
HETATM   15  C23 UNL     1       0.646   0.588   0.446  1.00  0.00     0.004 C 
ENDROOT
BRANCH   1  16
HETATM   16  C7  UNL     1      -1.814   0.797  -0.166  1.00  0.00    -0.016 C 
HETATM   17  C6  UNL     1      -2.185   1.168   1.222  1.00  0.00    -0.020 C 
HETATM   18  C5  UNL     1      -2.352   0.244   2.196  1.00  0.00    -0.027 C 
HETATM   19  C4  UNL     1      -2.164  -1.197   1.890  1.00  0.00     0.065 C 
HETATM   20  C3  UNL     1      -2.764  -1.443   0.548  1.00  0.00     0.127 C 
HETATM   21  C24 UNL     1      -2.223  -0.562  -0.562  1.00  0.00     0.053 C 
HETATM   22  C8  UNL     1      -2.625   1.759  -1.081  1.00  0.00     0.020 C 
BRANCH  20  23
HETATM   23  C2  UNL     1      -4.266  -1.313   0.687  1.00  0.00     0.034 C 
HETATM   24  C1  UNL     1      -4.966  -1.607  -0.632  1.00  0.00     0.007 C 
ENDBRANCH  20  23
BRANCH  20  25
HETATM   25  N1  UNL     1      -2.528  -2.832   0.133  1.00  0.00    -0.070 N 
ATOM     26  H13 UNL     1      -2.944  -3.523   0.758  1.00  0.00     0.275 HD
ATOM     27  H12 UNL     1      -3.043  -3.103  -0.705  1.00  0.00     0.275 HD
ATOM     28  H11 UNL     1      -1.516  -2.920   0.039  1.00  0.00     0.275 HD
ENDBRANCH  20  25
ENDBRANCH   1  16
TORSDOF 3
