REMARK  4 active torsions:
REMARK  status: ('A' for Active; 'I' for Inactive)
REMARK    1  A    between atoms: C1_2  and  C2_3 
REMARK       I    between atoms: C1_2  and  N1_11 
REMARK    2  A    between atoms: C2_3  and  C3_4 
REMARK    3  A    between atoms: C3_4  and  C4_5 
REMARK    4  A    between atoms: N1_11  and  C10_13 
ROOT
HETATM    1  O1  UNL     1       1.048   0.166   1.147  1.00  0.00    -0.273 OA
HETATM    2  C1  UNL     1       0.807  -0.288   0.009  1.00  0.00     0.222 C 
HETATM    3  N1  UNL     1       1.803  -0.614  -0.909  1.00  0.00    -0.326 N 
ATOM      4  H1  UNL     1       1.482  -0.978  -1.806  1.00  0.00     0.169 HD
ENDROOT
BRANCH   3   5
HETATM    5  C10 UNL     1       3.201  -0.503  -0.750  1.00  0.00     0.055 A 
HETATM    6  C11 UNL     1       3.849  -0.044   0.363  1.00  0.00     0.070 A 
HETATM    7  C12 UNL     1       5.239   0.046   0.471  1.00  0.00     0.107 A 
HETATM    8  C13 UNL     1       6.031  -0.336  -0.573  1.00  0.00     0.106 A 
HETATM    9  O3  UNL     1       6.103   0.469   1.471  1.00  0.00    -0.323 OA
HETATM   10  C14 UNL     1       5.412  -0.802  -1.706  1.00  0.00     0.061 A 
HETATM   11  O2  UNL     1       7.368  -0.152  -0.223  1.00  0.00    -0.323 OA
HETATM   12  C15 UNL     1       4.041  -0.889  -1.808  1.00  0.00     0.040 A 
HETATM   13 BR1  UNL     1       3.225  -1.539  -3.392  1.00  0.00    -0.049 Br
HETATM   14  C16 UNL     1       7.371   0.756   0.870  1.00  0.00     0.352 C 
ENDBRANCH   3   5
BRANCH   2  15
HETATM   15  C2  UNL     1      -0.632  -0.506  -0.419  1.00  0.00     0.103 C 
BRANCH  15  16
HETATM   16  C3  UNL     1      -1.506  -0.085   0.732  1.00  0.00     0.014 C 
BRANCH  16  17
HETATM   17  C4  UNL     1      -2.953  -0.312   0.283  1.00  0.00    -0.014 C 
HETATM   18  C5  UNL     1      -3.915   0.091   1.397  1.00  0.00     0.004 C 
HETATM   19  C6  UNL     1      -5.290  -0.367   0.955  1.00  0.00     0.000 C 
HETATM   20  C7  UNL     1      -5.689   0.445  -0.236  1.00  0.00     0.000 C 
HETATM   21  C8  UNL     1      -4.582   1.213  -0.866  1.00  0.00     0.000 C 
HETATM   22  C9  UNL     1      -3.283   0.456  -0.960  1.00  0.00     0.004 C 
ENDBRANCH  16  17
ENDBRANCH  15  16
ENDBRANCH   2  15
TORSDOF 4
