REMARK  4 active torsions:
REMARK  status: ('A' for Active; 'I' for Inactive)
REMARK    1  A    between atoms: N3_18  and  C14_19 
REMARK    2  A    between atoms: C14_19  and  C15_20 
REMARK    3  A    between atoms: C15_20  and  C16_21 
REMARK    4  A    between atoms: C16_21  and  N4_22 
ROOT
HETATM    1  C1  UNL     1      -2.316   3.002  -0.459  1.00  0.00     0.049 C 
HETATM    2  C2  UNL     1      -1.651   1.747  -0.071  1.00  0.00    -0.038 A 
HETATM    3  C3  UNL     1      -0.267   1.706  -0.001  1.00  0.00     0.033 A 
HETATM    4  C4  UNL     1       0.388   0.561   0.383  1.00  0.00     0.114 A 
HETATM    5  N1  UNL     1      -0.280  -0.556   0.701  1.00  0.00    -0.345 N 
ATOM      6  H1  UNL     1       0.220  -1.399   0.984  1.00  0.00     0.167 HD
HETATM    7  C5  UNL     1      -1.630  -0.542   0.639  1.00  0.00     0.022 A 
HETATM    8  C6  UNL     1      -2.333   0.565   0.266  1.00  0.00    -0.002 A 
HETATM    9  C7  UNL     1      -3.790   0.566   0.191  1.00  0.00     0.049 C 
HETATM   10  C8  UNL     1      -4.412   1.339   1.373  1.00  0.00     0.043 C 
HETATM   11  C9  UNL     1      -4.315   1.154  -1.140  1.00  0.00     0.043 C 
HETATM   12  N2  UNL     1      -4.361  -0.726   0.238  1.00  0.00    -0.401 N 
ATOM     13  H2  UNL     1      -5.374  -0.819   0.314  1.00  0.00     0.155 HD
HETATM   14  C10 UNL     1      -3.578  -1.874   0.184  1.00  0.00     0.024 C 
HETATM   15  C11 UNL     1      -4.369  -3.083   0.664  1.00  0.00     0.038 C 
HETATM   16  C12 UNL     1      -3.169  -2.161  -1.248  1.00  0.00     0.038 C 
HETATM   17  C13 UNL     1      -2.328  -1.816   1.016  1.00  0.00     0.087 C 
HETATM   18  N3  UNL     1       1.785   0.799   0.381  1.00  0.00    -0.363 N 
HETATM   19  C19 UNL     1       2.032   1.973  -0.415  1.00  0.00     0.172 C 
HETATM   20  C20 UNL     1       0.740   2.754  -0.302  1.00  0.00     0.147 C 
HETATM   21  C21 UNL     1       0.897   3.762   0.795  1.00  0.00     0.059 C 
HETATM   22  F1  UNL     1       0.481   3.371  -1.531  1.00  0.00    -0.236 F 
ENDROOT
BRANCH  18  23
HETATM   23  C14 UNL     1       2.818   0.001   1.064  1.00  0.00     0.126 C 
BRANCH  23  24
HETATM   24  C15 UNL     1       3.681  -0.707   0.029  1.00  0.00     0.050 C 
BRANCH  24  25
HETATM   25  C16 UNL     1       4.754  -1.538   0.685  1.00  0.00     0.273 C 
BRANCH  25  26
HETATM   26  N4  UNL     1       5.517  -2.167  -0.380  1.00  0.00     0.080 N 
HETATM   27  C17 UNL     1       6.559  -2.977   0.192  1.00  0.00     0.309 C 
HETATM   28  C18 UNL     1       6.149  -1.128  -1.186  1.00  0.00     0.309 C 
ENDBRANCH  25  26
ENDBRANCH  24  25
ENDBRANCH  23  24
ENDBRANCH  18  23
TORSDOF 4
