REMARK  5 active torsions:
REMARK  status: ('A' for Active; 'I' for Inactive)
REMARK    1  A    between atoms: C4_4  and  C5_5 
REMARK    2  A    between atoms: N2_12  and  C11_13 
REMARK    3  A    between atoms: N3_16  and  C14_17 
REMARK    4  A    between atoms: C14_17  and  C16_19 
REMARK    5  A    between atoms: C16_19  and  O1_20 
ROOT
HETATM    1  C1  UNL     1       1.456  -4.889   0.764  1.00  0.00     0.049 C 
HETATM    2  C2  UNL     1       1.271  -3.444   0.432  1.00  0.00    -0.044 A 
HETATM    3  C3  UNL     1       2.242  -2.464   0.460  1.00  0.00     0.033 A 
HETATM    4  C4  UNL     1       1.649  -1.277   0.086  1.00  0.00     0.016 A 
HETATM    5  N2  UNL     1       0.344  -1.489  -0.173  1.00  0.00    -0.354 N 
HETATM    6  C19 UNL     1       0.128  -2.800   0.040  1.00  0.00     0.098 A 
ENDROOT
BRANCH   5   7
HETATM    7  C11 UNL     1      -0.606  -0.476  -0.595  1.00  0.00     0.094 C 
HETATM    8  C12 UNL     1      -1.796  -1.194  -1.168  1.00  0.00     0.056 C 
HETATM    9  C13 UNL     1      -2.928  -0.267  -1.523  1.00  0.00     0.277 C 
HETATM   10  N3  UNL     1      -3.371   0.349  -0.278  1.00  0.00     0.113 N 
HETATM   11  C17 UNL     1      -2.295   1.163   0.196  1.00  0.00     0.320 C 
HETATM   12 CL1  UNL     1      -1.862   2.292  -1.135  1.00  0.00    -0.092 Cl
HETATM   13  C18 UNL     1      -1.052   0.404   0.554  1.00  0.00     0.077 C 
BRANCH  10  14
HETATM   14  C14 UNL     1      -4.518   1.185  -0.499  1.00  0.00     0.244 C 
HETATM   15  C15 UNL     1      -4.938   1.801   0.813  1.00  0.00     0.045 C 
BRANCH  14  16
HETATM   16  C16 UNL     1      -5.678   0.445  -1.133  1.00  0.00     0.199 C 
BRANCH  16  17
HETATM   17  O1  UNL     1      -6.078  -0.599  -0.315  1.00  0.00    -0.399 OA
ATOM     18  H1  UNL     1      -6.805  -1.063  -0.713  1.00  0.00     0.209 HD
ENDBRANCH  16  17
ENDBRANCH  14  16
ENDBRANCH  10  14
ENDBRANCH   5   7
BRANCH   4  19
HETATM   19  C5  UNL     1       2.414  -0.006   0.008  1.00  0.00     0.039 C 
HETATM   20  C6  UNL     1       3.154   0.260   1.308  1.00  0.00     0.041 C 
HETATM   21  C7  UNL     1       3.689   1.683   1.169  1.00  0.00     0.272 C 
HETATM   22  N1  UNL     1       4.634   1.777   0.103  1.00  0.00     0.084 N 
HETATM   23  C8  UNL     1       4.937   3.183  -0.103  1.00  0.00     0.309 C 
HETATM   24  C9  UNL     1       4.208   1.227  -1.139  1.00  0.00     0.272 C 
HETATM   25  C10 UNL     1       3.536  -0.105  -1.038  1.00  0.00     0.041 C 
ENDBRANCH   4  19
TORSDOF 5
