REMARK  4 active torsions:
REMARK  status: ('A' for Active; 'I' for Inactive)
REMARK    1  A    between atoms: C9_9  and  C10_10 
REMARK    2  A    between atoms: C10_10  and  N1_11 
REMARK    3  A    between atoms: N1_11  and  C11_14 
REMARK    4  A    between atoms: C11_14  and  C12_15 
ROOT
HETATM    1  C1  UNL     1      -0.518  -1.279   1.959  1.00  0.00     0.021 C 
HETATM    2  C2  UNL     1      -1.555  -1.019   0.856  1.00  0.00     0.001 A 
HETATM    3  C3  UNL     1      -2.257  -2.293   0.522  1.00  0.00     0.015 C 
HETATM    4  C4  UNL     1      -2.045  -2.868  -0.818  1.00  0.00     0.002 C 
HETATM    5  C5  UNL     1      -0.997  -2.180  -1.643  1.00  0.00     0.011 C 
HETATM    6  C6  UNL     1      -1.353  -0.720  -1.626  1.00  0.00    -0.024 A 
HETATM    7  C7  UNL     1      -2.375  -0.145  -2.500  1.00  0.00     0.011 A 
HETATM    8  C8  UNL     1      -0.902   0.083  -2.785  1.00  0.00     0.011 A 
HETATM    9  C9  UNL     1      -1.075  -0.191  -0.238  1.00  0.00     0.046 A 
HETATM   10  C16 UNL     1      -1.974   0.858   0.237  1.00  0.00     0.028 A 
HETATM   11  N3  UNL     1      -2.456   2.119   0.056  1.00  0.00    -0.366 N 
ATOM     12  H3  UNL     1      -2.118   2.692  -0.717  1.00  0.00     0.165 HD
HETATM   13  C17 UNL     1      -3.361   2.594   0.885  1.00  0.00     0.112 A 
HETATM   14  C18 UNL     1      -3.846   1.859   1.945  1.00  0.00     0.050 A 
HETATM   15 CL1  UNL     1      -5.052   2.488   3.055  1.00  0.00    -0.083 Cl
HETATM   16  C19 UNL     1      -3.382   0.585   2.157  1.00  0.00     0.035 A 
HETATM   17  C20 UNL     1      -2.420   0.093   1.266  1.00  0.00    -0.024 A 
ENDROOT
BRANCH   9  18
HETATM   18  C10 UNL     1       0.403   0.146  -0.166  1.00  0.00     0.250 C 
BRANCH  18  19
HETATM   19  N1  UNL     1       0.810   0.871   0.974  1.00  0.00    -0.071 N 
ATOM     20  H12 UNL     1       0.379   1.795   0.997  1.00  0.00     0.277 HD
ATOM     21  H11 UNL     1       0.403   0.482   1.824  1.00  0.00     0.277 HD
BRANCH  19  22
HETATM   22  C11 UNL     1       2.232   0.960   1.075  1.00  0.00     0.266 C 
BRANCH  22  23
HETATM   23  C12 UNL     1       2.967   1.772   0.084  1.00  0.00     0.178 C 
HETATM   24  C13 UNL     1       4.482   1.714   0.374  1.00  0.00     0.041 C 
HETATM   25  C14 UNL     1       4.962   0.307   0.088  1.00  0.00     0.049 C 
HETATM   26  C15 UNL     1       4.583  -0.097  -1.282  1.00  0.00     0.087 C 
HETATM   27  N2  UNL     1       3.600   0.443  -1.864  1.00  0.00    -0.281 N 
HETATM   28  O1  UNL     1       2.864   1.407  -1.254  1.00  0.00    -0.274 OA
ATOM     29  H2  UNL     1       3.355   0.149  -2.810  1.00  0.00     0.193 HD
ENDBRANCH  22  23
ENDBRANCH  19  22
ENDBRANCH  18  19
ENDBRANCH   9  18
TORSDOF 4
