REMARK  5 active torsions:
REMARK  status: ('A' for Active; 'I' for Inactive)
REMARK    1  A    between atoms: C2_2  and  C3_3 
REMARK    2  A    between atoms: C3_3  and  C4_4 
REMARK    3  A    between atoms: C12_14  and  C13_15 
REMARK    4  A    between atoms: C13_15  and  C14_16 
REMARK    5  A    between atoms: C17_21  and  O4_22 
ROOT
HETATM    1  C4  UNL     1      -1.048   0.295   0.221  1.00  0.00     0.021 C 
HETATM    2  C5  UNL     1      -1.597  -0.229   1.484  1.00  0.00     0.012 C 
HETATM    3  C6  UNL     1      -2.176  -1.617   1.453  1.00  0.00    -0.018 C 
HETATM    4  C7  UNL     1      -3.708  -1.551   1.343  1.00  0.00     0.010 C 
HETATM    5  C8  UNL     1      -1.635  -2.518   0.400  1.00  0.00     0.007 C 
HETATM    6  C9  UNL     1      -1.425  -1.807  -0.924  1.00  0.00     0.039 C 
HETATM    7  C10 UNL     1      -0.344  -0.757  -0.609  1.00  0.00     0.073 C 
HETATM    8  O1  UNL     1       0.607  -1.413   0.091  1.00  0.00    -0.349 OA
HETATM    9  C11 UNL     1       1.822  -0.830   0.303  1.00  0.00     0.267 C 
HETATM   10  O2  UNL     1       1.896  -0.084   1.458  1.00  0.00    -0.355 OA
HETATM   11  C12 UNL     1       2.870   0.885   1.325  1.00  0.00     0.133 C 
HETATM   12  C15 UNL     1       3.172   1.064  -0.117  1.00  0.00     0.044 C 
HETATM   13  C16 UNL     1       2.421  -0.059  -0.809  1.00  0.00     0.072 C 
HETATM   14  C17 UNL     1       1.480   0.508  -1.802  1.00  0.00     0.133 C 
HETATM   15  C18 UNL     1       0.193  -0.291  -1.900  1.00  0.00     0.046 C 
HETATM   16  C19 UNL     1       0.580  -1.550  -2.703  1.00  0.00     0.016 C 
ENDROOT
BRANCH   1  17
HETATM   17  C3  UNL     1      -2.016   1.122  -0.525  1.00  0.00     0.007 C 
BRANCH  17  18
HETATM   18  C2  UNL     1      -2.440   2.326   0.267  1.00  0.00    -0.004 C 
HETATM   19  C1  UNL     1      -3.426   3.186  -0.520  1.00  0.00     0.005 C 
ENDBRANCH  17  18
ENDBRANCH   1  17
BRANCH  14  20
HETATM   20  O4  UNL     1       1.210   1.879  -1.630  1.00  0.00    -0.395 OA
ATOM     21  H4  UNL     1       0.606   2.243  -2.267  1.00  0.00     0.210 HD
ENDBRANCH  14  20
BRANCH  11  22
HETATM   22  C13 UNL     1       4.103   0.626   2.119  1.00  0.00     0.128 C 
BRANCH  22  23
HETATM   23  C14 UNL     1       4.839  -0.595   1.838  1.00  0.00     0.221 C 
HETATM   24  O3  UNL     1       5.235  -0.872   0.724  1.00  0.00    -0.280 OA
HETATM   25 CL1  UNL     1       5.187  -1.735   3.124  1.00  0.00    -0.044 Cl
ENDBRANCH  22  23
ENDBRANCH  11  22
TORSDOF 5
