REMARK  3 active torsions:
REMARK  status: ('A' for Active; 'I' for Inactive)
REMARK    1  A    between atoms: O1_1  and  C1_3 
REMARK    2  A    between atoms: C2_5  and  N1_6 
REMARK    3  A    between atoms: C6_12  and  O3_13 
ROOT
HETATM    1  C1  UNL     1      -2.084   0.689  -0.062  1.00  0.00     0.292 C 
HETATM    2  O2  UNL     1      -0.876   1.238   0.429  1.00  0.00    -0.331 OA
HETATM    3  C2  UNL     1      -0.235   0.488  -0.554  1.00  0.00     0.265 C 
HETATM    4  C6  UNL     1      -1.279  -0.594  -0.307  1.00  0.00     0.222 C 
ENDROOT
BRANCH   3   5
HETATM    5  N1  UNL     1       1.115   0.108  -0.251  1.00  0.00    -0.322 N 
HETATM    6  C3  UNL     1       1.912   0.451   0.785  1.00  0.00     0.111 A 
HETATM    7  C4  UNL     1       3.129  -0.160   0.652  1.00  0.00     0.106 A 
HETATM    8  N2  UNL     1       3.070  -0.881  -0.477  1.00  0.00    -0.361 N 
HETATM    9  C5  UNL     1       1.854  -0.709  -1.007  1.00  0.00     0.184 A 
ATOM     10  H2  UNL     1       3.818  -1.457  -0.862  1.00  0.00     0.166 HD
ENDBRANCH   3   5
BRANCH   4  11
HETATM   11  O3  UNL     1      -0.988  -1.287   0.856  1.00  0.00    -0.386 OA
ATOM     12  H3  UNL     1      -0.490  -2.081   0.704  1.00  0.00     0.210 HD
ENDBRANCH   4  11
BRANCH   1  13
HETATM   13  O1  UNL     1      -3.085   0.556   0.861  1.00  0.00    -0.368 OA
ATOM     14  H1  UNL     1      -3.896   0.187   0.531  1.00  0.00     0.212 HD
ENDBRANCH   1  13
TORSDOF 3
