REMARK  4 active torsions:
REMARK  status: ('A' for Active; 'I' for Inactive)
REMARK    1  A    between atoms: O1_3  and  N2_4 
REMARK       I    between atoms: C2_6  and  N4_8 
REMARK    2  A    between atoms: N4_8  and  N5_10 
REMARK    3  A    between atoms: N5_10  and  O2_11 
REMARK    4  A    between atoms: N6_13  and  O3_15 
ROOT
HETATM    1  N1  UNL     1       4.979   0.974   0.574  1.00  0.00    -0.162 NA
HETATM    2  C1  UNL     1       3.843   0.863   0.353  1.00  0.00     0.253 C 
HETATM    3  O1  UNL     1       2.524   0.741   0.084  1.00  0.00    -0.157 OA
ENDROOT
BRANCH   3   4
HETATM    4  N2  UNL     1       1.894  -0.469  -0.138  1.00  0.00    -0.220 N 
HETATM    5  C2  UNL     1       0.612  -0.494  -0.063  1.00  0.00     0.231 C 
HETATM    6  N3  UNL     1      -0.015  -1.761  -0.298  1.00  0.00    -0.060 NA
HETATM    7  N4  UNL     1      -0.162   0.658   0.235  1.00  0.00    -0.228 N 
ATOM      8  H4  UNL     1       0.306   1.493   0.588  1.00  0.00     0.194 HD
ATOM      9  H2  UNL     1       2.428  -1.311  -0.353  1.00  0.00     0.198 HD
BRANCH   7  10
HETATM   10  N5  UNL     1      -1.528   0.678   0.060  1.00  0.00    -0.072 N 
HETATM   11  N6  UNL     1      -2.176  -0.309  -0.389  1.00  0.00    -0.168 N 
ATOM     12  H6  UNL     1      -1.667  -1.158  -0.633  1.00  0.00     0.220 HD
BRANCH  10  13
HETATM   13  O2  UNL     1      -2.241   1.810   0.380  1.00  0.00    -0.252 OA
ATOM     14  H2  UNL     1      -3.183   1.824   0.259  1.00  0.00     0.248 HD
ENDBRANCH  10  13
BRANCH  11  15
HETATM   15  O3  UNL     1      -3.538  -0.285  -0.562  1.00  0.00    -0.271 OA
ATOM     16  H3  UNL     1      -4.025  -1.027  -0.900  1.00  0.00     0.246 HD
ENDBRANCH  11  15
ENDBRANCH   7  10
ENDBRANCH   3   4
TORSDOF 4
