REMARK  4 active torsions:
REMARK  status: ('A' for Active; 'I' for Inactive)
REMARK    1  A    between atoms: C2_2  and  N1_4 
REMARK    2  A    between atoms: N1_4  and  C4_6 
REMARK    3  A    between atoms: C5_9  and  N3_10 
REMARK    4  A    between atoms: C10_24  and  C11_25 
ROOT
HETATM    1  C4  UNL     1       1.796  -0.642  -0.437  1.00  0.00     0.681 A 
HETATM    2  N2  UNL     1       0.704  -0.824  -1.165  1.00  0.00    -0.175 N 
ATOM      3  H2  UNL     1       0.735  -1.427  -1.987  1.00  0.00     0.186 HD
HETATM    4  C5  UNL     1      -0.480  -0.197  -0.811  1.00  0.00     0.146 A 
HETATM    5  C6  UNL     1      -0.459   0.574   0.292  1.00  0.00     0.131 A 
HETATM    6  C7  UNL     1       0.723   0.753   1.038  1.00  0.00     0.154 A 
HETATM    7  N4  UNL     1       0.790   1.552   2.115  1.00  0.00    -0.313 N 
ATOM      8  H4  UNL     1       1.661   1.668   2.633  1.00  0.00     0.170 HD
HETATM    9  C8  UNL     1      -0.311   2.181   2.479  1.00  0.00     0.236 A 
HETATM   10  F1  UNL     1      -0.305   3.020   3.555  1.00  0.00    -0.182 F 
HETATM   11  C9  UNL     1      -1.496   2.038   1.810  1.00  0.00     0.186 A 
HETATM   12  N5  UNL     1      -2.721   2.493   2.059  1.00  0.00    -0.280 N 
ATOM     13  H5  UNL     1      -2.980   3.130   2.812  1.00  0.00     0.188 HD
HETATM   14  N6  UNL     1      -3.519   1.995   1.193  1.00  0.00    -0.284 N 
ATOM     15  H6  UNL     1      -4.521   2.183   1.158  1.00  0.00     0.188 HD
HETATM   16  C10 UNL     1      -2.829   1.146   0.285  1.00  0.00     0.145 A 
HETATM   17  N7  UNL     1      -1.580   1.223   0.708  1.00  0.00    -0.271 N 
HETATM   18  N8  UNL     1       1.829   0.125   0.636  1.00  0.00    -0.174 N 
ATOM     19  H8  UNL     1       2.699   0.238   1.157  1.00  0.00     0.186 HD
ENDROOT
BRANCH   1  20
HETATM   20  N1  UNL     1       2.865  -1.286  -0.832  1.00  0.00    -0.222 N 
ATOM     21  H1  UNL     1       2.817  -1.880  -1.660  1.00  0.00     0.178 HD
BRANCH  20  22
HETATM   22  C2  UNL     1       4.105  -1.167  -0.115  1.00  0.00     0.091 C 
HETATM   23  C1  UNL     1       4.978  -2.351  -0.562  1.00  0.00     0.032 C 
HETATM   24  C3  UNL     1       4.885   0.082  -0.406  1.00  0.00     0.032 C 
ENDBRANCH  20  22
ENDBRANCH   1  20
BRANCH   4  25
HETATM   25  N3  UNL     1      -1.309  -0.289  -1.697  1.00  0.00    -0.383 N 
ATOM     26  H32 UNL     1      -1.325  -0.873  -2.533  1.00  0.00     0.157 HD
ATOM     27  H31 UNL     1      -2.180   0.173  -1.436  1.00  0.00     0.157 HD
ENDBRANCH   4  25
BRANCH  16  28
HETATM   28  C11 UNL     1      -3.583   0.348  -0.659  1.00  0.00     0.156 C 
HETATM   29  C12 UNL     1      -5.087   0.872  -0.274  1.00  0.00     0.060 C 
HETATM   30  C13 UNL     1      -3.949  -1.083  -0.262  1.00  0.00     0.060 C 
HETATM   31  F2  UNL     1      -3.794   0.718  -1.939  1.00  0.00    -0.235 F 
ENDBRANCH  16  28
TORSDOF 4
