REMARK  3 active torsions:
REMARK  status: ('A' for Active; 'I' for Inactive)
REMARK    1  A    between atoms: C5_11  and  C6_12 
REMARK    2  A    between atoms: C6_12  and  C7_14 
REMARK    3  A    between atoms: C12_23  and  O4_24 
ROOT
HETATM    1  C6  UNL     1       0.489   0.388   0.887  1.00  0.00     0.204 C 
HETATM    2  O2  UNL     1       0.499   1.389   1.631  1.00  0.00    -0.286 OA
ENDROOT
BRANCH   1   3
HETATM    3  C5  UNL     1       1.774  -0.198   0.596  1.00  0.00     0.075 A 
HETATM    4  C2  UNL     1       2.554   0.482  -0.347  1.00  0.00     0.027 A 
HETATM    5  C1  UNL     1       2.068   1.847  -0.846  1.00  0.00     0.069 C 
HETATM    6  N1  UNL     1       3.709  -0.030  -0.707  1.00  0.00    -0.312 N 
HETATM    7  C3  UNL     1       4.119  -1.198  -0.156  1.00  0.00     0.325 A 
ATOM      8  H1  UNL     1       4.292   0.447  -1.395  1.00  0.00     0.170 HD
HETATM    9  O1  UNL     1       5.205  -1.685  -0.498  1.00  0.00    -0.247 OA
HETATM   10  N2  UNL     1       3.394  -1.862   0.746  1.00  0.00    -0.298 N 
HETATM   11  C4  UNL     1       2.213  -1.377   1.143  1.00  0.00     0.120 A 
ATOM     12  H2  UNL     1       3.741  -2.740   1.133  1.00  0.00     0.171 HD
HETATM   13  S1  UNL     1       1.390  -2.185   2.337  1.00  0.00    -0.059 SA
ENDBRANCH   1   3
BRANCH   1  14
HETATM   14  C7  UNL     1      -0.781  -0.117   0.352  1.00  0.00     0.108 A 
HETATM   15  C8  UNL     1      -0.967  -1.263  -0.387  1.00  0.00     0.179 A 
HETATM   16  F1  UNL     1       0.088  -2.012  -0.759  1.00  0.00    -0.201 F 
HETATM   17  C9  UNL     1      -2.231  -1.636  -0.847  1.00  0.00     0.223 A 
HETATM   18  F2  UNL     1      -2.354  -2.799  -1.515  1.00  0.00    -0.197 F 
HETATM   19  C10 UNL     1      -3.317  -0.856  -0.562  1.00  0.00     0.291 A 
HETATM   20  O3  UNL     1      -4.495  -1.197  -0.948  1.00  0.00    -0.264 OA
HETATM   21  N3  UNL     1      -3.179   0.266   0.151  1.00  0.00    -0.296 N 
HETATM   22  C11 UNL     1      -4.265   1.172   0.422  1.00  0.00     0.162 C 
HETATM   23  C12 UNL     1      -1.935   0.631   0.600  1.00  0.00     0.162 A 
BRANCH  23  24
HETATM   24  O4  UNL     1      -1.808   1.806   1.322  1.00  0.00    -0.345 OA
ATOM     25  H4  UNL     1      -2.593   2.315   1.491  1.00  0.00     0.219 HD
ENDBRANCH  23  24
ENDBRANCH   1  14
TORSDOF 3
