REMARK  7 active torsions:
REMARK  status: ('A' for Active; 'I' for Inactive)
REMARK    1  A    between atoms: C3_3  and  C4_4 
REMARK    2  A    between atoms: C4_4  and  N1_6 
REMARK    3  A    between atoms: C4_4  and  C6_10 
REMARK    4  A    between atoms: C8_13  and  O1_14 
REMARK    5  A    between atoms: C8_13  and  N2_16 
REMARK       I    between atoms: N2_16  and  C9_17 
REMARK    6  A    between atoms: C9_17  and  O3_19 
REMARK    7  A    between atoms: O3_19  and  C10_20 
ROOT
HETATM    1  C1  UNL     1      -6.067   1.626  -0.608  1.00  0.00     0.112 C 
HETATM    2  C2  UNL     1      -4.778   0.985  -0.311  1.00  0.00    -0.108 C 
HETATM    3  C3  UNL     1      -3.734   0.417  -0.111  1.00  0.00    -0.066 C 
ENDROOT
BRANCH   3   4
HETATM    4  C4  UNL     1      -2.490  -0.408   0.035  1.00  0.00     0.208 C 
HETATM    5  C5  UNL     1      -2.535  -1.296   1.218  1.00  0.00     0.063 C 
BRANCH   4   6
HETATM    6  N1  UNL     1      -2.400  -1.239  -1.184  1.00  0.00    -0.057 N 
ATOM      7  H13 UNL     1      -3.237  -1.795  -1.358  1.00  0.00     0.276 HD
ATOM      8  H12 UNL     1      -2.428  -0.697  -2.047  1.00  0.00     0.276 HD
ATOM      9  H11 UNL     1      -1.554  -1.800  -1.085  1.00  0.00     0.276 HD
ENDBRANCH   4   6
BRANCH   4  10
HETATM   10  C6  UNL     1      -1.309   0.571   0.003  1.00  0.00     0.186 C 
HETATM   11  C7  UNL     1      -0.982   1.007   1.512  1.00  0.00     0.118 C 
HETATM   12  S1  UNL     1       0.705   1.622   1.154  1.00  0.00    -0.060 SA
HETATM   13  C8  UNL     1       0.880   0.554  -0.390  1.00  0.00     0.371 C 
HETATM   14  O4  UNL     1      -0.222  -0.198  -0.257  1.00  0.00    -0.309 OA
BRANCH  13  15
HETATM   15  O1  UNL     1       0.666   1.574  -1.446  1.00  0.00    -0.329 OA
ATOM     16  H1  UNL     1       0.754   1.036  -2.224  1.00  0.00     0.217 HD
ENDBRANCH  13  15
BRANCH  13  17
HETATM   17  N2  UNL     1       2.027  -0.045  -0.510  1.00  0.00    -0.312 NA
HETATM   18  C9  UNL     1       3.376  -0.758  -0.654  1.00  0.00     0.444 C 
HETATM   19  O2  UNL     1       3.335  -1.807  -0.992  1.00  0.00    -0.221 OA
BRANCH  18  20
HETATM   20  O3  UNL     1       4.253   0.238  -0.232  1.00  0.00    -0.236 OA
BRANCH  20  21
HETATM   21  C10 UNL     1       5.667  -0.036  -0.159  1.00  0.00     0.290 C 
HETATM   22  C11 UNL     1       5.945  -1.261   0.706  1.00  0.00     0.105 C 
HETATM   23  F1  UNL     1       6.293  -0.195  -1.349  1.00  0.00    -0.193 F 
HETATM   24 CL1  UNL     1       6.314   1.476   0.600  1.00  0.00    -0.052 Cl
ENDBRANCH  20  21
ENDBRANCH  18  20
ENDBRANCH  13  17
ENDBRANCH   4  10
ENDBRANCH   3   4
TORSDOF 7
