REMARK  9 active torsions:
REMARK  status: ('A' for Active; 'I' for Inactive)
REMARK    1  A    between atoms: O1_2  and  C2_3 
REMARK    2  A    between atoms: C3_4  and  O2_5 
REMARK    3  A    between atoms: O2_5  and  C4_6 
REMARK    4  A    between atoms: C7_11  and  O5_12 
REMARK    5  A    between atoms: C8_14  and  O6_15 
REMARK    6  A    between atoms: C9_17  and  O7_18 
REMARK    7  A    between atoms: C14_24  and  S1_25 
REMARK    8  A    between atoms: N2_29  and  C16_30 
REMARK    9  A    between atoms: C16_30  and  C17_31 
ROOT
HETATM    1  C2  UNL     1       0.045  -1.014  -0.537  1.00  0.00     0.117 A 
HETATM    2  C3  UNL     1       0.792   0.176  -0.479  1.00  0.00     0.106 A 
HETATM    3  C10 UNL     1       0.104   1.335  -0.672  1.00  0.00     0.042 A 
HETATM    4  C11 UNL     1      -1.252   1.396  -0.913  1.00  0.00     0.035 A 
HETATM    5  C12 UNL     1      -1.977   0.203  -0.966  1.00  0.00     0.067 A 
HETATM    6  C13 UNL     1      -1.306  -0.986  -0.775  1.00  0.00     0.063 A 
HETATM    7  C14 UNL     1      -2.241  -1.991  -0.881  1.00  0.00     0.099 A 
HETATM    8  N1  UNL     1      -3.415  -1.397  -1.126  1.00  0.00    -0.291 N 
ATOM      9  H1  UNL     1      -4.298  -1.892  -1.254  1.00  0.00     0.188 HD
HETATM   10  N2  UNL     1      -3.276  -0.064  -1.181  1.00  0.00    -0.290 N 
ENDROOT
BRANCH   2  11
HETATM   11  O2  UNL     1       2.135   0.083  -0.238  1.00  0.00    -0.315 OA
BRANCH  11  12
HETATM   12  C4  UNL     1       2.973   1.166  -0.159  1.00  0.00     0.301 C 
HETATM   13  O3  UNL     1       4.081   1.090  -1.014  1.00  0.00    -0.326 OA
HETATM   14  C5  UNL     1       5.147   1.673  -0.373  1.00  0.00     0.295 C 
HETATM   15  O4  UNL     1       4.680   2.201   0.837  1.00  0.00    -0.346 OA
HETATM   16  C9  UNL     1       6.206   0.643   0.023  1.00  0.00     0.204 C 
HETATM   17  C6  UNL     1       3.730   1.225   1.184  1.00  0.00     0.211 C 
HETATM   18  C7  UNL     1       4.338  -0.079   1.548  1.00  0.00     0.183 C 
HETATM   19  C8  UNL     1       5.598  -0.432   0.851  1.00  0.00     0.183 C 
BRANCH  18  20
HETATM   20  O5  UNL     1       3.421  -1.121   1.358  1.00  0.00    -0.390 OA
ATOM     21  H5  UNL     1       3.810  -1.956   1.591  1.00  0.00     0.210 HD
ENDBRANCH  18  20
BRANCH  19  22
HETATM   22  O6  UNL     1       6.582  -0.855   1.774  1.00  0.00    -0.390 OA
ATOM     23  H6  UNL     1       7.389  -1.081   1.327  1.00  0.00     0.210 HD
ENDBRANCH  19  22
BRANCH  16  24
HETATM   24  O7  UNL     1       6.820   0.108  -1.128  1.00  0.00    -0.388 OA
ATOM     25  H7  UNL     1       7.478  -0.532  -0.882  1.00  0.00     0.210 HD
ENDBRANCH  16  24
ENDBRANCH  11  12
ENDBRANCH   2  11
BRANCH   1  26
HETATM   26  O1  UNL     1       0.670  -2.217  -0.353  1.00  0.00    -0.352 OA
HETATM   27  C1  UNL     1       1.216  -2.927  -1.464  1.00  0.00     0.210 C 
ENDBRANCH   1  26
BRANCH   7  28
HETATM   28  S1  UNL     1      -1.942  -3.769  -0.721  1.00  0.00    -0.114 SA
HETATM   29  C15 UNL     1      -2.145  -4.203   1.029  1.00  0.00     0.097 C 
ENDBRANCH   7  28
BRANCH  10  30
HETATM   30  C16 UNL     1      -4.334   0.893  -1.411  1.00  0.00     0.157 C 
BRANCH  30  31
HETATM   31  C17 UNL     1      -5.062   1.336  -0.194  1.00  0.00    -0.033 C 
HETATM   32  C18 UNL     1      -5.692   0.107   0.448  1.00  0.00     0.016 C 
HETATM   33  C19 UNL     1      -4.249   2.083   0.810  1.00  0.00     0.016 C 
HETATM   34  C20 UNL     1      -6.219   2.223  -0.671  1.00  0.00     0.016 C 
ENDBRANCH  30  31
ENDBRANCH  10  30
TORSDOF 9
