REMARK  8 active torsions:
REMARK  status: ('A' for Active; 'I' for Inactive)
REMARK    1  A    between atoms: C2_2  and  C3_3 
REMARK    2  A    between atoms: C3_3  and  O1_4 
REMARK    3  A    between atoms: C4_6  and  N1_7 
REMARK    4  A    between atoms: C13_17  and  O3_18 
REMARK    5  A    between atoms: C13_17  and  C14_20 
REMARK    6  A    between atoms: C14_20  and  O4_21 
REMARK    7  A    between atoms: C14_20  and  C15_23 
REMARK    8  A    between atoms: C19_30  and  O7_31 
ROOT
HETATM    1  C3  UNL     1      -1.485  -1.205  -0.546  1.00  0.00     0.141 C 
HETATM    2  C4  UNL     1      -0.266  -1.643   0.154  1.00  0.00     0.154 C 
HETATM    3  C7  UNL     1       0.717  -0.479   0.004  1.00  0.00     0.004 A 
HETATM    4  C8  UNL     1       2.017  -0.691  -0.403  1.00  0.00     0.052 A 
HETATM    5  C9  UNL     1       2.865   0.389  -0.513  1.00  0.00     0.111 A 
HETATM    6  C10 UNL     1       2.390   1.649  -0.213  1.00  0.00     0.143 A 
HETATM    7  C11 UNL     1       1.081   1.879   0.198  1.00  0.00     0.080 A 
HETATM    8  C12 UNL     1       0.255   0.787   0.300  1.00  0.00     0.084 A 
HETATM    9  O2  UNL     1      -1.076   0.867   0.698  1.00  0.00    -0.307 OA
HETATM   10  C13 UNL     1      -2.054   0.086   0.016  1.00  0.00     0.232 C 
HETATM   11  O5  UNL     1       3.277   2.705  -0.337  1.00  0.00    -0.190 OA
HETATM   12  O6  UNL     1       4.435   2.508  -0.963  1.00  0.00    -0.173 OA
HETATM   13  C19 UNL     1       5.059   1.346  -0.527  1.00  0.00     0.452 C 
HETATM   14  O8  UNL     1       4.184   0.279  -0.912  1.00  0.00    -0.292 OA
ENDROOT
BRANCH  10  15
HETATM   15  O3  UNL     1      -3.095  -0.220   0.893  1.00  0.00    -0.360 OA
ATOM     16  H3  UNL     1      -3.451   0.588   1.245  1.00  0.00     0.213 HD
ENDBRANCH  10  15
BRANCH  10  17
HETATM   17  C14 UNL     1      -2.589   0.930  -1.107  1.00  0.00     0.224 C 
BRANCH  17  18
HETATM   18  O4  UNL     1      -1.616   1.346  -1.985  1.00  0.00    -0.385 OA
ATOM     19  H4  UNL     1      -1.954   1.879  -2.695  1.00  0.00     0.210 HD
ENDBRANCH  17  18
BRANCH  17  20
HETATM   20  C15 UNL     1      -3.434   2.078  -0.593  1.00  0.00     0.016 A 
HETATM   21  C16 UNL     1      -2.998   3.302  -0.167  1.00  0.00     0.018 A 
HETATM   22  C17 UNL     1      -3.931   4.175   0.250  1.00  0.00     0.008 A 
HETATM   23  C18 UNL     1      -5.235   3.765   0.213  1.00  0.00     0.050 A 
HETATM   24  S1  UNL     1      -5.123   2.180  -0.400  1.00  0.00    -0.104 SA
ENDBRANCH  17  20
ENDBRANCH  10  17
BRANCH   1  25
HETATM   25  C2  UNL     1      -2.621  -2.148  -0.711  1.00  0.00     0.042 C 
HETATM   26  C1  UNL     1      -2.226  -3.404  -1.418  1.00  0.00     0.008 C 
ENDBRANCH   1  25
BRANCH   1  27
HETATM   27  O1  UNL     1      -1.067  -0.919  -1.886  1.00  0.00    -0.382 OA
ATOM     28  H1  UNL     1      -0.341  -0.316  -1.780  1.00  0.00     0.211 HD
ENDBRANCH   1  27
BRANCH   2  29
HETATM   29  N1  UNL     1      -0.290  -2.087   1.476  1.00  0.00    -0.410 N 
HETATM   30  C5  UNL     1      -0.965  -3.284   1.827  1.00  0.00     0.143 C 
HETATM   31  C6  UNL     1       0.980  -2.049   2.166  1.00  0.00     0.143 C 
ENDBRANCH   2  29
BRANCH  13  32
HETATM   32  O7  UNL     1       6.303   1.197  -1.133  1.00  0.00    -0.342 OA
HETATM   33  C20 UNL     1       7.248   1.088  -0.134  1.00  0.00     0.207 C 
ENDBRANCH  13  32
TORSDOF 8
