REMARK  10 active torsions:
REMARK  status: ('A' for Active; 'I' for Inactive)
REMARK    1  A    between atoms: C2_2  and  N1_3 
REMARK    2  A    between atoms: C4_8  and  C5_9 
REMARK    3  A    between atoms: C6_10  and  C7_11 
REMARK    4  A    between atoms: C7_11  and  C8_12 
REMARK    5  A    between atoms: C8_12  and  C9_13 
REMARK    6  A    between atoms: N6_23  and  C14_24 
REMARK    7  A    between atoms: C15_26  and  C16_27 
REMARK    8  A    between atoms: C16_27  and  S1_28 
REMARK    9  A    between atoms: S1_28  and  C17_29 
REMARK   10  A    between atoms: C21_36  and  O2_37 
ROOT
HETATM    1  C9  UNL     1       5.451  -4.680   2.487  1.00  0.00     0.124 C 
HETATM    2  C10 UNL     1       6.099  -4.565   3.779  1.00  0.00     0.059 C 
HETATM    3  N3  UNL     1       6.616  -4.459   4.829  1.00  0.00    -0.197 NA
ENDROOT
BRANCH   1   4
HETATM    4  C8  UNL     1       4.938  -3.322   2.007  1.00  0.00     0.026 C 
BRANCH   4   5
HETATM    5  C7  UNL     1       4.274  -3.506   0.657  1.00  0.00     0.095 C 
BRANCH   5   6
HETATM    6  C6  UNL     1       3.802  -2.170   0.248  1.00  0.00    -0.098 C 
HETATM    7  C5  UNL     1       3.411  -1.080  -0.084  1.00  0.00    -0.030 C 
BRANCH   7   8
HETATM    8  C4  UNL     1       2.925   0.219  -0.496  1.00  0.00     0.164 A 
HETATM    9  N2  UNL     1       3.806   1.177  -0.809  1.00  0.00    -0.320 N 
HETATM   10  C3  UNL     1       3.444   2.437  -1.209  1.00  0.00     0.134 A 
ATOM     11  H2  UNL     1       4.800   0.958  -0.746  1.00  0.00     0.169 HD
HETATM   12  N1  UNL     1       4.311   3.308  -1.494  1.00  0.00    -0.375 N 
HETATM   13  C12 UNL     1       2.095   2.718  -1.290  1.00  0.00     0.122 A 
ATOM     14  H1  UNL     1       5.293   3.044  -1.417  1.00  0.00     0.161 HD
HETATM   15  C11 UNL     1       1.222   1.703  -0.959  1.00  0.00     0.143 A 
HETATM   16  N5  UNL     1       1.368   3.821  -1.637  1.00  0.00    -0.346 N 
HETATM   17  N4  UNL     1       1.600   0.478  -0.569  1.00  0.00    -0.319 N 
HETATM   18  N6  UNL     1      -0.013   2.201  -1.109  1.00  0.00    -0.295 N 
ATOM     19  H4  UNL     1       0.910  -0.236  -0.335  1.00  0.00     0.169 HD
HETATM   20  C13 UNL     1       0.095   3.491  -1.523  1.00  0.00     0.188 A 
ATOM     21  H5  UNL     1       1.738   4.726  -1.928  1.00  0.00     0.167 HD
BRANCH  12  22
HETATM   22  C2  UNL     1       4.013   4.624  -1.913  1.00  0.00     0.116 C 
HETATM   23  C1  UNL     1       5.272   5.452  -2.158  1.00  0.00     0.026 C 
ENDBRANCH  12  22
BRANCH  18  24
HETATM   24  C14 UNL     1      -1.273   1.563  -0.894  1.00  0.00     0.289 C 
HETATM   25  O1  UNL     1      -1.218   0.476  -0.025  1.00  0.00    -0.328 OA
HETATM   26  C15 UNL     1      -2.250  -0.375  -0.389  1.00  0.00     0.335 C 
HETATM   27  N7  UNL     1      -2.702  -0.027  -1.705  1.00  0.00    -0.018 N 
HETATM   28  C21 UNL     1      -1.642   0.840  -2.190  1.00  0.00     0.371 C 
ATOM     29  H72 UNL     1      -2.913  -0.822  -2.308  1.00  0.00     0.283 HD
ATOM     30  H71 UNL     1      -3.637   0.380  -1.742  1.00  0.00     0.283 HD
BRANCH  26  31
HETATM   31  C16 UNL     1      -3.432  -0.276   0.560  1.00  0.00     0.136 C 
BRANCH  31  32
HETATM   32  S1  UNL     1      -4.696  -1.424  -0.020  1.00  0.00    -0.156 SA
BRANCH  32  33
HETATM   33  C17 UNL     1      -6.172  -1.420   1.011  1.00  0.00    -0.003 C 
HETATM   34  C18 UNL     1      -5.872  -1.957   2.396  1.00  0.00     0.026 C 
HETATM   35  C19 UNL     1      -7.190  -2.343   0.375  1.00  0.00     0.026 C 
HETATM   36  C20 UNL     1      -6.798  -0.052   1.123  1.00  0.00     0.026 C 
ENDBRANCH  32  33
ENDBRANCH  31  32
ENDBRANCH  26  31
BRANCH  28  37
HETATM   37  O2  UNL     1      -0.582   0.076  -2.612  1.00  0.00    -0.366 OA
ATOM     38  H2  UNL     1      -0.811  -0.373  -3.417  1.00  0.00     0.212 HD
ENDBRANCH  28  37
ENDBRANCH  18  24
ENDBRANCH   7   8
ENDBRANCH   5   6
ENDBRANCH   4   5
ENDBRANCH   1   4
TORSDOF 10
