REMARK  15 active torsions:
REMARK  status: ('A' for Active; 'I' for Inactive)
REMARK    1  A    between atoms: C3_3  and  C4_4 
REMARK    2  A    between atoms: C5_5  and  C6_6 
REMARK       I    between atoms: C6_6  and  N1_8 
REMARK    3  A    between atoms: N1_8  and  C7_10 
REMARK    4  A    between atoms: C7_10  and  C8_11 
REMARK    5  A    between atoms: C8_11  and  C9_12 
REMARK       I    between atoms: C9_12  and  N2_14 
REMARK    6  A    between atoms: C13_18  and  C14_19 
REMARK       I    between atoms: C14_19  and  N3_21 
REMARK    7  A    between atoms: N3_21  and  C15_23 
REMARK    8  A    between atoms: C15_23  and  C16_24 
REMARK    9  A    between atoms: C16_24  and  N4_25 
REMARK       I    between atoms: N4_25  and  C17_27 
REMARK   10  A    between atoms: C17_27  and  O5_29 
REMARK   11  A    between atoms: O5_29  and  C18_30 
REMARK   12  A    between atoms: C22_34  and  C24_36 
REMARK   13  A    between atoms: C28_41  and  C29_42 
REMARK   14  A    between atoms: C29_42  and  O8_44 
REMARK   15  A    between atoms: O8_44  and  C30_45 
ROOT
HETATM    1  C7  UNL     1      -1.490  -0.775   2.564  1.00  0.00     0.132 C 
ENDROOT
BRANCH   1   2
HETATM    2  N1  UNL     1      -2.833  -0.304   2.426  1.00  0.00    -0.360 N 
HETATM    3  C6  UNL     1      -3.223   0.793   1.626  1.00  0.00     0.223 C 
HETATM    4  O1  UNL     1      -2.324   1.393   0.987  1.00  0.00    -0.273 OA
ATOM      5  H1  UNL     1      -3.562  -0.796   2.943  1.00  0.00     0.162 HD
BRANCH   3   6
HETATM    6  C5  UNL     1      -4.634   1.148   1.601  1.00  0.00     0.098 C 
HETATM    7  C4  UNL     1      -5.077   2.332   0.792  1.00  0.00     0.036 C 
HETATM    8  C28 UNL     1      -6.420   1.578   0.692  1.00  0.00     0.105 C 
HETATM    9  C22 UNL     1      -5.560   0.324   0.711  1.00  0.00     0.011 C 
HETATM   10  C23 UNL     1      -5.010   0.031  -0.645  1.00  0.00     0.020 C 
BRANCH   7  11
HETATM   11  C3  UNL     1      -5.188   3.597   1.565  1.00  0.00    -0.025 C 
HETATM   12  C2  UNL     1      -4.895   4.733   0.979  1.00  0.00    -0.034 C 
HETATM   13  C1  UNL     1      -4.992   6.026   1.716  1.00  0.00     0.036 C 
ENDBRANCH   7  11
BRANCH   8  14
HETATM   14  C29 UNL     1      -7.211   1.848  -0.494  1.00  0.00     0.264 C 
HETATM   15  O7  UNL     1      -7.479   0.911  -1.284  1.00  0.00    -0.265 OA
BRANCH  14  16
HETATM   16  O8  UNL     1      -7.709   3.096  -0.832  1.00  0.00    -0.322 OA
BRANCH  16  17
HETATM   17  C30 UNL     1      -8.478   3.308  -2.002  1.00  0.00     0.174 C 
HETATM   18  C31 UNL     1      -8.900   4.757  -2.126  1.00  0.00     0.034 C 
ENDBRANCH  16  17
ENDBRANCH  14  16
ENDBRANCH   8  14
BRANCH   9  19
HETATM   19  C24 UNL     1      -6.174  -0.833   1.450  1.00  0.00     0.166 A 
HETATM   20  O6  UNL     1      -7.064  -1.684   0.622  1.00  0.00    -0.369 OA
HETATM   21  C25 UNL     1      -5.883  -2.204   1.374  1.00  0.00     0.081 A 
HETATM   22  C26 UNL     1      -6.314  -3.069   2.575  1.00  0.00     0.048 C 
HETATM   23  C27 UNL     1      -4.943  -2.889   0.456  1.00  0.00     0.048 C 
ENDBRANCH   9  19
ENDBRANCH   3   6
ENDBRANCH   1   2
BRANCH   1  24
HETATM   24  C8  UNL     1      -0.885  -1.235   1.281  1.00  0.00     0.122 C 
BRANCH  24  25
HETATM   25  C9  UNL     1       0.508  -1.717   1.506  1.00  0.00     0.222 C 
HETATM   26  O2  UNL     1       0.981  -1.568   2.669  1.00  0.00    -0.273 OA
HETATM   27  N2  UNL     1       1.323  -2.318   0.521  1.00  0.00    -0.339 N 
HETATM   28  C10 UNL     1       0.983  -2.590  -0.846  1.00  0.00     0.127 C 
HETATM   29  C13 UNL     1       2.671  -2.756   0.758  1.00  0.00     0.179 C 
HETATM   30  C11 UNL     1       1.847  -3.748  -1.239  1.00  0.00     0.022 C 
HETATM   31  C12 UNL     1       2.750  -4.034  -0.067  1.00  0.00     0.037 C 
BRANCH  29  32
HETATM   32  C14 UNL     1       3.697  -1.786   0.242  1.00  0.00     0.240 C 
HETATM   33  O3  UNL     1       3.280  -0.841  -0.465  1.00  0.00    -0.271 OA
HETATM   34  N3  UNL     1       5.068  -1.968   0.566  1.00  0.00    -0.358 N 
ATOM     35  H3  UNL     1       5.320  -2.766   1.149  1.00  0.00     0.162 HD
BRANCH  34  36
HETATM   36  C15 UNL     1       6.124  -1.095   0.121  1.00  0.00     0.142 C 
BRANCH  36  37
HETATM   37  C16 UNL     1       6.289  -1.037  -1.363  1.00  0.00     0.144 C 
BRANCH  37  38
HETATM   38  N4  UNL     1       7.324  -0.172  -1.824  1.00  0.00    -0.335 N 
HETATM   39  C17 UNL     1       8.678  -0.381  -1.452  1.00  0.00     0.361 C 
HETATM   40  O4  UNL     1       9.096  -1.293  -0.725  1.00  0.00    -0.238 OA
ATOM     41  H4  UNL     1       7.087   0.612  -2.432  1.00  0.00     0.164 HD
BRANCH  39  42
HETATM   42  O5  UNL     1       9.619   0.529  -1.955  1.00  0.00    -0.294 OA
BRANCH  42  43
HETATM   43  C18 UNL     1      10.994   0.442  -1.654  1.00  0.00     0.061 C 
HETATM   44  C19 UNL     1      11.600  -0.857  -2.087  1.00  0.00     0.046 C 
HETATM   45  C20 UNL     1      11.216   0.729  -0.179  1.00  0.00     0.046 C 
HETATM   46  C21 UNL     1      11.683   1.556  -2.444  1.00  0.00     0.046 C 
ENDBRANCH  42  43
ENDBRANCH  39  42
ENDBRANCH  37  38
ENDBRANCH  36  37
ENDBRANCH  34  36
ENDBRANCH  29  32
ENDBRANCH  24  25
ENDBRANCH   1  24
TORSDOF 15
