REMARK  16 active torsions:
REMARK  status: ('A' for Active; 'I' for Inactive)
REMARK    1  A    between atoms: C2_2  and  C3_3 
REMARK    2  A    between atoms: C4_4  and  C5_5 
REMARK    3  A    between atoms: C5_5  and  C6_6 
REMARK    4  A    between atoms: C6_6  and  C7_7 
REMARK    5  A    between atoms: C8_8  and  C9_9 
REMARK       I    between atoms: C9_9  and  N1_11 
REMARK    6  A    between atoms: N1_11  and  O2_12 
REMARK    7  A    between atoms: N1_11  and  C10_14 
REMARK       I    between atoms: N2_18  and  C13_19 
REMARK    8  A    between atoms: C13_19  and  C14_21 
REMARK    9  A    between atoms: C14_21  and  C15_22 
REMARK   10  A    between atoms: C22_35  and  C23_36 
REMARK   11  A    between atoms: C23_36  and  C24_37 
REMARK   12  A    between atoms: C24_37  and  C25_38 
REMARK   13  A    between atoms: C25_38  and  O6_40 
REMARK   14  A    between atoms: O6_40  and  C26_41 
REMARK   15  A    between atoms: C30_45  and  C31_46 
REMARK   16  A    between atoms: C31_46  and  O7_47 
ROOT
HETATM    1  C7  UNL     1      -3.333  -0.345  -1.787  1.00  0.00     0.100 C 
HETATM    2  C8  UNL     1      -3.541  -1.785  -2.112  1.00  0.00     0.105 C 
HETATM    3  C11 UNL     1      -4.825  -1.666  -2.949  1.00  0.00     0.036 C 
HETATM    4  C12 UNL     1      -5.455  -0.363  -2.578  1.00  0.00     0.127 C 
HETATM    5  N2  UNL     1      -4.630   0.082  -1.413  1.00  0.00    -0.346 N 
HETATM    6  C13 UNL     1      -5.218   0.760  -0.337  1.00  0.00     0.224 C 
HETATM    7  O4  UNL     1      -6.489   0.943  -0.371  1.00  0.00    -0.273 OA
ENDROOT
BRANCH   1   8
HETATM    8  C6  UNL     1      -2.177  -0.008  -0.908  1.00  0.00     0.031 C 
BRANCH   8   9
HETATM    9  C5  UNL     1      -0.904  -0.460  -1.574  1.00  0.00     0.043 C 
BRANCH   9  10
HETATM   10  C4  UNL     1       0.367  -0.168  -0.932  1.00  0.00    -0.029 A 
HETATM   11  C3  UNL     1       1.014  -0.892   0.034  1.00  0.00    -0.040 A 
HETATM   12  C30 UNL     1       2.266  -0.506   0.577  1.00  0.00    -0.005 A 
HETATM   13  C22 UNL     1       2.834   0.636   0.102  1.00  0.00     0.018 A 
HETATM   14  N5  UNL     1       2.205   1.380  -0.866  1.00  0.00    -0.362 N 
HETATM   15  C20 UNL     1       1.047   1.002  -1.352  1.00  0.00     0.012 A 
ATOM     16  H5  UNL     1       2.643   2.235  -1.210  1.00  0.00     0.165 HD
HETATM   17  C21 UNL     1       0.408   1.826  -2.429  1.00  0.00     0.068 C 
BRANCH  11  18
HETATM   18  C2  UNL     1       0.424  -2.129   0.572  1.00  0.00     0.035 C 
HETATM   19  C1  UNL     1      -0.524  -1.980   1.711  1.00  0.00     0.010 C 
ENDBRANCH  11  18
BRANCH  12  20
HETATM   20  C31 UNL     1       2.830  -1.392   1.614  1.00  0.00     0.205 C 
BRANCH  20  21
HETATM   21  O7  UNL     1       3.999  -1.036   2.212  1.00  0.00    -0.396 OA
ATOM     22  H7  UNL     1       4.362  -1.606   2.879  1.00  0.00     0.209 HD
ENDBRANCH  20  21
ENDBRANCH  12  20
BRANCH  13  23
HETATM   23  C23 UNL     1       4.177   1.103   0.541  1.00  0.00     0.067 C 
BRANCH  23  24
HETATM   24  C24 UNL     1       5.309   0.424  -0.191  1.00  0.00     0.117 C 
BRANCH  24  25
HETATM   25  C25 UNL     1       6.585   0.964   0.379  1.00  0.00     0.259 C 
HETATM   26  O5  UNL     1       6.585   1.822   1.282  1.00  0.00    -0.265 OA
BRANCH  25  27
HETATM   27  O6  UNL     1       7.809   0.521  -0.083  1.00  0.00    -0.311 OA
BRANCH  27  28
HETATM   28  C26 UNL     1       9.047   0.968   0.389  1.00  0.00     0.060 C 
HETATM   29  C27 UNL     1       9.217   0.696   1.882  1.00  0.00     0.045 C 
HETATM   30  C28 UNL     1       9.328   2.411   0.091  1.00  0.00     0.045 C 
HETATM   31  C29 UNL     1      10.145   0.138  -0.290  1.00  0.00     0.045 C 
ENDBRANCH  27  28
ENDBRANCH  25  27
ENDBRANCH  24  25
ENDBRANCH  23  24
ENDBRANCH  13  23
ENDBRANCH   9  10
ENDBRANCH   8   9
ENDBRANCH   1   8
BRANCH   2  32
HETATM   32  C9  UNL     1      -3.785  -2.671  -0.953  1.00  0.00     0.256 C 
HETATM   33  O1  UNL     1      -3.939  -2.164   0.181  1.00  0.00    -0.270 OA
HETATM   34  N1  UNL     1      -3.855  -4.081  -1.067  1.00  0.00    -0.164 N 
BRANCH  34  35
HETATM   35  O2  UNL     1      -3.693  -4.662  -2.269  1.00  0.00    -0.278 OA
ATOM     36  H2  UNL     1      -3.740  -5.608  -2.345  1.00  0.00     0.245 HD
ENDBRANCH  34  35
BRANCH  34  37
HETATM   37  C10 UNL     1      -4.094  -4.880   0.063  1.00  0.00     0.385 C 
HETATM   38  O3  UNL     1      -4.258  -4.432   1.225  1.00  0.00    -0.281 OA
ENDBRANCH  34  37
ENDBRANCH   2  32
BRANCH   6  39
HETATM   39  C14 UNL     1      -4.557   1.309   0.861  1.00  0.00     0.145 C 
BRANCH  39  40
HETATM   40  C15 UNL     1      -5.531   1.951   1.789  1.00  0.00    -0.002 A 
HETATM   41  C16 UNL     1      -6.124   3.181   1.614  1.00  0.00     0.030 A 
HETATM   42  C17 UNL     1      -5.956   4.151   0.498  1.00  0.00     0.070 C 
HETATM   43  N3  UNL     1      -6.920   3.354   2.679  1.00  0.00    -0.304 N 
HETATM   44  N4  UNL     1      -6.855   2.321   3.490  1.00  0.00    -0.304 N 
ATOM     45  H3  UNL     1      -7.499   4.178   2.839  1.00  0.00     0.186 HD
HETATM   46  C18 UNL     1      -6.006   1.432   2.974  1.00  0.00     0.030 A 
ATOM     47  H4  UNL     1      -7.367   2.217   4.366  1.00  0.00     0.186 HD
HETATM   48  C19 UNL     1      -5.654   0.111   3.599  1.00  0.00     0.070 C 
ENDBRANCH  39  40
ENDBRANCH   6  39
TORSDOF 16
