REMARK  18 active torsions:
REMARK  status: ('A' for Active; 'I' for Inactive)
REMARK    1  A    between atoms: O1_2  and  C2_3 
REMARK    2  A    between atoms: C2_3  and  C3_5 
REMARK    3  A    between atoms: C3_5  and  C4_6 
REMARK    4  A    between atoms: C4_6  and  C5_7 
REMARK    5  A    between atoms: C5_7  and  C6_8 
REMARK    6  A    between atoms: C6_8  and  C7_9 
REMARK    7  A    between atoms: C7_9  and  C8_10 
REMARK    8  A    between atoms: N2_13  and  C9_15 
REMARK    9  A    between atoms: C9_15  and  C10_16 
REMARK   10  A    between atoms: C9_15  and  N7_44 
REMARK   11  A    between atoms: C10_16  and  N3_17 
REMARK   12  A    between atoms: N3_17  and  C11_18 
REMARK       I    between atoms: N3_17  and  C17_26 
REMARK   13  A    between atoms: C11_18  and  C12_19 
REMARK   14  A    between atoms: C12_19  and  O5_21 
REMARK   15  A    between atoms: O5_21  and  C13_22 
REMARK       I    between atoms: C17_26  and  N5_33 
REMARK   16  A    between atoms: N4_27  and  C18_29 
REMARK   17  A    between atoms: N5_33  and  C22_35 
REMARK   18  A    between atoms: C22_35  and  C23_36 
REMARK       I    between atoms: N7_44  and  C28_45 
ROOT
HETATM    1  N3  UNL     1      -0.325   0.647  -0.051  1.00  0.00    -0.180 N 
HETATM    2  C17 UNL     1      -1.550   0.267  -0.723  1.00  0.00     0.677 C 
HETATM    3  N4  UNL     1      -1.946   0.795  -1.786  1.00  0.00    -0.218 N 
ATOM      4  H4  UNL     1      -1.310   1.521  -2.117  1.00  0.00     0.178 HD
HETATM    5  N5  UNL     1      -2.326  -0.803  -0.166  1.00  0.00    -0.226 N 
ATOM      6  H5  UNL     1      -2.322  -1.692  -0.666  1.00  0.00     0.177 HD
ENDROOT
BRANCH   1   7
HETATM    7  C10 UNL     1       0.657  -0.427  -0.060  1.00  0.00     0.239 C 
BRANCH   7   8
HETATM    8  C9  UNL     1       1.753  -0.290  -1.029  1.00  0.00     0.178 C 
BRANCH   8   9
HETATM    9  N2  UNL     1       2.648  -1.424  -1.055  1.00  0.00    -0.341 N 
HETATM   10  C5  UNL     1       3.802  -1.464  -0.398  1.00  0.00    -0.010 C 
ATOM     11  H2  UNL     1       2.379  -2.238  -1.608  1.00  0.00     0.167 HD
BRANCH  10  12
HETATM   12  C4  UNL     1       4.143  -0.295   0.369  1.00  0.00     0.062 C 
BRANCH  12  13
HETATM   13  C3  UNL     1       4.327  -0.381   1.840  1.00  0.00     0.117 C 
BRANCH  13  14
HETATM   14  C2  UNL     1       5.443  -1.122   2.396  1.00  0.00     0.258 C 
HETATM   15  O2  UNL     1       6.397  -1.540   1.746  1.00  0.00    -0.265 OA
BRANCH  14  16
HETATM   16  O1  UNL     1       5.480  -1.412   3.784  1.00  0.00    -0.326 OA
HETATM   17  C1  UNL     1       6.569  -2.135   4.326  1.00  0.00     0.213 C 
ENDBRANCH  14  16
ENDBRANCH  13  14
ENDBRANCH  12  13
ENDBRANCH  10  12
BRANCH  10  18
HETATM   18  C6  UNL     1       4.535  -2.715  -0.639  1.00  0.00     0.061 C 
BRANCH  18  19
HETATM   19  C7  UNL     1       5.773  -2.563  -1.495  1.00  0.00     0.105 C 
BRANCH  19  20
HETATM   20  C8  UNL     1       6.445  -3.869  -1.694  1.00  0.00     0.231 C 
HETATM   21  N1  UNL     1       7.623  -4.034  -2.442  1.00  0.00    -0.062 NA
HETATM   22  O3  UNL     1       5.938  -4.889  -1.167  1.00  0.00    -0.277 OA
ENDBRANCH  19  20
ENDBRANCH  18  19
ENDBRANCH  10  18
ENDBRANCH   8   9
BRANCH   8  23
HETATM   23  N7  UNL     1       1.949   0.626  -1.772  1.00  0.00    -0.355 NA
HETATM   24  C28 UNL     1       2.168   1.635  -2.592  1.00  0.00     0.289 C 
HETATM   25  C29 UNL     1       1.435   1.765  -3.905  1.00  0.00     0.135 C 
HETATM   26  O6  UNL     1       2.997   2.576  -2.361  1.00  0.00    -0.258 OA
ENDBRANCH   8  23
ENDBRANCH   7   8
ENDBRANCH   1   7
BRANCH   1  27
HETATM   27  C11 UNL     1       0.025   1.873   0.530  1.00  0.00     0.191 C 
BRANCH  27  28
HETATM   28  C12 UNL     1      -0.977   2.937   0.617  1.00  0.00     0.300 C 
HETATM   29  O4  UNL     1      -2.176   2.726   0.409  1.00  0.00    -0.259 OA
BRANCH  28  30
HETATM   30  O5  UNL     1      -0.643   4.261   0.939  1.00  0.00    -0.307 OA
BRANCH  30  31
HETATM   31  C13 UNL     1      -1.622   5.277   1.014  1.00  0.00     0.060 C 
HETATM   32  C14 UNL     1      -2.685   5.013   2.032  1.00  0.00     0.046 C 
HETATM   33  C15 UNL     1      -0.916   6.562   1.397  1.00  0.00     0.046 C 
HETATM   34  C16 UNL     1      -2.302   5.538  -0.312  1.00  0.00     0.046 C 
ENDBRANCH  30  31
ENDBRANCH  28  30
ENDBRANCH  27  28
ENDBRANCH   1  27
BRANCH   3  35
HETATM   35  C18 UNL     1      -3.048   0.632  -2.630  1.00  0.00     0.036 C 
HETATM   36  C19 UNL     1      -4.293   1.247  -2.055  1.00  0.00     0.038 C 
HETATM   37  C20 UNL     1      -2.830   1.287  -4.007  1.00  0.00     0.038 C 
HETATM   38  C21 UNL     1      -3.381  -0.819  -2.943  1.00  0.00     0.038 C 
ENDBRANCH   3  35
BRANCH   5  39
HETATM   39  C22 UNL     1      -3.106  -0.727   1.034  1.00  0.00     0.142 C 
BRANCH  39  40
HETATM   40  C23 UNL     1      -3.771  -2.069   1.275  1.00  0.00     0.007 C 
HETATM   41  C24 UNL     1      -4.611  -2.019   2.546  1.00  0.00     0.034 C 
HETATM   42  C25 UNL     1      -5.093  -3.414   2.908  1.00  0.00     0.232 C 
HETATM   43  N6  UNL     1      -4.941  -4.333   1.802  1.00  0.00    -0.075 N 
HETATM   44  C26 UNL     1      -3.565  -4.476   1.410  1.00  0.00     0.232 C 
ATOM     45  H62 UNL     1      -5.363  -5.238   2.011  1.00  0.00     0.277 HD
ATOM     46  H61 UNL     1      -5.526  -4.062   1.011  1.00  0.00     0.277 HD
HETATM   47  C27 UNL     1      -2.789  -3.183   1.442  1.00  0.00     0.034 C 
ENDBRANCH  39  40
ENDBRANCH   5  39
TORSDOF 18
