REMARK  14 active torsions:
REMARK  status: ('A' for Active; 'I' for Inactive)
REMARK    1  A    between atoms: C2_2  and  C4_4 
REMARK    2  A    between atoms: C4_4  and  C5_5 
REMARK    3  A    between atoms: C5_5  and  N1_6 
REMARK    4  A    between atoms: C5_5  and  C11_15 
REMARK       I    between atoms: N1_6  and  C6_8 
REMARK    5  A    between atoms: C6_8  and  O2_10 
REMARK    6  A    between atoms: O2_10  and  C7_11 
REMARK       I    between atoms: C11_15  and  N2_17 
REMARK    7  A    between atoms: N2_17  and  C12_19 
REMARK    8  A    between atoms: C12_19  and  C13_20 
REMARK    9  A    between atoms: C12_19  and  C17_24 
REMARK   10  A    between atoms: C13_20  and  C14_21 
REMARK   11  A    between atoms: C17_24  and  C18_26 
REMARK       I    between atoms: N3_31  and  C21_32 
REMARK   12  A    between atoms: C21_32  and  C22_34 
REMARK   13  A    between atoms: C22_34  and  N4_35 
REMARK   14  A    between atoms: C22_34  and  C26_42 
REMARK       I    between atoms: N4_35  and  C23_37 
REMARK       I    between atoms: C23_37  and  N5_39 
ROOT
HETATM    1  C12 UNL     1       0.077  -0.655  -0.672  1.00  0.00     0.157 C 
ENDROOT
BRANCH   1   2
HETATM    2  N2  UNL     1       1.513  -0.621  -0.769  1.00  0.00    -0.348 N 
HETATM    3  C11 UNL     1       2.472   0.164  -0.188  1.00  0.00     0.241 C 
HETATM    4  O3  UNL     1       2.187   1.055   0.643  1.00  0.00    -0.271 OA
ATOM      5  H2  UNL     1       1.894  -1.326  -1.400  1.00  0.00     0.163 HD
BRANCH   3   6
HETATM    6  C5  UNL     1       3.925  -0.004  -0.515  1.00  0.00     0.179 C 
BRANCH   6   7
HETATM    7  C4  UNL     1       4.180   0.686  -1.830  1.00  0.00     0.038 C 
BRANCH   7   8
HETATM    8  C2  UNL     1       3.656   0.088  -3.060  1.00  0.00    -0.020 C 
HETATM    9  C1  UNL     1       4.180  -1.292  -3.388  1.00  0.00     0.009 C 
HETATM   10  C3  UNL     1       4.026   0.958  -4.284  1.00  0.00     0.009 C 
ENDBRANCH   7   8
ENDBRANCH   6   7
BRANCH   6  11
HETATM   11  N1  UNL     1       4.620   0.828   0.498  1.00  0.00    -0.324 N 
HETATM   12  C6  UNL     1       5.587   0.254   1.341  1.00  0.00     0.362 C 
HETATM   13  O1  UNL     1       5.864  -0.995   1.231  1.00  0.00    -0.238 OA
ATOM     14  H1  UNL     1       4.395   1.819   0.583  1.00  0.00     0.165 HD
BRANCH  12  15
HETATM   15  O2  UNL     1       6.284   0.931   2.303  1.00  0.00    -0.294 OA
BRANCH  15  16
HETATM   16  C7  UNL     1       7.253   0.414   3.167  1.00  0.00     0.061 C 
HETATM   17  C8  UNL     1       7.799   1.485   4.091  1.00  0.00     0.046 C 
HETATM   18  C9  UNL     1       6.685  -0.678   4.065  1.00  0.00     0.046 C 
HETATM   19  C10 UNL     1       8.401  -0.119   2.343  1.00  0.00     0.046 C 
ENDBRANCH  15  16
ENDBRANCH  12  15
ENDBRANCH   6  11
ENDBRANCH   3   6
ENDBRANCH   1   2
BRANCH   1  20
HETATM   20  C13 UNL     1      -0.532   0.625  -0.112  1.00  0.00     0.037 C 
BRANCH  20  21
HETATM   21  C14 UNL     1      -0.322   1.831  -0.960  1.00  0.00    -0.020 C 
HETATM   22  C15 UNL     1      -0.989   2.997  -0.215  1.00  0.00     0.009 C 
HETATM   23  C16 UNL     1      -1.156   1.697  -2.271  1.00  0.00     0.009 C 
ENDBRANCH  20  21
ENDBRANCH   1  20
BRANCH   1  24
HETATM   24  C17 UNL     1      -0.361  -1.797   0.106  1.00  0.00     0.180 C 
HETATM   25  O4  UNL     1       0.554  -2.421   0.703  1.00  0.00    -0.293 OA
BRANCH  24  26
HETATM   26  C18 UNL     1      -1.702  -2.348   0.314  1.00  0.00     0.241 C 
HETATM   27  C19 UNL     1      -1.570  -3.821   0.623  1.00  0.00     0.217 C 
HETATM   28  O5  UNL     1      -1.306  -4.369   1.655  1.00  0.00    -0.283 OA
HETATM   29  S1  UNL     1      -1.916  -4.579  -0.992  1.00  0.00    -0.070 SA
HETATM   30  C20 UNL     1      -2.199  -2.995  -1.899  1.00  0.00     0.209 C 
HETATM   31  N3  UNL     1      -2.651  -2.202  -0.735  1.00  0.00    -0.322 N 
HETATM   32  C21 UNL     1      -3.879  -1.495  -0.776  1.00  0.00     0.244 C 
HETATM   33  O6  UNL     1      -4.533  -1.473  -1.881  1.00  0.00    -0.271 OA
BRANCH  32  34
HETATM   34  C22 UNL     1      -4.493  -0.767   0.352  1.00  0.00     0.181 C 
BRANCH  34  35
HETATM   35  N4  UNL     1      -5.678  -0.040  -0.098  1.00  0.00    -0.329 N 
HETATM   36  C23 UNL     1      -5.848   1.337   0.071  1.00  0.00     0.318 C 
HETATM   37  O7  UNL     1      -4.975   2.045   0.632  1.00  0.00    -0.247 OA
HETATM   38  N5  UNL     1      -7.024   1.976  -0.393  1.00  0.00    -0.343 N 
HETATM   39  C24 UNL     1      -8.102   1.274  -1.064  1.00  0.00     0.154 C 
HETATM   40  C25 UNL     1      -7.212   3.420  -0.209  1.00  0.00     0.154 C 
ATOM     41  H4  UNL     1      -6.420  -0.565  -0.560  1.00  0.00     0.165 HD
ENDBRANCH  34  35
BRANCH  34  42
HETATM   42  C26 UNL     1      -4.998  -1.680   1.453  1.00  0.00     0.009 C 
HETATM   43  C27 UNL     1      -6.063  -2.636   0.900  1.00  0.00     0.012 C 
HETATM   44  C28 UNL     1      -5.630  -0.768   2.506  1.00  0.00     0.012 C 
ENDBRANCH  34  42
ENDBRANCH  32  34
ENDBRANCH  24  26
ENDBRANCH   1  24
TORSDOF 14
