REMARK  16 active torsions:
REMARK  status: ('A' for Active; 'I' for Inactive)
REMARK    1  A    between atoms: O1_2  and  C2_3 
REMARK    2  A    between atoms: C4_5  and  C5_6 
REMARK    3  A    between atoms: C5_6  and  C6_7 
REMARK    4  A    between atoms: C5_6  and  O7_27 
REMARK    5  A    between atoms: C5_6  and  C14_31 
REMARK    6  A    between atoms: C6_7  and  N1_8 
REMARK    7  A    between atoms: C9_14  and  N3_15 
REMARK    8  A    between atoms: N4_22  and  S2_23 
REMARK    9  A    between atoms: O7_27  and  C12_28 
REMARK       I    between atoms: C14_31  and  N5_33 
REMARK   10  A    between atoms: N5_33  and  C15_35 
REMARK   11  A    between atoms: C15_35  and  C16_36 
REMARK   12  A    between atoms: C16_36  and  S3_37 
REMARK   13  A    between atoms: S3_37  and  N6_40 
REMARK   14  A    between atoms: N6_40  and  N7_42 
REMARK   15  A    between atoms: C18_46  and  O12_47 
REMARK   16  A    between atoms: C20_49  and  O13_50 
ROOT
HETATM    1  C5  UNL     1      -0.178  -0.286  -0.788  1.00  0.00     0.212 C 
ENDROOT
BRANCH   1   2
HETATM    2  C4  UNL     1      -1.387  -0.989  -0.428  1.00  0.00    -0.003 A 
HETATM    3  C3  UNL     1      -1.949  -2.116  -0.951  1.00  0.00     0.050 A 
HETATM    4  C2  UNL     1      -3.139  -2.679  -0.528  1.00  0.00     0.104 A 
HETATM    5  C20 UNL     1      -3.830  -2.086   0.495  1.00  0.00     0.133 A 
HETATM    6  C18 UNL     1      -3.326  -0.946   1.077  1.00  0.00     0.104 A 
HETATM    7  C17 UNL     1      -2.137  -0.415   0.624  1.00  0.00     0.050 A 
BRANCH   4   8
HETATM    8  O1  UNL     1      -3.637  -3.848  -1.142  1.00  0.00    -0.353 OA
HETATM    9  C1  UNL     1      -2.917  -4.442  -2.197  1.00  0.00     0.210 C 
ENDBRANCH   4   8
BRANCH   5  10
HETATM   10  O13 UNL     1      -5.025  -2.645   0.927  1.00  0.00    -0.356 OA
ATOM     11  H13 UNL     1      -5.504  -2.234   1.637  1.00  0.00     0.218 HD
ENDBRANCH   5  10
BRANCH   6  12
HETATM   12  O12 UNL     1      -4.035  -0.363   2.109  1.00  0.00    -0.353 OA
HETATM   13  C19 UNL     1      -3.682   0.788   2.814  1.00  0.00     0.210 C 
ENDBRANCH   6  12
ENDBRANCH   1   2
BRANCH   1  14
HETATM   14  C6  UNL     1      -0.186   1.110  -1.250  1.00  0.00     0.148 C 
BRANCH  14  15
HETATM   15  N1  UNL     1      -0.666   2.261  -0.599  1.00  0.00    -0.209 N 
HETATM   16  C7  UNL     1       0.124   2.839   0.326  1.00  0.00     0.295 A 
HETATM   17  O2  UNL     1       1.281   2.366   0.616  1.00  0.00    -0.264 OA
HETATM   18  C8  UNL     1      -0.238   3.995   1.031  1.00  0.00     0.128 A 
HETATM   19  N2  UNL     1       0.438   4.654   1.959  1.00  0.00    -0.331 N 
HETATM   20  C10 UNL     1      -1.464   4.486   0.690  1.00  0.00     0.111 A 
HETATM   21  C9  UNL     1      -0.104   5.739   2.500  1.00  0.00     0.143 A 
ATOM     22  H2  UNL     1       1.360   4.334   2.254  1.00  0.00     0.168 HD
HETATM   23  S1  UNL     1      -1.606   5.871   1.708  1.00  0.00    -0.046 SA
HETATM   24  C11 UNL     1      -2.251   3.881  -0.265  1.00  0.00     0.298 A 
HETATM   25  O3  UNL     1      -3.355   4.437  -0.483  1.00  0.00    -0.264 OA
HETATM   26  N4  UNL     1      -1.862   2.748  -0.937  1.00  0.00    -0.113 N 
BRANCH  21  27
HETATM   27  N3  UNL     1       0.424   6.512   3.430  1.00  0.00    -0.380 N 
ATOM     28  H32 UNL     1       1.324   6.433   3.904  1.00  0.00     0.158 HD
ATOM     29  H31 UNL     1       0.008   7.345   3.846  1.00  0.00     0.158 HD
ENDBRANCH  21  27
BRANCH  26  30
HETATM   30  S2  UNL     1      -2.872   2.272  -2.213  1.00  0.00     0.234 S 
HETATM   31  O4  UNL     1      -2.142   2.547  -3.569  1.00  0.00    -0.576 OA
HETATM   32  O5  UNL     1      -4.036   3.272  -2.329  1.00  0.00    -0.576 OA
HETATM   33  O6  UNL     1      -3.502   0.802  -2.324  1.00  0.00    -0.576 OA
ENDBRANCH  26  30
ENDBRANCH  14  15
ENDBRANCH   1  14
BRANCH   1  34
HETATM   34  O7  UNL     1       0.544  -0.964  -1.820  1.00  0.00    -0.290 OA
BRANCH  34  35
HETATM   35  C12 UNL     1       0.202  -1.204  -3.075  1.00  0.00     0.256 C 
HETATM   36  C13 UNL     1       1.133  -1.967  -3.982  1.00  0.00     0.126 C 
HETATM   37  O8  UNL     1      -0.856  -0.837  -3.567  1.00  0.00    -0.266 OA
ENDBRANCH  34  35
ENDBRANCH   1  34
BRANCH   1  38
HETATM   38  C14 UNL     1       0.731  -0.553   0.412  1.00  0.00     0.263 C 
HETATM   39  O9  UNL     1       0.295  -0.393   1.561  1.00  0.00    -0.269 OA
HETATM   40  N5  UNL     1       2.074  -0.983   0.267  1.00  0.00    -0.357 N 
ATOM     41  H5  UNL     1       2.431  -1.120  -0.679  1.00  0.00     0.162 HD
BRANCH  40  42
HETATM   42  C15 UNL     1       2.959  -1.237   1.355  1.00  0.00     0.139 C 
BRANCH  42  43
HETATM   43  C16 UNL     1       4.308  -1.674   0.822  1.00  0.00     0.184 C 
BRANCH  43  44
HETATM   44  S3  UNL     1       5.447  -1.985   2.153  1.00  0.00     0.244 S 
HETATM   45  O10 UNL     1       4.957  -3.070   3.061  1.00  0.00    -0.204 OA
HETATM   46  O11 UNL     1       5.591  -0.730   2.999  1.00  0.00    -0.204 OA
BRANCH  44  47
HETATM   47  N6  UNL     1       6.973  -2.479   1.516  1.00  0.00    -0.234 N 
ATOM     48  H6  UNL     1       7.267  -3.437   1.324  1.00  0.00     0.199 HD
BRANCH  47  49
HETATM   49  N7  UNL     1       7.742  -1.308   1.309  1.00  0.00    -0.336 N 
ATOM     50  H72 UNL     1       7.436  -0.355   1.505  1.00  0.00     0.177 HD
ATOM     51  H71 UNL     1       8.644  -1.600   0.933  1.00  0.00     0.177 HD
ENDBRANCH  47  49
ENDBRANCH  44  47
ENDBRANCH  43  44
ENDBRANCH  42  43
ENDBRANCH  40  42
ENDBRANCH   1  38
TORSDOF 16
