REMARK  17 active torsions:
REMARK  status: ('A' for Active; 'I' for Inactive)
REMARK    1  A    between atoms: C2_2  and  O1_3 
REMARK    2  A    between atoms: O1_3  and  C3_4 
REMARK    3  A    between atoms: C3_4  and  C4_6 
REMARK    4  A    between atoms: C8_17  and  C9_18 
REMARK    5  A    between atoms: C9_18  and  O5_20 
REMARK    6  A    between atoms: O5_20  and  C10_21 
REMARK    7  A    between atoms: C10_21  and  C11_22 
REMARK    8  A    between atoms: C11_22  and  O6_23 
REMARK    9  A    between atoms: C11_22  and  C12_25 
REMARK   10  A    between atoms: C12_25  and  N5_26 
REMARK   11  A    between atoms: N5_26  and  O7_28 
REMARK   12  A    between atoms: C16_32  and  O9_33 
REMARK   13  A    between atoms: C17_37  and  C18_38 
REMARK   14  A    between atoms: C18_38  and  O10_40 
REMARK   15  A    between atoms: C21_44  and  O11_45 
REMARK   16  A    between atoms: C23_48  and  C24_49 
REMARK   17  A    between atoms: C24_49  and  S1_50 
ROOT
HETATM    1  C4  UNL     1      -4.438  -0.412  -0.465  1.00  0.00     0.215 C 
HETATM    2  N1  UNL     1      -3.792  -1.470  -1.012  1.00  0.00    -0.365 NA
HETATM    3  C5  UNL     1      -3.219  -2.398  -1.500  1.00  0.00     0.264 C 
HETATM    4  N2  UNL     1      -3.279  -3.770  -0.936  1.00  0.00    -0.049 NA
HETATM    5  N3  UNL     1      -2.388  -2.400  -2.688  1.00  0.00    -0.344 N 
ATOM      6  H3  UNL     1      -2.633  -3.058  -3.428  1.00  0.00     0.163 HD
HETATM    7  C6  UNL     1      -1.241  -1.548  -2.913  1.00  0.00     0.226 C 
HETATM    8  C7  UNL     1       0.024  -2.219  -2.536  1.00  0.00     0.236 C 
HETATM    9  O3  UNL     1       0.332  -3.245  -3.233  1.00  0.00    -0.272 OA
HETATM   10  N4  UNL     1       0.910  -1.859  -1.508  1.00  0.00    -0.339 N 
ATOM     11  H4  UNL     1       1.078  -2.570  -0.796  1.00  0.00     0.163 HD
HETATM   12  C8  UNL     1       1.611  -0.614  -1.331  1.00  0.00     0.263 C 
HETATM   13  C15 UNL     1       1.569  -0.058   0.035  1.00  0.00     0.231 C 
HETATM   14  O8  UNL     1       2.472   0.813   0.304  1.00  0.00    -0.286 OA
HETATM   15  C16 UNL     1       0.637  -0.377   1.100  1.00  0.00     0.187 C 
HETATM   16  N6  UNL     1      -0.755  -0.467   1.042  1.00  0.00    -0.344 N 
ATOM     17  H6  UNL     1      -1.104  -1.397   1.274  1.00  0.00     0.163 HD
HETATM   18  C17 UNL     1      -1.789   0.450   0.732  1.00  0.00     0.223 C 
HETATM   19  N7  UNL     1      -2.978   0.156   1.520  1.00  0.00    -0.284 N 
HETATM   20  C20 UNL     1      -4.181  -0.205   0.985  1.00  0.00     0.120 A 
HETATM   21  C21 UNL     1      -5.214  -0.441   1.913  1.00  0.00     0.097 A 
HETATM   22  C22 UNL     1      -5.073  -0.332   3.274  1.00  0.00     0.052 A 
HETATM   23  C23 UNL     1      -3.867   0.025   3.765  1.00  0.00     0.022 A 
HETATM   24  C26 UNL     1      -2.846   0.259   2.868  1.00  0.00     0.257 A 
HETATM   25  O12 UNL     1      -1.741   0.583   3.425  1.00  0.00    -0.267 OA
ENDROOT
BRANCH  12  26
HETATM   26  C9  UNL     1       3.085  -0.900  -1.575  1.00  0.00     0.289 C 
HETATM   27  O4  UNL     1       3.474  -2.029  -1.961  1.00  0.00    -0.262 OA
BRANCH  26  28
HETATM   28  O5  UNL     1       4.037   0.078  -1.375  1.00  0.00    -0.317 OA
BRANCH  28  29
HETATM   29  C10 UNL     1       5.413  -0.058  -1.555  1.00  0.00     0.211 C 
BRANCH  29  30
HETATM   30  C11 UNL     1       6.033   1.277  -1.158  1.00  0.00     0.157 C 
BRANCH  30  31
HETATM   31  O6  UNL     1       5.556   2.287  -1.972  1.00  0.00    -0.392 OA
ATOM     32  H6  UNL     1       5.942   3.119  -1.725  1.00  0.00     0.210 HD
ENDBRANCH  30  31
BRANCH  30  33
HETATM   33  C12 UNL     1       7.532   1.232  -1.141  1.00  0.00     0.154 C 
BRANCH  33  34
HETATM   34  N5  UNL     1       7.984   0.152  -0.285  1.00  0.00    -0.199 NA
HETATM   35  C13 UNL     1       7.705   0.364   1.108  1.00  0.00     0.143 C 
BRANCH  34  36
HETATM   36  O7  UNL     1       9.296  -0.051  -0.470  1.00  0.00    -0.309 OA
HETATM   37  C14 UNL     1       9.504  -1.197  -1.247  1.00  0.00     0.229 C 
ENDBRANCH  34  36
ENDBRANCH  33  34
ENDBRANCH  30  33
ENDBRANCH  29  30
ENDBRANCH  28  29
ENDBRANCH  26  28
ENDBRANCH  12  26
BRANCH  15  38
HETATM   38  O9  UNL     1       1.136  -0.620   2.289  1.00  0.00    -0.344 OA
ATOM     39  H9  UNL     1       0.526  -0.829   2.986  1.00  0.00     0.219 HD
ENDBRANCH  15  38
BRANCH  18  40
HETATM   40  C18 UNL     1      -1.519   1.896   0.687  1.00  0.00     0.157 C 
HETATM   41  C19 UNL     1      -0.713   2.386  -0.503  1.00  0.00     0.043 C 
BRANCH  40  42
HETATM   42  O10 UNL     1      -0.996   2.474   1.826  1.00  0.00    -0.392 OA
ATOM     43  H10 UNL     1      -0.822   3.407   1.797  1.00  0.00     0.210 HD
ENDBRANCH  40  42
ENDBRANCH  18  40
BRANCH   1  44
HETATM   44  C3  UNL     1      -4.551   0.855  -1.249  1.00  0.00     0.326 C 
HETATM   45  O2  UNL     1      -5.035   1.854  -0.679  1.00  0.00    -0.256 OA
BRANCH  44  46
HETATM   46  O1  UNL     1      -4.153   0.931  -2.549  1.00  0.00    -0.316 OA
BRANCH  46  47
HETATM   47  C2  UNL     1      -4.243   2.045  -3.393  1.00  0.00     0.175 C 
HETATM   48  C1  UNL     1      -3.538   3.272  -2.946  1.00  0.00     0.034 C 
ENDBRANCH  46  47
ENDBRANCH  44  46
ENDBRANCH   1  44
BRANCH  21  49
HETATM   49  O11 UNL     1      -6.480  -0.815   1.422  1.00  0.00    -0.358 OA
ATOM     50  H11 UNL     1      -7.177  -0.974   2.048  1.00  0.00     0.217 HD
ENDBRANCH  21  49
BRANCH  23  51
HETATM   51  C24 UNL     1      -3.576   0.193   5.220  1.00  0.00     0.117 C 
BRANCH  51  52
HETATM   52  S1  UNL     1      -4.987  -0.164   6.256  1.00  0.00    -0.169 SA
HETATM   53  C25 UNL     1      -5.332  -1.964   6.122  1.00  0.00     0.090 C 
ENDBRANCH  51  52
ENDBRANCH  23  51
TORSDOF 17
