REMARK  14 active torsions:
REMARK  status: ('A' for Active; 'I' for Inactive)
REMARK    1  A    between atoms: O1_2  and  C2_3 
REMARK    2  A    between atoms: C3_4  and  O2_5 
REMARK    3  A    between atoms: O2_5  and  C4_6 
REMARK    4  A    between atoms: C6_9  and  O3_11 
REMARK    5  A    between atoms: C8_13  and  O4_14 
REMARK    6  A    between atoms: C9_16  and  O5_17 
REMARK    7  A    between atoms: C10_19  and  O6_20 
REMARK    8  A    between atoms: O6_20  and  S2_21 
REMARK    9  A    between atoms: C11_25  and  O10_26 
REMARK   10  A    between atoms: O10_26  and  S3_27 
REMARK   11  A    between atoms: C12_31  and  O14_32 
REMARK   12  A    between atoms: O14_32  and  S4_33 
REMARK   13  A    between atoms: C13_37  and  O18_38 
REMARK   14  A    between atoms: O18_38  and  S5_39 
ROOT
HETATM    1  C2  UNL     1      -0.873  -1.059  -0.746  1.00  0.00     0.185 C 
HETATM    2  C3  UNL     1      -0.190   0.179  -0.239  1.00  0.00     0.187 C 
HETATM    3  C10 UNL     1      -0.925   0.864   0.876  1.00  0.00     0.209 C 
HETATM    4  C11 UNL     1      -2.379   1.121   0.553  1.00  0.00     0.211 C 
HETATM    5  C12 UNL     1      -2.808   0.417  -0.714  1.00  0.00     0.211 C 
HETATM    6  C13 UNL     1      -2.376  -1.023  -0.544  1.00  0.00     0.209 C 
ENDROOT
BRANCH   2   7
HETATM    7  O2  UNL     1       1.054  -0.189   0.218  1.00  0.00    -0.362 OA
BRANCH   7   8
HETATM    8  C4  UNL     1       2.106   0.447  -0.424  1.00  0.00     0.214 C 
HETATM    9  S1  UNL     1       2.968   1.387   0.876  1.00  0.00    -0.132 SA
HETATM   10  C5  UNL     1       4.049   0.149   1.698  1.00  0.00     0.116 C 
HETATM   11  C6  UNL     1       5.074  -0.225   0.619  1.00  0.00     0.091 C 
HETATM   12  C7  UNL     1       6.211   0.792   0.796  1.00  0.00     0.049 C 
HETATM   13  C8  UNL     1       4.543  -0.035  -0.764  1.00  0.00     0.184 C 
HETATM   14  C9  UNL     1       3.131  -0.526  -0.970  1.00  0.00     0.188 C 
BRANCH  11  15
HETATM   15  O3  UNL     1       5.629  -1.467   0.849  1.00  0.00    -0.387 OA
ATOM     16  H3  UNL     1       6.264  -1.699   0.181  1.00  0.00     0.210 HD
ENDBRANCH  11  15
BRANCH  13  17
HETATM   17  O4  UNL     1       5.358  -0.774  -1.635  1.00  0.00    -0.390 OA
ATOM     18  H4  UNL     1       5.020  -0.653  -2.515  1.00  0.00     0.210 HD
ENDBRANCH  13  17
BRANCH  14  19
HETATM   19  O5  UNL     1       2.942  -0.549  -2.372  1.00  0.00    -0.389 OA
ATOM     20  H5  UNL     1       3.585  -1.159  -2.714  1.00  0.00     0.210 HD
ENDBRANCH  14  19
ENDBRANCH   7   8
ENDBRANCH   2   7
BRANCH   1  21
HETATM   21  O1  UNL     1      -0.322  -2.246  -0.280  1.00  0.00    -0.385 OA
HETATM   22  C1  UNL     1       0.176  -3.061  -1.268  1.00  0.00     0.202 C 
ENDBRANCH   1  21
BRANCH   3  23
HETATM   23  O6  UNL     1      -0.823   0.134   2.058  1.00  0.00    -0.246 OA
BRANCH  23  24
HETATM   24  S2  UNL     1      -0.195   0.977   3.336  1.00  0.00     0.252 S 
HETATM   25  O7  UNL     1       1.064   0.339   3.857  1.00  0.00    -0.572 OA
HETATM   26  O8  UNL     1       0.135   2.409   3.007  1.00  0.00    -0.572 OA
HETATM   27  O9  UNL     1      -1.301   0.987   4.629  1.00  0.00    -0.572 OA
ENDBRANCH  23  24
ENDBRANCH   3  23
BRANCH   6  28
HETATM   28  O18 UNL     1      -2.983  -1.762  -1.536  1.00  0.00    -0.246 OA
BRANCH  28  29
HETATM   29  S5  UNL     1      -4.023  -2.925  -0.946  1.00  0.00     0.252 S 
HETATM   30  O19 UNL     1      -3.741  -4.208  -1.670  1.00  0.00    -0.572 OA
HETATM   31  O20 UNL     1      -5.441  -2.506  -1.294  1.00  0.00    -0.572 OA
HETATM   32  O21 UNL     1      -3.952  -3.087   0.705  1.00  0.00    -0.572 OA
ENDBRANCH  28  29
ENDBRANCH   6  28
BRANCH   4  33
HETATM   33  O10 UNL     1      -2.677   2.479   0.490  1.00  0.00    -0.246 OA
BRANCH  33  34
HETATM   34  S3  UNL     1      -3.804   2.933   1.645  1.00  0.00     0.252 S 
HETATM   35  O11 UNL     1      -5.049   3.398   0.957  1.00  0.00    -0.572 OA
HETATM   36  O12 UNL     1      -3.229   4.017   2.529  1.00  0.00    -0.572 OA
HETATM   37  O13 UNL     1      -4.229   1.657   2.651  1.00  0.00    -0.572 OA
ENDBRANCH  33  34
ENDBRANCH   4  33
BRANCH   5  38
HETATM   38  O14 UNL     1      -2.350   1.002  -1.863  1.00  0.00    -0.246 OA
BRANCH  38  39
HETATM   39  S4  UNL     1      -3.571   1.529  -2.878  1.00  0.00     0.252 S 
HETATM   40  O15 UNL     1      -3.558   0.790  -4.197  1.00  0.00    -0.572 OA
HETATM   41  O16 UNL     1      -4.927   1.312  -2.259  1.00  0.00    -0.572 OA
HETATM   42  O17 UNL     1      -3.429   3.163  -3.230  1.00  0.00    -0.572 OA
ENDBRANCH  38  39
ENDBRANCH   5  38
TORSDOF 14
