REMARK  16 active torsions:
REMARK  status: ('A' for Active; 'I' for Inactive)
REMARK    1  A    between atoms: N1_1  and  C1_4 
REMARK    2  A    between atoms: C2_9  and  N4_10 
REMARK    3  A    between atoms: N5_12  and  C3_14 
REMARK    4  A    between atoms: C5_18  and  O1_19 
REMARK    5  A    between atoms: O1_19  and  C6_20 
REMARK    6  A    between atoms: C6_20  and  C7_21 
REMARK    7  A    between atoms: C7_21  and  O2_22 
REMARK    8  A    between atoms: C7_21  and  C8_24 
REMARK    9  A    between atoms: C8_24  and  O3_25 
REMARK   10  A    between atoms: C8_24  and  C9_27 
REMARK   11  A    between atoms: C9_27  and  O5_29 
REMARK   12  A    between atoms: O5_29  and  C10_30 
REMARK   13  A    between atoms: C11_32  and  C12_33 
REMARK       I    between atoms: C12_33  and  N7_35 
REMARK   14  A    between atoms: N8_38  and  S1_39 
REMARK   15  A    between atoms: N9_45  and  O11_47 
REMARK   16  A    between atoms: C18_50  and  N10_51 
ROOT
HETATM    1  C8  UNL     1       1.842  -2.160   1.846  1.00  0.00     0.248 C 
ENDROOT
BRANCH   1   2
HETATM    2  C7  UNL     1       2.576  -1.209   0.908  1.00  0.00     0.181 C 
BRANCH   2   3
HETATM    3  C6  UNL     1       2.352  -1.605  -0.531  1.00  0.00     0.212 C 
BRANCH   3   4
HETATM    4  O1  UNL     1       2.980  -0.779  -1.463  1.00  0.00    -0.329 OA
BRANCH   4   5
HETATM    5  C5  UNL     1       4.322  -0.530  -1.595  1.00  0.00     0.212 A 
HETATM    6  N6  UNL     1       5.297  -1.049  -0.835  1.00  0.00    -0.339 N 
HETATM    7  C4  UNL     1       6.590  -0.750  -1.038  1.00  0.00     0.140 A 
ATOM      8  H6  UNL     1       5.049  -1.689  -0.081  1.00  0.00     0.167 HD
HETATM    9  C3  UNL     1       6.997   0.121  -2.058  1.00  0.00     0.138 A 
HETATM   10  N11 UNL     1       5.999   0.645  -2.827  1.00  0.00    -0.304 N 
HETATM   11  C19 UNL     1       4.708   0.344  -2.619  1.00  0.00     0.298 A 
ATOM     12  H11 UNL     1       6.242   1.285  -3.583  1.00  0.00     0.171 HD
HETATM   13  O12 UNL     1       3.810   0.853  -3.359  1.00  0.00    -0.263 OA
BRANCH   9  14
HETATM   14  N5  UNL     1       8.308   0.398  -2.246  1.00  0.00    -0.282 N 
HETATM   15  N4  UNL     1       9.285   0.913  -1.830  1.00  0.00    -0.277 N 
ATOM     16  H4  UNL     1      10.110   0.821  -2.423  1.00  0.00     0.189 HD
ATOM     17  H5  UNL     1       8.564  -0.023  -3.139  1.00  0.00     0.188 HD
BRANCH  15  18
HETATM   18  C2  UNL     1       9.488   1.654  -0.607  1.00  0.00     0.181 A 
HETATM   19  N3  UNL     1       9.615   1.198   0.628  1.00  0.00    -0.277 N 
HETATM   20  N2  UNL     1       9.795   1.997   1.595  1.00  0.00    -0.278 N 
ATOM     21  H3  UNL     1       9.568   0.194   0.804  1.00  0.00     0.189 HD
HETATM   22  C1  UNL     1       9.853   3.308   1.339  1.00  0.00     0.160 A 
ATOM     23  H2  UNL     1       9.894   1.647   2.548  1.00  0.00     0.189 HD
HETATM   24  S2  UNL     1       9.637   3.340  -0.360  1.00  0.00    -0.014 SA
BRANCH  22  25
HETATM   25  N1  UNL     1      10.032   4.280   2.207  1.00  0.00    -0.378 N 
ATOM     26  H12 UNL     1      10.161   4.261   3.219  1.00  0.00     0.158 HD
ATOM     27  H11 UNL     1      10.076   5.280   2.012  1.00  0.00     0.158 HD
ENDBRANCH  22  25
ENDBRANCH  15  18
ENDBRANCH   9  14
ENDBRANCH   4   5
ENDBRANCH   3   4
ENDBRANCH   2   3
BRANCH   2  28
HETATM   28  O2  UNL     1       2.089   0.077   1.108  1.00  0.00    -0.390 OA
ATOM     29  H2  UNL     1       2.230   0.326   2.014  1.00  0.00     0.210 HD
ENDBRANCH   2  28
ENDBRANCH   1   2
BRANCH   1  30
HETATM   30  O3  UNL     1       2.313  -3.458   1.658  1.00  0.00    -0.383 OA
ATOM     31  H3  UNL     1       1.855  -4.051   2.243  1.00  0.00     0.210 HD
ENDBRANCH   1  30
BRANCH   1  32
HETATM   32  C9  UNL     1       0.372  -2.084   1.625  1.00  0.00     0.292 C 
HETATM   33  O4  UNL     1      -0.320  -3.092   1.307  1.00  0.00    -0.262 OA
BRANCH  32  34
HETATM   34  O5  UNL     1      -0.310  -0.894   1.761  1.00  0.00    -0.285 OA
BRANCH  34  35
HETATM   35  C10 UNL     1      -1.729  -0.773   1.559  1.00  0.00     0.301 C 
HETATM   36  O6  UNL     1      -2.009   0.004   0.466  1.00  0.00    -0.338 OA
HETATM   37  C11 UNL     1      -3.415  -0.145   0.252  1.00  0.00     0.264 C 
HETATM   38  C16 UNL     1      -3.989   0.722   1.313  1.00  0.00     0.050 C 
HETATM   39  N9  UNL     1      -4.686   1.731   1.015  1.00  0.00    -0.274 N 
HETATM   40  C17 UNL     1      -3.690   0.361   2.697  1.00  0.00     0.095 C 
ATOM     41  H9  UNL     1      -4.862   1.960   0.037  1.00  0.00     0.193 HD
HETATM   42  C18 UNL     1      -2.415  -0.439   2.830  1.00  0.00     0.244 C 
BRANCH  37  43
HETATM   43  C12 UNL     1      -3.788   0.216  -1.111  1.00  0.00     0.255 C 
HETATM   44  O7  UNL     1      -2.860   0.709  -1.837  1.00  0.00    -0.270 OA
HETATM   45  N7  UNL     1      -5.090   0.029  -1.595  1.00  0.00    -0.335 N 
HETATM   46  C13 UNL     1      -6.224  -0.513  -0.894  1.00  0.00     0.142 C 
HETATM   47  C15 UNL     1      -5.537   0.336  -2.933  1.00  0.00     0.237 C 
HETATM   48  C14 UNL     1      -7.048  -1.188  -2.001  1.00  0.00     0.131 C 
HETATM   49  N8  UNL     1      -6.827  -0.299  -3.131  1.00  0.00    -0.173 NA
BRANCH  49  50
HETATM   50  S1  UNL     1      -8.091   0.873  -3.242  1.00  0.00     0.186 S 
HETATM   51  O8  UNL     1      -9.413   0.174  -3.335  1.00  0.00    -0.582 OA
HETATM   52  O9  UNL     1      -7.854   1.736  -4.432  1.00  0.00    -0.582 OA
HETATM   53  O10 UNL     1      -8.081   1.797  -1.845  1.00  0.00    -0.582 OA
ENDBRANCH  49  50
ENDBRANCH  37  43
BRANCH  39  54
HETATM   54  O11 UNL     1      -5.207   2.519   2.010  1.00  0.00    -0.290 OA
ATOM     55  H11 UNL     1      -5.732   3.279   1.786  1.00  0.00     0.244 HD
ENDBRANCH  39  54
BRANCH  42  56
HETATM   56  N10 UNL     1      -2.657  -1.669   3.610  1.00  0.00    -0.070 N 
ATOM     57 3H10 UNL     1      -3.168  -2.369   3.072  1.00  0.00     0.274 HD
ATOM     58 2H10 UNL     1      -1.799  -2.198   3.766  1.00  0.00     0.274 HD
ATOM     59 1H10 UNL     1      -3.129  -1.439   4.485  1.00  0.00     0.274 HD
ENDBRANCH  42  56
ENDBRANCH  34  35
ENDBRANCH  32  34
ENDBRANCH   1  32
TORSDOF 16
