REMARK  17 active torsions:
REMARK  status: ('A' for Active; 'I' for Inactive)
REMARK    1  A    between atoms: C2_2  and  O2_4 
REMARK    2  A    between atoms: O2_4  and  C3_5 
REMARK    3  A    between atoms: C3_5  and  O4_7 
REMARK    4  A    between atoms: O4_7  and  C4_8 
REMARK    5  A    between atoms: C5_9  and  O5_10 
REMARK    6  A    between atoms: O5_10  and  S1_11 
REMARK    7  A    between atoms: C7_16  and  S2_17 
REMARK    8  A    between atoms: S2_17  and  C8_18 
REMARK    9  A    between atoms: C9_19  and  C10_20 
REMARK   10  A    between atoms: C11_25  and  N3_26 
REMARK   11  A    between atoms: N3_26  and  C12_28 
REMARK   12  A    between atoms: C12_28  and  C14_31 
REMARK   13  A    between atoms: N5_33  and  O11_35 
REMARK   14  A    between atoms: O11_35  and  C16_36 
REMARK   15  A    between atoms: C16_36  and  C17_37 
REMARK   16  A    between atoms: C21_44  and  N6_45 
REMARK   17  A    between atoms: C22_49  and  O15_50 
ROOT
HETATM    1  C12 UNL     1       4.930  -1.139   0.728  1.00  0.00     0.234 C 
HETATM    2  C13 UNL     1       4.970  -2.298   1.617  1.00  0.00     0.090 C 
HETATM    3  N4  UNL     1       4.975  -3.218   2.315  1.00  0.00    -0.195 NA
ENDROOT
BRANCH   1   4
HETATM    4  N3  UNL     1       4.726  -1.508  -0.615  1.00  0.00    -0.381 N 
ATOM      5  H3  UNL     1       5.205  -2.346  -0.946  1.00  0.00     0.156 HD
BRANCH   4   6
HETATM    6  C11 UNL     1       3.932  -0.832  -1.524  1.00  0.00     0.218 C 
HETATM    7  N2  UNL     1       3.750   0.578  -1.013  1.00  0.00    -0.110 NA
HETATM    8  N1  UNL     1       2.535   0.153  -0.488  1.00  0.00    -0.277 N 
HETATM    9  C9  UNL     1       1.432   0.170   0.452  1.00  0.00     0.145 C 
HETATM   10  C18 UNL     1       2.460  -0.770  -1.551  1.00  0.00     0.152 C 
HETATM   11  C8  UNL     1       0.450  -0.695   0.421  1.00  0.00     0.081 C 
HETATM   12  C20 UNL     1       0.512  -1.836  -0.502  1.00  0.00     0.170 C 
HETATM   13  C19 UNL     1       1.725  -2.058  -1.302  1.00  0.00     0.115 C 
HETATM   14  O14 UNL     1      -0.488  -2.599  -0.586  1.00  0.00    -0.292 OA
BRANCH   9  15
HETATM   15  C10 UNL     1       1.440   1.248   1.463  1.00  0.00     0.229 C 
HETATM   16  O9  UNL     1       0.564   1.393   2.331  1.00  0.00    -0.643 OA
HETATM   17  O10 UNL     1       2.499   2.178   1.458  1.00  0.00    -0.643 OA
ENDBRANCH   9  15
BRANCH  11  18
HETATM   18  S2  UNL     1      -0.934  -0.600   1.583  1.00  0.00    -0.117 SA
BRANCH  18  19
HETATM   19  C7  UNL     1      -2.093   0.639   0.927  1.00  0.00     0.088 C 
HETATM   20  C6  UNL     1      -2.736   0.201  -0.367  1.00  0.00     0.054 C 
HETATM   21  C5  UNL     1      -3.909  -0.696  -0.178  1.00  0.00     0.178 C 
HETATM   22  C4  UNL     1      -4.998   0.068   0.553  1.00  0.00     0.195 C 
HETATM   23  C22 UNL     1      -4.482   1.227   1.362  1.00  0.00     0.181 C 
HETATM   24  C21 UNL     1      -3.138   0.970   1.962  1.00  0.00     0.228 C 
BRANCH  21  25
HETATM   25  O5  UNL     1      -3.566  -1.853   0.475  1.00  0.00    -0.249 OA
BRANCH  25  26
HETATM   26  S1  UNL     1      -4.090  -3.219  -0.367  1.00  0.00     0.252 S 
HETATM   27  O6  UNL     1      -3.248  -4.377   0.075  1.00  0.00    -0.572 OA
HETATM   28  O7  UNL     1      -3.964  -3.043  -1.823  1.00  0.00    -0.572 OA
HETATM   29  O8  UNL     1      -5.670  -3.546   0.137  1.00  0.00    -0.572 OA
ENDBRANCH  25  26
ENDBRANCH  21  25
BRANCH  22  30
HETATM   30  O4  UNL     1      -5.877   0.586  -0.429  1.00  0.00    -0.287 OA
BRANCH  30  31
HETATM   31  C3  UNL     1      -7.228   0.293  -0.471  1.00  0.00     0.414 C 
HETATM   32  O3  UNL     1      -7.672  -0.470   0.428  1.00  0.00    -0.229 OA
BRANCH  31  33
HETATM   33  O2  UNL     1      -8.113   0.780  -1.418  1.00  0.00    -0.221 OA
BRANCH  33  34
HETATM   34  C2  UNL     1      -9.481   0.428  -1.378  1.00  0.00     0.263 C 
HETATM   35  C1  UNL     1     -10.450   0.921  -2.358  1.00  0.00     0.127 C 
HETATM   36  O1  UNL     1      -9.820  -0.335  -0.449  1.00  0.00    -0.265 OA
ENDBRANCH  33  34
ENDBRANCH  31  33
ENDBRANCH  30  31
ENDBRANCH  22  30
BRANCH  23  37
HETATM   37  O15 UNL     1      -5.368   1.495   2.428  1.00  0.00    -0.391 OA
ATOM     38  H15 UNL     1      -5.042   2.227   2.939  1.00  0.00     0.210 HD
ENDBRANCH  23  37
BRANCH  24  39
HETATM   39  N6  UNL     1      -3.289  -0.098   2.934  1.00  0.00    -0.071 N 
ATOM     40  H63 UNL     1      -3.485  -0.990   2.479  1.00  0.00     0.274 HD
ATOM     41  H62 UNL     1      -2.397  -0.334   3.369  1.00  0.00     0.274 HD
ATOM     42  H61 UNL     1      -3.996   0.126   3.634  1.00  0.00     0.274 HD
ENDBRANCH  24  39
ENDBRANCH  18  19
ENDBRANCH  11  18
ENDBRANCH   4   6
ENDBRANCH   1   4
BRANCH   1  43
HETATM   43  C14 UNL     1       6.341  -0.475   0.786  1.00  0.00     0.042 C 
HETATM   44  C15 UNL     1       6.903  -0.002   2.047  1.00  0.00     0.069 C 
HETATM   45  N5  UNL     1       6.940  -0.375  -0.317  1.00  0.00    -0.272 N 
ATOM     46  H5  UNL     1       6.443  -0.740  -1.130  1.00  0.00     0.193 HD
BRANCH  45  47
HETATM   47  O11 UNL     1       8.149   0.151  -0.555  1.00  0.00    -0.270 OA
BRANCH  47  48
HETATM   48  C16 UNL     1       8.549   0.201  -1.952  1.00  0.00     0.314 C 
BRANCH  48  49
HETATM   49  C17 UNL     1       9.871   0.813  -2.017  1.00  0.00     0.200 C 
HETATM   50  O12 UNL     1      10.452   0.958  -3.142  1.00  0.00    -0.646 OA
HETATM   51  O13 UNL     1      10.565   1.266  -0.898  1.00  0.00    -0.646 OA
ENDBRANCH  48  49
ENDBRANCH  47  48
ENDBRANCH  45  47
ENDBRANCH   1  43
TORSDOF 17
