REMARK  4 active torsions:
REMARK  status: ('A' for Active; 'I' for Inactive)
REMARK    1  A    between atoms: C6_8  and  C7_9 
REMARK    2  A    between atoms: C7_9  and  C8_11 
REMARK       I    between atoms: C8_11  and  N2_13 
REMARK    3  A    between atoms: N2_13  and  N3_15 
REMARK       I    between atoms: N3_15  and  C9_17 
REMARK       I    between atoms: C9_17  and  N4_19 
REMARK    4  A    between atoms: N4_19  and  C11_21 
ROOT
HETATM    1  C1  UNL     1       5.249   0.489   3.905  1.00  0.00     0.049 C 
HETATM    2  C2  UNL     1       4.755   0.292   2.507  1.00  0.00    -0.054 A 
HETATM    3  C3  UNL     1       3.479   0.656   2.132  1.00  0.00     0.037 A 
HETATM    4  C4  UNL     1       3.001   0.483   0.847  1.00  0.00     0.044 A 
HETATM    5  N1  UNL     1       1.840   0.739   0.234  1.00  0.00    -0.354 N 
ATOM      6  H1  UNL     1       1.023   1.156   0.680  1.00  0.00     0.166 HD
HETATM    7  C5  UNL     1       1.908   0.366  -1.056  1.00  0.00     0.059 A 
HETATM    8  C6  UNL     1       0.960   0.436  -2.074  1.00  0.00     0.053 A 
HETATM    9  C14 UNL     1       1.320  -0.029  -3.312  1.00  0.00    -0.045 A 
HETATM   10  C15 UNL     1       0.328   0.031  -4.416  1.00  0.00     0.049 C 
HETATM   11  C16 UNL     1       2.572  -0.552  -3.559  1.00  0.00     0.015 A 
HETATM   12  C17 UNL     1       3.534  -0.627  -2.545  1.00  0.00    -0.048 A 
HETATM   13  C18 UNL     1       4.878  -1.193  -2.837  1.00  0.00     0.049 C 
HETATM   14  C19 UNL     1       3.177  -0.158  -1.288  1.00  0.00     0.010 A 
HETATM   15  C20 UNL     1       3.866  -0.085  -0.087  1.00  0.00     0.004 A 
HETATM   16  C21 UNL     1       5.140  -0.454   0.264  1.00  0.00     0.022 A 
HETATM   17  C22 UNL     1       5.594  -0.265   1.575  1.00  0.00    -0.055 A 
HETATM   18  C23 UNL     1       6.977  -0.692   1.876  1.00  0.00     0.049 C 
ENDROOT
BRANCH   8  19
HETATM   19  C7  UNL     1      -0.363   0.970  -1.860  1.00  0.00     0.253 C 
HETATM   20  O1  UNL     1      -0.510   2.221  -2.055  1.00  0.00    -0.281 OA
BRANCH  19  21
HETATM   21  C8  UNL     1      -1.508   0.210  -1.450  1.00  0.00     0.311 C 
HETATM   22  O2  UNL     1      -1.398  -1.021  -1.246  1.00  0.00    -0.262 OA
HETATM   23  N2  UNL     1      -2.783   0.805  -1.263  1.00  0.00    -0.259 N 
ATOM     24  H2  UNL     1      -2.882   1.807  -1.426  1.00  0.00     0.190 HD
BRANCH  23  25
HETATM   25  N3  UNL     1      -3.904   0.080  -0.867  1.00  0.00    -0.249 N 
HETATM   26  C9  UNL     1      -4.743   0.453   0.216  1.00  0.00     0.337 C 
HETATM   27  O3  UNL     1      -4.432   1.498   0.830  1.00  0.00    -0.245 OA
HETATM   28  N4  UNL     1      -5.857  -0.343   0.544  1.00  0.00    -0.333 N 
HETATM   29  C10 UNL     1      -6.135  -1.535  -0.224  1.00  0.00     0.155 C 
ATOM     30  H3  UNL     1      -4.136  -0.768  -1.385  1.00  0.00     0.192 HD
BRANCH  28  31
HETATM   31  C11 UNL     1      -6.753  -0.008   1.638  1.00  0.00     0.080 C 
HETATM   32  C12 UNL     1      -6.043   0.009   2.974  1.00  0.00     0.032 C 
HETATM   33  C13 UNL     1      -7.368   1.342   1.362  1.00  0.00     0.032 C 
ENDBRANCH  28  31
ENDBRANCH  23  25
ENDBRANCH  19  21
ENDBRANCH   8  19
TORSDOF 4
