REMARK  6 active torsions:
REMARK  status: ('A' for Active; 'I' for Inactive)
REMARK    1  A    between atoms: C4_4  and  C5_5 
REMARK    2  A    between atoms: C5_5  and  N1_6 
REMARK    3  A    between atoms: N1_6  and  C6_8 
REMARK    4  A    between atoms: N3_12  and  C8_14 
REMARK    5  A    between atoms: C15_23  and  N5_24 
REMARK    6  A    between atoms: N5_24  and  C16_26 
ROOT
HETATM    1  C6  UNL     1       1.001   0.094   0.512  1.00  0.00     0.707 A 
HETATM    2  N2  UNL     1      -0.084  -0.714   0.438  1.00  0.00    -0.022 N 
ATOM      3  H2  UNL     1       0.037  -1.727   0.456  1.00  0.00     0.203 HD
HETATM    4  C7  UNL     1      -1.318  -0.192   0.341  1.00  0.00     0.707 A 
HETATM    5  N3  UNL     1      -2.341  -0.939   0.271  1.00  0.00    -0.220 N 
ATOM      6  H3  UNL     1      -3.240  -0.462   0.200  1.00  0.00     0.178 HD
HETATM    7  N4  UNL     1      -1.472   1.166   0.318  1.00  0.00    -0.021 N 
ATOM      8  H4  UNL     1      -2.408   1.564   0.244  1.00  0.00     0.203 HD
HETATM    9  C15 UNL     1      -0.410   1.983   0.391  1.00  0.00     0.707 A 
HETATM   10  N6  UNL     1       0.806   1.419   0.486  1.00  0.00    -0.022 N 
ATOM     11  H6  UNL     1       1.621   2.030   0.541  1.00  0.00     0.203 HD
ENDROOT
BRANCH   1  12
HETATM   12  N1  UNL     1       2.155  -0.460   0.603  1.00  0.00    -0.225 N 
ATOM     13  H1  UNL     1       2.192  -1.479   0.614  1.00  0.00     0.177 HD
BRANCH  12  14
HETATM   14  C5  UNL     1       3.396   0.252   0.690  1.00  0.00     0.142 C 
BRANCH  14  15
HETATM   15  C4  UNL     1       4.536  -0.729   0.764  1.00  0.00     0.004 C 
HETATM   16  C3  UNL     1       5.816   0.064   0.854  1.00  0.00     0.006 C 
HETATM   17  C2  UNL     1       6.980  -0.901   0.800  1.00  0.00     0.000 C 
HETATM   18  C1  UNL     1       6.950  -1.536  -0.590  1.00  0.00     0.000 C 
HETATM   19  C23 UNL     1       5.737  -2.432  -0.639  1.00  0.00     0.000 C 
HETATM   20  C22 UNL     1       4.485  -1.621  -0.431  1.00  0.00     0.006 C 
ENDBRANCH  14  15
ENDBRANCH  12  14
ENDBRANCH   1  12
BRANCH   9  21
HETATM   21  N5  UNL     1      -0.507   3.237   0.373  1.00  0.00    -0.220 N 
ATOM     22  H5  UNL     1       0.375   3.746   0.434  1.00  0.00     0.178 HD
BRANCH  21  23
HETATM   23  C16 UNL     1      -1.674   4.044   0.279  1.00  0.00     0.099 C 
HETATM   24  C17 UNL     1      -2.322   4.084  -1.059  1.00  0.00     0.026 C 
HETATM   25  C18 UNL     1      -3.722   4.676  -0.861  1.00  0.00     0.002 C 
HETATM   26  C19 UNL     1      -3.608   6.010  -0.172  1.00  0.00     0.000 C 
HETATM   27  C20 UNL     1      -2.154   6.471  -0.071  1.00  0.00     0.002 C 
HETATM   28  C21 UNL     1      -1.304   5.461   0.668  1.00  0.00     0.026 C 
ENDBRANCH  21  23
ENDBRANCH   9  21
BRANCH   5  29
HETATM   29  C8  UNL     1      -2.387  -2.377   0.280  1.00  0.00     0.099 C 
HETATM   30  C9  UNL     1      -2.162  -2.856  -1.134  1.00  0.00     0.026 C 
HETATM   31  C10 UNL     1      -2.261  -4.333  -1.296  1.00  0.00     0.002 C 
HETATM   32  C11 UNL     1      -2.589  -5.085  -0.049  1.00  0.00     0.000 C 
HETATM   33  C12 UNL     1      -4.106  -5.071   0.110  1.00  0.00     0.000 C 
HETATM   34  C13 UNL     1      -4.536  -3.627  -0.156  1.00  0.00     0.002 C 
HETATM   35  C14 UNL     1      -3.759  -2.758   0.790  1.00  0.00     0.026 C 
ENDBRANCH   5  29
TORSDOF 6
