REMARK  5 active torsions:
REMARK  status: ('A' for Active; 'I' for Inactive)
REMARK    1  A    between atoms: C2_2  and  C3_3 
REMARK    2  A    between atoms: C8_8  and  N1_9 
REMARK       I    between atoms: N1_9  and  C9_11 
REMARK       I    between atoms: C9_11  and  N2_13 
REMARK    3  A    between atoms: N2_13  and  C10_15 
REMARK    4  A    between atoms: C13_22  and  N5_23 
REMARK    5  A    between atoms: N5_23  and  C14_25 
ROOT
HETATM    1  C10 UNL     1      -0.101  -0.121   1.223  1.00  0.00     0.702 A 
HETATM    2  N3  UNL     1      -0.074  -0.917   0.125  1.00  0.00    -0.180 N 
ATOM      3  H3  UNL     1       0.806  -1.311  -0.209  1.00  0.00     0.185 HD
HETATM    4  C11 UNL     1      -1.229  -1.178  -0.516  1.00  0.00     0.109 A 
HETATM    5  C12 UNL     1      -1.130  -2.063  -1.718  1.00  0.00     0.090 C 
HETATM    6  N4  UNL     1      -2.399  -0.670  -0.096  1.00  0.00    -0.180 N 
ATOM      7  H4  UNL     1      -3.257  -0.885  -0.603  1.00  0.00     0.185 HD
HETATM    8  C13 UNL     1      -2.444   0.123   0.993  1.00  0.00     0.698 A 
HETATM    9  N6  UNL     1      -1.273   0.377   1.628  1.00  0.00    -0.022 N 
ATOM     10  H6  UNL     1      -1.288   0.976   2.453  1.00  0.00     0.203 HD
ENDROOT
BRANCH   1  11
HETATM   11  N2  UNL     1       0.972   0.164   1.878  1.00  0.00    -0.140 N 
HETATM   12  C9  UNL     1       2.221  -0.395   1.406  1.00  0.00     0.339 C 
HETATM   13  N1  UNL     1       3.045   0.414   0.648  1.00  0.00    -0.308 N 
HETATM   14  O1  UNL     1       2.433  -1.577   1.740  1.00  0.00    -0.246 OA
ATOM     15  H1  UNL     1       2.711   1.362   0.473  1.00  0.00     0.170 HD
ATOM     16  H2  UNL     1       0.942   0.764   2.702  1.00  0.00     0.189 HD
BRANCH  13  17
HETATM   17  C8  UNL     1       4.282   0.084   0.094  1.00  0.00     0.037 A 
HETATM   18  C7  UNL     1       4.832  -1.163   0.170  1.00  0.00     0.036 A 
HETATM   19  C5  UNL     1       6.082  -1.439  -0.401  1.00  0.00    -0.059 A 
HETATM   20  C4  UNL     1       6.772  -0.432  -1.053  1.00  0.00     0.013 A 
HETATM   21  C6  UNL     1       6.651  -2.804  -0.300  1.00  0.00     0.048 C 
HETATM   22  C3  UNL     1       6.246   0.832  -1.147  1.00  0.00    -0.056 A 
HETATM   23  C23 UNL     1       5.030   1.071  -0.582  1.00  0.00     0.036 A 
BRANCH  22  24
HETATM   24  C2  UNL     1       6.981   1.898  -1.839  1.00  0.00     0.034 C 
HETATM   25  C1  UNL     1       7.859   2.591  -0.817  1.00  0.00     0.010 C 
ENDBRANCH  22  24
ENDBRANCH  13  17
ENDBRANCH   1  11
BRANCH   8  26
HETATM   26  N5  UNL     1      -3.493   0.647   1.465  1.00  0.00    -0.190 N 
ATOM     27  H5  UNL     1      -3.371   1.226   2.296  1.00  0.00     0.184 HD
BRANCH  26  28
HETATM   28  C14 UNL     1      -4.801   0.529   0.985  1.00  0.00     0.061 A 
HETATM   29  C15 UNL     1      -5.410   1.551   0.295  1.00  0.00    -0.034 A 
HETATM   30  C16 UNL     1      -4.701   2.810   0.035  1.00  0.00     0.050 C 
HETATM   31  C17 UNL     1      -6.717   1.432  -0.183  1.00  0.00     0.015 A 
HETATM   32  C18 UNL     1      -7.445   0.280   0.023  1.00  0.00    -0.061 A 
HETATM   33  C19 UNL     1      -8.846   0.147  -0.487  1.00  0.00     0.048 C 
HETATM   34  C20 UNL     1      -6.838  -0.746   0.714  1.00  0.00     0.015 A 
HETATM   35  C21 UNL     1      -5.543  -0.617   1.183  1.00  0.00    -0.034 A 
HETATM   36  C22 UNL     1      -4.895  -1.727   1.928  1.00  0.00     0.050 C 
ENDBRANCH  26  28
ENDBRANCH   8  26
TORSDOF 5
