REMARK  2 active torsions:
REMARK  status: ('A' for Active; 'I' for Inactive)
REMARK    1  A    between atoms: C3_3  and  N1_4 
REMARK    2  A    between atoms: N1_4  and  C4_6 
ROOT
HETATM    1  C1  UNL     1       0.220   0.928  -0.674  1.00  0.00     0.014 C 
HETATM    2  C2  UNL     1       0.257  -0.565  -0.859  1.00  0.00     0.032 C 
HETATM    3  C3  UNL     1      -1.091  -1.167  -0.598  1.00  0.00     0.083 C 
HETATM    4  C14 UNL     1      -1.005  -1.619   0.814  1.00  0.00     0.028 C 
HETATM    5  C15 UNL     1       0.421  -2.206   0.867  1.00  0.00     0.034 C 
HETATM    6  C16 UNL     1       1.235  -1.217   0.055  1.00  0.00     0.046 C 
HETATM    7  C17 UNL     1       2.196  -2.048  -0.743  1.00  0.00     0.134 C 
HETATM    8  C18 UNL     1       3.298  -2.551   0.121  1.00  0.00     0.221 C 
HETATM    9  O1  UNL     1       3.328  -3.738   0.460  1.00  0.00    -0.273 OA
HETATM   10  N2  UNL     1       4.375  -1.711   0.613  1.00  0.00    -0.343 N 
ATOM     11  H2  UNL     1       5.204  -2.187   0.969  1.00  0.00     0.163 HD
HETATM   12  C19 UNL     1       4.387  -0.265   0.648  1.00  0.00     0.113 C 
HETATM   13  C20 UNL     1       4.649   0.344  -0.717  1.00  0.00     0.041 C 
HETATM   14  C21 UNL     1       5.243   1.755  -0.615  1.00  0.00     0.003 C 
HETATM   15  C22 UNL     1       6.637   1.696  -0.050  1.00  0.00     0.000 C 
HETATM   16  C23 UNL     1       6.764   0.436   0.748  1.00  0.00     0.003 C 
HETATM   17  C24 UNL     1       5.528   0.152   1.552  1.00  0.00     0.041 C 
HETATM   18  C25 UNL     1       3.101   0.255   1.175  1.00  0.00     0.246 C 
HETATM   19  O2  UNL     1       3.175   1.280   1.850  1.00  0.00    -0.271 OA
HETATM   20  N3  UNL     1       1.829  -0.295   0.984  1.00  0.00    -0.349 N 
ATOM     21  H3  UNL     1       1.157   0.041   1.674  1.00  0.00     0.163 HD
ENDROOT
BRANCH   3  22
HETATM   22  N1  UNL     1      -2.104  -0.426  -1.063  1.00  0.00    -0.408 N 
ATOM     23  H1  UNL     1      -2.005  -0.189  -2.050  1.00  0.00     0.154 HD
BRANCH  22  24
HETATM   24  C4  UNL     1      -3.243   0.082  -0.501  1.00  0.00     0.027 C 
HETATM   25  C5  UNL     1      -3.088   1.148   0.522  1.00  0.00     0.035 C 
HETATM   26  C6  UNL     1      -4.457   1.707   0.959  1.00  0.00    -0.012 C 
HETATM   27  C7  UNL     1      -5.249   2.247  -0.187  1.00  0.00     0.009 C 
HETATM   28  C11 UNL     1      -5.232   0.593   1.591  1.00  0.00     0.009 C 
HETATM   29  C8  UNL     1      -5.396   1.148  -1.220  1.00  0.00    -0.012 C 
HETATM   30  C9  UNL     1      -6.212   0.008  -0.643  1.00  0.00     0.009 C 
HETATM   31  C13 UNL     1      -4.084   0.621  -1.641  1.00  0.00     0.035 C 
HETATM   32  C10 UNL     1      -5.448  -0.489   0.542  1.00  0.00    -0.012 C 
HETATM   33  C12 UNL     1      -4.081  -1.010   0.196  1.00  0.00     0.035 C 
ENDBRANCH  22  24
ENDBRANCH   3  22
TORSDOF 2
