REMARK  3 active torsions:
REMARK  status: ('A' for Active; 'I' for Inactive)
REMARK    1  A    between atoms: C5_7  and  S1_8 
REMARK    2  A    between atoms: S1_8  and  N2_11 
REMARK    3  A    between atoms: N2_11  and  C6_13 
ROOT
HETATM    1  N2  UNL     1      -0.837  -1.668   2.000  1.00  0.00    -0.280 N 
ATOM      2  H2  UNL     1      -0.921  -2.662   2.212  1.00  0.00     0.179 HD
ENDROOT
BRANCH   1   3
HETATM    3  S1  UNL     1       0.442  -0.801   2.758  1.00  0.00     0.263 S 
HETATM    4  O1  UNL     1       1.198  -1.704   3.715  1.00  0.00    -0.200 OA
HETATM    5  O2  UNL     1      -0.083   0.350   3.582  1.00  0.00    -0.200 OA
BRANCH   3   6
HETATM    6  C5  UNL     1       1.540  -0.149   1.570  1.00  0.00     0.082 A 
HETATM    7  C4  UNL     1       2.569  -0.986   1.140  1.00  0.00     0.055 A 
HETATM    8  C3  UNL     1       3.503  -0.570   0.204  1.00  0.00     0.044 A 
HETATM    9  N1  UNL     1       4.568  -1.178  -0.361  1.00  0.00    -0.359 N 
HETATM   10  C20 UNL     1       3.389   0.712  -0.301  1.00  0.00    -0.002 A 
HETATM   11  C2  UNL     1       5.171  -0.340  -1.230  1.00  0.00     0.012 A 
ATOM     12  H1  UNL     1       4.872  -2.131  -0.160  1.00  0.00     0.166 HD
HETATM   13  C1  UNL     1       6.384  -0.667  -2.043  1.00  0.00     0.068 C 
HETATM   14  C21 UNL     1       4.446   0.828  -1.196  1.00  0.00    -0.027 A 
HETATM   15  C22 UNL     1       4.741   2.033  -1.990  1.00  0.00     0.051 C 
HETATM   16  C19 UNL     1       2.376   1.548   0.117  1.00  0.00     0.016 A 
HETATM   17  C18 UNL     1       1.448   1.119   1.054  1.00  0.00     0.026 A 
ENDBRANCH   3   6
ENDBRANCH   1   3
BRANCH   1  18
HETATM   18  C6  UNL     1      -1.781  -1.111   1.106  1.00  0.00     0.050 A 
HETATM   19  C7  UNL     1      -2.070   0.236   1.101  1.00  0.00     0.045 A 
HETATM   20  C8  UNL     1      -3.001   0.782   0.236  1.00  0.00    -0.001 A 
HETATM   21  C9  UNL     1      -3.292   2.134   0.232  1.00  0.00    -0.044 A 
HETATM   22  C13 UNL     1      -3.659  -0.040  -0.646  1.00  0.00     0.052 A 
HETATM   23  C10 UNL     1      -2.569   2.992   1.191  1.00  0.00     0.049 C 
HETATM   24  C11 UNL     1      -4.219   2.687  -0.626  1.00  0.00     0.082 A 
HETATM   25  C12 UNL     1      -4.851   1.817  -1.490  1.00  0.00     0.246 A 
HETATM   26  O3  UNL     1      -5.699   2.313  -2.278  1.00  0.00    -0.268 OA
HETATM   27  N3  UNL     1      -4.569   0.486  -1.491  1.00  0.00    -0.322 N 
ATOM     28  H3  UNL     1      -5.056  -0.127  -2.145  1.00  0.00     0.169 HD
HETATM   29  C14 UNL     1      -3.361  -1.407  -0.636  1.00  0.00    -0.026 A 
HETATM   30  C15 UNL     1      -4.096  -2.229  -1.600  1.00  0.00     0.051 C 
HETATM   31  C16 UNL     1      -2.455  -1.950   0.203  1.00  0.00    -0.026 A 
HETATM   32  C17 UNL     1      -2.104  -3.362   0.258  1.00  0.00     0.051 C 
ENDBRANCH   1  18
TORSDOF 3
