REMARK  6 active torsions:
REMARK  status: ('A' for Active; 'I' for Inactive)
REMARK    1  A    between atoms: C2_2  and  N1_4 
REMARK       I    between atoms: N1_4  and  C4_6 
REMARK       I    between atoms: C4_6  and  N2_8 
REMARK    2  A    between atoms: N2_8  and  C6_10 
REMARK    3  A    between atoms: C16_21  and  N3_22 
REMARK    4  A    between atoms: N3_22  and  C17_24 
REMARK    5  A    between atoms: C17_24  and  N4_26 
REMARK    6  A    between atoms: N4_26  and  C18_28 
ROOT
HETATM    1  C6  UNL     1      -1.902  -0.107  -0.554  1.00  0.00     0.088 C 
HETATM    2  C7  UNL     1      -0.475   0.240  -0.855  1.00  0.00     0.028 C 
HETATM    3  C8  UNL     1       0.250  -0.985  -1.370  1.00  0.00     0.042 C 
HETATM    4  C9  UNL     1       0.433  -2.072  -0.396  1.00  0.00     0.081 C 
HETATM    5  C10 UNL     1      -0.747  -1.984   0.591  1.00  0.00     0.042 C 
HETATM    6  C11 UNL     1      -1.961  -1.602  -0.219  1.00  0.00     0.028 C 
HETATM    7  O2  UNL     1       0.221  -3.347  -1.014  1.00  0.00    -0.378 OA
HETATM    8  C12 UNL     1       0.886  -3.466  -2.201  1.00  0.00     0.168 C 
HETATM    9  C13 UNL     1       2.081  -4.352  -2.064  1.00  0.00     0.026 C 
HETATM   10  C14 UNL     1       2.908  -4.002  -0.876  1.00  0.00     0.004 C 
HETATM   11  C15 UNL     1       2.848  -2.513  -0.618  1.00  0.00     0.028 C 
HETATM   12  C16 UNL     1       1.704  -2.217   0.350  1.00  0.00     0.118 C 
ENDROOT
BRANCH  12  13
HETATM   13  N3  UNL     1       2.073  -1.267   1.311  1.00  0.00    -0.360 N 
ATOM     14  H3  UNL     1       1.779  -1.473   2.266  1.00  0.00     0.162 HD
BRANCH  13  15
HETATM   15  C17 UNL     1       2.789  -0.073   1.146  1.00  0.00     0.168 C 
HETATM   16  S1  UNL     1       3.421   0.444  -0.291  1.00  0.00    -0.041 SA
BRANCH  15  17
HETATM   17  N4  UNL     1       3.051   0.785   2.286  1.00  0.00    -0.359 N 
ATOM     18  H4  UNL     1       2.703   0.498   3.201  1.00  0.00     0.162 HD
BRANCH  17  19
HETATM   19  C18 UNL     1       3.771   2.008   2.188  1.00  0.00     0.021 C 
HETATM   20  C19 UNL     1       5.181   1.825   1.663  1.00  0.00     0.037 C 
HETATM   21  C20 UNL     1       3.093   3.031   1.302  1.00  0.00     0.037 C 
HETATM   22  C21 UNL     1       3.901   2.629   3.563  1.00  0.00     0.037 C 
ENDBRANCH  17  19
ENDBRANCH  15  17
ENDBRANCH  13  15
ENDBRANCH  12  13
BRANCH   1  23
HETATM   23  N2  UNL     1      -2.846   0.270  -1.554  1.00  0.00    -0.334 N 
HETATM   24  C4  UNL     1      -3.915   1.150  -1.260  1.00  0.00     0.318 C 
HETATM   25  N1  UNL     1      -4.208   1.757  -0.033  1.00  0.00    -0.339 N 
HETATM   26  O1  UNL     1      -4.738   1.451  -2.213  1.00  0.00    -0.247 OA
ATOM     27  H1  UNL     1      -3.605   1.570   0.768  1.00  0.00     0.164 HD
HETATM   28  C5  UNL     1      -2.762  -0.232  -2.935  1.00  0.00     0.154 C 
BRANCH  25  29
HETATM   29  C2  UNL     1      -5.340   2.641   0.132  1.00  0.00     0.078 C 
HETATM   30  C1  UNL     1      -4.972   4.009   0.618  1.00  0.00     0.032 C 
HETATM   31  C3  UNL     1      -6.341   2.070   1.124  1.00  0.00     0.032 C 
ENDBRANCH  25  29
ENDBRANCH   1  23
TORSDOF 6
