REMARK  8 active torsions:
REMARK  status: ('A' for Active; 'I' for Inactive)
REMARK    1  A    between atoms: C2_2  and  N1_5 
REMARK    2  A    between atoms: N1_5  and  C5_7 
REMARK    3  A    between atoms: C6_10  and  N3_11 
REMARK    4  A    between atoms: N3_11  and  C7_13 
REMARK    5  A    between atoms: C7_13  and  C8_14 
REMARK    6  A    between atoms: C8_14  and  C9_15 
REMARK    7  A    between atoms: C11_19  and  C12_20 
REMARK    8  A    between atoms: C16_24  and  C17_25 
ROOT
HETATM    1  C5  UNL     1       2.728  -1.019  -0.166  1.00  0.00     0.680 A 
HETATM    2  N2  UNL     1       2.123   0.133   0.025  1.00  0.00    -0.176 N 
ATOM      3  H2  UNL     1       2.705   0.955   0.187  1.00  0.00     0.186 HD
HETATM    4  C6  UNL     1       0.744   0.305   0.021  1.00  0.00     0.130 A 
HETATM    5  C10 UNL     1      -0.093  -0.759  -0.190  1.00  0.00     0.043 A 
HETATM    6  C11 UNL     1      -1.527  -0.668  -0.163  1.00  0.00    -0.027 A 
HETATM    7  C16 UNL     1      -2.185  -1.914  -0.330  1.00  0.00    -0.042 A 
HETATM    8  C21 UNL     1      -1.432  -3.077  -0.528  1.00  0.00     0.011 A 
HETATM    9  C22 UNL     1      -0.080  -3.124  -0.560  1.00  0.00     0.031 A 
HETATM   10  C23 UNL     1       0.595  -1.965  -0.386  1.00  0.00     0.063 A 
HETATM   11  N4  UNL     1       1.957  -2.068  -0.372  1.00  0.00    -0.191 N 
ATOM     12  H4  UNL     1       2.388  -2.980  -0.525  1.00  0.00     0.184 HD
ENDROOT
BRANCH   4  13
HETATM   13  N3  UNL     1       0.351   1.460   0.294  1.00  0.00    -0.375 N 
ATOM     14  H3  UNL     1      -0.649   1.661   0.303  1.00  0.00     0.161 HD
BRANCH  13  15
HETATM   15  C7  UNL     1       1.287   2.510   0.595  1.00  0.00     0.132 C 
BRANCH  15  16
HETATM   16  C8  UNL     1       0.783   3.876   0.833  1.00  0.00     0.132 C 
BRANCH  16  17
HETATM   17  C9  UNL     1       0.206   4.568  -0.331  1.00  0.00     0.174 C 
HETATM   18  O1  UNL     1       0.291   4.205  -1.526  1.00  0.00    -0.648 OA
HETATM   19  O2  UNL     1      -0.519   5.758  -0.125  1.00  0.00    -0.648 OA
ENDBRANCH  16  17
ENDBRANCH  15  16
ENDBRANCH  13  15
ENDBRANCH   4  13
BRANCH   1  20
HETATM   20  N1  UNL     1       3.966  -1.150  -0.161  1.00  0.00    -0.218 N 
ATOM     21  H1  UNL     1       4.266  -2.111  -0.326  1.00  0.00     0.178 HD
BRANCH  20  22
HETATM   22  C2  UNL     1       5.044  -0.258   0.023  1.00  0.00     0.036 C 
HETATM   23  C1  UNL     1       6.386  -0.987  -0.213  1.00  0.00     0.038 C 
HETATM   24  C3  UNL     1       5.175   0.345   1.397  1.00  0.00     0.038 C 
HETATM   25  C4  UNL     1       5.003   0.815  -1.045  1.00  0.00     0.038 C 
ENDBRANCH  20  22
ENDBRANCH   1  20
BRANCH   6  26
HETATM   26  C12 UNL     1      -2.101   0.600  -0.082  1.00  0.00    -0.023 C 
HETATM   27  C13 UNL     1      -3.636   0.602  -0.313  1.00  0.00     0.019 C 
HETATM   28  C14 UNL     1      -2.236   1.511   1.073  1.00  0.00     0.019 C 
HETATM   29  C15 UNL     1      -1.860   1.442  -1.377  1.00  0.00     0.019 C 
ENDBRANCH   6  26
BRANCH   7  30
HETATM   30  C17 UNL     1      -3.572  -2.129  -0.039  1.00  0.00    -0.024 C 
HETATM   31  C18 UNL     1      -4.147  -1.910   1.333  1.00  0.00     0.019 C 
HETATM   32  C19 UNL     1      -4.607  -2.254  -1.125  1.00  0.00     0.019 C 
HETATM   33  C20 UNL     1      -3.565  -3.743   0.247  1.00  0.00     0.019 C 
ENDBRANCH   7  30
TORSDOF 8
