REMARK  5 active torsions:
REMARK  status: ('A' for Active; 'I' for Inactive)
REMARK    1  A    between atoms: C2_2  and  O1_3 
REMARK    2  A    between atoms: C2_2  and  C3_5 
REMARK    3  A    between atoms: C3_5  and  C5_7 
REMARK    4  A    between atoms: N1_11  and  C9_12 
REMARK    5  A    between atoms: N3_15  and  C10_16 
ROOT
HETATM    1  C5  UNL     1      -0.652   0.026  -0.008  1.00  0.00     0.040 C 
HETATM    2  C6  UNL     1      -0.322  -1.413  -0.179  1.00  0.00     0.086 C 
HETATM    3  C7  UNL     1       1.208  -1.500  -0.229  1.00  0.00     0.112 C 
HETATM    4  C8  UNL     1       1.792  -2.129   0.993  1.00  0.00     0.034 C 
HETATM    5  N1  UNL     1       1.606  -0.078  -0.288  1.00  0.00    -0.262 N 
HETATM    6  N3  UNL     1       0.610   0.626   0.399  1.00  0.00    -0.278 N 
ENDROOT
BRANCH   1   7
HETATM    7  C3  UNL     1      -1.816   0.581  -0.171  1.00  0.00    -0.009 C 
HETATM    8  C4  UNL     1      -1.963   2.092   0.006  1.00  0.00     0.053 C 
BRANCH   7   9
HETATM    9  C2  UNL     1      -3.042  -0.085  -0.549  1.00  0.00     0.047 C 
HETATM   10  C1  UNL     1      -3.261  -1.510  -0.831  1.00  0.00     0.076 C 
BRANCH   9  11
HETATM   11  O1  UNL     1      -4.081   0.706  -0.648  1.00  0.00    -0.365 OA
ATOM     12  H1  UNL     1      -3.939   1.628  -0.466  1.00  0.00     0.217 HD
ENDBRANCH   9  11
ENDBRANCH   7   9
ENDBRANCH   1   7
BRANCH   6  13
HETATM   13  C10 UNL     1       0.765   1.695   1.309  1.00  0.00     0.263 C 
HETATM   14 CL1  UNL     1       2.444   1.911   1.907  1.00  0.00    -0.107 Cl
ENDBRANCH   6  13
BRANCH   5  15
HETATM   15  C9  UNL     1       2.766   0.380  -0.926  1.00  0.00     0.202 C 
HETATM   16  N2  UNL     1       3.196   1.724  -1.040  1.00  0.00    -0.068 NA
HETATM   17  S1  UNL     1       3.756  -0.761  -1.623  1.00  0.00    -0.043 SA
ENDBRANCH   5  15
TORSDOF 5
