REMARK  6 active torsions:
REMARK  status: ('A' for Active; 'I' for Inactive)
REMARK    1  A    between atoms: O1_2  and  C2_3 
REMARK    2  A    between atoms: C2_3  and  C3_4 
REMARK       I    between atoms: C3_4  and  N1_6 
REMARK    3  A    between atoms: N1_6  and  C4_8 
REMARK    4  A    between atoms: C6_10  and  C7_11 
REMARK    5  A    between atoms: C8_12  and  C9_13 
REMARK    6  A    between atoms: C9_13  and  C10_14 
ROOT
HETATM    1  C4  UNL     1       1.223  -0.174  -1.130  1.00  0.00     0.096 A 
HETATM    2  C5  UNL     1      -0.119  -0.433  -1.071  1.00  0.00     0.078 A 
HETATM    3  C6  UNL     1      -0.932   0.589  -0.784  1.00  0.00     0.095 A 
HETATM    4  N2  UNL     1      -0.376   1.785  -0.576  1.00  0.00    -0.318 N 
ATOM      5  H2  UNL     1      -0.839   2.665  -0.349  1.00  0.00     0.175 HD
HETATM    6  S1  UNL     1       1.267   1.496  -0.777  1.00  0.00     0.004 SA
ENDROOT
BRANCH   1   7
HETATM    7  N1  UNL     1       2.202  -0.985  -1.386  1.00  0.00    -0.318 N 
HETATM    8  C3  UNL     1       3.543  -0.598  -1.417  1.00  0.00     0.246 C 
HETATM    9  O2  UNL     1       4.188  -0.609  -2.481  1.00  0.00    -0.271 OA
ATOM     10  H1  UNL     1       1.979  -1.962  -1.576  1.00  0.00     0.169 HD
BRANCH   8  11
HETATM   11  C2  UNL     1       4.228  -0.166  -0.183  1.00  0.00     0.270 C 
BRANCH  11  12
HETATM   12  O1  UNL     1       3.317  -0.237   0.862  1.00  0.00    -0.387 OA
HETATM   13  C1  UNL     1       3.915   0.160   2.046  1.00  0.00     0.202 C 
ENDBRANCH  11  12
ENDBRANCH   8  11
ENDBRANCH   1   7
BRANCH   3  14
HETATM   14  C7  UNL     1      -2.394   0.471  -0.684  1.00  0.00    -0.048 C 
HETATM   15  C8  UNL     1      -3.600   0.362  -0.586  1.00  0.00    -0.099 C 
BRANCH  15  16
HETATM   16  C9  UNL     1      -5.038   0.233  -0.443  1.00  0.00     0.109 C 
BRANCH  16  17
HETATM   17  C10 UNL     1      -5.290  -0.402   0.928  1.00  0.00     0.126 C 
HETATM   18 CL1  UNL     1      -4.604   0.682   2.154  1.00  0.00    -0.130 Cl
ENDBRANCH  16  17
ENDBRANCH  15  16
ENDBRANCH   3  14
TORSDOF 6
