REMARK  3 active torsions:
REMARK  status: ('A' for Active; 'I' for Inactive)
REMARK    1  A    between atoms: N1_6  and  C4_7 
REMARK    2  A    between atoms: C4_7  and  C5_8 
REMARK       I    between atoms: C5_8  and  N2_10 
REMARK    3  A    between atoms: N2_10  and  C6_12 
ROOT
HETATM    1  C5  UNL     1       0.137   0.540  -0.100  1.00  0.00     0.238 C 
HETATM    2  O2  UNL     1       0.183   0.012   1.040  1.00  0.00    -0.272 OA
HETATM    3  N2  UNL     1      -1.075   0.461  -0.833  1.00  0.00    -0.352 N 
ATOM      4  H2  UNL     1      -1.115   0.889  -1.758  1.00  0.00     0.163 HD
ENDROOT
BRANCH   1   5
HETATM    5  C4  UNL     1       1.322   1.217  -0.639  1.00  0.00     0.259 C 
BRANCH   5   6
HETATM    6  N1  UNL     1       2.418   1.152   0.308  1.00  0.00    -0.244 N 
HETATM    7  C2  UNL     1       3.426   0.278   0.526  1.00  0.00     0.075 A 
HETATM    8  C1  UNL     1       3.869  -0.997  -0.089  1.00  0.00     0.074 C 
HETATM    9  C3  UNL     1       3.893   1.050   1.569  1.00  0.00     0.169 A 
HETATM   10 BR1  UNL     1       5.348   0.919   2.791  1.00  0.00    -0.019 Br
HETATM   11  O1  UNL     1       2.893   1.854   1.301  1.00  0.00    -0.225 OA
ENDBRANCH   5   6
ENDBRANCH   1   5
BRANCH   3  12
HETATM   12  C6  UNL     1      -2.255  -0.200  -0.324  1.00  0.00     0.022 C 
HETATM   13  C7  UNL     1      -1.988  -1.669  -0.036  1.00  0.00     0.037 C 
HETATM   14  C8  UNL     1      -3.332  -0.154  -1.383  1.00  0.00     0.037 C 
HETATM   15  C9  UNL     1      -2.775   0.425   0.942  1.00  0.00     0.037 C 
ENDBRANCH   3  12
TORSDOF 3
