REMARK  5 active torsions:
REMARK  status: ('A' for Active; 'I' for Inactive)
REMARK    1  A    between atoms: C2_2  and  N1_4 
REMARK    2  A    between atoms: C2_2  and  C5_10 
REMARK    3  A    between atoms: N1_4  and  S1_6 
REMARK    4  A    between atoms: C5_10  and  N2_13 
REMARK       I    between atoms: N2_13  and  C7_15 
REMARK       I    between atoms: C7_15  and  N3_17 
REMARK    5  A    between atoms: N3_17  and  C8_19 
ROOT
HETATM    1  N2  UNL     1       0.419   0.118   1.684  1.00  0.00    -0.309 N 
ATOM      2  H2  UNL     1       0.722   0.755   2.421  1.00  0.00     0.170 HD
HETATM    3  C7  UNL     1       1.265   0.047   0.536  1.00  0.00     0.325 C 
HETATM    4  O2  UNL     1       0.907  -0.730  -0.363  1.00  0.00    -0.247 OA
HETATM    5  N3  UNL     1       2.434   0.803   0.419  1.00  0.00    -0.306 N 
ATOM      6  H3  UNL     1       2.639   1.409   1.213  1.00  0.00     0.171 HD
ENDROOT
BRANCH   1   7
HETATM    7  C5  UNL     1      -0.766  -0.570   1.926  1.00  0.00     0.052 C 
HETATM    8  C6  UNL     1      -0.755  -1.412   2.972  1.00  0.00     0.112 C 
HETATM    9 CL1  UNL     1       0.713  -1.600   3.932  1.00  0.00    -0.095 Cl
BRANCH   7  10
HETATM   10  C2  UNL     1      -2.035  -0.453   1.153  1.00  0.00     0.074 C 
HETATM   11  C1  UNL     1      -3.151  -0.965   2.043  1.00  0.00     0.045 C 
HETATM   12  C3  UNL     1      -2.218   0.995   0.817  1.00  0.00     0.045 C 
BRANCH  10  13
HETATM   13  N1  UNL     1      -1.914  -1.224  -0.044  1.00  0.00    -0.328 N 
ATOM     14  H1  UNL     1      -1.036  -1.686  -0.280  1.00  0.00     0.171 HD
BRANCH  13  15
HETATM   15  S1  UNL     1      -3.247  -1.351  -1.050  1.00  0.00     0.084 S 
HETATM   16  C4  UNL     1      -4.233   0.063  -1.287  1.00  0.00     0.149 C 
HETATM   17  O1  UNL     1      -4.168  -2.473  -0.586  1.00  0.00    -0.238 OA
HETATM   18  S2  UNL     1      -2.691  -1.859  -2.609  1.00  0.00     0.029 SA
ENDBRANCH  13  15
ENDBRANCH  10  13
ENDBRANCH   7  10
ENDBRANCH   1   7
BRANCH   5  19
HETATM   19  C8  UNL     1       3.372   0.855  -0.629  1.00  0.00     0.076 A 
HETATM   20  C9  UNL     1       3.284   0.121  -1.782  1.00  0.00     0.052 A 
HETATM   21  C10 UNL     1       4.256   0.236  -2.762  1.00  0.00     0.013 A 
HETATM   22 BR1  UNL     1       4.105  -0.804  -4.365  1.00  0.00    -0.051 Br
HETATM   23  C11 UNL     1       5.332   1.079  -2.619  1.00  0.00     0.022 A 
HETATM   24  C12 UNL     1       5.449   1.829  -1.473  1.00  0.00     0.046 A 
HETATM   25  C13 UNL     1       4.484   1.708  -0.512  1.00  0.00     0.143 A 
HETATM   26  F1  UNL     1       4.638   2.474   0.617  1.00  0.00    -0.204 F 
ENDBRANCH   5  19
TORSDOF 5
