REMARK  4 active torsions:
REMARK  status: ('A' for Active; 'I' for Inactive)
REMARK    1  A    between atoms: C2_2  and  C7_13 
REMARK    2  A    between atoms: N1_3  and  N2_5 
REMARK       I    between atoms: N2_5  and  C3_7 
REMARK    3  A    between atoms: C3_7  and  C4_9 
REMARK    4  A    between atoms: C10_16  and  N3_17 
ROOT
HETATM    1  C7  UNL     1       0.648  -1.052  -0.276  1.00  0.00    -0.011 A 
HETATM    2  C8  UNL     1       0.610   0.241   0.205  1.00  0.00     0.016 A 
HETATM    3  C9  UNL     1       1.723   1.045   0.285  1.00  0.00     0.032 A 
HETATM    4  C10 UNL     1       2.988   0.588  -0.125  1.00  0.00     0.051 A 
HETATM    5  C12 UNL     1       3.041  -0.686  -0.604  1.00  0.00     0.038 A 
HETATM    6 BR2  UNL     1       4.666  -1.422  -1.270  1.00  0.00    -0.049 Br
HETATM    7  C13 UNL     1       1.918  -1.476  -0.676  1.00  0.00     0.034 A 
ENDROOT
BRANCH   1   8
HETATM    8  C2  UNL     1      -0.507  -1.917  -0.370  1.00  0.00     0.032 C 
HETATM    9  C1  UNL     1      -0.231  -3.309  -0.929  1.00  0.00     0.070 C 
HETATM   10  N1  UNL     1      -1.678  -1.689  -0.063  1.00  0.00    -0.302 N 
ATOM     11  H1  UNL     1      -2.265  -2.503  -0.246  1.00  0.00     0.186 HD
BRANCH  10  12
HETATM   12  N2  UNL     1      -2.412  -0.673   0.446  1.00  0.00    -0.269 N 
HETATM   13  C3  UNL     1      -3.391   0.014  -0.318  1.00  0.00     0.254 C 
HETATM   14  O1  UNL     1      -3.600  -0.307  -1.509  1.00  0.00    -0.270 OA
ATOM     15  H2  UNL     1      -2.256  -0.391   1.414  1.00  0.00     0.190 HD
BRANCH  13  16
HETATM   16  C4  UNL     1      -4.175   1.109   0.277  1.00  0.00     0.093 C 
HETATM   17  C5  UNL     1      -4.921   0.527   1.467  1.00  0.00     0.037 C 
HETATM   18  C6  UNL     1      -5.151   1.703  -0.717  1.00  0.00     0.037 C 
HETATM   19 BR1  UNL     1      -3.006   2.480   0.964  1.00  0.00    -0.076 Br
ENDBRANCH  13  16
ENDBRANCH  10  12
ENDBRANCH   1   8
BRANCH   4  20
HETATM   20  N3  UNL     1       4.096   1.439   0.032  1.00  0.00    -0.332 N 
HETATM   21  C11 UNL     1       5.127   1.213   0.730  1.00  0.00     0.201 C 
HETATM   22  N4  UNL     1       6.201   2.183   0.799  1.00  0.00    -0.066 NA
HETATM   23  N5  UNL     1       5.241   0.031   1.502  1.00  0.00    -0.066 NA
ATOM     24  H3  UNL     1       4.066   2.328  -0.467  1.00  0.00     0.168 HD
ENDBRANCH   4  20
TORSDOF 4
