REMARK  11 active torsions:
REMARK  status: ('A' for Active; 'I' for Inactive)
REMARK    1  A    between atoms: C3_3  and  C4_4 
REMARK    2  A    between atoms: C4_4  and  C5_5 
REMARK    3  A    between atoms: C8_8  and  O1_9 
REMARK    4  A    between atoms: C9_11  and  O2_12 
REMARK    5  A    between atoms: N1_17  and  C13_18 
REMARK    6  A    between atoms: C13_18  and  C14_19 
REMARK    7  A    between atoms: C14_19  and  C15_20 
REMARK    8  A    between atoms: C15_20  and  N2_21 
REMARK    9  A    between atoms: N2_21  and  S1_23 
REMARK   10  A    between atoms: S1_23  and  C16_26 
REMARK   11  A    between atoms: C17_27  and  C18_29 
ROOT
HETATM    1  C1  UNL     1      -2.147  -1.801  -0.551  1.00  0.00     0.021 C 
HETATM    2  C2  UNL     1      -1.919  -1.349   0.628  1.00  0.00    -0.029 C 
HETATM    3  C3  UNL     1      -2.625  -0.385   1.422  1.00  0.00    -0.048 C 
HETATM    4  C11 UNL     1      -1.733   0.873   1.382  1.00  0.00     0.069 C 
HETATM    5  C12 UNL     1      -0.306   0.541   1.178  1.00  0.00     0.278 C 
HETATM    6  N1  UNL     1       0.189  -0.715   1.597  1.00  0.00     0.097 N 
HETATM    7  C19 UNL     1      -0.656  -1.857   1.326  1.00  0.00     0.251 C 
HETATM    8  C20 UNL     1      -0.021  -2.993   0.630  1.00  0.00     0.048 C 
ENDROOT
BRANCH   6   9
HETATM    9  C13 UNL     1       1.465  -0.919   0.880  1.00  0.00     0.275 C 
BRANCH   9  10
HETATM   10  C14 UNL     1       2.498   0.070   1.375  1.00  0.00     0.050 C 
BRANCH  10  11
HETATM   11  C15 UNL     1       3.787  -0.173   0.630  1.00  0.00     0.134 C 
BRANCH  11  12
HETATM   12  N2  UNL     1       3.669  -0.015  -0.785  1.00  0.00    -0.316 N 
ATOM     13  H2  UNL     1       2.823   0.234  -1.298  1.00  0.00     0.172 HD
BRANCH  12  14
HETATM   14  S1  UNL     1       5.234  -0.326  -1.468  1.00  0.00     0.250 S 
HETATM   15  O3  UNL     1       5.619  -1.725  -1.107  1.00  0.00    -0.201 OA
HETATM   16  O4  UNL     1       5.161  -0.190  -2.963  1.00  0.00    -0.201 OA
BRANCH  14  17
HETATM   17  C16 UNL     1       6.335   0.861  -0.820  1.00  0.00     0.155 C 
HETATM   18  C17 UNL     1       7.223   0.538   0.107  1.00  0.00     0.078 C 
HETATM   19 CL1  UNL     1       7.317  -1.087   0.707  1.00  0.00    -0.084 Cl
BRANCH  18  20
HETATM   20  C18 UNL     1       8.160   1.554   0.658  1.00  0.00     0.227 C 
HETATM   21 CL2  UNL     1       7.855   3.114  -0.167  1.00  0.00    -0.077 Cl
HETATM   22 CL3  UNL     1       9.824   0.993   0.418  1.00  0.00    -0.077 Cl
HETATM   23 CL4  UNL     1       7.810   1.725   2.404  1.00  0.00    -0.077 Cl
ENDBRANCH  18  20
ENDBRANCH  14  17
ENDBRANCH  12  14
ENDBRANCH  11  12
ENDBRANCH  10  11
ENDBRANCH   9  10
ENDBRANCH   6   9
BRANCH   3  24
HETATM   24  C4  UNL     1      -4.041  -0.105   1.384  1.00  0.00     0.019 C 
BRANCH  24  25
HETATM   25  C5  UNL     1      -4.760   0.366   0.235  1.00  0.00    -0.033 A 
HETATM   26  C6  UNL     1      -5.503  -0.451  -0.577  1.00  0.00     0.014 A 
HETATM   27  C7  UNL     1      -6.196  -0.019  -1.668  1.00  0.00     0.040 A 
HETATM   28  C8  UNL     1      -6.179   1.325  -2.019  1.00  0.00     0.098 A 
HETATM   29  C9  UNL     1      -5.455   2.180  -1.243  1.00  0.00     0.099 A 
HETATM   30  C10 UNL     1      -4.752   1.707  -0.127  1.00  0.00     0.051 A 
BRANCH  28  31
HETATM   31  O1  UNL     1      -6.910   1.716  -3.152  1.00  0.00    -0.358 OA
ATOM     32  H1  UNL     1      -6.898   2.635  -3.392  1.00  0.00     0.217 HD
ENDBRANCH  28  31
BRANCH  29  33
HETATM   33  O2  UNL     1      -5.412   3.526  -1.560  1.00  0.00    -0.358 OA
ATOM     34  H2  UNL     1      -4.907   4.122  -1.019  1.00  0.00     0.217 HD
ENDBRANCH  29  33
ENDBRANCH  24  25
ENDBRANCH   3  24
TORSDOF 11
