REMARK  9 active torsions:
REMARK  status: ('A' for Active; 'I' for Inactive)
REMARK       I    between atoms: C1_2  and  N1_3 
REMARK       I    between atoms: C1_2  and  N3_15 
REMARK    1  A    between atoms: N1_3  and  C2_5 
REMARK    2  A    between atoms: C4_7  and  C5_8 
REMARK    3  A    between atoms: C5_8  and  C6_10 
REMARK    4  A    between atoms: N3_15  and  C7_17 
REMARK    5  A    between atoms: C9_19  and  O4_20 
REMARK    6  A    between atoms: O4_20  and  C10_21 
REMARK    7  A    between atoms: C10_21  and  C11_22 
REMARK    8  A    between atoms: C17_31  and  C18_32 
REMARK    9  A    between atoms: C19_35  and  C20_36 
ROOT
HETATM    1  C7  UNL     1       0.912   0.597  -0.779  1.00  0.00     0.039 A 
HETATM    2  C8  UNL     1      -0.197   0.051  -0.209  1.00  0.00     0.067 A 
HETATM    3  C9  UNL     1      -1.259   0.866   0.217  1.00  0.00     0.088 A 
HETATM    4  C17 UNL     1      -1.215   2.227   0.076  1.00  0.00     0.080 A 
HETATM    5  C19 UNL     1      -0.107   2.804  -0.495  1.00  0.00    -0.032 A 
HETATM    6  C23 UNL     1       0.918   2.000  -0.905  1.00  0.00     0.038 A 
ENDROOT
BRANCH   1   7
HETATM    7  N3  UNL     1       2.026  -0.121  -1.254  1.00  0.00    -0.309 N 
HETATM    8  C1  UNL     1       2.171  -1.499  -1.365  1.00  0.00     0.326 C 
HETATM    9  O1  UNL     1       1.267  -2.294  -1.035  1.00  0.00    -0.247 OA
HETATM   10  N1  UNL     1       3.412  -2.058  -1.883  1.00  0.00    -0.293 N 
ATOM     11  H1  UNL     1       3.364  -2.707  -2.668  1.00  0.00     0.172 HD
ATOM     12  H3  UNL     1       2.825   0.439  -1.553  1.00  0.00     0.170 HD
BRANCH  10  13
HETATM   13  C2  UNL     1       4.552  -1.773  -1.400  1.00  0.00     0.132 A 
HETATM   14  C3  UNL     1       4.872  -0.922  -0.338  1.00  0.00     0.093 A 
HETATM   15  C4  UNL     1       6.243  -0.942  -0.199  1.00  0.00     0.149 A 
HETATM   16  O3  UNL     1       6.700  -1.756  -1.124  1.00  0.00    -0.232 OA
HETATM   17  N2  UNL     1       5.740  -2.244  -1.824  1.00  0.00    -0.244 N 
ATOM     18  H2  UNL     1       5.861  -2.899  -2.596  1.00  0.00     0.196 HD
BRANCH  15  19
HETATM   19  C5  UNL     1       7.013  -0.197   0.787  1.00  0.00     0.198 C 
HETATM   20  O2  UNL     1       6.424   0.548   1.616  1.00  0.00    -0.289 OA
BRANCH  19  21
HETATM   21  C6  UNL     1       8.493  -0.283   0.854  1.00  0.00     0.200 C 
HETATM   22 CL1  UNL     1       9.130   0.731   2.137  1.00  0.00    -0.122 Cl
ENDBRANCH  19  21
ENDBRANCH  15  19
ENDBRANCH  10  13
ENDBRANCH   1   7
BRANCH   3  23
HETATM   23  O4  UNL     1      -2.358   0.253   0.786  1.00  0.00    -0.349 OA
BRANCH  23  24
HETATM   24  C10 UNL     1      -2.391  -1.132   0.926  1.00  0.00     0.183 C 
BRANCH  24  25
HETATM   25  C11 UNL     1      -3.719  -1.502   1.577  1.00  0.00     0.044 C 
HETATM   26  C12 UNL     1      -3.770  -2.984   1.736  1.00  0.00     0.015 C 
HETATM   27  C13 UNL     1      -4.374  -3.702   0.547  1.00  0.00     0.079 C 
HETATM   28  C14 UNL     1      -5.784  -3.266   0.289  1.00  0.00     0.246 C 
HETATM   29  F1  UNL     1      -6.659  -4.169   0.861  1.00  0.00    -0.206 F 
HETATM   30  F2  UNL     1      -5.968  -3.293  -1.093  1.00  0.00    -0.206 F 
HETATM   31  C15 UNL     1      -6.048  -1.853   0.778  1.00  0.00     0.116 C 
HETATM   32  C16 UNL     1      -4.833  -0.994   0.659  1.00  0.00     0.181 C 
HETATM   33  F3  UNL     1      -4.375  -0.902  -0.643  1.00  0.00    -0.249 F 
ENDBRANCH  24  25
ENDBRANCH  23  24
ENDBRANCH   3  23
BRANCH   5  34
HETATM   34  C20 UNL     1      -0.074   4.241  -0.638  1.00  0.00     0.020 A 
HETATM   35  C21 UNL     1       1.194   4.878  -1.174  1.00  0.00     0.010 A 
HETATM   36  C22 UNL     1      -0.099   4.942  -1.938  1.00  0.00     0.010 A 
ENDBRANCH   5  34
BRANCH   4  37
HETATM   37  C18 UNL     1      -2.304   3.050   0.517  1.00  0.00     0.212 C 
HETATM   38  O5  UNL     1      -3.235   3.321  -0.265  1.00  0.00    -0.644 OA
HETATM   39  O6  UNL     1      -2.351   3.555   1.795  1.00  0.00    -0.644 OA
ENDBRANCH   4  37
TORSDOF 9
