REMARK  9 active torsions:
REMARK  status: ('A' for Active; 'I' for Inactive)
REMARK    1  A    between atoms: C2_2  and  N1_3 
REMARK    2  A    between atoms: C2_2  and  C10_16 
REMARK    3  A    between atoms: N1_3  and  O1_5 
REMARK    4  A    between atoms: O1_5  and  C3_6 
REMARK    5  A    between atoms: C3_6  and  C4_7 
REMARK    6  A    between atoms: C4_7  and  C5_9 
REMARK    7  A    between atoms: N2_10  and  C6_12 
REMARK    8  A    between atoms: C14_20  and  N3_21 
REMARK       I    between atoms: N3_21  and  C15_23 
REMARK    9  A    between atoms: C15_23  and  C16_25 
ROOT
HETATM    1  C10 UNL     1       1.861  -1.600   0.216  1.00  0.00     0.106 C 
HETATM    2  C11 UNL     1       1.174  -2.950   0.172  1.00  0.00     0.074 C 
HETATM    3  C12 UNL     1       2.435  -3.230   0.974  1.00  0.00     0.127 C 
HETATM    4  C13 UNL     1       3.480  -3.165  -0.096  1.00  0.00     0.060 C 
HETATM    5  C14 UNL     1       3.045  -1.785  -0.667  1.00  0.00     0.124 C 
HETATM    6  O4  UNL     1       2.297  -1.938   1.487  1.00  0.00    -0.370 OA
ENDROOT
BRANCH   1   7
HETATM    7  C2  UNL     1       1.017  -0.374   0.106  1.00  0.00     0.138 C 
HETATM    8  C1  UNL     1       0.540  -0.337  -1.362  1.00  0.00     0.037 C 
BRANCH   7   9
HETATM    9  N1  UNL     1      -0.117  -0.470   0.921  1.00  0.00    -0.295 N 
ATOM     10  H1  UNL     1      -0.174  -1.183   1.648  1.00  0.00     0.188 HD
BRANCH   9  11
HETATM   11  O1  UNL     1      -1.115   0.381   0.732  1.00  0.00    -0.277 OA
BRANCH  11  12
HETATM   12  C3  UNL     1      -2.312  -0.335   0.570  1.00  0.00     0.285 C 
BRANCH  12  13
HETATM   13  C4  UNL     1      -3.533   0.521   0.428  1.00  0.00     0.190 C 
HETATM   14  O2  UNL     1      -3.432   1.705   0.583  1.00  0.00    -0.289 OA
BRANCH  13  15
HETATM   15  C5  UNL     1      -4.821  -0.128   0.096  1.00  0.00     0.136 C 
HETATM   16  N2  UNL     1      -6.019   0.359   0.498  1.00  0.00    -0.388 N 
ATOM     17  H2  UNL     1      -6.510  -0.223   1.176  1.00  0.00     0.159 HD
BRANCH  16  18
HETATM   18  C6  UNL     1      -6.685   1.516   0.140  1.00  0.00     0.018 C 
HETATM   19  C7  UNL     1      -6.866   2.388   1.405  1.00  0.00     0.037 C 
HETATM   20  C8  UNL     1      -8.097   1.235  -0.381  1.00  0.00     0.037 C 
HETATM   21  C9  UNL     1      -6.041   2.426  -0.867  1.00  0.00     0.037 C 
ENDBRANCH  16  18
ENDBRANCH  13  15
ENDBRANCH  12  13
ENDBRANCH  11  12
ENDBRANCH   9  11
ENDBRANCH   7   9
ENDBRANCH   1   7
BRANCH   5  22
HETATM   22  N3  UNL     1       4.114  -0.860  -0.618  1.00  0.00    -0.349 N 
HETATM   23  C15 UNL     1       5.079  -0.630   0.359  1.00  0.00     0.255 C 
HETATM   24  O3  UNL     1       4.970  -1.371   1.411  1.00  0.00    -0.268 OA
ATOM     25  H3  UNL     1       4.191  -0.259  -1.438  1.00  0.00     0.163 HD
BRANCH  23  26
HETATM   26  C16 UNL     1       6.182   0.289   0.408  1.00  0.00     0.077 A 
HETATM   27  C17 UNL     1       7.100   0.166   1.467  1.00  0.00     0.053 A 
HETATM   28 CL1  UNL     1       6.897  -1.088   2.693  1.00  0.00    -0.083 Cl
HETATM   29  C18 UNL     1       8.189   1.001   1.597  1.00  0.00     0.050 A 
HETATM   30  C19 UNL     1       8.415   2.003   0.675  1.00  0.00     0.059 A 
HETATM   31 CL2  UNL     1       9.798   3.085   0.819  1.00  0.00    -0.082 Cl
HETATM   32  C20 UNL     1       7.545   2.134  -0.349  1.00  0.00     0.078 A 
HETATM   33 CL3  UNL     1       7.848   3.406  -1.521  1.00  0.00    -0.081 Cl
HETATM   34  C21 UNL     1       6.441   1.285  -0.479  1.00  0.00     0.074 A 
HETATM   35 CL4  UNL     1       5.412   1.621  -1.831  1.00  0.00    -0.081 Cl
ENDBRANCH  23  26
ENDBRANCH   5  22
TORSDOF 9
