REMARK  11 active torsions:
REMARK  status: ('A' for Active; 'I' for Inactive)
REMARK    1  A    between atoms: C2_2  and  C3_3 
REMARK    2  A    between atoms: C4_4  and  C5_5 
REMARK    3  A    between atoms: C11_11  and  O1_12 
REMARK    4  A    between atoms: C12_14  and  N1_15 
REMARK       I    between atoms: N1_15  and  C13_17 
REMARK       I    between atoms: C13_17  and  N2_19 
REMARK    5  A    between atoms: N2_19  and  C14_21 
REMARK    6  A    between atoms: C14_21  and  C15_22 
REMARK    7  A    between atoms: C15_22  and  C16_23 
REMARK    8  A    between atoms: C16_23  and  C17_24 
REMARK    9  A    between atoms: C17_24  and  N3_25 
REMARK       I    between atoms: N3_25  and  C19_27 
REMARK   10  A    between atoms: C19_27  and  O4_29 
REMARK   11  A    between atoms: O4_29  and  C20_30 
ROOT
HETATM    1  C5  UNL     1       4.150   0.429   0.887  1.00  0.00     0.024 C 
HETATM    2  C6  UNL     1       3.679   1.515  -0.105  1.00  0.00     0.004 C 
HETATM    3  C7  UNL     1       4.617   1.231  -1.263  1.00  0.00     0.007 C 
HETATM    4  C8  UNL     1       4.782  -0.270  -1.324  1.00  0.00     0.013 C 
HETATM    5  C9  UNL     1       4.183  -0.741  -0.012  1.00  0.00    -0.009 C 
HETATM    6  C10 UNL     1       4.860  -1.972   0.524  1.00  0.00     0.018 C 
HETATM    7  C11 UNL     1       2.753  -1.136  -0.305  1.00  0.00     0.150 C 
HETATM    8  C12 UNL     1       1.860  -0.075  -0.795  1.00  0.00     0.123 C 
HETATM    9  C22 UNL     1       2.245   1.326  -0.431  1.00  0.00    -0.020 C 
HETATM   10  C23 UNL     1       1.908   2.281  -1.581  1.00  0.00     0.017 C 
HETATM   11  C24 UNL     1       1.429   1.800   0.754  1.00  0.00     0.017 C 
ENDROOT
BRANCH   8  12
HETATM   12  N1  UNL     1       0.480  -0.299  -0.418  1.00  0.00    -0.335 N 
HETATM   13  C13 UNL     1      -0.563  -0.514  -1.377  1.00  0.00     0.316 C 
HETATM   14  O2  UNL     1      -0.202  -0.496  -2.594  1.00  0.00    -0.247 OA
HETATM   15  N2  UNL     1      -1.905  -0.731  -0.988  1.00  0.00    -0.343 N 
ATOM     16  H2  UNL     1      -2.155  -0.738   0.001  1.00  0.00     0.164 HD
ATOM     17  H1  UNL     1       0.240  -0.304   0.573  1.00  0.00     0.164 HD
BRANCH  15  18
HETATM   18  C14 UNL     1      -2.907  -0.940  -1.976  1.00  0.00     0.124 C 
BRANCH  18  19
HETATM   19  C15 UNL     1      -4.288  -1.157  -1.381  1.00  0.00     0.021 C 
BRANCH  19  20
HETATM   20  C16 UNL     1      -4.351  -2.335  -0.486  1.00  0.00     0.022 C 
BRANCH  20  21
HETATM   21  C17 UNL     1      -5.719  -2.522   0.083  1.00  0.00     0.127 C 
BRANCH  21  22
HETATM   22  N3  UNL     1      -6.238  -1.453   0.867  1.00  0.00    -0.332 N 
HETATM   23  C18 UNL     1      -5.932  -1.390   2.300  1.00  0.00     0.155 C 
HETATM   24  C19 UNL     1      -7.043  -0.451   0.296  1.00  0.00     0.362 C 
HETATM   25  O3  UNL     1      -7.381  -0.434  -0.906  1.00  0.00    -0.238 OA
BRANCH  24  26
HETATM   26  O4  UNL     1      -7.500   0.586   1.085  1.00  0.00    -0.304 OA
BRANCH  26  27
HETATM   27  C20 UNL     1      -8.314   1.627   0.570  1.00  0.00     0.176 C 
HETATM   28  C21 UNL     1      -7.653   2.395  -0.531  1.00  0.00     0.034 C 
ENDBRANCH  26  27
ENDBRANCH  24  26
ENDBRANCH  21  22
ENDBRANCH  20  21
ENDBRANCH  19  20
ENDBRANCH  18  19
ENDBRANCH  15  18
ENDBRANCH   8  12
BRANCH   7  29
HETATM   29  O1  UNL     1       2.808  -2.259  -1.143  1.00  0.00    -0.393 OA
ATOM     30  H1  UNL     1       1.910  -2.507  -1.327  1.00  0.00     0.210 HD
ENDBRANCH   7  29
BRANCH   1  31
HETATM   31  C4  UNL     1       5.407   0.930   1.430  1.00  0.00    -0.021 C 
HETATM   32  C3  UNL     1       6.621   0.530   1.255  1.00  0.00    -0.004 C 
BRANCH  32  33
HETATM   33  C2  UNL     1       7.723   1.203   1.916  1.00  0.00    -0.011 C 
HETATM   34  C1  UNL     1       8.951   0.769   1.715  1.00  0.00     0.011 C 
ENDBRANCH  32  33
ENDBRANCH   1  31
TORSDOF 11
