REMARK  11 active torsions:
REMARK  status: ('A' for Active; 'I' for Inactive)
REMARK    1  A    between atoms: C2_2  and  C3_3 
REMARK    2  A    between atoms: C2_2  and  C26_32 
REMARK    3  A    between atoms: C3_3  and  C4_4 
REMARK    4  A    between atoms: C4_4  and  C5_5 
REMARK    5  A    between atoms: C5_5  and  C6_6 
REMARK    6  A    between atoms: C6_6  and  C8_8 
REMARK    7  A    between atoms: C11_11  and  C12_12 
REMARK    8  A    between atoms: C15_15  and  O1_16 
REMARK    9  A    between atoms: C20_22  and  O2_23 
REMARK   10  A    between atoms: C24_28  and  C25_29 
REMARK   11  A    between atoms: C25_29  and  O3_30 
ROOT
HETATM    1  C8  UNL     1       0.677  -1.106  -0.232  1.00  0.00     0.000 C 
HETATM    2  C9  UNL     1       0.557  -0.384   1.044  1.00  0.00     0.006 C 
HETATM    3  C10 UNL     1      -0.489   0.721   0.831  1.00  0.00     0.006 C 
HETATM    4  C11 UNL     1      -1.654   0.170   0.054  1.00  0.00    -0.005 C 
HETATM    5  C18 UNL     1      -1.758  -1.342   0.048  1.00  0.00     0.008 C 
HETATM    6  C19 UNL     1      -2.993  -1.757  -0.652  1.00  0.00     0.026 A 
HETATM    7  C20 UNL     1      -3.294  -1.393  -2.074  1.00  0.00     0.127 A 
HETATM    8  C21 UNL     1      -2.995  -2.764  -1.672  1.00  0.00     0.022 A 
HETATM    9  C22 UNL     1      -1.712  -3.349  -2.128  1.00  0.00     0.008 C 
HETATM   10  C23 UNL     1      -0.487  -2.605  -1.736  1.00  0.00     0.013 C 
HETATM   11  C24 UNL     1      -0.491  -2.066  -0.323  1.00  0.00    -0.011 C 
ENDROOT
BRANCH   1  12
HETATM   12  C6  UNL     1       1.980  -1.501  -0.741  1.00  0.00    -0.014 C 
HETATM   13  C7  UNL     1       2.744  -2.424   0.253  1.00  0.00     0.010 C 
BRANCH  12  14
HETATM   14  C5  UNL     1       2.881  -0.369  -1.108  1.00  0.00     0.005 C 
BRANCH  14  15
HETATM   15  C4  UNL     1       3.394   0.559  -0.105  1.00  0.00     0.001 C 
BRANCH  15  16
HETATM   16  C3  UNL     1       4.359   1.530  -0.833  1.00  0.00     0.015 C 
BRANCH  16  17
HETATM   17  C2  UNL     1       4.961   2.532   0.079  1.00  0.00     0.083 C 
HETATM   18  C1  UNL     1       5.874   3.466  -0.745  1.00  0.00     0.021 C 
BRANCH  17  19
HETATM   19  C26 UNL     1       5.858   1.967   1.114  1.00  0.00     0.176 C 
HETATM   20  O4  UNL     1       6.167   0.774   1.134  1.00  0.00    -0.648 OA
HETATM   21  O5  UNL     1       6.331   2.891   2.069  1.00  0.00    -0.648 OA
ENDBRANCH  17  19
ENDBRANCH  16  17
ENDBRANCH  15  16
ENDBRANCH  14  15
ENDBRANCH  12  14
ENDBRANCH   1  12
BRANCH  11  22
HETATM   22  C25 UNL     1      -0.255  -3.251   0.579  1.00  0.00     0.174 C 
BRANCH  22  23
HETATM   23  O3  UNL     1      -1.355  -4.151   0.518  1.00  0.00    -0.400 OA
ATOM     24  H3  UNL     1      -1.206  -4.898   1.086  1.00  0.00     0.209 HD
ENDBRANCH  22  23
ENDBRANCH  11  22
BRANCH   4  25
HETATM   25  C12 UNL     1      -2.942   0.746   0.521  1.00  0.00    -0.004 C 
HETATM   26  C13 UNL     1      -3.302   0.526   1.943  1.00  0.00     0.008 C 
HETATM   27  C14 UNL     1      -4.554   1.401   2.093  1.00  0.00     0.032 C 
HETATM   28  C15 UNL     1      -4.578   2.316   0.873  1.00  0.00     0.122 C 
HETATM   29  C16 UNL     1      -3.135   2.203   0.336  1.00  0.00     0.015 C 
HETATM   30  C17 UNL     1      -2.330   3.123   1.177  1.00  0.00     0.013 C 
BRANCH  28  31
HETATM   31  O1  UNL     1      -4.852   3.615   1.216  1.00  0.00    -0.395 OA
ATOM     32  H1  UNL     1      -4.867   4.185   0.456  1.00  0.00     0.210 HD
ENDBRANCH  28  31
ENDBRANCH   4  25
BRANCH   7  33
HETATM   33  O2  UNL     1      -2.386  -0.755  -2.890  1.00  0.00    -0.395 OA
ATOM     34  H2  UNL     1      -2.577  -0.524  -3.792  1.00  0.00     0.210 HD
ENDBRANCH   7  33
TORSDOF 11
