REMARK  9 active torsions:
REMARK  status: ('A' for Active; 'I' for Inactive)
REMARK    1  A    between atoms: C2_2  and  C3_3 
REMARK    2  A    between atoms: C3_3  and  C4_4 
REMARK    3  A    between atoms: C19_20  and  C20_21 
REMARK    4  A    between atoms: C21_24  and  C22_25 
REMARK       I    between atoms: C22_25  and  N1_27 
REMARK    5  A    between atoms: N1_27  and  C23_29 
REMARK    6  A    between atoms: C23_29  and  C24_30 
REMARK    7  A    between atoms: C24_30  and  C25_31 
REMARK    8  A    between atoms: C25_31  and  C26_32 
REMARK    9  A    between atoms: C26_32  and  N2_33 
ROOT
HETATM    1  C4  UNL     1      -2.576   1.792  -0.339  1.00  0.00    -0.040 C 
HETATM    2  C5  UNL     1      -1.670   2.912  -0.733  1.00  0.00     0.015 C 
HETATM    3  C6  UNL     1      -3.067   1.865   1.075  1.00  0.00     0.010 C 
HETATM    4  C7  UNL     1      -3.445   0.435   1.422  1.00  0.00     0.006 C 
HETATM    5  C8  UNL     1      -2.769  -0.436   0.389  1.00  0.00     0.002 C 
HETATM    6  C9  UNL     1      -1.876   0.435  -0.407  1.00  0.00    -0.001 C 
HETATM    7  C10 UNL     1      -0.579   0.412   0.308  1.00  0.00     0.017 C 
HETATM    8  C11 UNL     1      -0.461  -0.890   1.080  1.00  0.00    -0.015 C 
HETATM    9  C12 UNL     1      -0.083  -0.504   2.485  1.00  0.00     0.017 C 
HETATM   10  C13 UNL     1      -1.849  -1.445   0.991  1.00  0.00     0.069 C 
HETATM   11  C14 UNL     1      -1.692  -2.577   0.071  1.00  0.00     0.137 C 
HETATM   12  O1  UNL     1      -2.500  -3.463  -0.115  1.00  0.00    -0.297 OA
HETATM   13  C15 UNL     1      -0.380  -2.499  -0.625  1.00  0.00     0.075 C 
HETATM   14  C16 UNL     1       0.084  -3.780  -1.181  1.00  0.00     0.013 C 
HETATM   15  C17 UNL     1       1.475  -4.197  -0.878  1.00  0.00     0.002 C 
HETATM   16  C18 UNL     1       2.117  -3.602   0.301  1.00  0.00     0.017 C 
HETATM   17  C19 UNL     1       1.166  -2.847   1.225  1.00  0.00     0.106 C 
HETATM   18  C21 UNL     1       0.479  -1.837   0.406  1.00  0.00     0.072 C 
ENDROOT
BRANCH  18  19
HETATM   19  C22 UNL     1       1.554  -1.105  -0.344  1.00  0.00     0.228 C 
HETATM   20  O4  UNL     1       1.658  -1.187  -1.589  1.00  0.00    -0.273 OA
HETATM   21  N1  UNL     1       2.504  -0.280   0.348  1.00  0.00    -0.360 N 
ATOM     22  H1  UNL     1       2.448  -0.190   1.363  1.00  0.00     0.162 HD
BRANCH  21  23
HETATM   23  C23 UNL     1       3.534   0.422  -0.371  1.00  0.00     0.122 C 
BRANCH  23  24
HETATM   24  C24 UNL     1       4.392   1.207   0.556  1.00  0.00     0.021 C 
BRANCH  24  25
HETATM   25  C25 UNL     1       5.488   1.968  -0.110  1.00  0.00     0.029 C 
BRANCH  25  26
HETATM   26  C26 UNL     1       4.960   2.967  -1.109  1.00  0.00     0.229 C 
BRANCH  26  27
HETATM   27  N2  UNL     1       6.074   3.670  -1.719  1.00  0.00    -0.079 N 
ATOM     28  H23 UNL     1       6.685   4.102  -1.026  1.00  0.00     0.274 HD
ATOM     29  H22 UNL     1       6.754   3.032  -2.133  1.00  0.00     0.274 HD
ATOM     30  H21 UNL     1       5.717   4.346  -2.395  1.00  0.00     0.274 HD
ENDBRANCH  26  27
ENDBRANCH  25  26
ENDBRANCH  24  25
ENDBRANCH  23  24
ENDBRANCH  21  23
ENDBRANCH  18  19
BRANCH  17  31
HETATM   31  C20 UNL     1       0.410  -3.821   1.981  1.00  0.00     0.178 C 
HETATM   32  O2  UNL     1       0.491  -5.065   1.716  1.00  0.00    -0.648 OA
HETATM   33  O3  UNL     1      -0.455  -3.566   3.033  1.00  0.00    -0.648 OA
ENDBRANCH  17  31
BRANCH   1  34
HETATM   34  C3  UNL     1      -3.719   1.702  -1.338  1.00  0.00     0.009 C 
BRANCH  34  35
HETATM   35  C2  UNL     1      -4.525   2.972  -1.387  1.00  0.00    -0.004 C 
HETATM   36  C1  UNL     1      -5.626   2.768  -2.407  1.00  0.00     0.005 C 
ENDBRANCH  34  35
ENDBRANCH   1  34
TORSDOF 9
