REMARK  13 active torsions:
REMARK  status: ('A' for Active; 'I' for Inactive)
REMARK    1  A    between atoms: C2_2  and  O1_3 
REMARK    2  A    between atoms: O1_3  and  C3_4 
REMARK    3  A    between atoms: C3_4  and  C4_6 
REMARK    4  A    between atoms: C4_6  and  N1_7 
REMARK    5  A    between atoms: C6_11  and  N3_12 
REMARK    6  A    between atoms: N3_12  and  C7_14 
REMARK    7  A    between atoms: C8_17  and  C9_18 
REMARK    8  A    between atoms: C9_18  and  N5_19 
REMARK    9  A    between atoms: N5_19  and  N6_20 
REMARK       I    between atoms: N6_20  and  C10_21 
REMARK   10  A    between atoms: C11_26  and  O4_27 
REMARK   11  A    between atoms: C12_29  and  O5_30 
REMARK   12  A    between atoms: N9_34  and  C15_35 
REMARK   13  A    between atoms: C15_35  and  C16_36 
ROOT
HETATM    1  N1  UNL     1      -2.296   1.418   0.225  1.00  0.00    -0.163 NA
HETATM    2  C5  UNL     1      -1.567   2.156  -0.756  1.00  0.00     0.176 C 
HETATM    3  N2  UNL     1      -0.487   1.474  -1.373  1.00  0.00    -0.341 N 
ATOM      4  H2  UNL     1       0.125   1.986  -2.008  1.00  0.00     0.167 HD
HETATM    5  C6  UNL     1      -0.259   0.227  -1.153  1.00  0.00     0.137 C 
HETATM    6  C13 UNL     1      -1.083  -0.580  -0.229  1.00  0.00     0.198 C 
HETATM    7  C14 UNL     1      -0.261  -0.581   1.091  1.00  0.00     0.076 C 
HETATM    8  N9  UNL     1      -1.370  -1.908  -0.632  1.00  0.00    -0.331 N 
HETATM    9  C19 UNL     1      -2.033  -1.988  -1.866  1.00  0.00     0.142 C 
HETATM   10  C20 UNL     1      -3.285  -1.193  -1.702  1.00  0.00     0.130 C 
HETATM   11  N10 UNL     1      -4.145  -1.156  -2.622  1.00  0.00    -0.383 N 
ATOM     12 1H10 UNL     1      -5.001  -0.613  -2.510  1.00  0.00     0.157 HD
ATOM     13 2H10 UNL     1      -4.022  -1.666  -3.497  1.00  0.00     0.157 HD
HETATM   14  N11 UNL     1      -3.456  -0.486  -0.490  1.00  0.00    -0.269 N 
ATOM     15  H11 UNL     1      -4.379  -0.381  -0.068  1.00  0.00     0.190 HD
HETATM   16  N12 UNL     1      -2.334   0.058   0.106  1.00  0.00    -0.208 N 
ENDROOT
BRANCH   5  17
HETATM   17  N3  UNL     1       0.849  -0.318  -1.836  1.00  0.00    -0.326 N 
ATOM     18  H3  UNL     1       0.638  -0.887  -2.656  1.00  0.00     0.169 HD
BRANCH  17  19
HETATM   19  C7  UNL     1       2.211  -0.168  -1.517  1.00  0.00     0.146 A 
HETATM   20  N4  UNL     1       2.687   0.526  -0.481  1.00  0.00    -0.324 N 
HETATM   21  C8  UNL     1       4.009   0.633  -0.201  1.00  0.00     0.141 A 
ATOM     22  H4  UNL     1       2.022   1.000   0.131  1.00  0.00     0.169 HD
HETATM   23  N8  UNL     1       4.886   0.012  -0.996  1.00  0.00    -0.319 N 
HETATM   24  C11 UNL     1       4.511  -0.723  -2.079  1.00  0.00     0.179 A 
ATOM     25  H8  UNL     1       5.880   0.092  -0.782  1.00  0.00     0.169 HD
HETATM   26  C12 UNL     1       3.156  -0.792  -2.315  1.00  0.00     0.161 A 
BRANCH  21  27
HETATM   27  C9  UNL     1       4.505   1.438   0.896  1.00  0.00     0.273 C 
BRANCH  27  28
HETATM   28  N5  UNL     1       5.620   1.481   1.317  1.00  0.00    -0.253 NA
BRANCH  28  29
HETATM   29  N6  UNL     1       6.732   1.629   1.859  1.00  0.00    -0.188 NA
HETATM   30  C10 UNL     1       7.969   1.795   2.462  1.00  0.00     0.437 C 
HETATM   31  N7  UNL     1       9.105   1.325   1.607  1.00  0.00    -0.023 NA
HETATM   32  O3  UNL     1       8.312   2.225   3.506  1.00  0.00    -0.231 OA
ENDBRANCH  28  29
ENDBRANCH  27  28
ENDBRANCH  21  27
BRANCH  24  33
HETATM   33  O4  UNL     1       5.438  -1.360  -2.901  1.00  0.00    -0.344 OA
ATOM     34  H4  UNL     1       5.176  -1.873  -3.657  1.00  0.00     0.219 HD
ENDBRANCH  24  33
BRANCH  26  35
HETATM   35  O5  UNL     1       2.727  -1.537  -3.417  1.00  0.00    -0.354 OA
ATOM     36  H5  UNL     1       3.375  -1.965  -3.964  1.00  0.00     0.218 HD
ENDBRANCH  26  35
ENDBRANCH  17  19
ENDBRANCH   5  17
BRANCH   8  37
HETATM   37  C15 UNL     1      -0.622  -2.924  -0.077  1.00  0.00     0.070 C 
BRANCH  37  38
HETATM   38  C16 UNL     1      -1.001  -4.305  -0.517  1.00  0.00     0.016 C 
HETATM   39  C17 UNL     1      -0.045  -5.277   0.194  1.00  0.00     0.015 C 
HETATM   40  C18 UNL     1      -2.425  -4.705  -0.209  1.00  0.00     0.015 C 
ENDBRANCH  37  38
ENDBRANCH   8  37
BRANCH   1  41
HETATM   41  C4  UNL     1      -3.593   1.968   0.410  1.00  0.00     0.233 C 
BRANCH  41  42
HETATM   42  C3  UNL     1      -3.656   3.288   1.074  1.00  0.00     0.274 C 
HETATM   43  O2  UNL     1      -2.680   3.914   1.532  1.00  0.00    -0.264 OA
BRANCH  42  44
HETATM   44  O1  UNL     1      -4.908   3.861   1.190  1.00  0.00    -0.321 OA
BRANCH  44  45
HETATM   45  C2  UNL     1      -5.239   5.077   1.765  1.00  0.00     0.174 C 
HETATM   46  C1  UNL     1      -4.906   5.145   3.225  1.00  0.00     0.034 C 
ENDBRANCH  44  45
ENDBRANCH  42  44
ENDBRANCH  41  42
ENDBRANCH   1  41
TORSDOF 13
