REMARK  12 active torsions:
REMARK  status: ('A' for Active; 'I' for Inactive)
REMARK       I    between atoms: C2_2  and  N1_4 
REMARK    1  A    between atoms: N1_4  and  C3_6 
REMARK    2  A    between atoms: C3_6  and  C4_7 
REMARK    3  A    between atoms: C4_7  and  S1_8 
REMARK    4  A    between atoms: S1_8  and  S2_9 
REMARK    5  A    between atoms: S2_9  and  C5_10 
REMARK    6  A    between atoms: C5_10  and  C6_11 
REMARK    7  A    between atoms: C6_11  and  N2_12 
REMARK    8  A    between atoms: C10_17  and  S3_18 
REMARK    9  A    between atoms: C11_22  and  N3_23 
REMARK   10  A    between atoms: C12_29  and  N6_30 
REMARK   11  A    between atoms: N6_30  and  N7_32 
REMARK   12  A    between atoms: N8_35  and  O5_36 
ROOT
HETATM    1  N2  UNL     1      -0.402  -0.566  -1.142  1.00  0.00    -0.390 N 
ATOM      2  H2  UNL     1      -0.795  -1.502  -1.240  1.00  0.00     0.159 HD
HETATM    3  C7  UNL     1      -1.138   0.398  -0.731  1.00  0.00     0.044 C 
HETATM    4  C8  UNL     1      -2.544   0.397  -0.349  1.00  0.00     0.065 A 
HETATM    5  C9  UNL     1      -2.962   1.704  -0.477  1.00  0.00     0.073 A 
HETATM    6  C10 UNL     1      -4.270   2.035  -0.184  1.00  0.00     0.153 A 
HETATM    7  C11 UNL     1      -5.111   1.027   0.230  1.00  0.00     0.150 A 
HETATM    8  N4  UNL     1      -4.672  -0.252   0.348  1.00  0.00    -0.204 N 
HETATM    9  N5  UNL     1      -5.253  -1.381   0.714  1.00  0.00    -0.118 N 
ATOM     10  H5  UNL     1      -6.229  -1.475   0.995  1.00  0.00     0.206 HD
HETATM   11  C12 UNL     1      -4.364  -2.386   0.660  1.00  0.00     0.739 A 
HETATM   12  N8  UNL     1      -3.181  -1.897   0.249  1.00  0.00    -0.030 N 
HETATM   13  C13 UNL     1      -3.383  -0.592   0.062  1.00  0.00     0.190 A 
HETATM   14  N9  UNL     1      -1.879   2.532  -0.924  1.00  0.00    -0.378 N 
ATOM     15  H9  UNL     1      -1.941   3.434  -1.396  1.00  0.00     0.160 HD
HETATM   16  C14 UNL     1      -0.667   1.801  -0.555  1.00  0.00     0.128 C 
HETATM   17  C15 UNL     1      -0.281   2.084   0.880  1.00  0.00     0.039 C 
ENDROOT
BRANCH   1  18
HETATM   18  C6  UNL     1       0.967  -0.329  -1.462  1.00  0.00     0.130 C 
BRANCH  18  19
HETATM   19  C5  UNL     1       1.772  -1.586  -1.680  1.00  0.00     0.105 C 
BRANCH  19  20
HETATM   20  S2  UNL     1       3.475  -1.023  -2.071  1.00  0.00    -0.096 SA
BRANCH  20  21
HETATM   21  S1  UNL     1       4.213  -0.094  -0.305  1.00  0.00    -0.096 SA
BRANCH  21  22
HETATM   22  C4  UNL     1       5.037  -1.424   0.654  1.00  0.00     0.105 C 
BRANCH  22  23
HETATM   23  C3  UNL     1       6.233  -1.838  -0.169  1.00  0.00     0.133 C 
BRANCH  23  24
HETATM   24  N1  UNL     1       7.146  -0.747  -0.400  1.00  0.00    -0.361 N 
HETATM   25  C2  UNL     1       7.796  -0.075   0.658  1.00  0.00     0.213 C 
HETATM   26  C1  UNL     1       8.734   1.057   0.382  1.00  0.00     0.117 C 
HETATM   27  O1  UNL     1       7.642  -0.365   1.859  1.00  0.00    -0.274 OA
ATOM     28  H1  UNL     1       7.328  -0.451  -1.359  1.00  0.00     0.162 HD
ENDBRANCH  23  24
ENDBRANCH  22  23
ENDBRANCH  21  22
ENDBRANCH  20  21
ENDBRANCH  19  20
ENDBRANCH  18  19
ENDBRANCH   1  18
BRANCH   6  29
HETATM   29  S3  UNL     1      -4.824   3.689  -0.339  1.00  0.00     0.143 S 
HETATM   30  O2  UNL     1      -3.777   4.684   0.020  1.00  0.00    -0.591 OA
HETATM   31  O3  UNL     1      -5.984   3.911   0.618  1.00  0.00    -0.591 OA
HETATM   32  O4  UNL     1      -5.416   4.011  -1.875  1.00  0.00    -0.591 OA
ENDBRANCH   6  29
BRANCH  12  33
HETATM   33  O5  UNL     1      -2.081  -2.685   0.097  1.00  0.00    -0.268 OA
ATOM     34  H5  UNL     1      -1.245  -2.339  -0.193  1.00  0.00     0.246 HD
ENDBRANCH  12  33
BRANCH   7  35
HETATM   35  N3  UNL     1      -6.336   1.326   0.505  1.00  0.00    -0.383 N 
ATOM     36  H32 UNL     1      -6.666   2.287   0.416  1.00  0.00     0.157 HD
ATOM     37  H31 UNL     1      -6.959   0.579   0.812  1.00  0.00     0.157 HD
ENDBRANCH   7  35
BRANCH  11  38
HETATM   38  N6  UNL     1      -4.620  -3.635   0.962  1.00  0.00    -0.135 N 
ATOM     39  H6  UNL     1      -3.885  -4.339   0.894  1.00  0.00     0.205 HD
BRANCH  38  40
HETATM   40  N7  UNL     1      -5.903  -3.998   1.378  1.00  0.00    -0.331 N 
ATOM     41  H72 UNL     1      -6.626  -3.282   1.441  1.00  0.00     0.177 HD
ATOM     42  H71 UNL     1      -6.102  -4.970   1.613  1.00  0.00     0.177 HD
ENDBRANCH  38  40
ENDBRANCH  11  38
TORSDOF 12
