REMARK  12 active torsions:
REMARK  status: ('A' for Active; 'I' for Inactive)
REMARK    1  A    between atoms: C2_3  and  O1_4 
REMARK    2  A    between atoms: C3_6  and  S1_7 
REMARK    3  A    between atoms: S1_7  and  C4_8 
REMARK    4  A    between atoms: C4_8  and  C5_9 
REMARK    5  A    between atoms: C5_9  and  O2_10 
REMARK    6  A    between atoms: C5_9  and  C6_12 
REMARK    7  A    between atoms: C6_12  and  N2_13 
REMARK    8  A    between atoms: C8_18  and  N4_19 
REMARK    9  A    between atoms: N6_26  and  S2_27 
REMARK   10  A    between atoms: S2_27  and  C10_30 
REMARK   11  A    between atoms: C14_34  and  N7_35 
REMARK   12  A    between atoms: N7_35  and  O7_37 
ROOT
HETATM    1  C1  UNL     1       0.949  -4.779  -0.875  1.00  0.00     0.161 C 
HETATM    2  N1  UNL     1       1.151  -3.346  -0.848  1.00  0.00    -0.306 N 
HETATM    3  C2  UNL     1       0.660  -2.482   0.082  1.00  0.00     0.179 A 
HETATM    4  C3  UNL     1       1.067  -1.207  -0.232  1.00  0.00     0.141 A 
HETATM    5  N6  UNL     1       1.809  -1.337  -1.365  1.00  0.00    -0.200 N 
HETATM    6  C16 UNL     1       1.854  -2.633  -1.730  1.00  0.00     0.197 A 
HETATM    7  S3  UNL     1       2.630  -3.275  -3.033  1.00  0.00    -0.039 SA
ENDROOT
BRANCH   4   8
HETATM    8  S1  UNL     1       0.674   0.301   0.623  1.00  0.00    -0.104 SA
BRANCH   8   9
HETATM    9  C4  UNL     1      -0.486   0.103   1.947  1.00  0.00     0.114 C 
BRANCH   9  10
HETATM   10  C5  UNL     1      -1.916  -0.133   1.528  1.00  0.00     0.146 C 
BRANCH  10  11
HETATM   11  O2  UNL     1      -2.636  -0.271   2.739  1.00  0.00    -0.393 OA
ATOM     12  H2  UNL     1      -3.536  -0.420   2.475  1.00  0.00     0.210 HD
ENDBRANCH  10  11
BRANCH  10  13
HETATM   13  C6  UNL     1      -2.498   1.122   0.883  1.00  0.00     0.171 C 
BRANCH  13  14
HETATM   14  N2  UNL     1      -3.866   0.934   0.462  1.00  0.00    -0.248 N 
HETATM   15  C7  UNL     1      -4.146   0.457  -0.790  1.00  0.00     0.344 A 
HETATM   16  O3  UNL     1      -3.188   0.190  -1.538  1.00  0.00    -0.246 OA
HETATM   17  N3  UNL     1      -5.398   0.271  -1.234  1.00  0.00    -0.141 N 
HETATM   18  C8  UNL     1      -6.447   0.556  -0.435  1.00  0.00     0.683 A 
ATOM     19  H3  UNL     1      -5.557  -0.086  -2.176  1.00  0.00     0.189 HD
HETATM   20  N5  UNL     1      -6.182   1.024   0.794  1.00  0.00    -0.141 N 
HETATM   21  C9  UNL     1      -4.922   1.213   1.244  1.00  0.00     0.344 A 
ATOM     22  H5  UNL     1      -6.962   1.246   1.413  1.00  0.00     0.189 HD
HETATM   23  O4  UNL     1      -4.715   1.660   2.417  1.00  0.00    -0.246 OA
BRANCH  18  24
HETATM   24  N4  UNL     1      -7.665   0.375  -0.864  1.00  0.00    -0.234 N 
ATOM     25  H42 UNL     1      -7.866   0.019  -1.798  1.00  0.00     0.174 HD
ATOM     26  H41 UNL     1      -8.458   0.590  -0.260  1.00  0.00     0.174 HD
ENDBRANCH  18  24
ENDBRANCH  13  14
ENDBRANCH  10  13
ENDBRANCH   9  10
ENDBRANCH   8   9
ENDBRANCH   4   8
BRANCH   3  27
HETATM   27  O1  UNL     1      -0.122  -2.887   1.162  1.00  0.00    -0.344 OA
ATOM     28  H1  UNL     1      -0.465  -2.284   1.811  1.00  0.00     0.219 HD
ENDBRANCH   3  27
BRANCH   5  29
HETATM   29  S2  UNL     1       2.568  -0.059  -2.197  1.00  0.00     0.272 S 
HETATM   30  O5  UNL     1       3.202  -0.599  -3.467  1.00  0.00    -0.200 OA
HETATM   31  O6  UNL     1       1.503   0.949  -2.563  1.00  0.00    -0.200 OA
BRANCH  29  32
HETATM   32  C10 UNL     1       3.771   0.776  -1.246  1.00  0.00     0.082 A 
HETATM   33  C11 UNL     1       5.036   0.185  -1.153  1.00  0.00     0.025 A 
HETATM   34  C12 UNL     1       6.022   0.814  -0.429  1.00  0.00     0.004 A 
HETATM   35  C13 UNL     1       5.749   2.017   0.195  1.00  0.00     0.031 A 
HETATM   36  C14 UNL     1       4.508   2.607   0.111  1.00  0.00     0.055 A 
HETATM   37  C15 UNL     1       3.522   1.977  -0.614  1.00  0.00     0.056 A 
BRANCH  36  38
HETATM   38  N7  UNL     1       4.281   3.854   0.776  1.00  0.00    -0.269 N 
ATOM     39  H7  UNL     1       5.045   4.283   1.299  1.00  0.00     0.194 HD
BRANCH  38  40
HETATM   40  O7  UNL     1       3.083   4.479   0.731  1.00  0.00    -0.289 OA
ATOM     41  H7  UNL     1       2.932   5.307   1.172  1.00  0.00     0.244 HD
ENDBRANCH  38  40
ENDBRANCH  36  38
ENDBRANCH  29  32
ENDBRANCH   5  29
TORSDOF 12
