REMARK  6 active torsions:
REMARK  status: ('A' for Active; 'I' for Inactive)
REMARK       I    between atoms: N1_3  and  C3_5 
REMARK       I    between atoms: C3_5  and  N2_7 
REMARK    1  A    between atoms: N2_7  and  C4_9 
REMARK    2  A    between atoms: C4_9  and  C5_10 
REMARK    3  A    between atoms: C5_10  and  N3_11 
REMARK       I    between atoms: N3_11  and  C6_13 
REMARK       I    between atoms: C6_13  and  N5_17 
REMARK    4  A    between atoms: N5_17  and  C7_19 
REMARK    5  A    between atoms: C7_19  and  C8_20 
REMARK    6  A    between atoms: C8_20  and  N6_21 
ROOT
HETATM    1  C1  UNL     1       9.389  -0.439   1.715  1.00  0.00     0.037 C 
HETATM    2  C2  UNL     1       8.429  -0.568   0.991  1.00  0.00     0.003 C 
HETATM    3  N1  UNL     1       7.318  -0.693   0.155  1.00  0.00    -0.268 N 
ATOM      4  H1  UNL     1       7.401  -1.228  -0.710  1.00  0.00     0.181 HD
HETATM    5  C3  UNL     1       6.076  -0.092   0.483  1.00  0.00     0.327 C 
HETATM    6  O1  UNL     1       5.931   0.575   1.546  1.00  0.00    -0.246 OA
HETATM    7  N2  UNL     1       4.995  -0.264  -0.424  1.00  0.00    -0.341 N 
ATOM      8  H2  UNL     1       5.099  -0.801  -1.285  1.00  0.00     0.164 HD
ENDROOT
BRANCH   7   9
HETATM    9  C4  UNL     1       3.720   0.369  -0.060  1.00  0.00     0.144 C 
BRANCH   9  10
HETATM   10  C5  UNL     1       2.716   0.081  -1.130  1.00  0.00     0.157 C 
BRANCH  10  11
HETATM   11  N3  UNL     1       1.462   0.706  -0.796  1.00  0.00    -0.225 N 
HETATM   12  C6  UNL     1       0.665   0.259   0.285  1.00  0.00     0.667 C 
HETATM   13  N4  UNL     1       1.017   0.214   1.498  1.00  0.00    -0.235 N 
HETATM   14  N5  UNL     1      -0.677  -0.171  -0.105  1.00  0.00    -0.225 N 
ATOM     15  H42 UNL     1       1.953   0.514   1.770  1.00  0.00     0.174 HD
ATOM     16  H41 UNL     1       0.443  -0.108   2.277  1.00  0.00     0.174 HD
ATOM     17  H5  UNL     1      -1.025  -1.111   0.083  1.00  0.00     0.177 HD
ATOM     18  H3  UNL     1       1.138   1.495  -1.356  1.00  0.00     0.177 HD
BRANCH  14  19
HETATM   19  C7  UNL     1      -1.460   0.809  -0.762  1.00  0.00     0.166 C 
BRANCH  19  20
HETATM   20  C8  UNL     1      -2.869   0.538  -1.069  1.00  0.00     0.257 C 
BRANCH  20  21
HETATM   21  N6  UNL     1      -3.750   0.393   0.029  1.00  0.00    -0.069 N 
HETATM   22  C9  UNL     1      -3.957   1.715   0.624  1.00  0.00     0.272 C 
HETATM   23  C10 UNL     1      -3.559  -0.602   1.008  1.00  0.00     0.237 C 
HETATM   24  C11 UNL     1      -3.945  -1.864   0.221  1.00  0.00     0.029 C 
HETATM   25  C12 UNL     1      -5.251  -1.413  -0.393  1.00  0.00     0.029 C 
HETATM   26  C13 UNL     1      -5.114   0.067  -0.516  1.00  0.00     0.237 C 
ENDBRANCH  20  21
ENDBRANCH  19  20
ENDBRANCH  14  19
ENDBRANCH  10  11
ENDBRANCH   9  10
ENDBRANCH   7   9
TORSDOF 6
