REMARK  5 active torsions:
REMARK  status: ('A' for Active; 'I' for Inactive)
REMARK    1  A    between atoms: C3_3  and  N1_4 
REMARK    2  A    between atoms: N1_4  and  C4_5 
REMARK    3  A    between atoms: C4_5  and  C5_6 
REMARK    4  A    between atoms: C5_6  and  N2_7 
REMARK       I    between atoms: N2_7  and  C6_9 
REMARK       I    between atoms: C6_9  and  N4_13 
REMARK    5  A    between atoms: N4_13  and  C7_15 
ROOT
HETATM    1  C1  UNL     1      -4.762  -2.353   1.620  1.00  0.00     0.013 C 
HETATM    2  C2  UNL     1      -3.712  -1.765   1.450  1.00  0.00    -0.089 C 
HETATM    3  C3  UNL     1      -2.447  -1.055   1.234  1.00  0.00     0.330 C 
ENDROOT
BRANCH   3   4
HETATM    4  N1  UNL     1      -2.553  -0.091   0.132  1.00  0.00    -0.056 N 
HETATM    5  C11 UNL     1      -3.385  -0.624  -0.934  1.00  0.00     0.238 C 
HETATM    6  C12 UNL     1      -4.502   0.367  -1.170  1.00  0.00     0.030 C 
HETATM    7  C13 UNL     1      -3.871   1.647  -0.606  1.00  0.00     0.030 C 
HETATM    8  C14 UNL     1      -3.231   1.059   0.654  1.00  0.00     0.238 C 
BRANCH   4   9
HETATM    9  C4  UNL     1      -1.258   0.152  -0.407  1.00  0.00     0.258 C 
BRANCH   9  10
HETATM   10  C5  UNL     1      -0.479   1.255   0.221  1.00  0.00     0.166 C 
BRANCH  10  11
HETATM   11  N2  UNL     1       0.806   1.326  -0.487  1.00  0.00    -0.225 N 
HETATM   12  C6  UNL     1       1.784   0.306  -0.394  1.00  0.00     0.668 C 
HETATM   13  N3  UNL     1       1.746  -0.660  -1.231  1.00  0.00    -0.235 N 
HETATM   14  N4  UNL     1       2.791   0.339   0.602  1.00  0.00    -0.213 N 
ATOM     15  H32 UNL     1       1.021  -0.684  -1.948  1.00  0.00     0.174 HD
ATOM     16  H31 UNL     1       2.450  -1.395  -1.164  1.00  0.00     0.174 HD
ATOM     17  H4  UNL     1       2.789   1.074   1.309  1.00  0.00     0.178 HD
ATOM     18  H2  UNL     1       1.001   2.141  -1.068  1.00  0.00     0.177 HD
BRANCH  14  19
HETATM   19  C7  UNL     1       3.833  -0.687   0.611  1.00  0.00     0.193 C 
HETATM   20  C8  UNL     1       4.629  -0.692  -0.652  1.00  0.00     0.055 C 
HETATM   21  C9  UNL     1       6.018  -0.220  -0.310  1.00  0.00     0.125 C 
HETATM   22  N5  UNL     1       5.912   0.304   1.043  1.00  0.00    -0.359 N 
HETATM   23  C10 UNL     1       4.838  -0.385   1.654  1.00  0.00     0.241 C 
ATOM     24  H5  UNL     1       6.496   1.025   1.467  1.00  0.00     0.162 HD
HETATM   25  O1  UNL     1       4.767  -0.683   2.883  1.00  0.00    -0.271 OA
ENDBRANCH  14  19
ENDBRANCH  10  11
ENDBRANCH   9  10
ENDBRANCH   4   9
ENDBRANCH   3   4
TORSDOF 5
