REMARK  6 active torsions:
REMARK  status: ('A' for Active; 'I' for Inactive)
REMARK    1  A    between atoms: C2_2  and  C3_3 
REMARK    2  A    between atoms: C3_3  and  C4_4 
REMARK       I    between atoms: C4_4  and  N1_6 
REMARK    3  A    between atoms: N1_6  and  C5_8 
REMARK    4  A    between atoms: N4_19  and  C11_20 
REMARK    5  A    between atoms: C11_20  and  C12_21 
REMARK    6  A    between atoms: C12_21  and  O2_23 
ROOT
HETATM    1  C5  UNL     1       0.871   0.030  -0.245  1.00  0.00     0.113 C 
HETATM    2  C6  UNL     1       0.266   0.571  -1.526  1.00  0.00     0.061 C 
HETATM    3  C7  UNL     1      -1.179   0.196  -1.473  1.00  0.00     0.203 C 
HETATM    4  C8  UNL     1      -1.963   1.352  -2.023  1.00  0.00     0.054 C 
HETATM    5  C9  UNL     1      -1.841   2.590  -1.170  1.00  0.00     0.125 C 
HETATM    6  N2  UNL     1      -1.771   2.299   0.225  1.00  0.00    -0.356 N 
ATOM      7  H2  UNL     1      -1.907   3.061   0.890  1.00  0.00     0.162 HD
HETATM    8  C10 UNL     1      -1.519   0.987   0.731  1.00  0.00     0.274 C 
HETATM    9  N3  UNL     1      -1.343   0.927   2.009  1.00  0.00    -0.365 N 
ATOM     10  H31 UNL     1      -1.163  -0.010   2.370  1.00  0.00     0.159 HD
ATOM     11  H32 UNL     1      -1.381   1.748   2.613  1.00  0.00     0.159 HD
HETATM   12  N4  UNL     1      -1.467  -0.136  -0.095  1.00  0.00     0.001 N 
HETATM   13  C14 UNL     1      -0.222  -0.868   0.247  1.00  0.00     0.273 C 
ENDROOT
BRANCH   1  14
HETATM   14  N1  UNL     1       2.090  -0.652  -0.608  1.00  0.00    -0.355 N 
HETATM   15  C4  UNL     1       3.311  -0.228  -0.057  1.00  0.00     0.217 C 
HETATM   16  O1  UNL     1       3.346   0.753   0.760  1.00  0.00    -0.274 OA
ATOM     17  H1  UNL     1       2.065  -1.436  -1.260  1.00  0.00     0.162 HD
BRANCH  15  18
HETATM   18  C3  UNL     1       4.562  -0.935  -0.438  1.00  0.00     0.102 C 
BRANCH  18  19
HETATM   19  C2  UNL     1       5.723  -0.279   0.271  1.00  0.00     0.005 C 
HETATM   20  C1  UNL     1       5.511  -0.394   1.758  1.00  0.00     0.005 C 
ENDBRANCH  18  19
ENDBRANCH  15  18
ENDBRANCH   1  14
BRANCH  12  21
HETATM   21  C11 UNL     1      -2.520  -1.088   0.042  1.00  0.00     0.279 C 
BRANCH  21  22
HETATM   22  C12 UNL     1      -3.743  -0.636   0.765  1.00  0.00     0.140 C 
HETATM   23  C13 UNL     1      -4.775  -1.774   0.807  1.00  0.00     0.041 C 
BRANCH  22  24
HETATM   24  O2  UNL     1      -4.399   0.441   0.200  1.00  0.00    -0.394 OA
ATOM     25  H2  UNL     1      -5.178   0.729   0.661  1.00  0.00     0.210 HD
ENDBRANCH  22  24
ENDBRANCH  21  22
ENDBRANCH  12  21
TORSDOF 6
