REMARK  6 active torsions:
REMARK  status: ('A' for Active; 'I' for Inactive)
REMARK    1  A    between atoms: C3_3  and  C4_4 
REMARK    2  A    between atoms: C4_4  and  C5_5 
REMARK    3  A    between atoms: C5_5  and  C6_6 
REMARK    4  A    between atoms: C6_6  and  C7_7 
REMARK    5  A    between atoms: C7_7  and  O1_8 
REMARK    6  A    between atoms: C12_17  and  N2_18 
REMARK       I    between atoms: N2_18  and  C13_20 
REMARK       I    between atoms: C13_20  and  N4_24 
ROOT
HETATM    1  C1  UNL     1       4.736   3.026  -0.532  1.00  0.00     0.013 C 
HETATM    2  C2  UNL     1       4.279   1.937  -0.649  1.00  0.00    -0.106 C 
HETATM    3  C3  UNL     1       3.688   0.508  -0.843  1.00  0.00     0.172 C 
ENDROOT
BRANCH   3   4
HETATM    4  C4  UNL     1       2.492   0.544  -0.633  1.00  0.00    -0.170 C 
BRANCH   4   5
HETATM    5  C5  UNL     1       1.087   0.583  -0.388  1.00  0.00     0.104 C 
BRANCH   5   6
HETATM    6  C6  UNL     1       0.275  -0.636  -0.443  1.00  0.00     0.094 C 
HETATM    7  C8  UNL     1       0.834  -1.679   0.496  1.00  0.00     0.232 C 
HETATM    8  O2  UNL     1       1.675  -2.596   0.354  1.00  0.00    -0.272 OA
HETATM    9  N1  UNL     1       0.168  -1.416   1.757  1.00  0.00    -0.350 N 
HETATM   10  C9  UNL     1      -1.238  -1.358   1.325  1.00  0.00     0.048 C 
ATOM     11  H1  UNL     1       0.566  -1.302   2.689  1.00  0.00     0.163 HD
HETATM   12  C10 UNL     1      -2.006  -0.786   2.461  1.00  0.00     0.040 C 
HETATM   13  C11 UNL     1      -1.779  -2.721   0.989  1.00  0.00     0.040 C 
HETATM   14  C12 UNL     1      -1.123  -0.456   0.107  1.00  0.00     0.147 C 
BRANCH   6  15
HETATM   15  C7  UNL     1       0.309  -1.254  -1.822  1.00  0.00     0.186 C 
BRANCH  15  16
HETATM   16  O1  UNL     1      -0.167  -0.372  -2.758  1.00  0.00    -0.399 OA
ATOM     17  H1  UNL     1      -0.146  -0.760  -3.625  1.00  0.00     0.209 HD
ENDBRANCH  15  16
ENDBRANCH   6  15
BRANCH  14  18
HETATM   18  N2  UNL     1      -1.498   0.873   0.431  1.00  0.00    -0.217 N 
HETATM   19  C13 UNL     1      -1.800   1.974  -0.408  1.00  0.00     0.686 C 
HETATM   20  N3  UNL     1      -2.465   1.780  -1.473  1.00  0.00    -0.234 N 
HETATM   21  N4  UNL     1      -1.402   3.294  -0.103  1.00  0.00    -0.139 N 
ATOM     22  H32 UNL     1      -2.753   0.826  -1.693  1.00  0.00     0.174 HD
ATOM     23  H31 UNL     1      -2.682   2.573  -2.077  1.00  0.00     0.174 HD
HETATM   24  N5  UNL     1      -1.262   3.644   1.085  1.00  0.00    -0.331 N 
ATOM     25  H4  UNL     1      -1.229   3.961  -0.855  1.00  0.00     0.205 HD
ATOM     26  H52 UNL     1      -1.439   2.965   1.825  1.00  0.00     0.177 HD
ATOM     27  H51 UNL     1      -0.974   4.598   1.305  1.00  0.00     0.177 HD
ATOM     28  H2  UNL     1      -1.560   1.068   1.430  1.00  0.00     0.178 HD
ENDBRANCH  14  18
ENDBRANCH   5   6
ENDBRANCH   4   5
ENDBRANCH   3   4
TORSDOF 6
