REMARK  8 active torsions:
REMARK  status: ('A' for Active; 'I' for Inactive)
REMARK    1  A    between atoms: C2_2  and  C3_3 
REMARK    2  A    between atoms: C3_3  and  C4_4 
REMARK    3  A    between atoms: C3_3  and  N1_6 
REMARK    4  A    between atoms: C7_9  and  O1_10 
REMARK    5  A    between atoms: O1_10  and  C8_11 
REMARK    6  A    between atoms: C8_11  and  C9_12 
REMARK    7  A    between atoms: C9_12  and  C10_13 
REMARK    8  A    between atoms: C16_22  and  N3_23 
ROOT
HETATM    1  N1  UNL     1      -1.475   0.258   0.284  1.00  0.00    -0.368 N 
ATOM      2  H1  UNL     1      -2.479   0.344   0.124  1.00  0.00     0.161 HD
HETATM    3  C6  UNL     1      -1.080   1.404   0.052  1.00  0.00     0.161 A 
HETATM    4  C7  UNL     1       0.241   1.738   0.150  1.00  0.00     0.127 A 
HETATM    5  C13 UNL     1       0.789   2.995  -0.022  1.00  0.00     0.019 A 
HETATM    6  C14 UNL     1       2.241   3.172   0.125  1.00  0.00     0.059 C 
HETATM    7  S1  UNL     1      -0.334   4.236  -0.397  1.00  0.00    -0.054 SA
HETATM    8  C15 UNL     1      -1.919   3.606  -0.474  1.00  0.00     0.187 A 
HETATM    9  N2  UNL     1      -3.146   4.171  -0.737  1.00  0.00    -0.167 N 
ATOM     10  H2  UNL     1      -3.325   5.153  -0.948  1.00  0.00     0.186 HD
HETATM   11  C16 UNL     1      -4.061   3.197  -0.666  1.00  0.00     0.693 A 
HETATM   12  N4  UNL     1      -3.401   2.070  -0.367  1.00  0.00    -0.122 N 
ATOM     13  H4  UNL     1      -3.836   1.155  -0.247  1.00  0.00     0.206 HD
HETATM   14  N5  UNL     1      -2.077   2.316  -0.246  1.00  0.00    -0.200 N 
ENDROOT
BRANCH   1  15
HETATM   15  C3  UNL     1      -1.357  -1.041   0.625  1.00  0.00     0.082 C 
BRANCH  15  16
HETATM   16  C2  UNL     1      -1.517  -1.936  -0.584  1.00  0.00     0.021 C 
HETATM   17  C1  UNL     1      -2.883  -2.068  -1.135  1.00  0.00     0.007 C 
ENDBRANCH  15  16
BRANCH  15  18
HETATM   18  C4  UNL     1      -2.163  -1.502   1.825  1.00  0.00     0.021 C 
HETATM   19  C5  UNL     1      -3.622  -1.575   1.684  1.00  0.00     0.007 C 
ENDBRANCH  15  18
ENDBRANCH   1  15
BRANCH   4  20
HETATM   20  O1  UNL     1       1.182   0.768   0.440  1.00  0.00    -0.346 OA
BRANCH  20  21
HETATM   21  C8  UNL     1       1.941   0.063  -0.511  1.00  0.00     0.176 C 
BRANCH  21  22
HETATM   22  C9  UNL     1       2.831  -0.891   0.235  1.00  0.00     0.030 C 
BRANCH  22  23
HETATM   23  C10 UNL     1       3.706  -1.716  -0.677  1.00  0.00    -0.021 C 
HETATM   24  C11 UNL     1       4.624  -0.887  -1.525  1.00  0.00     0.009 C 
HETATM   25  C12 UNL     1       4.596  -2.563   0.242  1.00  0.00     0.009 C 
ENDBRANCH  22  23
ENDBRANCH  21  22
ENDBRANCH  20  21
ENDBRANCH   4  20
BRANCH  11  26
HETATM   26  N3  UNL     1      -5.329   3.324  -0.851  1.00  0.00    -0.233 N 
ATOM     27  H32 UNL     1      -5.831   4.182  -1.079  1.00  0.00     0.174 HD
ATOM     28  H31 UNL     1      -6.026   2.582  -0.797  1.00  0.00     0.174 HD
ENDBRANCH  11  26
TORSDOF 8
