REMARK  6 active torsions:
REMARK  status: ('A' for Active; 'I' for Inactive)
REMARK    1  A    between atoms: S1_2  and  C2_3 
REMARK    2  A    between atoms: C4_8  and  C5_9 
REMARK    3  A    between atoms: C5_9  and  C6_10 
REMARK    4  A    between atoms: C5_9  and  N2_14 
REMARK    5  A    between atoms: C6_10  and  C7_11 
REMARK    6  A    between atoms: N2_14  and  C10_16 
ROOT
HETATM    1  C5  UNL     1       0.273  -0.543  -0.174  1.00  0.00     0.116 C 
ENDROOT
BRANCH   1   2
HETATM    2  C4  UNL     1       1.624   0.044  -0.247  1.00  0.00     0.039 A 
HETATM    3  C3  UNL     1       1.892   1.171   0.504  1.00  0.00     0.255 A 
HETATM    4  N1  UNL     1       3.020   1.848   0.539  1.00  0.00    -0.312 N 
HETATM    5  O1  UNL     1       0.957   1.613   1.247  1.00  0.00    -0.268 OA
HETATM    6  C2  UNL     1       4.154   1.629  -0.117  1.00  0.00     0.114 A 
ATOM      7  H1  UNL     1       3.024   2.658   1.159  1.00  0.00     0.170 HD
HETATM    8  S2  UNL     1       4.095   0.261  -1.143  1.00  0.00    -0.076 SA
HETATM    9  C16 UNL     1       2.557  -0.525  -1.086  1.00  0.00     0.067 A 
BRANCH   6  10
HETATM   10  S1  UNL     1       5.605   2.668   0.062  1.00  0.00    -0.109 SA
HETATM   11  C1  UNL     1       6.629   2.007   1.428  1.00  0.00     0.097 C 
ENDBRANCH   6  10
ENDBRANCH   1   2
BRANCH   1  12
HETATM   12  C6  UNL     1       0.165  -1.961  -0.639  1.00  0.00     0.034 C 
BRANCH  12  13
HETATM   13  C7  UNL     1       0.992  -2.939   0.158  1.00  0.00    -0.021 C 
HETATM   14  C8  UNL     1       0.788  -4.348  -0.422  1.00  0.00     0.009 C 
HETATM   15  C9  UNL     1       0.439  -3.054   1.590  1.00  0.00     0.009 C 
ENDBRANCH  12  13
ENDBRANCH   1  12
BRANCH   1  16
HETATM   16  N2  UNL     1      -0.610   0.339  -0.881  1.00  0.00    -0.409 N 
ATOM     17  H2  UNL     1      -0.253   1.099  -1.460  1.00  0.00     0.154 HD
BRANCH  16  18
HETATM   18  C10 UNL     1      -2.002   0.107  -0.738  1.00  0.00     0.079 C 
HETATM   19  C11 UNL     1      -2.710   1.059  -1.712  1.00  0.00     0.030 C 
HETATM   20  C12 UNL     1      -2.613   2.434  -1.151  1.00  0.00     0.046 C 
HETATM   21  C13 UNL     1      -3.883   2.905  -0.494  1.00  0.00     0.055 C 
HETATM   22  N3  UNL     1      -4.289   2.161   0.629  1.00  0.00    -0.402 N 
HETATM   23  C14 UNL     1      -3.974   0.758   0.621  1.00  0.00     0.120 C 
ATOM     24  H3  UNL     1      -4.782   2.595   1.409  1.00  0.00     0.158 HD
HETATM   25  C15 UNL     1      -2.499   0.467   0.662  1.00  0.00     0.044 C 
ENDBRANCH  16  18
ENDBRANCH   1  16
TORSDOF 6
