REMARK  7 active torsions:
REMARK  status: ('A' for Active; 'I' for Inactive)
REMARK    1  A    between atoms: C2_2  and  C3_3 
REMARK    2  A    between atoms: C3_3  and  C4_4 
REMARK    3  A    between atoms: C4_4  and  C5_5 
REMARK    4  A    between atoms: C5_5  and  C6_6 
REMARK    5  A    between atoms: C6_6  and  N1_7 
REMARK    6  A    between atoms: N1_7  and  C7_9 
REMARK    7  A    between atoms: C19_24  and  O4_25 
ROOT
HETATM    1  C7  UNL     1       0.370   0.049   0.108  1.00  0.00     0.245 C 
HETATM    2  O1  UNL     1       0.273   0.552   1.427  1.00  0.00    -0.362 OA
HETATM    3  C8  UNL     1      -0.341   1.833   1.431  1.00  0.00     0.197 C 
HETATM    4  C9  UNL     1      -1.814   1.636   1.502  1.00  0.00     0.205 C 
HETATM    5  O2  UNL     1      -2.503   2.680   2.160  1.00  0.00    -0.319 OA
HETATM    6  C10 UNL     1      -3.891   2.643   2.181  1.00  0.00     0.258 C 
HETATM    7  O3  UNL     1      -4.478   3.073   3.217  1.00  0.00    -0.265 OA
HETATM    8  C11 UNL     1      -4.725   2.136   1.076  1.00  0.00     0.111 C 
HETATM    9  C12 UNL     1      -5.028   0.663   1.171  1.00  0.00     0.010 C 
HETATM   10  C13 UNL     1      -5.864   0.224  -0.006  1.00  0.00     0.000 C 
HETATM   11  C14 UNL     1      -5.093  -0.181  -1.214  1.00  0.00     0.000 C 
HETATM   12  C15 UNL     1      -4.498  -1.574  -1.134  1.00  0.00     0.000 C 
HETATM   13  C16 UNL     1      -3.081  -1.537  -0.609  1.00  0.00     0.000 C 
HETATM   14  C17 UNL     1      -2.090  -2.272  -1.441  1.00  0.00     0.003 C 
HETATM   15  C18 UNL     1      -0.697  -1.706  -1.352  1.00  0.00     0.036 C 
HETATM   16  C19 UNL     1      -0.293  -1.284   0.044  1.00  0.00     0.166 C 
ENDROOT
BRANCH   1  17
HETATM   17  N1  UNL     1       1.727   0.117  -0.350  1.00  0.00    -0.395 N 
ATOM     18  H1  UNL     1       2.004   0.668  -1.162  1.00  0.00     0.155 HD
BRANCH  17  19
HETATM   19  C6  UNL     1       2.661  -0.644   0.415  1.00  0.00     0.116 C 
BRANCH  19  20
HETATM   20  C5  UNL     1       4.063  -0.268  -0.103  1.00  0.00     0.019 C 
BRANCH  20  21
HETATM   21  C4  UNL     1       5.122  -0.991   0.669  1.00  0.00     0.002 C 
BRANCH  21  22
HETATM   22  C3  UNL     1       6.516  -0.620   0.216  1.00  0.00    -0.000 C 
BRANCH  22  23
HETATM   23  C2  UNL     1       6.759   0.872   0.389  1.00  0.00    -0.005 C 
HETATM   24  C1  UNL     1       8.130   1.299  -0.032  1.00  0.00     0.005 C 
ENDBRANCH  22  23
ENDBRANCH  21  22
ENDBRANCH  20  21
ENDBRANCH  19  20
ENDBRANCH  17  19
ENDBRANCH   1  17
BRANCH  16  25
HETATM   25  O4  UNL     1       0.321  -2.309   0.716  1.00  0.00    -0.391 OA
ATOM     26  H4  UNL     1      -0.102  -3.159   0.675  1.00  0.00     0.210 HD
ENDBRANCH  16  25
TORSDOF 7
