REMARK  8 active torsions:
REMARK  status: ('A' for Active; 'I' for Inactive)
REMARK    1  A    between atoms: C2_2  and  N1_3 
REMARK    2  A    between atoms: N1_3  and  C3_4 
REMARK    3  A    between atoms: N1_3  and  C5_6 
REMARK    4  A    between atoms: C5_6  and  C6_7 
REMARK    5  A    between atoms: C6_7  and  N2_8 
REMARK    6  A    between atoms: C7_9  and  O1_10 
REMARK    7  A    between atoms: C10_14  and  O2_15 
REMARK    8  A    between atoms: S1_22  and  S2_23 
ROOT
HETATM    1  N2  UNL     1      -0.344  -0.441  -0.010  1.00  0.00    -0.303 N 
HETATM    2  C7  UNL     1       0.369  -0.085  -1.099  1.00  0.00     0.152 A 
HETATM    3  C8  UNL     1       1.645   0.240  -0.704  1.00  0.00     0.013 A 
HETATM    4  C9  UNL     1       1.661   0.061   0.667  1.00  0.00     0.022 A 
HETATM    5  C10 UNL     1       0.407  -0.367   1.088  1.00  0.00     0.153 A 
HETATM    6  C11 UNL     1       2.931   0.350   1.375  1.00  0.00     0.108 C 
HETATM    7  C12 UNL     1       3.425   1.662   0.862  1.00  0.00    -0.010 C 
HETATM    8  C13 UNL     1       3.400   1.802  -0.479  1.00  0.00    -0.019 C 
HETATM    9  C14 UNL     1       2.905   0.712  -1.381  1.00  0.00     0.055 C 
HETATM   10  C15 UNL     1       3.877  -0.418  -1.350  1.00  0.00     0.089 C 
HETATM   11  S1  UNL     1       4.260  -0.933   0.524  1.00  0.00    -0.146 SA
ENDROOT
BRANCH   1  12
HETATM   12  C6  UNL     1      -1.747  -0.837  -0.025  1.00  0.00     0.178 C 
BRANCH  12  13
HETATM   13  C5  UNL     1      -2.641   0.359   0.176  1.00  0.00     0.083 C 
BRANCH  13  14
HETATM   14  N1  UNL     1      -3.991   0.009   0.150  1.00  0.00    -0.373 N 
BRANCH  14  15
HETATM   15  C2  UNL     1      -4.626  -0.409  -1.024  1.00  0.00     0.058 C 
HETATM   16  C1  UNL     1      -3.926  -0.205  -2.318  1.00  0.00     0.055 C 
ENDBRANCH  14  15
BRANCH  14  17
HETATM   17  C3  UNL     1      -4.687  -0.171   1.367  1.00  0.00     0.122 C 
HETATM   18  C4  UNL     1      -5.897   0.704   1.526  1.00  0.00     0.027 C 
ENDBRANCH  14  17
ENDBRANCH  13  14
ENDBRANCH  12  13
ENDBRANCH   1  12
BRANCH   2  19
HETATM   19  O1  UNL     1      -0.104  -0.056  -2.376  1.00  0.00    -0.345 OA
ATOM     20  H1  UNL     1       0.398   0.195  -3.143  1.00  0.00     0.219 HD
ENDBRANCH   2  19
BRANCH   5  21
HETATM   21  O2  UNL     1       0.066  -0.646   2.418  1.00  0.00    -0.345 OA
ATOM     22  H2  UNL     1       0.601  -0.593   3.201  1.00  0.00     0.219 HD
ENDBRANCH   5  21
BRANCH  11  23
HETATM   23  S2  UNL     1       5.974  -0.777   1.521  1.00  0.00    -0.112 SA
HETATM   24  C16 UNL     1       7.308  -0.046   0.777  1.00  0.00     0.102 C 
ENDBRANCH  11  23
TORSDOF 8
