REMARK  3 active torsions:
REMARK  status: ('A' for Active; 'I' for Inactive)
REMARK       I    between atoms: N1_2  and  C2_4 
REMARK       I    between atoms: C2_4  and  N2_6 
REMARK    1  A    between atoms: N2_6  and  N3_7 
REMARK    2  A    between atoms: C4_12  and  C5_13 
REMARK       I    between atoms: C5_13  and  N5_15 
REMARK    3  A    between atoms: N5_15  and  N6_17 
ROOT
HETATM    1  N3  UNL     1      -0.766  -0.557   0.268  1.00  0.00    -0.078 N 
HETATM    2  C3  UNL     1      -0.435  -1.360   1.262  1.00  0.00     0.362 A 
HETATM    3  O2  UNL     1      -1.304  -2.162   1.757  1.00  0.00    -0.244 OA
HETATM    4  N4  UNL     1       0.810  -1.376   1.798  1.00  0.00    -0.287 N 
ATOM      5  H4  UNL     1       1.012  -2.017   2.566  1.00  0.00     0.172 HD
HETATM    6  C4  UNL     1       1.780  -0.575   1.348  1.00  0.00     0.184 A 
HETATM    7  N7  UNL     1       1.488   0.243   0.353  1.00  0.00    -0.287 N 
ATOM      8  H7  UNL     1       2.209   0.865  -0.011  1.00  0.00     0.172 HD
HETATM    9  C6  UNL     1       0.266   0.271  -0.185  1.00  0.00     0.362 A 
HETATM   10  O4  UNL     1       0.017   1.050  -1.119  1.00  0.00    -0.244 OA
ENDROOT
BRANCH   6  11
HETATM   11  C5  UNL     1       3.109  -0.626   1.944  1.00  0.00     0.303 C 
HETATM   12  O3  UNL     1       3.320  -1.396   2.934  1.00  0.00    -0.263 OA
HETATM   13  N5  UNL     1       4.194   0.143   1.478  1.00  0.00    -0.270 N 
ATOM     14  H5  UNL     1       4.039   0.766   0.686  1.00  0.00     0.189 HD
BRANCH  13  15
HETATM   15  N6  UNL     1       5.467   0.097   2.042  1.00  0.00    -0.342 N 
ATOM     16  H62 UNL     1       5.604  -0.532   2.833  1.00  0.00     0.176 HD
ATOM     17  H61 UNL     1       6.252   0.654   1.705  1.00  0.00     0.176 HD
ENDBRANCH  13  15
ENDBRANCH   6  11
BRANCH   1  18
HETATM   18  N2  UNL     1      -1.933  -0.379  -0.414  1.00  0.00    -0.249 NA
HETATM   19  C2  UNL     1      -3.051  -0.209  -1.067  1.00  0.00     0.412 C 
HETATM   20  N1  UNL     1      -3.197   0.768  -2.129  1.00  0.00    -0.334 N 
HETATM   21  O1  UNL     1      -4.156  -0.849  -0.886  1.00  0.00    -0.228 OA
HETATM   22  C1  UNL     1      -4.445   0.945  -2.856  1.00  0.00     0.152 C 
ATOM     23  H1  UNL     1      -2.397   1.351  -2.375  1.00  0.00     0.164 HD
ENDBRANCH   1  18
TORSDOF 3
