REMARK  6 active torsions:
REMARK  status: ('A' for Active; 'I' for Inactive)
REMARK    1  A    between atoms: C2_2  and  N1_3 
REMARK    2  A    between atoms: C2_2  and  C3_7 
REMARK    3  A    between atoms: C3_7  and  N4_15 
REMARK       I    between atoms: N2_8  and  C4_10 
REMARK    4  A    between atoms: C4_10  and  C5_12 
REMARK    5  A    between atoms: N4_15  and  N5_17 
REMARK    6  A    between atoms: N5_17  and  C6_19 
ROOT
HETATM    1  C3  UNL     1      -0.702  -0.824   0.042  1.00  0.00     0.130 C 
HETATM    2  N2  UNL     1      -1.680  -0.053   0.410  1.00  0.00    -0.306 N 
ATOM      3  H2  UNL     1      -2.585  -0.467   0.633  1.00  0.00     0.170 HD
HETATM    4  C4  UNL     1      -1.516   1.352   0.509  1.00  0.00     0.312 C 
HETATM    5  O1  UNL     1      -0.479   1.795   1.060  1.00  0.00    -0.262 OA
ENDROOT
BRANCH   1   6
HETATM    6  C2  UNL     1      -0.844  -2.289  -0.070  1.00  0.00     0.248 C 
HETATM    7  C1  UNL     1      -2.199  -2.797   0.274  1.00  0.00     0.048 C 
BRANCH   6   8
HETATM    8  N1  UNL     1      -0.419  -2.672  -1.398  1.00  0.00    -0.069 N 
ATOM      9  H13 UNL     1      -0.471  -3.683  -1.520  1.00  0.00     0.275 HD
ATOM     10  H12 UNL     1      -1.104  -2.385  -2.097  1.00  0.00     0.275 HD
ATOM     11  H11 UNL     1       0.510  -2.324  -1.634  1.00  0.00     0.275 HD
ENDBRANCH   6   8
ENDBRANCH   1   6
BRANCH   1  12
HETATM   12  N4  UNL     1       0.554  -0.258  -0.267  1.00  0.00    -0.273 N 
ATOM     13  H4  UNL     1       0.582   0.599  -0.820  1.00  0.00     0.189 HD
BRANCH  12  14
HETATM   14  N5  UNL     1       1.750  -0.819   0.150  1.00  0.00    -0.129 N 
ATOM     15  H5  UNL     1       1.788  -1.816   0.363  1.00  0.00     0.205 HD
BRANCH  14  16
HETATM   16  C6  UNL     1       2.832  -0.093   0.276  1.00  0.00     0.722 A 
HETATM   17  N6  UNL     1       4.050  -0.499   0.667  1.00  0.00    -0.115 N 
HETATM   18  N7  UNL     1       4.844   0.567   0.652  1.00  0.00     0.006 NA
ATOM     19  H6  UNL     1       4.317  -1.449   0.927  1.00  0.00     0.202 HD
HETATM   20  N8  UNL     1       4.171   1.637   0.264  1.00  0.00     0.006 NA
HETATM   21  N9  UNL     1       2.934   1.213   0.037  1.00  0.00    -0.115 N 
ATOM     22  H9  UNL     1       2.166   1.806  -0.278  1.00  0.00     0.202 HD
ENDBRANCH  14  16
ENDBRANCH  12  14
ENDBRANCH   1  12
BRANCH   4  23
HETATM   23  C5  UNL     1      -2.490   2.288   0.002  1.00  0.00     0.322 C 
HETATM   24  N3  UNL     1      -2.313   3.687   0.108  1.00  0.00    -0.053 NA
HETATM   25  O2  UNL     1      -3.567   1.908  -0.570  1.00  0.00    -0.266 OA
ENDBRANCH   4  23
TORSDOF 6
