REMARK  4 active torsions:
REMARK  status: ('A' for Active; 'I' for Inactive)
REMARK    1  A    between atoms: N1_1  and  C1_4 
REMARK    2  A    between atoms: C2_7  and  N3_8 
REMARK    3  A    between atoms: N4_11  and  C3_12 
REMARK    4  A    between atoms: C3_12  and  N5_13 
ROOT
HETATM    1  C1  UNL     1       3.341   0.288  -0.587  1.00  0.00     0.694 A 
HETATM    2  N2  UNL     1       2.786   1.102   0.326  1.00  0.00    -0.022 N 
ATOM      3  H2  UNL     1       3.301   1.933   0.617  1.00  0.00     0.203 HD
HETATM    4  C2  UNL     1       1.586   0.868   0.869  1.00  0.00     0.701 A 
HETATM    5  N4  UNL     1       0.875  -0.218   0.509  1.00  0.00    -0.094 N 
HETATM    6  C7  UNL     1       1.429  -1.030  -0.401  1.00  0.00     0.360 A 
HETATM    7  O2  UNL     1       0.857  -2.083  -0.816  1.00  0.00    -0.245 OA
HETATM    8  N8  UNL     1       2.650  -0.798  -0.959  1.00  0.00    -0.140 N 
ATOM      9  H8  UNL     1       3.033  -1.442  -1.651  1.00  0.00     0.189 HD
ENDROOT
BRANCH   5  10
HETATM   10  C3  UNL     1      -0.404  -0.538   1.061  1.00  0.00     0.204 C 
BRANCH  10  11
HETATM   11  N5  UNL     1      -1.538   0.029   0.449  1.00  0.00    -0.181 NA
HETATM   12  C4  UNL     1      -1.776  -0.313  -0.907  1.00  0.00     0.223 C 
HETATM   13  C5  UNL     1      -3.093   0.222  -1.386  1.00  0.00     0.237 C 
HETATM   14  O1  UNL     1      -3.221   0.426  -2.611  1.00  0.00    -0.272 OA
HETATM   15  N6  UNL     1      -4.150   0.484  -0.475  1.00  0.00    -0.321 N 
HETATM   16  C6  UNL     1      -3.973   0.285   0.796  1.00  0.00     0.195 C 
ATOM     17  H6  UNL     1      -5.047   0.828  -0.818  1.00  0.00     0.169 HD
HETATM   18  N7  UNL     1      -2.692  -0.197   1.194  1.00  0.00    -0.309 N 
ATOM     19  H7  UNL     1      -2.618  -0.730   2.061  1.00  0.00     0.182 HD
ENDBRANCH  10  11
ENDBRANCH   5  10
BRANCH   4  20
HETATM   20  N3  UNL     1       1.096   1.661   1.729  1.00  0.00    -0.233 N 
ATOM     21  H32 UNL     1       1.634   2.483   2.002  1.00  0.00     0.174 HD
ATOM     22  H31 UNL     1       0.181   1.483   2.143  1.00  0.00     0.174 HD
ENDBRANCH   4  20
BRANCH   1  23
HETATM   23  N1  UNL     1       4.502   0.555  -1.083  1.00  0.00    -0.234 N 
ATOM     24  H12 UNL     1       5.028   1.382  -0.800  1.00  0.00     0.174 HD
ATOM     25  H11 UNL     1       4.923  -0.063  -1.776  1.00  0.00     0.174 HD
ENDBRANCH   1  23
TORSDOF 4
