REMARK  5 active torsions:
REMARK  status: ('A' for Active; 'I' for Inactive)
REMARK    1  A    between atoms: N1_2  and  C2_4 
REMARK    2  A    between atoms: C3_7  and  N3_8 
REMARK    3  A    between atoms: C6_13  and  N5_14 
REMARK    4  A    between atoms: N5_14  and  N6_16 
REMARK       I    between atoms: N6_16  and  C7_18 
REMARK       I    between atoms: C7_18  and  N8_22 
REMARK    5  A    between atoms: N8_22  and  N9_24 
ROOT
HETATM    1  C2  UNL     1       0.969   1.591   0.428  1.00  0.00     0.706 A 
HETATM    2  N2  UNL     1       1.917   0.731   0.020  1.00  0.00    -0.021 N 
ATOM      3  H2  UNL     1       2.892   1.031   0.038  1.00  0.00     0.203 HD
HETATM    4  C3  UNL     1       1.629  -0.517  -0.413  1.00  0.00     0.708 A 
HETATM    5  N4  UNL     1       0.344  -0.909  -0.436  1.00  0.00    -0.020 N 
ATOM      6  H4  UNL     1       0.093  -1.844  -0.757  1.00  0.00     0.203 HD
HETATM    7  C6  UNL     1      -0.599  -0.053  -0.031  1.00  0.00     0.726 A 
HETATM    8  N10 UNL     1      -0.313   1.186   0.400  1.00  0.00    -0.020 N 
ATOM      9  H10 UNL     1      -1.059   1.812   0.702  1.00  0.00     0.203 HD
ENDROOT
BRANCH   7  10
HETATM   10  N5  UNL     1      -1.823  -0.448  -0.060  1.00  0.00    -0.117 N 
ATOM     11  H5  UNL     1      -2.017  -1.393  -0.390  1.00  0.00     0.206 HD
BRANCH  10  12
HETATM   12  N6  UNL     1      -2.896   0.343   0.334  1.00  0.00    -0.117 N 
HETATM   13  C7  UNL     1      -3.915  -0.263   1.115  1.00  0.00     0.705 C 
HETATM   14  N7  UNL     1      -3.931  -0.126   2.384  1.00  0.00    -0.232 N 
HETATM   15  N8  UNL     1      -4.901  -1.019   0.420  1.00  0.00    -0.138 N 
ATOM     16  H72 UNL     1      -3.225   0.416   2.882  1.00  0.00     0.174 HD
ATOM     17  H71 UNL     1      -4.663  -0.561   2.945  1.00  0.00     0.174 HD
ATOM     18  H8  UNL     1      -5.255  -1.903   0.786  1.00  0.00     0.205 HD
ATOM     19  H6  UNL     1      -2.950   1.327   0.071  1.00  0.00     0.206 HD
BRANCH  15  20
HETATM   20  N9  UNL     1      -5.361  -0.486  -0.794  1.00  0.00    -0.331 N 
ATOM     21  H92 UNL     1      -4.997   0.399  -1.147  1.00  0.00     0.177 HD
ATOM     22  H91 UNL     1      -6.067  -1.028  -1.292  1.00  0.00     0.177 HD
ENDBRANCH  15  20
ENDBRANCH  10  12
ENDBRANCH   7  10
BRANCH   4  23
HETATM   23  N3  UNL     1       2.675  -1.387  -0.834  1.00  0.00    -0.225 N 
HETATM   24  C4  UNL     1       4.042  -0.941  -0.799  1.00  0.00     0.168 C 
HETATM   25  C5  UNL     1       2.330  -2.720  -1.294  1.00  0.00     0.168 C 
ENDBRANCH   4  23
BRANCH   1  26
HETATM   26  N1  UNL     1       1.241   2.784   0.843  1.00  0.00    -0.229 N 
HETATM   27  C1  UNL     1       2.559   3.327   0.918  1.00  0.00     0.165 C 
ATOM     28  H1  UNL     1       0.464   3.376   1.136  1.00  0.00     0.177 HD
ENDBRANCH   1  26
TORSDOF 5
