REMARK  9 active torsions:
REMARK  status: ('A' for Active; 'I' for Inactive)
REMARK    1  A    between atoms: C2_5  and  C3_6 
REMARK    2  A    between atoms: C3_6  and  C4_7 
REMARK    3  A    between atoms: C3_6  and  N4_12 
REMARK    4  A    between atoms: C4_7  and  N3_8 
REMARK    5  A    between atoms: N4_12  and  N5_14 
REMARK    6  A    between atoms: N5_14  and  C5_16 
REMARK    7  A    between atoms: C12_35  and  N10_36 
REMARK    8  A    between atoms: N11_39  and  C13_40 
REMARK    9  A    between atoms: C13_40  and  O5_41 
ROOT
HETATM    1  C3  UNL     1       0.641  -1.375  -0.900  1.00  0.00     0.180 C 
ENDROOT
BRANCH   1   2
HETATM    2  C2  UNL     1      -0.730  -0.964  -0.523  1.00  0.00     0.104 A 
HETATM    3  N2  UNL     1      -1.756  -1.861  -0.459  1.00  0.00    -0.295 N 
HETATM    4  N1  UNL     1      -2.982  -1.527  -0.117  1.00  0.00    -0.278 N 
ATOM      5  H2  UNL     1      -1.564  -2.836  -0.687  1.00  0.00     0.187 HD
HETATM    6  C1  UNL     1      -4.024  -2.532  -0.069  1.00  0.00     0.179 C 
HETATM    7  C11 UNL     1      -3.317  -0.265   0.199  1.00  0.00     0.169 A 
HETATM    8  C10 UNL     1      -2.341   0.712   0.162  1.00  0.00     0.152 A 
HETATM    9  N9  UNL     1      -4.500   0.296   0.574  1.00  0.00    -0.173 N 
HETATM   10  C9  UNL     1      -1.067   0.332  -0.201  1.00  0.00     0.229 A 
HETATM   11  N11 UNL     1      -2.953   1.850   0.516  1.00  0.00    -0.154 N 
HETATM   12  O4  UNL     1      -0.208   1.263  -0.223  1.00  0.00    -0.284 OA
HETATM   13  C12 UNL     1      -4.276   1.604   0.771  1.00  0.00     0.682 A 
ATOM     14  H9  UNL     1      -5.391  -0.188   0.685  1.00  0.00     0.186 HD
BRANCH  11  15
HETATM   15  C13 UNL     1      -2.318   3.146   0.621  1.00  0.00     0.314 C 
BRANCH  15  16
HETATM   16  O5  UNL     1      -2.394   3.800  -0.619  1.00  0.00    -0.381 OA
ATOM     17  H5  UNL     1      -1.977   4.651  -0.550  1.00  0.00     0.211 HD
ENDBRANCH  15  16
ENDBRANCH  11  15
BRANCH  13  18
HETATM   18  N10 UNL     1      -5.114   2.526   1.136  1.00  0.00    -0.234 N 
ATOM     19 2H10 UNL     1      -6.099   2.343   1.326  1.00  0.00     0.174 HD
ATOM     20 1H10 UNL     1      -4.944   3.520   1.286  1.00  0.00     0.174 HD
ENDBRANCH  13  18
ENDBRANCH   1   2
BRANCH   1  21
HETATM   21  C4  UNL     1       0.527  -2.808  -1.471  1.00  0.00     0.262 C 
BRANCH  21  22
HETATM   22  N3  UNL     1      -0.003  -3.719  -0.498  1.00  0.00    -0.077 N 
ATOM     23  H33 UNL     1       0.541  -3.703   0.365  1.00  0.00     0.274 HD
ATOM     24  H32 UNL     1      -0.895  -3.392  -0.127  1.00  0.00     0.274 HD
ATOM     25  H31 UNL     1      -0.078  -4.664  -0.875  1.00  0.00     0.274 HD
ENDBRANCH  21  22
ENDBRANCH   1  21
BRANCH   1  26
HETATM   26  N4  UNL     1       1.588  -1.402   0.166  1.00  0.00    -0.310 N 
ATOM     27  H4  UNL     1       2.004  -2.305   0.394  1.00  0.00     0.181 HD
BRANCH  26  28
HETATM   28  N5  UNL     1       1.994  -0.311   0.920  1.00  0.00    -0.135 N 
ATOM     29  H5  UNL     1       1.352   0.064   1.618  1.00  0.00     0.205 HD
BRANCH  28  30
HETATM   30  C5  UNL     1       3.147   0.251   0.778  1.00  0.00     0.703 C 
HETATM   31  N6  UNL     1       3.457   1.301   1.549  1.00  0.00    -0.140 N 
HETATM   32  C6  UNL     1       4.487   2.167   1.355  1.00  0.00     0.341 C 
ATOM     33  H6  UNL     1       2.862   1.467   2.361  1.00  0.00     0.189 HD
HETATM   34  O1  UNL     1       4.655   3.004   2.269  1.00  0.00    -0.246 OA
HETATM   35  N7  UNL     1       5.349   2.259   0.331  1.00  0.00    -0.270 N 
HETATM   36  C7  UNL     1       5.462   1.456  -0.730  1.00  0.00     0.318 C 
ATOM     37  H7  UNL     1       6.001   3.042   0.368  1.00  0.00     0.174 HD
HETATM   38  O2  UNL     1       6.194   1.840  -1.682  1.00  0.00    -0.262 OA
HETATM   39  C8  UNL     1       4.865   0.210  -0.948  1.00  0.00     0.328 C 
HETATM   40  O3  UNL     1       5.251  -0.465  -1.935  1.00  0.00    -0.261 OA
HETATM   41  N8  UNL     1       3.901  -0.344  -0.186  1.00  0.00    -0.150 N 
ATOM     42  H8  UNL     1       3.713  -1.333  -0.353  1.00  0.00     0.188 HD
ENDBRANCH  28  30
ENDBRANCH  26  28
ENDBRANCH   1  26
TORSDOF 9
