REMARK  11 active torsions:
REMARK  status: ('A' for Active; 'I' for Inactive)
REMARK    1  A    between atoms: C4_7  and  O2_8 
REMARK    2  A    between atoms: O2_8  and  C5_9 
REMARK    3  A    between atoms: C6_12  and  N3_13 
REMARK    4  A    between atoms: N5_17  and  C9_18 
REMARK    5  A    between atoms: C9_18  and  O3_19 
REMARK    6  A    between atoms: C9_18  and  C10_21 
REMARK    7  A    between atoms: C10_21  and  O4_22 
REMARK    8  A    between atoms: C10_21  and  C11_24 
REMARK    9  A    between atoms: C11_24  and  O5_25 
REMARK   10  A    between atoms: C11_24  and  C12_27 
REMARK   11  A    between atoms: C12_27  and  O6_29 
ROOT
HETATM    1  N3  UNL     1      -0.625   1.453   0.802  1.00  0.00    -0.273 N 
HETATM    2  C7  UNL     1      -1.229   2.710   1.197  1.00  0.00     0.164 C 
HETATM    3  C8  UNL     1      -2.367   2.294   2.071  1.00  0.00     0.152 C 
HETATM    4  N4  UNL     1      -2.031   0.957   2.454  1.00  0.00    -0.141 NA
HETATM    5  N5  UNL     1      -1.356   0.385   1.341  1.00  0.00    -0.108 NA
ENDROOT
BRANCH   1   6
HETATM    6  C6  UNL     1       0.553   1.394  -0.021  1.00  0.00     0.188 A 
HETATM    7  N2  UNL     1       1.491   0.516   0.020  1.00  0.00    -0.328 N 
HETATM    8  C5  UNL     1       2.520   0.757  -0.944  1.00  0.00     0.337 A 
ATOM      9  H2  UNL     1       1.501  -0.269   0.671  1.00  0.00     0.165 HD
HETATM   10  N6  UNL     1       2.110   1.953  -1.643  1.00  0.00    -0.311 N 
HETATM   11  C14 UNL     1       0.876   2.354  -1.066  1.00  0.00     0.289 A 
ATOM     12  H6  UNL     1       2.609   2.418  -2.402  1.00  0.00     0.167 HD
HETATM   13  O7  UNL     1       0.159   3.351  -1.371  1.00  0.00    -0.264 OA
BRANCH   8  14
HETATM   14  O2  UNL     1       3.770   0.930  -0.341  1.00  0.00    -0.310 OA
BRANCH  14  15
HETATM   15  C4  UNL     1       4.627  -0.025  -0.831  1.00  0.00     0.359 C 
HETATM   16  C3  UNL     1       5.902   0.538  -1.352  1.00  0.00     0.275 C 
HETATM   17  N1  UNL     1       6.865  -0.517  -1.185  1.00  0.00    -0.331 N 
HETATM   18  O1  UNL     1       6.088   1.688  -1.833  1.00  0.00    -0.268 OA
HETATM   19  C2  UNL     1       6.149  -1.559  -0.437  1.00  0.00     0.223 C 
ATOM     20  H1  UNL     1       7.831  -0.537  -1.513  1.00  0.00     0.165 HD
HETATM   21  C1  UNL     1       7.138  -2.137   0.550  1.00  0.00     0.063 C 
HETATM   22  O8  UNL     1       5.118  -0.869   0.190  1.00  0.00    -0.328 OA
ENDBRANCH  14  15
ENDBRANCH   8  14
ENDBRANCH   1   6
BRANCH   5  23
HETATM   23  C9  UNL     1      -2.320  -0.061   0.348  1.00  0.00     0.262 C 
BRANCH  23  24
HETATM   24  O3  UNL     1      -1.563  -0.458  -0.750  1.00  0.00    -0.375 OA
ATOM     25  H3  UNL     1      -2.193  -0.749  -1.399  1.00  0.00     0.211 HD
ENDBRANCH  23  24
BRANCH  23  26
HETATM   26  C10 UNL     1      -3.170  -1.199   0.873  1.00  0.00     0.195 C 
BRANCH  26  27
HETATM   27  O4  UNL     1      -3.901  -0.904   1.991  1.00  0.00    -0.389 OA
ATOM     28  H4  UNL     1      -4.434  -1.618   2.320  1.00  0.00     0.210 HD
ENDBRANCH  26  27
BRANCH  26  29
HETATM   29  C11 UNL     1      -3.914  -1.949  -0.181  1.00  0.00     0.179 C 
BRANCH  29  30
HETATM   30  O5  UNL     1      -4.306  -3.181   0.410  1.00  0.00    -0.390 OA
ATOM     31  H5  UNL     1      -4.780  -3.658  -0.261  1.00  0.00     0.210 HD
ENDBRANCH  29  30
BRANCH  29  32
HETATM   32  C12 UNL     1      -5.188  -1.316  -0.661  1.00  0.00     0.145 C 
HETATM   33  C13 UNL     1      -5.002  -0.030  -1.421  1.00  0.00     0.042 C 
BRANCH  32  34
HETATM   34  O6  UNL     1      -5.737  -2.240  -1.585  1.00  0.00    -0.393 OA
ATOM     35  H6  UNL     1      -6.543  -1.839  -1.889  1.00  0.00     0.210 HD
ENDBRANCH  32  34
ENDBRANCH  29  32
ENDBRANCH  26  29
ENDBRANCH  23  26
ENDBRANCH   5  23
TORSDOF 11
