REMARK  10 active torsions:
REMARK  status: ('A' for Active; 'I' for Inactive)
REMARK    1  A    between atoms: N3_9  and  C4_10 
REMARK    2  A    between atoms: C5_11  and  O3_12 
REMARK    3  A    between atoms: C7_15  and  C8_16 
REMARK    4  A    between atoms: C7_15  and  C9_19 
REMARK    5  A    between atoms: C8_16  and  O4_17 
REMARK    6  A    between atoms: C9_19  and  N4_20 
REMARK    7  A    between atoms: C11_22  and  N5_23 
REMARK    8  A    between atoms: C12_28  and  N7_29 
REMARK    9  A    between atoms: N8_32  and  N9_33 
REMARK   10  A    between atoms: C13_36  and  O5_37 
ROOT
HETATM    1  C4  UNL     1      -1.467  -1.048  -0.171  1.00  0.00     0.158 C 
HETATM    2  C5  UNL     1      -1.145  -2.252   0.646  1.00  0.00     0.145 C 
HETATM    3  C6  UNL     1       0.232  -2.046   1.272  1.00  0.00     0.053 C 
HETATM    4  C7  UNL     1       0.846  -1.008   0.323  1.00  0.00     0.045 C 
HETATM    5  C13 UNL     1      -0.399  -0.081   0.235  1.00  0.00     0.160 C 
ENDROOT
BRANCH   4   6
HETATM    6  C8  UNL     1       1.198  -1.511  -1.006  1.00  0.00     0.181 C 
BRANCH   6   7
HETATM    7  O4  UNL     1       1.700  -0.459  -1.787  1.00  0.00    -0.400 OA
ATOM      8  H4  UNL     1       1.928  -0.785  -2.649  1.00  0.00     0.209 HD
ENDBRANCH   6   7
ENDBRANCH   4   6
BRANCH   4   9
HETATM    9  C9  UNL     1       1.919  -0.353   1.132  1.00  0.00     0.106 C 
BRANCH   9  10
HETATM   10  N4  UNL     1       2.733   0.626   0.541  1.00  0.00    -0.242 N 
HETATM   11  C10 UNL     1       2.355   1.907   0.475  1.00  0.00     0.166 A 
HETATM   12  C11 UNL     1       3.149   2.906  -0.063  1.00  0.00     0.132 A 
HETATM   13  N6  UNL     1       4.354   2.564  -0.539  1.00  0.00    -0.173 N 
HETATM   14  C12 UNL     1       4.724   1.267  -0.466  1.00  0.00     0.714 A 
ATOM     15  H6  UNL     1       4.975   3.264  -0.945  1.00  0.00     0.186 HD
HETATM   16  N8  UNL     1       3.940   0.312   0.061  1.00  0.00    -0.021 N 
BRANCH  12  17
HETATM   17  N5  UNL     1       2.798   4.145  -0.134  1.00  0.00    -0.384 N 
ATOM     18  H52 UNL     1       1.881   4.405   0.228  1.00  0.00     0.157 HD
ATOM     19  H51 UNL     1       3.383   4.881  -0.530  1.00  0.00     0.157 HD
ENDBRANCH  12  17
BRANCH  14  20
HETATM   20  N7  UNL     1       5.890   0.890  -0.917  1.00  0.00    -0.231 N 
ATOM     21  H72 UNL     1       6.485   1.615  -1.317  1.00  0.00     0.174 HD
ATOM     22  H71 UNL     1       6.169  -0.089  -0.862  1.00  0.00     0.174 HD
ENDBRANCH  14  20
BRANCH  16  23
HETATM   23  N9  UNL     1       4.455  -1.014   0.125  1.00  0.00    -0.309 N 
ATOM     24  H92 UNL     1       3.860  -1.739   0.525  1.00  0.00     0.179 HD
ATOM     25  H91 UNL     1       5.376  -1.254  -0.241  1.00  0.00     0.179 HD
ENDBRANCH  16  23
ENDBRANCH   9  10
ENDBRANCH   4   9
BRANCH   5  26
HETATM   26  O5  UNL     1      -0.575   0.335   1.561  1.00  0.00    -0.392 OA
ATOM     27  H5  UNL     1       0.103   0.949   1.819  1.00  0.00     0.210 HD
ENDBRANCH   5  26
BRANCH   2  28
HETATM   28  O3  UNL     1      -1.029  -3.423  -0.093  1.00  0.00    -0.393 OA
ATOM     29  H3  UNL     1      -0.824  -4.191   0.428  1.00  0.00     0.210 HD
ENDBRANCH   2  28
BRANCH   1  30
HETATM   30  N3  UNL     1      -2.835  -0.561  -0.013  1.00  0.00    -0.241 N 
HETATM   31  C3  UNL     1      -3.832  -1.440   0.136  1.00  0.00     0.335 A 
HETATM   32  N2  UNL     1      -5.116  -1.024   0.282  1.00  0.00    -0.260 N 
HETATM   33  O2  UNL     1      -3.709  -2.695   0.155  1.00  0.00    -0.246 OA
HETATM   34  C2  UNL     1      -5.385   0.279   0.275  1.00  0.00     0.334 A 
ATOM     35  H2  UNL     1      -5.868  -1.704   0.396  1.00  0.00     0.175 HD
HETATM   36  N1  UNL     1      -4.397   1.168   0.125  1.00  0.00    -0.255 N 
HETATM   37  O1  UNL     1      -6.593   0.656   0.414  1.00  0.00    -0.246 OA
HETATM   38  C1  UNL     1      -4.720   2.580   0.121  1.00  0.00     0.166 C 
HETATM   39  C14 UNL     1      -3.119   0.754  -0.020  1.00  0.00     0.336 A 
HETATM   40  O6  UNL     1      -2.228   1.660  -0.164  1.00  0.00    -0.246 OA
ENDBRANCH   1  30
TORSDOF 10
