REMARK  5 active torsions:
REMARK  status: ('A' for Active; 'I' for Inactive)
REMARK    1  A    between atoms: C2_2  and  C3_3 
REMARK    2  A    between atoms: C3_3  and  N1_4 
REMARK    3  A    between atoms: N2_12  and  C10_14 
REMARK    4  A    between atoms: C10_14  and  C11_15 
REMARK    5  A    between atoms: C16_20  and  O2_21 
ROOT
HETATM    1  C11 UNL     1       0.902   1.980  -0.057  1.00  0.00     0.039 A 
HETATM    2  C12 UNL     1       0.629   1.490   1.200  1.00  0.00     0.011 A 
HETATM    3  C13 UNL     1      -0.236   0.537   1.689  1.00  0.00     0.015 A 
HETATM    4  C14 UNL     1      -0.273   0.282   3.059  1.00  0.00     0.004 A 
HETATM    5  C15 UNL     1       0.520   0.942   3.961  1.00  0.00     0.039 A 
HETATM    6  C16 UNL     1       1.385   1.895   3.481  1.00  0.00     0.095 A 
HETATM    7  C17 UNL     1       1.431   2.156   2.130  1.00  0.00     0.104 A 
HETATM    8  N3  UNL     1       2.177   3.032   1.454  1.00  0.00    -0.222 N 
HETATM    9  N4  UNL     1       3.098   3.957   1.570  1.00  0.00    -0.217 N 
ATOM     10  H4  UNL     1       3.519   4.239   2.455  1.00  0.00     0.206 HD
HETATM   11  N5  UNL     1       3.417   4.483   0.388  1.00  0.00    -0.005 NA
HETATM   12  N6  UNL     1       2.656   3.851  -0.494  1.00  0.00    -0.266 N 
ATOM     13  H6  UNL     1       2.653   4.017  -1.500  1.00  0.00     0.186 HD
HETATM   14  C18 UNL     1       1.890   2.957   0.150  1.00  0.00     0.154 A 
ENDROOT
BRANCH   1  15
HETATM   15  C10 UNL     1       0.419   1.654  -1.218  1.00  0.00     0.106 C 
BRANCH  15  16
HETATM   16  N2  UNL     1      -0.544   0.671  -1.467  1.00  0.00    -0.351 N 
HETATM   17  C9  UNL     1      -0.263  -0.528  -1.911  1.00  0.00     0.110 A 
HETATM   18  N1  UNL     1      -1.330  -1.430  -2.125  1.00  0.00    -0.296 N 
HETATM   19  C8  UNL     1       1.119  -0.915  -2.139  1.00  0.00     0.050 A 
HETATM   20  C4  UNL     1      -0.972  -2.748  -2.579  1.00  0.00     0.258 A 
HETATM   21  O1  UNL     1      -1.867  -3.626  -2.798  1.00  0.00    -0.267 OA
HETATM   22  C5  UNL     1       0.423  -3.103  -2.798  1.00  0.00     0.023 A 
HETATM   23  C6  UNL     1       0.722  -4.313  -3.211  1.00  0.00     0.029 C 
HETATM   24  C7  UNL     1       1.469  -2.118  -2.556  1.00  0.00     0.020 A 
ATOM     25  H2  UNL     1      -1.522   0.902  -1.293  1.00  0.00     0.166 HD
BRANCH  18  26
HETATM   26  C3  UNL     1      -2.712  -1.140  -1.946  1.00  0.00     0.160 C 
BRANCH  26  27
HETATM   27  C2  UNL     1      -3.268  -1.402  -0.609  1.00  0.00    -0.017 C 
HETATM   28  C1  UNL     1      -3.807  -0.401   0.067  1.00  0.00     0.008 C 
ENDBRANCH  26  27
ENDBRANCH  18  26
ENDBRANCH  15  16
ENDBRANCH   1  15
BRANCH   6  29
HETATM   29  O2  UNL     1       2.174   2.546   4.401  1.00  0.00    -0.358 OA
ATOM     30  H2  UNL     1       2.772   3.205   4.069  1.00  0.00     0.217 HD
ENDBRANCH   6  29
TORSDOF 5
