REMARK  3 active torsions:
REMARK  status: ('A' for Active; 'I' for Inactive)
REMARK    1  A    between atoms: C3_4  and  N2_5 
REMARK       I    between atoms: N2_5  and  C4_7 
REMARK       I    between atoms: C4_7  and  N3_9 
REMARK    2  A    between atoms: N4_12  and  C7_13 
REMARK    3  A    between atoms: C13_23  and  S1_24 
ROOT
HETATM    1  N2  UNL     1      -2.107  -0.605   0.057  1.00  0.00    -0.305 N 
ATOM      2  H2  UNL     1      -1.718  -1.503   0.344  1.00  0.00     0.171 HD
HETATM    3  C4  UNL     1      -1.248   0.384  -0.446  1.00  0.00     0.323 C 
HETATM    4  O1  UNL     1      -1.736   1.513  -0.807  1.00  0.00    -0.247 OA
HETATM    5  N3  UNL     1       0.148   0.246  -0.597  1.00  0.00    -0.331 N 
HETATM    6  C5  UNL     1       0.815  -0.966  -0.238  1.00  0.00     0.148 C 
HETATM    7  C6  UNL     1       1.886  -0.706   0.813  1.00  0.00     0.161 C 
HETATM    8  N4  UNL     1       2.720   0.360   0.279  1.00  0.00    -0.214 N 
HETATM    9  C11 UNL     1       2.213   1.545  -0.359  1.00  0.00     0.161 C 
HETATM   10  C12 UNL     1       0.925   1.337  -1.116  1.00  0.00     0.148 C 
ENDROOT
BRANCH   1  11
HETATM   11  C3  UNL     1      -3.500  -0.385   0.176  1.00  0.00     0.094 A 
HETATM   12  C2  UNL     1      -4.313   0.680  -0.113  1.00  0.00     0.142 A 
HETATM   13  N1  UNL     1      -5.621   0.389   0.188  1.00  0.00    -0.304 N 
HETATM   14  C1  UNL     1      -6.719   1.319  -0.008  1.00  0.00     0.177 C 
HETATM   15  N7  UNL     1      -5.616  -0.822   0.651  1.00  0.00    -0.286 N 
HETATM   16  C13 UNL     1      -4.402  -1.347   0.675  1.00  0.00     0.187 A 
ATOM     17  H7  UNL     1      -6.454  -1.314   0.962  1.00  0.00     0.188 HD
BRANCH  16  18
HETATM   18  S1  UNL     1      -4.008  -2.937   1.227  1.00  0.00     0.307 S 
HETATM   19  O2  UNL     1      -4.072  -4.074  -0.002  1.00  0.00    -0.204 OA
HETATM   20  O3  UNL     1      -4.980  -3.341   2.519  1.00  0.00    -0.204 OA
ENDBRANCH  16  18
ENDBRANCH   1  11
BRANCH   8  21
HETATM   21  C7  UNL     1       4.133   0.210   0.404  1.00  0.00     0.679 A 
HETATM   22  N5  UNL     1       4.692  -0.868   0.989  1.00  0.00    -0.202 N 
HETATM   23  C8  UNL     1       6.020  -1.032   1.118  1.00  0.00     0.107 A 
ATOM     24  H5  UNL     1       4.076  -1.596   1.352  1.00  0.00     0.183 HD
HETATM   25  C9  UNL     1       6.869  -0.065   0.637  1.00  0.00     0.035 A 
HETATM   26  C10 UNL     1       6.317   1.051   0.032  1.00  0.00     0.107 A 
HETATM   27  N6  UNL     1       4.980   1.143  -0.060  1.00  0.00    -0.202 N 
ATOM     28  H6  UNL     1       4.585   1.970  -0.508  1.00  0.00     0.183 HD
ENDBRANCH   8  21
TORSDOF 3
