REMARK  3 active torsions:
REMARK  status: ('A' for Active; 'I' for Inactive)
REMARK    1  A    between atoms: C3_4  and  C4_5 
REMARK    2  A    between atoms: C7_8  and  N2_9 
REMARK    3  A    between atoms: N3_14  and  N4_15 
ROOT
HETATM    1  N1  UNL     1       2.388   3.306  -0.184  1.00  0.00    -0.191 NA
HETATM    2  C1  UNL     1       1.288   2.945  -0.042  1.00  0.00     0.107 C 
HETATM    3  C2  UNL     1      -0.077   2.526   0.128  1.00  0.00     0.142 C 
HETATM    4  C3  UNL     1      -0.301   1.154  -0.007  1.00  0.00     0.096 C 
HETATM    5  N3  UNL     1      -1.453   0.475  -0.149  1.00  0.00    -0.216 N 
HETATM    6  C13 UNL     1      -2.643   1.069  -0.341  1.00  0.00     0.335 C 
HETATM    7  O3  UNL     1      -3.542   0.287  -0.737  1.00  0.00    -0.260 OA
HETATM    8  C14 UNL     1      -3.072   2.367  -0.186  1.00  0.00     0.318 C 
HETATM    9  O4  UNL     1      -4.240   2.662  -0.534  1.00  0.00    -0.262 OA
HETATM   10  N5  UNL     1      -2.369   3.396   0.310  1.00  0.00    -0.284 N 
ATOM     11  H5  UNL     1      -2.907   4.191   0.654  1.00  0.00     0.172 HD
HETATM   12  C15 UNL     1      -1.029   3.492   0.402  1.00  0.00     0.271 C 
HETATM   13  O5  UNL     1      -0.554   4.600   0.786  1.00  0.00    -0.266 OA
ENDROOT
BRANCH   4  14
HETATM   14  C4  UNL     1       0.911   0.379   0.012  1.00  0.00    -0.005 A 
HETATM   15  C5  UNL     1       1.590   0.145  -1.155  1.00  0.00     0.016 A 
HETATM   16  C6  UNL     1       2.747  -0.598  -1.117  1.00  0.00     0.037 A 
HETATM   17  C7  UNL     1       3.214  -1.096   0.078  1.00  0.00     0.102 A 
HETATM   18  C8  UNL     1       2.551  -0.875   1.265  1.00  0.00     0.037 A 
HETATM   19  C9  UNL     1       1.386  -0.122   1.194  1.00  0.00     0.016 A 
BRANCH  17  20
HETATM   20  N2  UNL     1       4.429  -1.865   0.057  1.00  0.00    -0.116 N 
HETATM   21  O1  UNL     1       5.038  -2.072  -1.011  1.00  0.00    -0.532 OA
HETATM   22  O2  UNL     1       4.888  -2.360   1.262  1.00  0.00    -0.532 OA
ENDBRANCH  17  20
ENDBRANCH   4  14
BRANCH   5  23
HETATM   23  N4  UNL     1      -1.418  -0.917  -0.089  1.00  0.00    -0.318 N 
HETATM   24  C10 UNL     1      -2.043  -1.886   0.831  1.00  0.00     0.145 C 
HETATM   25  C11 UNL     1      -2.144  -2.804  -0.385  1.00  0.00     0.043 C 
HETATM   26  C12 UNL     1      -0.845  -2.069  -0.758  1.00  0.00     0.145 C 
ENDBRANCH   5  23
TORSDOF 3
