REMARK  8 active torsions:
REMARK  status: ('A' for Active; 'I' for Inactive)
REMARK    1  A    between atoms: C3_3  and  O1_4 
REMARK    2  A    between atoms: O1_4  and  C4_5 
REMARK    3  A    between atoms: C4_5  and  C5_7 
REMARK    4  A    between atoms: C13_15  and  O3_16 
REMARK    5  A    between atoms: O3_16  and  C14_17 
REMARK    6  A    between atoms: C14_17  and  C15_19 
REMARK    7  A    between atoms: C26_31  and  C27_32 
REMARK    8  A    between atoms: C28_34  and  O7_35 
ROOT
HETATM    1  C1  UNL     1       3.918   1.301   0.826  1.00  0.00     0.017 C 
HETATM    2  C2  UNL     1       3.091   0.444   0.315  1.00  0.00    -0.053 C 
HETATM    3  C3  UNL     1       3.715  -0.795  -0.326  1.00  0.00     0.161 C 
HETATM    4  C8  UNL     1       3.184  -2.030   0.327  1.00  0.00     0.038 C 
HETATM    5  C9  UNL     1       1.662  -1.973   0.313  1.00  0.00     0.013 C 
HETATM    6  C10 UNL     1       1.207  -0.745   1.076  1.00  0.00    -0.032 C 
HETATM    7  C11 UNL     1       1.881  -0.845   2.426  1.00  0.00     0.016 C 
HETATM    8  C12 UNL     1      -0.260  -0.755   1.380  1.00  0.00     0.043 C 
HETATM    9  C13 UNL     1      -1.168  -0.725   0.145  1.00  0.00     0.142 C 
HETATM   10  C19 UNL     1      -1.273   0.558  -0.542  1.00  0.00    -0.001 C 
HETATM   11  C20 UNL     1      -0.971   0.422  -2.027  1.00  0.00     0.019 C 
HETATM   12  C21 UNL     1      -0.542   1.711   0.097  1.00  0.00     0.021 C 
HETATM   13  C22 UNL     1      -1.489   2.294   1.123  1.00  0.00     0.008 C 
HETATM   14  C23 UNL     1      -2.846   1.578   0.896  1.00  0.00     0.015 C 
HETATM   15  C24 UNL     1      -2.669   1.220  -0.549  1.00  0.00    -0.012 C 
HETATM   16  C25 UNL     1      -3.677   0.409  -1.205  1.00  0.00    -0.004 C 
HETATM   17  C26 UNL     1      -4.859   0.930  -1.458  1.00  0.00     0.005 C 
HETATM   18  C28 UNL     1      -5.268   2.311  -1.155  1.00  0.00     0.154 C 
HETATM   19  C29 UNL     1      -4.098   3.183  -1.163  1.00  0.00     0.037 C 
HETATM   20  C30 UNL     1      -2.724   2.541  -1.269  1.00  0.00     0.017 C 
HETATM   21  C31 UNL     1       0.872   1.657   0.465  1.00  0.00     0.046 C 
HETATM   22  C32 UNL     1       1.624   2.829  -0.214  1.00  0.00     0.034 C 
HETATM   23 CL1  UNL     1       0.992   2.037   2.228  1.00  0.00    -0.118 Cl
HETATM   24  C33 UNL     1       1.636   0.427   0.239  1.00  0.00     0.048 C 
ENDROOT
BRANCH   9  25
HETATM   25  O3  UNL     1      -2.321  -1.467   0.444  1.00  0.00    -0.311 OA
BRANCH  25  26
HETATM   26  C14 UNL     1      -2.515  -2.781   0.112  1.00  0.00     0.295 C 
HETATM   27  O4  UNL     1      -1.570  -3.306  -0.501  1.00  0.00    -0.259 OA
BRANCH  26  28
HETATM   28  C15 UNL     1      -3.744  -3.507   0.456  1.00  0.00     0.063 A 
HETATM   29  C16 UNL     1      -4.069  -4.802   0.191  1.00  0.00     0.044 A 
HETATM   30  C17 UNL     1      -5.339  -5.031   0.714  1.00  0.00     0.142 A 
HETATM   31  O5  UNL     1      -5.739  -3.892   1.269  1.00  0.00    -0.334 OA
HETATM   32  C18 UNL     1      -4.817  -2.969   1.133  1.00  0.00     0.159 A 
ENDBRANCH  26  28
ENDBRANCH  25  26
ENDBRANCH   9  25
BRANCH  17  33
HETATM   33  C27 UNL     1      -5.823   0.026  -2.126  1.00  0.00     0.268 C 
HETATM   34  O6  UNL     1      -6.958   0.495  -2.380  1.00  0.00    -0.302 OA
ENDBRANCH  17  33
BRANCH  18  35
HETATM   35  O7  UNL     1      -6.152   2.420  -0.099  1.00  0.00    -0.391 OA
ATOM     36  H7  UNL     1      -6.416   3.311   0.097  1.00  0.00     0.210 HD
ENDBRANCH  18  35
BRANCH   3  37
HETATM   37  O1  UNL     1       5.084  -0.702  -0.418  1.00  0.00    -0.308 OA
BRANCH  37  38
HETATM   38  C4  UNL     1       5.802  -0.606  -1.603  1.00  0.00     0.283 C 
HETATM   39  O2  UNL     1       5.139  -0.607  -2.648  1.00  0.00    -0.260 OA
BRANCH  38  40
HETATM   40  C5  UNL     1       7.240  -0.515  -1.525  1.00  0.00     0.078 C 
HETATM   41  C6  UNL     1       7.901  -0.518  -0.384  1.00  0.00    -0.025 C 
HETATM   42  C7  UNL     1       9.375  -0.425  -0.301  1.00  0.00     0.036 C 
ENDBRANCH  38  40
ENDBRANCH  37  38
ENDBRANCH   3  37
TORSDOF 8
