REMARK  9 active torsions:
REMARK  status: ('A' for Active; 'I' for Inactive)
REMARK    1  A    between atoms: C4_5  and  C5_6 
REMARK       I    between atoms: C5_6  and  N2_8 
REMARK    2  A    between atoms: N3_11  and  C8_12 
REMARK    3  A    between atoms: C8_12  and  C9_13 
REMARK       I    between atoms: C9_13  and  N4_15 
REMARK    4  A    between atoms: N4_15  and  C10_17 
REMARK    5  A    between atoms: C10_17  and  C11_18 
REMARK    6  A    between atoms: C14_21  and  C15_22 
REMARK    7  A    between atoms: C15_22  and  N5_23 
REMARK    8  A    between atoms: C19_27  and  C20_28 
REMARK    9  A    between atoms: C27_37  and  O3_38 
ROOT
HETATM    1  N1  UNL     1      -9.172   1.945  -3.677  1.00  0.00    -0.191 NA
HETATM    2  C1  UNL     1      -9.002   1.091  -2.902  1.00  0.00     0.102 C 
HETATM    3  C2  UNL     1      -8.799   0.062  -1.935  1.00  0.00     0.078 A 
HETATM    4  C3  UNL     1      -7.542  -0.199  -1.432  1.00  0.00     0.042 A 
HETATM    5  C4  UNL     1      -7.296  -1.177  -0.504  1.00  0.00     0.034 A 
HETATM    6  C25 UNL     1      -8.405  -1.917  -0.075  1.00  0.00     0.020 A 
HETATM    7  C26 UNL     1      -9.666  -1.666  -0.569  1.00  0.00     0.039 A 
HETATM    8  C27 UNL     1      -9.886  -0.666  -1.513  1.00  0.00     0.086 A 
ENDROOT
BRANCH   8   9
HETATM    9  O3  UNL     1     -11.180  -0.464  -1.971  1.00  0.00    -0.359 OA
ATOM     10  H3  UNL     1     -11.931  -0.967  -1.679  1.00  0.00     0.217 HD
ENDBRANCH   8   9
BRANCH   5  11
HETATM   11  C5  UNL     1      -6.017  -1.534   0.057  1.00  0.00     0.262 C 
HETATM   12  O1  UNL     1      -5.972  -1.764   1.308  1.00  0.00    -0.267 OA
HETATM   13  N2  UNL     1      -4.829  -1.643  -0.694  1.00  0.00    -0.283 N 
HETATM   14  C6  UNL     1      -4.622  -1.468  -2.006  1.00  0.00     0.118 A 
HETATM   15  C24 UNL     1      -3.591  -1.951  -0.199  1.00  0.00     0.193 A 
HETATM   16  C7  UNL     1      -3.299  -1.663  -2.308  1.00  0.00     0.110 A 
HETATM   17  N3  UNL     1      -2.674  -1.964  -1.161  1.00  0.00    -0.343 N 
BRANCH  17  18
HETATM   18  C8  UNL     1      -1.241  -2.243  -1.057  1.00  0.00     0.231 C 
BRANCH  18  19
HETATM   19  C9  UNL     1      -0.599  -0.914  -0.805  1.00  0.00     0.236 C 
HETATM   20  O2  UNL     1      -0.249  -0.154  -1.721  1.00  0.00    -0.272 OA
HETATM   21  N4  UNL     1      -0.397  -0.535   0.541  1.00  0.00    -0.355 N 
ATOM     22  H4  UNL     1      -0.682  -1.154   1.300  1.00  0.00     0.162 HD
BRANCH  21  23
HETATM   23  C10 UNL     1       0.218   0.740   0.827  1.00  0.00     0.161 C 
BRANCH  23  24
HETATM   24  C11 UNL     1       1.681   0.626   0.549  1.00  0.00    -0.041 A 
HETATM   25  C12 UNL     1       2.502  -0.164   1.340  1.00  0.00     0.009 A 
HETATM   26  C13 UNL     1       3.863  -0.282   1.103  1.00  0.00     0.009 A 
HETATM   27  C14 UNL     1       4.452   0.393   0.055  1.00  0.00    -0.040 A 
HETATM   28  C22 UNL     1       3.635   1.183  -0.738  1.00  0.00     0.009 A 
HETATM   29  C23 UNL     1       2.278   1.298  -0.497  1.00  0.00     0.009 A 
BRANCH  27  30
HETATM   30  C15 UNL     1       5.893   0.308  -0.255  1.00  0.00     0.166 C 
BRANCH  30  31
HETATM   31  N5  UNL     1       6.672   1.298   0.466  1.00  0.00    -0.361 N 
HETATM   32  C16 UNL     1       6.937   2.521   0.011  1.00  0.00     0.090 A 
HETATM   33  C17 UNL     1       7.690   3.389   0.786  1.00  0.00     0.018 A 
HETATM   34  C18 UNL     1       8.186   3.029   2.032  1.00  0.00     0.017 A 
HETATM   35  C19 UNL     1       7.892   1.756   2.470  1.00  0.00     0.015 A 
HETATM   36  C21 UNL     1       7.140   0.926   1.669  1.00  0.00     0.105 A 
BRANCH  35  37
HETATM   37  C20 UNL     1       8.389   1.314   3.781  1.00  0.00     0.124 C 
HETATM   38  N6  UNL     1       8.151  -0.015   4.200  1.00  0.00    -0.089 NA
HETATM   39  S1  UNL     1       9.203   2.321   4.753  1.00  0.00    -0.063 SA
ENDBRANCH  35  37
ENDBRANCH  30  31
ENDBRANCH  27  30
ENDBRANCH  23  24
ENDBRANCH  21  23
ENDBRANCH  18  19
ENDBRANCH  17  18
ENDBRANCH   5  11
TORSDOF 9
