REMARK  10 active torsions:
REMARK  status: ('A' for Active; 'I' for Inactive)
REMARK    1  A    between atoms: S1_2  and  C2_3 
REMARK    2  A    between atoms: C2_3  and  C3_4 
REMARK    3  A    between atoms: C3_4  and  C4_5 
REMARK    4  A    between atoms: N1_8  and  C6_9 
REMARK    5  A    between atoms: C6_9  and  C7_10 
REMARK    6  A    between atoms: C10_13  and  C11_14 
REMARK    7  A    between atoms: C14_21  and  O2_22 
REMARK    8  A    between atoms: C18_29  and  O3_30 
REMARK    9  A    between atoms: C19_32  and  C20_33 
REMARK   10  A    between atoms: C20_33  and  C21_34 
ROOT
HETATM    1  C4  UNL     1      -0.694   1.879  -0.029  1.00  0.00     0.171 C 
HETATM    2  C5  UNL     1       0.649   1.259   0.022  1.00  0.00     0.239 C 
HETATM    3  O1  UNL     1       1.359   1.510  -1.028  1.00  0.00    -0.272 OA
HETATM    4  N1  UNL     1       1.234   0.454   1.036  1.00  0.00    -0.295 N 
HETATM    5  C14 UNL     1       0.621  -0.655   1.680  1.00  0.00     0.149 C 
HETATM    6  C15 UNL     1      -0.116  -1.798   1.227  1.00  0.00     0.089 C 
HETATM    7  C16 UNL     1       0.796  -3.077   1.265  1.00  0.00     0.047 C 
HETATM    8  C17 UNL     1      -1.140  -2.186   2.332  1.00  0.00     0.047 C 
HETATM    9  N4  UNL     1      -0.853  -1.853   0.038  1.00  0.00    -0.357 N 
ATOM     10  H4  UNL     1      -0.773  -2.774  -0.394  1.00  0.00     0.162 HD
HETATM   11  C18 UNL     1      -1.659  -1.022  -0.723  1.00  0.00     0.136 C 
HETATM   12  C19 UNL     1      -2.843  -0.224  -0.395  1.00  0.00     0.161 C 
HETATM   13  N5  UNL     1      -2.752   0.578   0.808  1.00  0.00    -0.344 N 
HETATM   14  C24 UNL     1      -3.823   0.551   1.824  1.00  0.00     0.153 C 
HETATM   15  C25 UNL     1      -1.639   1.405   0.999  1.00  0.00     0.233 C 
HETATM   16  O4  UNL     1      -1.436   1.782   2.208  1.00  0.00    -0.272 OA
ENDROOT
BRANCH   4  17
HETATM   17  C6  UNL     1       2.615   0.849   1.431  1.00  0.00     0.172 C 
BRANCH  17  18
HETATM   18  C7  UNL     1       3.651   0.219   0.610  1.00  0.00    -0.040 A 
HETATM   19  C8  UNL     1       3.415  -0.728  -0.332  1.00  0.00     0.010 A 
HETATM   20  C9  UNL     1       4.403  -1.305  -1.098  1.00  0.00     0.015 A 
HETATM   21  C10 UNL     1       5.707  -0.926  -0.927  1.00  0.00     0.004 A 
HETATM   22  C12 UNL     1       5.985   0.042   0.030  1.00  0.00     0.015 A 
HETATM   23  C13 UNL     1       4.962   0.608   0.790  1.00  0.00     0.010 A 
BRANCH  21  24
HETATM   24  C11 UNL     1       6.808  -1.511  -1.720  1.00  0.00     0.120 C 
HETATM   25  N2  UNL     1       6.568  -2.393  -2.597  1.00  0.00    -0.387 N 
ATOM     26  H22 UNL     1       5.607  -2.699  -2.752  1.00  0.00     0.157 HD
ATOM     27  H21 UNL     1       7.328  -2.797  -3.144  1.00  0.00     0.157 HD
HETATM   28  N3  UNL     1       8.147  -1.085  -1.504  1.00  0.00    -0.082 NA
ENDBRANCH  21  24
ENDBRANCH  17  18
ENDBRANCH   4  17
BRANCH   5  29
HETATM   29  O2  UNL     1       0.794  -0.582   2.971  1.00  0.00    -0.347 OA
ATOM     30  H2  UNL     1       0.384  -1.323   3.401  1.00  0.00     0.219 HD
ENDBRANCH   5  29
BRANCH   1  31
HETATM   31  C3  UNL     1      -0.514   3.356   0.256  1.00  0.00     0.034 C 
BRANCH  31  32
HETATM   32  C2  UNL     1       0.352   4.104  -0.684  1.00  0.00     0.075 C 
BRANCH  32  33
HETATM   33  S1  UNL     1       0.334   5.855  -0.094  1.00  0.00    -0.173 SA
HETATM   34  C1  UNL     1      -1.353   6.534  -0.300  1.00  0.00     0.089 C 
ENDBRANCH  32  33
ENDBRANCH  31  32
ENDBRANCH   1  31
BRANCH  11  35
HETATM   35  O3  UNL     1      -1.283  -0.944  -1.969  1.00  0.00    -0.348 OA
ATOM     36  H3  UNL     1      -1.836  -0.374  -2.491  1.00  0.00     0.219 HD
ENDBRANCH  11  35
BRANCH  12  37
HETATM   37  C20 UNL     1      -4.146  -0.939  -0.343  1.00  0.00     0.037 C 
BRANCH  37  38
HETATM   38  C21 UNL     1      -4.650  -1.608  -1.552  1.00  0.00    -0.020 C 
HETATM   39  C22 UNL     1      -3.844  -2.699  -2.151  1.00  0.00     0.009 C 
HETATM   40  C23 UNL     1      -6.005  -2.238  -1.166  1.00  0.00     0.009 C 
ENDBRANCH  37  38
ENDBRANCH  12  37
TORSDOF 10
