REMARK  8 active torsions:
REMARK  status: ('A' for Active; 'I' for Inactive)
REMARK    1  A    between atoms: C2_2  and  C3_3 
REMARK    2  A    between atoms: C3_3  and  C4_4 
REMARK    3  A    between atoms: C4_4  and  C5_5 
REMARK    4  A    between atoms: C11_16  and  C12_17 
REMARK    5  A    between atoms: C12_17  and  C13_18 
REMARK    6  A    between atoms: C18_25  and  C19_26 
REMARK    7  A    between atoms: C19_26  and  C21_28 
REMARK    8  A    between atoms: C24_34  and  C25_35 
ROOT
HETATM    1  C5  UNL     1       2.903  -0.559  -0.640  1.00  0.00     0.155 C 
HETATM    2  N1  UNL     1       1.793  -1.323  -0.174  1.00  0.00    -0.348 N 
ATOM      3  H1  UNL     1       1.617  -1.295   0.830  1.00  0.00     0.163 HD
HETATM    4  C6  UNL     1       0.906  -2.116  -0.942  1.00  0.00     0.240 C 
HETATM    5  O1  UNL     1       0.541  -3.278  -0.529  1.00  0.00    -0.271 OA
HETATM    6  C7  UNL     1       0.337  -1.714  -2.227  1.00  0.00     0.175 C 
HETATM    7  C8  UNL     1       1.240  -2.440  -3.249  1.00  0.00     0.042 C 
HETATM    8  N2  UNL     1      -1.047  -2.086  -2.443  1.00  0.00    -0.338 N 
HETATM    9  C9  UNL     1      -1.381  -2.394  -3.854  1.00  0.00     0.154 C 
HETATM   10  C10 UNL     1      -2.088  -2.193  -1.498  1.00  0.00     0.266 C 
HETATM   11  O2  UNL     1      -2.672  -3.343  -1.496  1.00  0.00    -0.266 OA
HETATM   12  C11 UNL     1      -2.609  -1.210  -0.524  1.00  0.00     0.082 C 
HETATM   13  N3  UNL     1      -2.603   0.146  -0.987  1.00  0.00    -0.319 N 
HETATM   14  C16 UNL     1      -3.495   0.371  -2.174  1.00  0.00     0.159 C 
HETATM   15  C17 UNL     1      -1.933   1.286  -0.559  1.00  0.00     0.247 C 
HETATM   16  O3  UNL     1      -1.516   2.064  -1.510  1.00  0.00    -0.271 OA
HETATM   17  C18 UNL     1      -1.597   1.801   0.776  1.00  0.00     0.180 C 
HETATM   18  N4  UNL     1      -0.336   1.410   1.321  1.00  0.00    -0.347 N 
ATOM     19  H4  UNL     1      -0.412   0.732   2.079  1.00  0.00     0.163 HD
HETATM   20  C23 UNL     1       0.969   1.768   1.026  1.00  0.00     0.229 C 
HETATM   21  O4  UNL     1       1.680   2.229   1.997  1.00  0.00    -0.273 OA
HETATM   22  C24 UNL     1       1.722   1.713  -0.248  1.00  0.00     0.149 C 
HETATM   23  C27 UNL     1       2.919   0.841  -0.149  1.00  0.00     0.162 C 
HETATM   24  O5  UNL     1       3.937   1.257   0.337  1.00  0.00    -0.295 OA
ENDROOT
BRANCH   1  25
HETATM   25  C4  UNL     1       4.226  -1.240  -0.433  1.00  0.00     0.033 C 
BRANCH  25  26
HETATM   26  C3  UNL     1       4.552  -1.548   0.989  1.00  0.00     0.002 C 
BRANCH  26  27
HETATM   27  C2  UNL     1       5.919  -2.231   0.996  1.00  0.00    -0.004 C 
HETATM   28  C1  UNL     1       6.269  -2.554   2.445  1.00  0.00     0.005 C 
ENDBRANCH  26  27
ENDBRANCH  25  26
ENDBRANCH   1  25
BRANCH  22  29
HETATM   29  C25 UNL     1       2.009   3.096  -0.764  1.00  0.00     0.017 C 
HETATM   30  C26 UNL     1       2.800   3.985   0.105  1.00  0.00     0.006 C 
ENDBRANCH  22  29
BRANCH  17  31
HETATM   31  C19 UNL     1      -1.735   3.351   0.767  1.00  0.00     0.013 C 
HETATM   32  C20 UNL     1      -1.397   3.884   2.117  1.00  0.00     0.012 C 
BRANCH  31  33
HETATM   33  C21 UNL     1      -3.229   3.612   0.534  1.00  0.00     0.002 C 
HETATM   34  C22 UNL     1      -3.541   5.069   0.497  1.00  0.00     0.005 C 
ENDBRANCH  31  33
ENDBRANCH  17  31
BRANCH  12  35
HETATM   35  C12 UNL     1      -2.279  -1.459   0.898  1.00  0.00     0.067 C 
BRANCH  35  36
HETATM   36  C13 UNL     1      -2.843  -2.801   1.380  1.00  0.00    -0.017 C 
HETATM   37  C14 UNL     1      -4.336  -2.783   1.258  1.00  0.00     0.010 C 
HETATM   38  C15 UNL     1      -2.529  -2.934   2.879  1.00  0.00     0.010 C 
ENDBRANCH  35  36
ENDBRANCH  12  35
TORSDOF 8
