REMARK  8 active torsions:
REMARK  status: ('A' for Active; 'I' for Inactive)
REMARK    1  A    between atoms: C2_2  and  C4_4 
REMARK    2  A    between atoms: C4_4  and  C5_5 
REMARK    3  A    between atoms: C7_9  and  N2_10 
REMARK    4  A    between atoms: N2_10  and  S1_12 
REMARK    5  A    between atoms: S1_12  and  C8_15 
REMARK    6  A    between atoms: C12_20  and  C13_21 
REMARK    7  A    between atoms: C14_22  and  C15_23 
REMARK    8  A    between atoms: C15_23  and  N3_26 
ROOT
HETATM    1  C8  UNL     1      -0.837  -1.148  -0.882  1.00  0.00     0.081 A 
HETATM    2  C9  UNL     1      -0.373  -1.797   0.236  1.00  0.00     0.028 A 
HETATM    3  C10 UNL     1      -1.219  -2.056   1.297  1.00  0.00     0.045 A 
HETATM    4  C11 UNL     1      -2.544  -1.641   1.196  1.00  0.00     0.135 A 
HETATM    5  F1  UNL     1      -3.369  -1.909   2.261  1.00  0.00    -0.205 F 
HETATM    6  C12 UNL     1      -3.036  -0.994   0.098  1.00  0.00     0.057 A 
HETATM    7  C18 UNL     1      -2.152  -0.754  -0.944  1.00  0.00     0.049 A 
ENDROOT
BRANCH   1   8
HETATM    8  S1  UNL     1       0.243  -0.827  -2.214  1.00  0.00     0.264 S 
HETATM    9  O1  UNL     1      -0.499  -0.790  -3.519  1.00  0.00    -0.200 OA
HETATM   10  O2  UNL     1       1.277  -1.928  -2.215  1.00  0.00    -0.200 OA
BRANCH   8  11
HETATM   11  N2  UNL     1       0.985   0.712  -1.968  1.00  0.00    -0.260 N 
ATOM     12  H2  UNL     1       0.513   1.584  -2.208  1.00  0.00     0.181 HD
BRANCH  11  13
HETATM   13  C7  UNL     1       2.198   0.695  -1.452  1.00  0.00     0.158 A 
HETATM   14  N1  UNL     1       2.973   1.741  -1.170  1.00  0.00    -0.345 N 
HETATM   15  C6  UNL     1       4.162   1.519  -0.654  1.00  0.00     0.104 A 
ATOM     16  H1  UNL     1       2.652   2.692  -1.350  1.00  0.00     0.167 HD
HETATM   17  C5  UNL     1       4.527   0.220  -0.440  1.00  0.00     0.002 A 
HETATM   18  S2  UNL     1       3.156  -0.633  -0.984  1.00  0.00    -0.057 SA
BRANCH  17  19
HETATM   19  C4  UNL     1       5.780  -0.372   0.124  1.00  0.00     0.051 C 
BRANCH  19  20
HETATM   20  C2  UNL     1       6.790   0.634   0.552  1.00  0.00    -0.018 C 
HETATM   21  C1  UNL     1       6.351   1.580   1.618  1.00  0.00     0.010 C 
HETATM   22  C3  UNL     1       7.992  -0.151   1.078  1.00  0.00     0.010 C 
ENDBRANCH  19  20
ENDBRANCH  17  19
ENDBRANCH  11  13
ENDBRANCH   8  11
ENDBRANCH   1   8
BRANCH   6  23
HETATM   23  C13 UNL     1      -4.409  -0.583   0.034  1.00  0.00    -0.061 C 
HETATM   24  C14 UNL     1      -5.561  -0.235  -0.042  1.00  0.00    -0.062 C 
BRANCH  24  25
HETATM   25  C15 UNL     1      -6.939   0.206  -0.140  1.00  0.00     0.179 C 
HETATM   26  C16 UNL     1      -7.769  -0.137   1.055  1.00  0.00     0.060 C 
HETATM   27  C17 UNL     1      -6.918   1.709  -0.387  1.00  0.00     0.060 C 
BRANCH  25  28
HETATM   28  N3  UNL     1      -7.513  -0.415  -1.329  1.00  0.00    -0.060 N 
ATOM     29  H33 UNL     1      -6.974  -0.229  -2.175  1.00  0.00     0.276 HD
ATOM     30  H32 UNL     1      -7.419  -1.431  -1.333  1.00  0.00     0.276 HD
ATOM     31  H31 UNL     1      -8.482  -0.105  -1.398  1.00  0.00     0.276 HD
ENDBRANCH  25  28
ENDBRANCH  24  25
ENDBRANCH   6  23
TORSDOF 8
