REMARK  7 active torsions:
REMARK  status: ('A' for Active; 'I' for Inactive)
REMARK    1  A    between atoms: O1_2  and  C2_3 
REMARK    2  A    between atoms: C2_3  and  C3_5 
REMARK    3  A    between atoms: C7_10  and  C8_11 
REMARK    4  A    between atoms: C8_11  and  N1_12 
REMARK       I    between atoms: N1_12  and  C10_14 
REMARK       I    between atoms: C10_14  and  N2_16 
REMARK    5  A    between atoms: N2_16  and  C11_18 
REMARK    6  A    between atoms: C13_21  and  C14_22 
REMARK    7  A    between atoms: C19_27  and  O5_28 
ROOT
HETATM    1  N1  UNL     1       1.664  -2.736  -1.516  1.00  0.00    -0.334 N 
HETATM    2  C9  UNL     1       2.467  -3.606  -2.367  1.00  0.00     0.154 C 
HETATM    3  C10 UNL     1       0.530  -2.107  -2.058  1.00  0.00     0.318 C 
HETATM    4  O3  UNL     1       0.223  -2.305  -3.253  1.00  0.00    -0.247 OA
HETATM    5  N2  UNL     1      -0.264  -1.256  -1.271  1.00  0.00    -0.334 N 
ATOM      6  H2  UNL     1       0.007  -1.110  -0.299  1.00  0.00     0.164 HD
ENDROOT
BRANCH   1   7
HETATM    7  C8  UNL     1       2.054  -2.542  -0.133  1.00  0.00     0.165 C 
BRANCH   7   8
HETATM    8  C7  UNL     1       2.951  -1.384   0.016  1.00  0.00    -0.036 A 
HETATM    9  C6  UNL     1       3.321  -0.642  -1.086  1.00  0.00     0.051 A 
HETATM   10  C5  UNL     1       4.160   0.428  -0.898  1.00  0.00     0.117 A 
HETATM   11  C4  UNL     1       4.608   0.732   0.369  1.00  0.00     0.059 A 
HETATM   12  F1  UNL     1       4.544   1.175  -1.940  1.00  0.00    -0.206 F 
HETATM   13  C3  UNL     1       4.255   0.009   1.486  1.00  0.00     0.043 A 
HETATM   14  C20 UNL     1       3.412  -1.064   1.288  1.00  0.00     0.026 A 
BRANCH  13  15
HETATM   15  C2  UNL     1       4.748   0.360   2.813  1.00  0.00     0.293 C 
HETATM   16  O2  UNL     1       4.406  -0.321   3.807  1.00  0.00    -0.259 OA
BRANCH  15  17
HETATM   17  O1  UNL     1       5.589   1.435   2.986  1.00  0.00    -0.323 OA
HETATM   18  C1  UNL     1       6.112   1.846   4.225  1.00  0.00     0.213 C 
ENDBRANCH  15  17
ENDBRANCH  13  15
ENDBRANCH   7   8
ENDBRANCH   1   7
BRANCH   5  19
HETATM   19  C11 UNL     1      -1.444  -0.574  -1.758  1.00  0.00     0.138 C 
HETATM   20  C12 UNL     1      -1.298   0.930  -1.686  1.00  0.00     0.196 C 
HETATM   21  O4  UNL     1      -1.974   1.386  -0.562  1.00  0.00    -0.383 OA
HETATM   22  C13 UNL     1      -3.353   1.395  -0.764  1.00  0.00     0.131 C 
HETATM   23  C18 UNL     1      -3.751   0.074  -1.329  1.00  0.00     0.066 C 
HETATM   24  C19 UNL     1      -2.687  -0.965  -1.020  1.00  0.00     0.145 C 
BRANCH  22  25
HETATM   25  C14 UNL     1      -4.083   1.743   0.514  1.00  0.00    -0.025 C 
HETATM   26  C15 UNL     1      -3.626   3.126   0.957  1.00  0.00     0.017 C 
HETATM   27  C16 UNL     1      -3.823   0.777   1.624  1.00  0.00     0.017 C 
HETATM   28  C17 UNL     1      -5.579   1.793   0.287  1.00  0.00     0.017 C 
ENDBRANCH  22  25
BRANCH  24  29
HETATM   29  O5  UNL     1      -3.192  -2.191  -1.445  1.00  0.00    -0.393 OA
ATOM     30  H5  UNL     1      -3.981  -2.439  -0.977  1.00  0.00     0.210 HD
ENDBRANCH  24  29
ENDBRANCH   5  19
TORSDOF 7
