REMARK  6 active torsions:
REMARK  status: ('A' for Active; 'I' for Inactive)
REMARK    1  A    between atoms: C5_6  and  O1_7 
REMARK    2  A    between atoms: O1_7  and  S1_8 
REMARK    3  A    between atoms: S1_8  and  C6_11 
REMARK    4  A    between atoms: C15_20  and  C16_22 
REMARK    5  A    between atoms: C16_22  and  O4_23 
REMARK    6  A    between atoms: N2_25  and  O5_27 
ROOT
HETATM    1  C1  UNL     1       0.669   2.258  -0.199  1.00  0.00     0.310 C 
HETATM    2  N1  UNL     1       0.568   0.850   0.131  1.00  0.00     0.090 N 
HETATM    3  C2  UNL     1      -0.591   0.309  -0.557  1.00  0.00     0.284 C 
HETATM    4  C3  UNL     1      -0.739  -1.163  -0.365  1.00  0.00     0.014 C 
HETATM    5  C4  UNL     1      -0.682  -1.866  -1.714  1.00  0.00     0.020 C 
HETATM    6  C5  UNL     1      -2.013  -1.526   0.379  1.00  0.00     0.152 C 
HETATM    7  C9  UNL     1      -1.600  -2.153   1.692  1.00  0.00     0.034 C 
HETATM    8  C10 UNL     1      -0.194  -1.548   1.866  1.00  0.00     0.009 C 
HETATM    9  C11 UNL     1       0.341  -1.781   0.491  1.00  0.00     0.008 C 
HETATM   10  C12 UNL     1       1.710  -1.241   0.222  1.00  0.00     0.046 C 
HETATM   11  C13 UNL     1       2.607  -1.385   1.381  1.00  0.00    -0.020 C 
HETATM   12  C14 UNL     1       3.774  -0.777   1.384  1.00  0.00     0.021 C 
HETATM   13  C15 UNL     1       4.117   0.041   0.175  1.00  0.00     0.189 C 
HETATM   14  F1  UNL     1       4.283  -0.763  -0.955  1.00  0.00    -0.229 F 
HETATM   15  C17 UNL     1       2.959   0.947  -0.055  1.00  0.00     0.093 C 
HETATM   16  C18 UNL     1       1.733   0.126  -0.350  1.00  0.00     0.234 C 
ENDROOT
BRANCH  13  17
HETATM   17  C16 UNL     1       5.413   0.714   0.376  1.00  0.00     0.180 C 
HETATM   18  N2  UNL     1       5.645   1.957   0.409  1.00  0.00    -0.248 N 
ATOM     19  H2  UNL     1       6.619   2.219   0.560  1.00  0.00     0.196 HD
BRANCH  17  20
HETATM   20  O4  UNL     1       6.513  -0.144   0.552  1.00  0.00    -0.345 OA
ATOM     21  H4  UNL     1       7.348   0.290   0.682  1.00  0.00     0.219 HD
ENDBRANCH  17  20
BRANCH  18  22
HETATM   22  O5  UNL     1       4.782   2.984   0.272  1.00  0.00    -0.288 OA
ATOM     23  H5  UNL     1       4.956   3.918   0.297  1.00  0.00     0.244 HD
ENDBRANCH  18  22
ENDBRANCH  13  17
BRANCH   6  24
HETATM   24  O1  UNL     1      -2.733  -0.381   0.678  1.00  0.00    -0.269 OA
BRANCH  24  25
HETATM   25  S1  UNL     1      -4.267  -0.369   0.046  1.00  0.00     0.269 S 
HETATM   26  O2  UNL     1      -5.290  -0.642   1.133  1.00  0.00    -0.198 OA
HETATM   27  O3  UNL     1      -4.359  -1.375  -1.061  1.00  0.00    -0.198 OA
BRANCH  25  28
HETATM   28  C6  UNL     1      -4.575   1.229  -0.650  1.00  0.00     0.136 A 
HETATM   29  C7  UNL     1      -5.087   2.331   0.206  1.00  0.00     0.024 A 
HETATM   30  C8  UNL     1      -6.022   1.650  -0.739  1.00  0.00     0.024 A 
ENDBRANCH  25  28
ENDBRANCH  24  25
ENDBRANCH   6  24
TORSDOF 6
