REMARK  4 active torsions:
REMARK  status: ('A' for Active; 'I' for Inactive)
REMARK    1  A    between atoms: C6_9  and  C7_10 
REMARK    2  A    between atoms: C7_10  and  C8_11 
REMARK    3  A    between atoms: C7_10  and  N4_26 
REMARK    4  A    between atoms: C9_14  and  C10_15 
ROOT
HETATM    1  C8  UNL     1      -0.052  -1.475   0.342  1.00  0.00     0.085 A 
HETATM    2  N2  UNL     1       0.920  -0.810  -0.301  1.00  0.00    -0.349 N 
ATOM      3  H2  UNL     1       0.778   0.163  -0.572  1.00  0.00     0.166 HD
HETATM    4  C9  UNL     1       2.038  -1.401  -0.578  1.00  0.00     0.083 A 
HETATM    5  S1  UNL     1       1.841  -2.973   0.033  1.00  0.00    -0.065 SA
HETATM    6  C15 UNL     1       0.239  -2.782   0.653  1.00  0.00     0.082 A 
HETATM    7 BR1  UNL     1      -0.856  -4.126   1.515  1.00  0.00    -0.041 Br
ENDROOT
BRANCH   1   8
HETATM    8  C7  UNL     1      -1.227  -0.719   0.875  1.00  0.00     0.067 C 
BRANCH   8   9
HETATM    9  C6  UNL     1      -2.367  -0.361   0.111  1.00  0.00     0.002 C 
HETATM   10  C2  UNL     1      -2.607   0.306  -1.113  1.00  0.00    -0.056 C 
HETATM   11  C1  UNL     1      -1.843   0.670  -2.139  1.00  0.00     0.019 C 
HETATM   12  C3  UNL     1      -4.055   0.698  -1.391  1.00  0.00     0.066 C 
HETATM   13  C4  UNL     1      -5.086  -0.084  -0.701  1.00  0.00     0.237 C 
HETATM   14  N1  UNL     1      -4.724  -0.561   0.620  1.00  0.00    -0.071 N 
HETATM   15  C5  UNL     1      -3.533  -1.380   0.384  1.00  0.00     0.273 C 
ATOM     16  H12 UNL     1      -4.596   0.177   1.313  1.00  0.00     0.277 HD
ATOM     17  H11 UNL     1      -5.475  -1.044   1.113  1.00  0.00     0.277 HD
ENDBRANCH   8   9
BRANCH   8  18
HETATM   18  N4  UNL     1      -0.737   0.347   1.781  1.00  0.00    -0.387 N 
HETATM   19  C16 UNL     1      -1.652   0.612   2.833  1.00  0.00     0.149 C 
HETATM   20  C17 UNL     1      -0.153   1.470   1.181  1.00  0.00     0.149 C 
ENDBRANCH   8  18
ENDBRANCH   1   8
BRANCH   4  21
HETATM   21  C10 UNL     1       3.233  -0.782  -1.266  1.00  0.00     0.242 C 
HETATM   22  C11 UNL     1       3.059   0.718  -1.252  1.00  0.00     0.040 C 
HETATM   23  C12 UNL     1       4.400   1.431  -1.397  1.00  0.00     0.004 C 
HETATM   24  C13 UNL     1       5.410   0.948  -0.405  1.00  0.00     0.027 C 
HETATM   25  C14 UNL     1       4.752  -0.097   0.480  1.00  0.00     0.233 C 
HETATM   26  N3  UNL     1       4.371  -1.193  -0.432  1.00  0.00    -0.065 N 
ATOM     27  H32 UNL     1       4.183  -2.060   0.071  1.00  0.00     0.278 HD
ATOM     28  H31 UNL     1       5.160  -1.514  -0.993  1.00  0.00     0.278 HD
ENDBRANCH   4  21
TORSDOF 4
