REMARK  6 active torsions:
REMARK  status: ('A' for Active; 'I' for Inactive)
REMARK    1  A    between atoms: S1_2  and  C2_3 
REMARK    2  A    between atoms: C2_3  and  C3_4 
REMARK       I    between atoms: C3_4  and  N1_6 
REMARK    3  A    between atoms: N1_6  and  C4_8 
REMARK    4  A    between atoms: C8_15  and  C9_16 
REMARK    5  A    between atoms: C9_16  and  O2_17 
REMARK    6  A    between atoms: C9_16  and  C10_19 
ROOT
HETATM    1  C4  UNL     1       2.378   0.612  -1.477  1.00  0.00     0.152 A 
HETATM    2  N2  UNL     1       1.830   0.142  -0.358  1.00  0.00    -0.334 N 
ATOM      3  H2  UNL     1       2.410  -0.281   0.366  1.00  0.00     0.168 HD
HETATM    4  C5  UNL     1       0.525   0.234  -0.204  1.00  0.00     0.069 A 
HETATM    5  C6  UNL     1      -0.226  -0.207   0.908  1.00  0.00     0.039 A 
HETATM    6 BR1  UNL     1       0.604  -1.043   2.421  1.00  0.00    -0.049 Br
HETATM    7  C7  UNL     1      -1.584  -0.040   0.918  1.00  0.00     0.031 A 
HETATM    8  C8  UNL     1      -2.317   0.541  -0.092  1.00  0.00    -0.027 A 
HETATM    9  C13 UNL     1      -1.584   0.978  -1.189  1.00  0.00     0.031 A 
HETATM   10  C14 UNL     1      -0.187   0.814  -1.219  1.00  0.00     0.037 A 
HETATM   11  S2  UNL     1       1.041   1.202  -2.348  1.00  0.00    -0.052 SA
ENDROOT
BRANCH   1  12
HETATM   12  N1  UNL     1       3.656   0.606  -1.803  1.00  0.00    -0.306 N 
HETATM   13  C3  UNL     1       4.640   0.076  -0.964  1.00  0.00     0.232 C 
HETATM   14  O1  UNL     1       4.627  -1.102  -0.547  1.00  0.00    -0.272 OA
ATOM     15  H1  UNL     1       3.936   1.003  -2.700  1.00  0.00     0.171 HD
BRANCH  13  16
HETATM   16  C2  UNL     1       5.790   0.942  -0.523  1.00  0.00     0.176 C 
BRANCH  16  17
HETATM   17  S1  UNL     1       6.923   0.045   0.551  1.00  0.00    -0.164 SA
HETATM   18  C1  UNL     1       7.708  -1.268  -0.448  1.00  0.00     0.090 C 
ENDBRANCH  16  17
ENDBRANCH  13  16
ENDBRANCH   1  12
BRANCH   8  19
HETATM   19  C9  UNL     1      -3.758   0.730  -0.111  1.00  0.00     0.154 C 
BRANCH  19  20
HETATM   20  O2  UNL     1      -4.289   0.393  -1.370  1.00  0.00    -0.391 OA
ATOM     21  H2  UNL     1      -5.231   0.517  -1.382  1.00  0.00     0.210 HD
ENDBRANCH  19  20
BRANCH  19  22
HETATM   22  C10 UNL     1      -4.533  -0.067   0.895  1.00  0.00     0.011 C 
HETATM   23  C11 UNL     1      -4.310  -1.559   0.674  1.00  0.00     0.012 C 
HETATM   24  C12 UNL     1      -6.016   0.230   0.627  1.00  0.00     0.012 C 
ENDBRANCH  19  22
ENDBRANCH   8  19
TORSDOF 6
