REMARK  1 active torsions:
REMARK  status: ('A' for Active; 'I' for Inactive)
REMARK    1  A    between atoms: C3_4  and  N2_5 
ROOT
HETATM    1  N1  UNL     1       0.692  -2.957   1.810  1.00  0.00    -0.191 NA
HETATM    2  C1  UNL     1       0.374  -2.076   1.104  1.00  0.00     0.103 C 
HETATM    3  C2  UNL     1      -0.053  -0.976   0.221  1.00  0.00     0.085 A 
HETATM    4  C3  UNL     1       0.906  -0.180  -0.347  1.00  0.00     0.094 A 
HETATM    5  S2  UNL     1      -0.010   0.933  -1.274  1.00  0.00    -0.075 SA
HETATM    6  C8  UNL     1      -1.564   0.361  -0.917  1.00  0.00    -0.007 A 
HETATM    7  C9  UNL     1      -1.341  -0.690  -0.080  1.00  0.00    -0.021 A 
HETATM    8  C10 UNL     1      -2.476  -1.512   0.493  1.00  0.00     0.041 C 
HETATM    9  C11 UNL     1      -3.442  -0.621   1.235  1.00  0.00     0.005 C 
HETATM   10  C12 UNL     1      -4.341   0.182   0.333  1.00  0.00     0.001 C 
HETATM   11  C13 UNL     1      -3.601   1.378  -0.177  1.00  0.00     0.005 C 
HETATM   12  C14 UNL     1      -2.841   0.941  -1.437  1.00  0.00     0.047 C 
ENDROOT
BRANCH   4  13
HETATM   13  N2  UNL     1       2.349  -0.253  -0.192  1.00  0.00    -0.364 N 
HETATM   14  C4  UNL     1       3.044  -1.199  -1.013  1.00  0.00     0.197 C 
HETATM   15  S1  UNL     1       4.516  -0.406  -1.706  1.00  0.00    -0.148 SA
HETATM   16  C5  UNL     1       4.896   1.043  -0.689  1.00  0.00     0.097 C 
HETATM   17  C6  UNL     1       4.363   0.891   0.696  1.00  0.00     0.109 C 
HETATM   18 CL1  UNL     1       4.668   2.458   1.532  1.00  0.00    -0.122 Cl
HETATM   19  C7  UNL     1       2.889   0.642   0.771  1.00  0.00     0.145 C 
ENDBRANCH   4  13
TORSDOF 1
