REMARK  3 active torsions:
REMARK  status: ('A' for Active; 'I' for Inactive)
REMARK    1  A    between atoms: O1_2  and  C2_3 
REMARK    2  A    between atoms: C2_3  and  C3_5 
REMARK    3  A    between atoms: C3_5  and  C4_6 
ROOT
HETATM    1  C4  UNL     1       0.318   0.066  -0.719  1.00  0.00     0.042 C 
HETATM    2  C5  UNL     1      -0.113   1.043   0.312  1.00  0.00    -0.040 C 
HETATM    3  C6  UNL     1       0.199   0.882   1.722  1.00  0.00     0.015 C 
HETATM    4  C7  UNL     1       0.627   2.348  -0.102  1.00  0.00     0.015 C 
HETATM    5  C8  UNL     1      -1.572   1.508   0.074  1.00  0.00     0.017 C 
HETATM    6  C9  UNL     1      -2.522   0.480   0.517  1.00  0.00     0.026 C 
HETATM    7  C10 UNL     1      -3.934   0.542   0.027  1.00  0.00     0.011 C 
HETATM    8  C11 UNL     1      -3.822  -0.988  -0.133  1.00  0.00     0.044 C 
HETATM    9  C12 UNL     1      -2.391  -0.741  -0.349  1.00  0.00     0.119 C 
HETATM   10  O3  UNL     1      -1.929  -0.586  -1.638  1.00  0.00    -0.227 OA
HETATM   11  O4  UNL     1      -1.020  -1.554  -1.852  1.00  0.00    -0.227 OA
HETATM   12  C13 UNL     1      -0.231  -1.309  -0.679  1.00  0.00     0.117 C 
HETATM   13  C14 UNL     1       0.739  -2.427  -0.601  1.00  0.00     0.051 C 
HETATM   14  C15 UNL     1      -1.355  -1.615   0.257  1.00  0.00     0.158 C 
HETATM   15 CL1  UNL     1      -1.856  -3.310  -0.139  1.00  0.00    -0.118 Cl
ENDROOT
BRANCH   1  16
HETATM   16  C3  UNL     1       1.718   0.165  -1.206  1.00  0.00     0.119 C 
BRANCH  16  17
HETATM   17  C2  UNL     1       2.833   0.005  -0.315  1.00  0.00     0.258 C 
HETATM   18  O2  UNL     1       2.931  -0.244   0.886  1.00  0.00    -0.265 OA
BRANCH  17  19
HETATM   19  O1  UNL     1       4.103   0.165  -0.935  1.00  0.00    -0.326 OA
HETATM   20  C1  UNL     1       5.307   0.041  -0.209  1.00  0.00     0.213 C 
ENDBRANCH  17  19
ENDBRANCH  16  17
ENDBRANCH   1  16
TORSDOF 3
