REMARK  6 active torsions:
REMARK  status: ('A' for Active; 'I' for Inactive)
REMARK    1  A    between atoms: N1_11  and  S1_12 
REMARK    2  A    between atoms: S1_12  and  C11_15 
REMARK    3  A    between atoms: C11_15  and  C12_16 
REMARK    4  A    between atoms: C16_20  and  O3_21 
REMARK    5  A    between atoms: O3_21  and  C17_22 
REMARK       I    between atoms: C17_22  and  N2_24 
REMARK    6  A    between atoms: N2_24  and  C18_26 
ROOT
HETATM    1  C12 UNL     1       0.999   1.297  -1.064  1.00  0.00     0.043 C 
HETATM    2  C13 UNL     1       0.875   2.434  -2.053  1.00  0.00     0.017 C 
HETATM    3  C14 UNL     1       2.321   2.805  -2.346  1.00  0.00     0.014 C 
HETATM    4  C15 UNL     1       3.123   1.731  -1.702  1.00  0.00     0.088 C 
HETATM    5  C16 UNL     1       3.136   1.955  -0.188  1.00  0.00     0.144 C 
HETATM    6  C21 UNL     1       1.682   1.813   0.177  1.00  0.00     0.050 C 
HETATM    7  C22 UNL     1       2.128   0.552  -1.735  1.00  0.00     0.258 C 
HETATM    8  F1  UNL     1       2.626  -0.495  -1.054  1.00  0.00    -0.205 F 
HETATM    9  F2  UNL     1       1.953   0.352  -3.091  1.00  0.00    -0.205 F 
ENDROOT
BRANCH   1  10
HETATM   10  C11 UNL     1      -0.199   0.545  -0.756  1.00  0.00     0.179 C 
BRANCH  10  11
HETATM   11  S1  UNL     1      -1.006  -0.366  -1.983  1.00  0.00     0.229 S 
HETATM   12  O1  UNL     1      -1.295   0.395  -3.244  1.00  0.00    -0.206 OA
HETATM   13  O2  UNL     1      -0.061  -1.501  -2.395  1.00  0.00    -0.206 OA
BRANCH  11  14
HETATM   14  N1  UNL     1      -2.434  -1.154  -1.531  1.00  0.00    -0.306 N 
HETATM   15  C5  UNL     1      -3.514  -0.338  -1.096  1.00  0.00     0.097 C 
HETATM   16  C4  UNL     1      -3.378   0.242   0.288  1.00  0.00     0.035 C 
HETATM   17  C6  UNL     1      -4.709  -1.324  -1.016  1.00  0.00     0.036 C 
HETATM   18  C2  UNL     1      -4.508  -0.424   1.098  1.00  0.00    -0.038 C 
HETATM   19  C1  UNL     1      -5.801   0.300   0.851  1.00  0.00     0.015 C 
HETATM   20  C3  UNL     1      -4.182  -0.467   2.553  1.00  0.00     0.015 C 
HETATM   21  C7  UNL     1      -4.472  -1.802   0.421  1.00  0.00    -0.034 C 
HETATM   22  C8  UNL     1      -5.550  -2.710   0.915  1.00  0.00     0.016 C 
HETATM   23  C9  UNL     1      -3.091  -2.370   0.527  1.00  0.00     0.030 C 
HETATM   24  C10 UNL     1      -2.293  -2.343  -0.751  1.00  0.00     0.136 C 
ENDBRANCH  11  14
ENDBRANCH  10  11
ENDBRANCH   1  10
BRANCH   5  25
HETATM   25  O3  UNL     1       3.969   0.939   0.318  1.00  0.00    -0.298 OA
BRANCH  25  26
HETATM   26  C17 UNL     1       5.183   1.126   0.944  1.00  0.00     0.361 C 
HETATM   27  O4  UNL     1       5.542   2.344   1.065  1.00  0.00    -0.238 OA
HETATM   28  N2  UNL     1       5.997   0.068   1.422  1.00  0.00    -0.332 N 
ATOM     29  H2  UNL     1       5.666  -0.890   1.309  1.00  0.00     0.165 HD
BRANCH  28  30
HETATM   30  C18 UNL     1       7.275   0.286   2.063  1.00  0.00     0.086 A 
HETATM   31  C19 UNL     1       7.760  -0.664   3.070  1.00  0.00     0.027 A 
HETATM   32  C20 UNL     1       8.348  -0.684   1.683  1.00  0.00     0.027 A 
ENDBRANCH  28  30
ENDBRANCH  25  26
ENDBRANCH   5  25
TORSDOF 6
