REMARK  6 active torsions:
REMARK  status: ('A' for Active; 'I' for Inactive)
REMARK    1  A    between atoms: C2_2  and  C3_3 
REMARK    2  A    between atoms: C2_2  and  C9_13 
REMARK    3  A    between atoms: C3_3  and  N1_4 
REMARK       I    between atoms: N1_4  and  C4_6 
REMARK    4  A    between atoms: C4_6  and  C5_8 
REMARK    5  A    between atoms: C15_20  and  C16_21 
REMARK    6  A    between atoms: C16_21  and  C17_23 
ROOT
HETATM    1  C9  UNL     1      -0.171   0.437   0.453  1.00  0.00    -0.001 C 
HETATM    2  C10 UNL     1      -0.038   0.790   1.903  1.00  0.00     0.006 C 
HETATM    3  C11 UNL     1       1.112  -0.043   2.448  1.00  0.00     0.006 C 
HETATM    4  C12 UNL     1       1.843  -0.564   1.209  1.00  0.00     0.006 C 
HETATM    5  C13 UNL     1       2.833   0.452   0.798  1.00  0.00     0.066 C 
HETATM    6  C14 UNL     1       4.159   0.050   1.375  1.00  0.00     0.143 C 
HETATM    7  O3  UNL     1       4.392  -0.262   2.528  1.00  0.00    -0.297 OA
HETATM    8  C15 UNL     1       5.180   0.084   0.315  1.00  0.00     0.135 C 
HETATM    9  C18 UNL     1       4.509   0.787  -0.837  1.00  0.00     0.026 C 
HETATM   10  C19 UNL     1       3.033   0.628  -0.652  1.00  0.00     0.006 C 
HETATM   11  C20 UNL     1       2.483  -0.489  -1.495  1.00  0.00    -0.043 C 
HETATM   12  C21 UNL     1       3.392  -1.708  -1.506  1.00  0.00     0.015 C 
HETATM   13  C22 UNL     1       2.492   0.039  -2.939  1.00  0.00     0.015 C 
HETATM   14  C23 UNL     1       1.096  -0.882  -1.171  1.00  0.00     0.019 C 
HETATM   15  C24 UNL     1       0.680  -0.759   0.253  1.00  0.00    -0.035 C 
HETATM   16  C25 UNL     1       0.077  -2.076   0.682  1.00  0.00     0.016 C 
ENDROOT
BRANCH   1  17
HETATM   17  C2  UNL     1      -1.518   0.485  -0.133  1.00  0.00     0.004 C 
HETATM   18  C1  UNL     1      -2.036   1.938  -0.000  1.00  0.00     0.012 C 
BRANCH  17  19
HETATM   19  C3  UNL     1      -2.586  -0.339   0.538  1.00  0.00     0.127 C 
BRANCH  19  20
HETATM   20  N1  UNL     1      -3.831  -0.082  -0.207  1.00  0.00    -0.360 N 
HETATM   21  C4  UNL     1      -5.041  -0.735   0.206  1.00  0.00     0.224 C 
HETATM   22  O1  UNL     1      -5.007  -1.510   1.193  1.00  0.00    -0.273 OA
ATOM     23  H1  UNL     1      -3.833   0.552  -1.006  1.00  0.00     0.162 HD
BRANCH  21  24
HETATM   24  C5  UNL     1      -6.321  -0.523  -0.495  1.00  0.00     0.103 C 
HETATM   25  C6  UNL     1      -6.756   0.921  -0.485  1.00  0.00     0.042 C 
HETATM   26  C7  UNL     1      -8.215   0.820  -0.098  1.00  0.00     0.168 C 
HETATM   27  O2  UNL     1      -8.154  -0.187   0.888  1.00  0.00    -0.390 OA
HETATM   28  C8  UNL     1      -7.444  -1.202   0.250  1.00  0.00     0.181 C 
ENDBRANCH  21  24
ENDBRANCH  19  20
ENDBRANCH  17  19
ENDBRANCH   1  17
BRANCH   8  29
HETATM   29  C16 UNL     1       6.389   0.742   0.800  1.00  0.00     0.243 C 
HETATM   30  O4  UNL     1       6.413   1.163   1.956  1.00  0.00    -0.287 OA
BRANCH  29  31
HETATM   31  C17 UNL     1       7.622   0.951  -0.005  1.00  0.00     0.451 C 
HETATM   32  F1  UNL     1       7.234   1.725  -1.106  1.00  0.00    -0.163 F 
HETATM   33  F2  UNL     1       8.225  -0.207  -0.387  1.00  0.00    -0.163 F 
HETATM   34  F3  UNL     1       8.547   1.716   0.676  1.00  0.00    -0.163 F 
ENDBRANCH  29  31
ENDBRANCH   8  29
TORSDOF 6
