REMARK  5 active torsions:
REMARK  status: ('A' for Active; 'I' for Inactive)
REMARK    1  A    between atoms: C2_2  and  C3_3 
REMARK    2  A    between atoms: C9_9  and  N1_10 
REMARK    3  A    between atoms: C10_12  and  C11_13 
REMARK       I    between atoms: C11_13  and  N2_15 
REMARK    4  A    between atoms: C16_20  and  C17_21 
REMARK    5  A    between atoms: C21_30  and  N4_31 
ROOT
HETATM    1  N1  UNL     1       0.953   0.453  -0.516  1.00  0.00    -0.390 N 
ATOM      2  H1  UNL     1       0.977   1.358  -0.987  1.00  0.00     0.159 HD
HETATM    3  C10 UNL     1       2.088  -0.284  -0.608  1.00  0.00     0.158 C 
ENDROOT
BRANCH   1   4
HETATM    4  C9  UNL     1      -0.225   0.149   0.124  1.00  0.00     0.083 C 
HETATM    5  C8  UNL     1      -0.343   0.181   1.597  1.00  0.00     0.026 C 
HETATM    6  C7  UNL     1      -1.644   0.766   2.113  1.00  0.00     0.009 C 
HETATM    7  C6  UNL     1      -2.852   0.358   1.386  1.00  0.00     0.025 C 
HETATM    8  C5  UNL     1      -3.881   1.497   1.499  1.00  0.00     0.016 C 
HETATM    9  C21 UNL     1      -2.669   0.142  -0.095  1.00  0.00     0.166 C 
HETATM   10  C3  UNL     1      -4.487   1.696   0.155  1.00  0.00    -0.042 C 
HETATM   11  C4  UNL     1      -4.256   3.107  -0.320  1.00  0.00     0.015 C 
HETATM   12  C26 UNL     1      -3.850   0.707  -0.799  1.00  0.00     0.051 C 
HETATM   13  C20 UNL     1      -1.424   0.930  -0.460  1.00  0.00     0.067 C 
BRANCH  10  14
HETATM   14  C2  UNL     1      -5.979   1.404   0.214  1.00  0.00     0.005 C 
HETATM   15  C1  UNL     1      -6.700   2.322   1.137  1.00  0.00     0.006 C 
ENDBRANCH  10  14
BRANCH   9  16
HETATM   16  N4  UNL     1      -2.413  -1.211  -0.434  1.00  0.00     0.098 N 
HETATM   17  C22 UNL     1      -3.432  -2.146  -0.016  1.00  0.00     0.273 C 
HETATM   18  C23 UNL     1      -2.881  -3.425  -0.674  1.00  0.00     0.032 C 
HETATM   19  C24 UNL     1      -2.138  -2.926  -1.885  1.00  0.00     0.032 C 
HETATM   20  C25 UNL     1      -2.317  -1.417  -1.872  1.00  0.00     0.273 C 
ENDBRANCH   9  16
ENDBRANCH   1   4
BRANCH   3  21
HETATM   21  C11 UNL     1       2.942  -0.632   0.502  1.00  0.00     0.259 C 
HETATM   22  O1  UNL     1       2.674  -0.361   1.694  1.00  0.00    -0.267 OA
HETATM   23  N2  UNL     1       4.147  -1.299   0.241  1.00  0.00    -0.338 N 
HETATM   24  C12 UNL     1       4.731  -1.681  -1.059  1.00  0.00     0.167 C 
HETATM   25  C19 UNL     1       5.225  -1.743   1.145  1.00  0.00     0.184 C 
HETATM   26  C13 UNL     1       6.026  -0.927  -0.865  1.00  0.00    -0.016 A 
HETATM   27  C14 UNL     1       6.886  -0.248  -1.652  1.00  0.00     0.013 A 
HETATM   28  C18 UNL     1       6.335  -0.958   0.509  1.00  0.00     0.035 A 
HETATM   29  C15 UNL     1       8.008   0.385  -1.123  1.00  0.00     0.035 A 
HETATM   30  C16 UNL     1       8.281   0.337   0.232  1.00  0.00     0.117 A 
HETATM   31  N3  UNL     1       7.407  -0.352   0.994  1.00  0.00    -0.354 N 
ATOM     32  H3  UNL     1       7.581  -0.409   1.997  1.00  0.00     0.166 HD
BRANCH  30  33
HETATM   33  C17 UNL     1       9.476   1.036   0.805  1.00  0.00     0.432 C 
HETATM   34  F1  UNL     1      10.480   0.127   0.934  1.00  0.00    -0.165 F 
HETATM   35  F2  UNL     1       9.808   2.168   0.097  1.00  0.00    -0.165 F 
HETATM   36  F3  UNL     1       9.104   1.432   2.104  1.00  0.00    -0.165 F 
ENDBRANCH  30  33
ENDBRANCH   3  21
TORSDOF 5
