REMARK  6 active torsions:
REMARK  status: ('A' for Active; 'I' for Inactive)
REMARK    1  A    between atoms: N1_6  and  C6_7 
REMARK    2  A    between atoms: C6_7  and  C7_8 
REMARK    3  A    between atoms: C7_8  and  N2_9 
REMARK    4  A    between atoms: N3_12  and  C10_13 
REMARK    5  A    between atoms: C10_13  and  C11_14 
REMARK    6  A    between atoms: C23_29  and  C25_32 
ROOT
HETATM    1  N2  UNL     1       1.132  -0.183   0.415  1.00  0.00    -0.358 N 
HETATM    2  C8  UNL     1       0.648   0.856   1.208  1.00  0.00     0.080 C 
HETATM    3  C9  UNL     1      -0.487   1.600   0.602  1.00  0.00     0.167 C 
HETATM    4  N3  UNL     1      -1.469   0.743   0.004  1.00  0.00    -0.374 N 
HETATM    5  C15 UNL     1      -1.729  -0.648   0.126  1.00  0.00     0.022 C 
HETATM    6  C16 UNL     1      -0.823  -1.589   0.350  1.00  0.00     0.062 C 
HETATM    7  C17 UNL     1      -1.317  -2.954   0.420  1.00  0.00     0.162 C 
HETATM    8  O1  UNL     1      -0.674  -3.975   0.192  1.00  0.00    -0.292 OA
HETATM    9  C18 UNL     1      -2.770  -3.195   0.799  1.00  0.00     0.093 C 
HETATM   10  C19 UNL     1      -3.565  -2.339  -0.175  1.00  0.00    -0.036 C 
HETATM   11  C20 UNL     1      -5.014  -2.462   0.238  1.00  0.00     0.015 C 
HETATM   12  C21 UNL     1      -3.302  -2.832  -1.553  1.00  0.00     0.015 C 
HETATM   13  C22 UNL     1      -3.138  -0.918   0.056  1.00  0.00     0.066 C 
HETATM   14  C23 UNL     1       0.673  -1.518   0.584  1.00  0.00     0.253 C 
HETATM   15  C24 UNL     1       1.354  -2.421  -0.334  1.00  0.00     0.106 C 
HETATM   16  N5  UNL     1       1.882  -3.175  -1.077  1.00  0.00    -0.194 NA
ENDROOT
BRANCH  14  17
HETATM   17  C25 UNL     1       0.955  -1.939   1.999  1.00  0.00     0.431 C 
HETATM   18  F1  UNL     1       2.341  -1.789   2.278  1.00  0.00    -0.167 F 
HETATM   19  F2  UNL     1       0.291  -1.333   3.000  1.00  0.00    -0.167 F 
HETATM   20  F3  UNL     1       0.868  -3.354   2.169  1.00  0.00    -0.167 F 
ENDBRANCH  14  17
BRANCH   1  21
HETATM   21  C7  UNL     1       1.533   0.245  -0.894  1.00  0.00     0.154 C 
BRANCH  21  22
HETATM   22  C6  UNL     1       2.715   1.217  -0.826  1.00  0.00     0.292 C 
BRANCH  22  23
HETATM   23  N1  UNL     1       3.826   0.579  -0.230  1.00  0.00     0.094 N 
HETATM   24  C2  UNL     1       4.887   1.500   0.167  1.00  0.00     0.219 C 
HETATM   25  C1  UNL     1       5.522   2.244  -0.948  1.00  0.00     0.043 C 
HETATM   26  C3  UNL     1       5.876   0.484   0.739  1.00  0.00     0.037 C 
HETATM   27  C4  UNL     1       5.762  -0.622  -0.288  1.00  0.00     0.032 C 
HETATM   28  C5  UNL     1       4.564  -0.270  -1.169  1.00  0.00     0.273 C 
ENDBRANCH  22  23
ENDBRANCH  21  22
ENDBRANCH   1  21
BRANCH   4  29
HETATM   29  C10 UNL     1      -2.351   1.426  -0.905  1.00  0.00     0.163 C 
BRANCH  29  30
HETATM   30  C11 UNL     1      -3.312   2.350  -0.248  1.00  0.00    -0.024 A 
HETATM   31  C12 UNL     1      -4.140   3.231  -0.964  1.00  0.00     0.027 A 
HETATM   32  C13 UNL     1      -4.888   3.908  -0.031  1.00  0.00     0.088 A 
HETATM   33  N4  UNL     1      -4.576   3.501   1.209  1.00  0.00    -0.375 N 
HETATM   34  C14 UNL     1      -3.615   2.551   1.073  1.00  0.00     0.096 A 
ATOM     35  H4  UNL     1      -4.981   3.839   2.082  1.00  0.00     0.164 HD
ENDBRANCH  29  30
ENDBRANCH   4  29
TORSDOF 6
