REMARK  6 active torsions:
REMARK  status: ('A' for Active; 'I' for Inactive)
REMARK    1  A    between atoms: C2_2  and  C3_4 
REMARK    2  A    between atoms: C3_4  and  N1_5 
REMARK    3  A    between atoms: C3_4  and  C25_30 
REMARK       I    between atoms: N1_5  and  C4_7 
REMARK    4  A    between atoms: C4_7  and  C5_9 
REMARK    5  A    between atoms: C5_9  and  C7_11 
REMARK    6  A    between atoms: C25_30  and  C26_32 
ROOT
HETATM    1  C7  UNL     1       1.454  -1.504   0.928  1.00  0.00    -0.002 C 
HETATM    2  C8  UNL     1       0.402  -2.384   1.522  1.00  0.00     0.006 C 
HETATM    3  C9  UNL     1      -0.960  -1.809   1.586  1.00  0.00     0.010 C 
HETATM    4  C10 UNL     1      -1.427  -1.142   0.308  1.00  0.00    -0.036 C 
HETATM    5  C11 UNL     1      -1.442  -2.168  -0.775  1.00  0.00     0.016 C 
HETATM    6  C12 UNL     1      -0.401  -0.041   0.038  1.00  0.00    -0.006 C 
HETATM    7  C13 UNL     1      -0.736   0.701  -1.259  1.00  0.00     0.006 C 
HETATM    8  C14 UNL     1      -2.210   0.910  -1.427  1.00  0.00     0.006 C 
HETATM    9  C15 UNL     1      -2.861   0.889  -0.080  1.00  0.00    -0.001 C 
HETATM   10  C16 UNL     1      -2.711  -0.471   0.579  1.00  0.00    -0.001 C 
HETATM   11  C17 UNL     1      -3.965  -1.147   0.140  1.00  0.00     0.018 C 
HETATM   12  C18 UNL     1      -4.985  -0.061   0.528  1.00  0.00     0.064 C 
HETATM   13  C19 UNL     1      -6.276  -0.226  -0.132  1.00  0.00     0.131 C 
HETATM   14  O3  UNL     1      -7.155  -0.991   0.211  1.00  0.00    -0.298 OA
HETATM   15  C20 UNL     1      -6.343   0.682  -1.281  1.00  0.00     0.079 C 
HETATM   16  C21 UNL     1      -4.965   1.332  -1.391  1.00  0.00     0.017 C 
HETATM   17  C22 UNL     1      -4.313   1.161  -0.062  1.00  0.00    -0.029 C 
HETATM   18  C23 UNL     1      -4.631   2.404   0.781  1.00  0.00     0.016 C 
HETATM   19  C24 UNL     1       0.983  -0.546  -0.092  1.00  0.00     0.011 C 
ENDROOT
BRANCH   1  20
HETATM   20  C5  UNL     1       2.309  -0.890   2.016  1.00  0.00     0.078 C 
HETATM   21  C6  UNL     1       1.545  -0.134   3.039  1.00  0.00     0.020 C 
BRANCH  20  22
HETATM   22  C4  UNL     1       3.364  -0.010   1.469  1.00  0.00     0.222 C 
HETATM   23  N1  UNL     1       4.304  -0.450   0.509  1.00  0.00    -0.342 N 
ATOM     24  H1  UNL     1       4.272  -1.409   0.164  1.00  0.00     0.163 HD
HETATM   25  O2  UNL     1       3.401   1.174   1.895  1.00  0.00    -0.273 OA
BRANCH  23  26
HETATM   26  C3  UNL     1       5.334   0.485   0.006  1.00  0.00     0.233 C 
BRANCH  26  27
HETATM   27  C2  UNL     1       6.647  -0.027   0.387  1.00  0.00     0.153 C 
HETATM   28  C1  UNL     1       7.913   0.727   0.217  1.00  0.00     0.093 C 
HETATM   29  O1  UNL     1       6.699  -1.156   0.887  1.00  0.00    -0.296 OA
ENDBRANCH  26  27
BRANCH  26  30
HETATM   30  C25 UNL     1       5.050   0.660  -1.418  1.00  0.00     0.262 C 
HETATM   31  O4  UNL     1       4.106  -0.010  -1.881  1.00  0.00    -0.285 OA
BRANCH  30  32
HETATM   32  C26 UNL     1       5.718   1.522  -2.401  1.00  0.00     0.453 C 
HETATM   33  F1  UNL     1       6.976   1.074  -2.714  1.00  0.00    -0.163 F 
HETATM   34  F2  UNL     1       5.843   2.828  -1.939  1.00  0.00    -0.163 F 
HETATM   35  F3  UNL     1       5.026   1.531  -3.627  1.00  0.00    -0.163 F 
ENDBRANCH  30  32
ENDBRANCH  26  30
ENDBRANCH  23  26
ENDBRANCH  20  22
ENDBRANCH   1  20
TORSDOF 6
