REMARK  5 active torsions:
REMARK  status: ('A' for Active; 'I' for Inactive)
REMARK    1  A    between atoms: C2_2  and  C3_3 
REMARK    2  A    between atoms: C2_2  and  N2_19 
REMARK       I    between atoms: C3_3  and  N1_5 
REMARK    3  A    between atoms: N1_5  and  C4_7 
REMARK    4  A    between atoms: C16_21  and  C17_22 
REMARK       I    between atoms: N3_26  and  C21_27 
REMARK    5  A    between atoms: C21_27  and  C22_29 
ROOT
HETATM    1  C1  UNL     1       0.542  -1.603   2.698  1.00  0.00     0.049 C 
HETATM    2  C2  UNL     1       0.751  -1.091   1.505  1.00  0.00     0.093 C 
ENDROOT
BRANCH   2   3
HETATM    3  C3  UNL     1      -0.315  -0.658   0.630  1.00  0.00     0.267 C 
HETATM    4  O1  UNL     1      -0.013  -0.176  -0.510  1.00  0.00    -0.266 OA
HETATM    5  N1  UNL     1      -1.693  -0.716   0.914  1.00  0.00    -0.351 N 
ATOM      6  H1  UNL     1      -1.989  -1.095   1.814  1.00  0.00     0.163 HD
BRANCH   5   7
HETATM    7  C4  UNL     1      -2.729  -0.254  -0.029  1.00  0.00     0.085 C 
HETATM    8  C5  UNL     1      -3.627  -1.321  -0.467  1.00  0.00     0.029 C 
HETATM    9  C6  UNL     1      -5.072  -1.282  -0.168  1.00  0.00    -0.009 C 
HETATM   10  C7  UNL     1      -6.062  -0.766  -1.131  1.00  0.00     0.036 C 
HETATM   11  C13 UNL     1      -5.147  -0.276   0.946  1.00  0.00     0.016 C 
HETATM   12  C8  UNL     1      -6.743   0.486  -0.974  1.00  0.00     0.121 C 
HETATM   13  C9  UNL     1      -7.002   1.261   0.248  1.00  0.00     0.033 C 
HETATM   14  O2  UNL     1      -6.021   1.457  -1.738  1.00  0.00    -0.385 OA
HETATM   15  C10 UNL     1      -5.731   1.930   0.853  1.00  0.00     0.014 C 
HETATM   16  C11 UNL     1      -4.731   0.967   0.286  1.00  0.00    -0.017 C 
HETATM   17  C12 UNL     1      -4.749   1.271  -1.138  1.00  0.00     0.177 C 
HETATM   18  C14 UNL     1      -3.289   1.023   0.608  1.00  0.00     0.036 C 
ENDBRANCH   5   7
ENDBRANCH   2   3
BRANCH   2  19
HETATM   19  N2  UNL     1       2.095  -0.951   1.058  1.00  0.00    -0.348 N 
HETATM   20  C15 UNL     1       2.585   0.085   0.202  1.00  0.00     0.097 C 
HETATM   21  C16 UNL     1       3.747  -0.293  -0.334  1.00  0.00    -0.040 C 
HETATM   22  C23 UNL     1       4.062  -1.639   0.129  1.00  0.00     0.062 C 
HETATM   23  C24 UNL     1       3.220  -1.816   1.374  1.00  0.00     0.089 C 
HETATM   24  C25 UNL     1       4.023  -1.259   2.539  1.00  0.00     0.033 C 
BRANCH  21  25
HETATM   25  C17 UNL     1       4.476   0.609  -1.269  1.00  0.00     0.118 C 
HETATM   26  C18 UNL     1       4.460  -0.081  -2.611  1.00  0.00     0.031 C 
HETATM   27  C19 UNL     1       5.814  -0.631  -2.854  1.00  0.00     0.022 C 
HETATM   28  C20 UNL     1       6.633  -0.243  -1.678  1.00  0.00     0.127 C 
HETATM   29  N3  UNL     1       5.855   0.784  -0.959  1.00  0.00    -0.336 N 
HETATM   30  C21 UNL     1       6.479   1.754  -0.137  1.00  0.00     0.328 C 
HETATM   31  O3  UNL     1       7.763   1.674  -0.041  1.00  0.00    -0.263 OA
BRANCH  30  32
HETATM   32  C22 UNL     1       5.796   2.818   0.600  1.00  0.00     0.472 C 
HETATM   33  F1  UNL     1       5.047   2.298   1.613  1.00  0.00    -0.162 F 
HETATM   34  F2  UNL     1       4.933   3.565  -0.217  1.00  0.00    -0.162 F 
HETATM   35  F3  UNL     1       6.737   3.648   1.181  1.00  0.00    -0.162 F 
ENDBRANCH  30  32
ENDBRANCH  21  25
ENDBRANCH   2  19
TORSDOF 5
