REMARK  3 active torsions:
REMARK  status: ('A' for Active; 'I' for Inactive)
REMARK    1  A    between atoms: C2_2  and  C3_3 
REMARK    2  A    between atoms: C3_3  and  C5_5 
REMARK    3  A    between atoms: N1_6  and  N2_8 
ROOT
HETATM    1  N2  UNL     1       1.550   0.167  -0.817  1.00  0.00    -0.232 N 
HETATM    2  C6  UNL     1       2.451  -0.432  -0.020  1.00  0.00     0.071 A 
HETATM    3  C7  UNL     1       2.111  -1.463   1.005  1.00  0.00     0.074 C 
HETATM    4  C8  UNL     1       3.715   0.038  -0.286  1.00  0.00     0.130 A 
HETATM    5 CL1  UNL     1       5.214  -0.458   0.511  1.00  0.00    -0.062 Cl
HETATM    6  N3  UNL     1       3.574   0.944  -1.268  1.00  0.00    -0.320 N 
ATOM      7  H3  UNL     1       4.328   1.481  -1.697  1.00  0.00     0.169 HD
HETATM    8  C9  UNL     1       2.270   1.024  -1.590  1.00  0.00     0.198 A 
HETATM    9  S1  UNL     1       1.672   2.010  -2.739  1.00  0.00    -0.039 SA
ENDROOT
BRANCH   1  10
HETATM   10  N1  UNL     1       0.172  -0.058  -0.831  1.00  0.00    -0.306 N 
HETATM   11  C5  UNL     1      -0.624   0.846  -0.423  1.00  0.00     0.085 C 
ATOM     12  H1  UNL     1      -0.196  -0.947  -1.168  1.00  0.00     0.186 HD
BRANCH  11  13
HETATM   13  C3  UNL     1      -2.107   0.697  -0.401  1.00  0.00     0.021 C 
HETATM   14  C4  UNL     1      -2.582  -0.444  -1.234  1.00  0.00     0.015 C 
BRANCH  13  15
HETATM   15  C2  UNL     1      -2.609   0.649   1.022  1.00  0.00     0.005 C 
HETATM   16  C1  UNL     1      -2.187  -0.575   1.758  1.00  0.00     0.006 C 
ENDBRANCH  13  15
ENDBRANCH  11  13
ENDBRANCH   1  10
TORSDOF 3
