REMARK  3 active torsions:
REMARK  status: ('A' for Active; 'I' for Inactive)
REMARK    1  A    between atoms: N1_8  and  C6_9 
REMARK    2  A    between atoms: C6_9  and  C7_10 
REMARK    3  A    between atoms: C7_10  and  C8_11 
ROOT
HETATM    1  C1  UNL     1      -2.243   1.324  -0.558  1.00  0.00     0.065 C 
HETATM    2  C2  UNL     1      -2.269  -0.131  -0.627  1.00  0.00     0.042 C 
HETATM    3 CL1  UNL     1      -3.795  -0.802  -1.319  1.00  0.00    -0.086 Cl
HETATM    4  C3  UNL     1      -1.390  -1.033  -0.285  1.00  0.00     0.093 A 
HETATM    5  S1  UNL     1      -1.722  -2.830  -0.493  1.00  0.00    -0.081 SA
HETATM    6  C4  UNL     1      -0.204  -3.361   0.234  1.00  0.00     0.069 A 
HETATM    7  C5  UNL     1       0.458  -2.292   0.558  1.00  0.00     0.099 A 
HETATM    8  N1  UNL     1      -0.108  -1.042   0.303  1.00  0.00    -0.349 N 
ENDROOT
BRANCH   8   9
HETATM    9  C6  UNL     1       0.652   0.207   0.550  1.00  0.00     0.139 C 
BRANCH   9  10
HETATM   10  C7  UNL     1       1.237   0.770  -0.710  1.00  0.00     0.133 C 
BRANCH  10  11
HETATM   11  C8  UNL     1       1.965   2.049  -0.393  1.00  0.00     0.174 C 
HETATM   12  O1  UNL     1       1.268   3.079  -0.216  1.00  0.00    -0.648 OA
HETATM   13  O2  UNL     1       3.337   2.137  -0.292  1.00  0.00    -0.648 OA
ENDBRANCH  10  11
ENDBRANCH   9  10
ENDBRANCH   8   9
TORSDOF 3
