REMARK  7 active torsions:
REMARK  status: ('A' for Active; 'I' for Inactive)
REMARK    1  A    between atoms: C2_2  and  O1_3 
REMARK    2  A    between atoms: C2_2  and  C3_5 
REMARK    3  A    between atoms: C2_2  and  C9_13 
REMARK    4  A    between atoms: C4_6  and  C5_7 
REMARK    5  A    between atoms: C6_8  and  C7_9 
REMARK    6  A    between atoms: C9_13  and  C10_14 
REMARK    7  A    between atoms: C10_14  and  S1_15 
ROOT
HETATM    1  S1  UNL     1      -1.999   3.068   0.377  1.00  0.00    -0.051 SA
HETATM    2  C11 UNL     1      -2.334   2.703   2.060  1.00  0.00     0.133 C 
HETATM    3  N1  UNL     1      -2.541   2.475   3.175  1.00  0.00    -0.184 NA
ENDROOT
BRANCH   1   4
HETATM    4  C10 UNL     1      -1.088   1.703  -0.421  1.00  0.00     0.094 C 
BRANCH   4   5
HETATM    5  C9  UNL     1      -1.982   0.491  -0.485  1.00  0.00     0.062 C 
BRANCH   5   6
HETATM    6  C2  UNL     1      -1.324  -0.689  -1.127  1.00  0.00     0.118 C 
HETATM    7  C1  UNL     1      -2.357  -1.827  -1.114  1.00  0.00     0.060 C 
BRANCH   6   8
HETATM    8  O1  UNL     1      -1.037  -0.438  -2.447  1.00  0.00    -0.378 OA
ATOM      9  H1  UNL     1      -0.399   0.265  -2.455  1.00  0.00     0.211 HD
ENDBRANCH   6   8
BRANCH   6  10
HETATM   10  C3  UNL     1      -0.104  -1.101  -0.438  1.00  0.00    -0.064 C 
HETATM   11  C4  UNL     1       0.910  -1.464   0.125  1.00  0.00    -0.075 C 
BRANCH  11  12
HETATM   12  C5  UNL     1       2.114  -1.922   0.791  1.00  0.00     0.065 C 
HETATM   13  C6  UNL     1       3.080  -1.081   1.041  1.00  0.00     0.014 C 
BRANCH  13  14
HETATM   14  C7  UNL     1       2.958   0.304   0.659  1.00  0.00     0.075 C 
HETATM   15  C8  UNL     1       3.938   1.168   0.911  1.00  0.00     0.267 C 
HETATM   16  F1  UNL     1       5.038   0.729   1.526  1.00  0.00    -0.173 F 
HETATM   17  F2  UNL     1       3.851   2.470   0.565  1.00  0.00    -0.173 F 
ENDBRANCH  13  14
ENDBRANCH  11  12
ENDBRANCH   6  10
ENDBRANCH   5   6
ENDBRANCH   4   5
ENDBRANCH   1   4
TORSDOF 7
