REMARK  3 active torsions:
REMARK  status: ('A' for Active; 'I' for Inactive)
REMARK    1  A    between atoms: C8_10  and  S1_11 
REMARK    2  A    between atoms: S1_11  and  C9_12 
REMARK    3  A    between atoms: C9_12  and  C10_13 
ROOT
HETATM    1  C1  UNL     1      -0.029   2.287   0.139  1.00  0.00     0.037 C 
HETATM    2  C2  UNL     1      -0.905   1.042   0.070  1.00  0.00     0.069 C 
HETATM    3  C3  UNL     1      -2.135   1.386  -0.682  1.00  0.00     0.037 C 
HETATM    4  N1  UNL     1      -1.295   0.766   1.444  1.00  0.00    -0.089 NA
HETATM    5  O1  UNL     1      -0.531  -0.232   1.893  1.00  0.00    -0.279 OA
HETATM    6  C4  UNL     1      -0.328  -1.087   0.828  1.00  0.00     0.168 C 
HETATM    7  C5  UNL     1      -1.599  -1.843   0.501  1.00  0.00     0.036 C 
HETATM    8  C6  UNL     1      -1.397  -2.123  -0.976  1.00  0.00     0.004 C 
HETATM    9  C7  UNL     1      -0.627  -0.924  -1.501  1.00  0.00     0.025 C 
HETATM   10  C8  UNL     1      -0.140  -0.144  -0.343  1.00  0.00     0.059 C 
ENDROOT
BRANCH  10  11
HETATM   11  S1  UNL     1       1.582   0.304  -0.609  1.00  0.00    -0.153 SA
BRANCH  11  12
HETATM   12  C9  UNL     1       2.584   0.270   0.879  1.00  0.00     0.089 C 
BRANCH  12  13
HETATM   13  C10 UNL     1       4.016  -0.005   0.434  1.00  0.00     0.125 C 
HETATM   14 CL1  UNL     1       4.089  -1.668  -0.179  1.00  0.00    -0.130 Cl
ENDBRANCH  12  13
ENDBRANCH  11  12
ENDBRANCH  10  11
TORSDOF 3
