REMARK  8 active torsions:
REMARK  status: ('A' for Active; 'I' for Inactive)
REMARK    1  A    between atoms: C2_2  and  C3_4 
REMARK    2  A    between atoms: C3_4  and  O2_5 
REMARK    3  A    between atoms: O2_5  and  N1_6 
REMARK    4  A    between atoms: C4_8  and  C6_10 
REMARK    5  A    between atoms: C10_14  and  C11_15 
REMARK    6  A    between atoms: C14_21  and  C15_22 
REMARK    7  A    between atoms: C15_22  and  N3_23 
REMARK       I    between atoms: N3_23  and  C17_25 
REMARK    8  A    between atoms: C17_25  and  C18_27 
ROOT
HETATM    1  C11 UNL     1      -0.922  -0.153  -0.429  1.00  0.00     0.048 A 
HETATM    2  N2  UNL     1      -1.592   0.811  -1.063  1.00  0.00    -0.264 N 
ATOM      3  H2  UNL     1      -2.592   0.787  -1.261  1.00  0.00     0.194 HD
HETATM    4  O3  UNL     1      -0.812   1.767  -1.388  1.00  0.00    -0.242 OA
HETATM    5  C12 UNL     1       0.440   1.524  -1.001  1.00  0.00     0.082 A 
HETATM    6  C13 UNL     1       1.567   2.454  -1.239  1.00  0.00     0.079 C 
HETATM    7  C14 UNL     1       0.425   0.310  -0.383  1.00  0.00     0.016 A 
ENDROOT
BRANCH   7   8
HETATM    8  C15 UNL     1       1.468  -0.481   0.253  1.00  0.00     0.168 C 
BRANCH   8   9
HETATM    9  N3  UNL     1       2.795   0.013   0.258  1.00  0.00    -0.348 N 
HETATM   10  C16 UNL     1       3.706  -0.398  -0.826  1.00  0.00     0.153 C 
HETATM   11  C17 UNL     1       3.344   0.844   1.264  1.00  0.00     0.257 C 
HETATM   12  O4  UNL     1       2.619   1.178   2.227  1.00  0.00    -0.267 OA
BRANCH  11  13
HETATM   13  C18 UNL     1       4.710   1.325   1.225  1.00  0.00     0.076 A 
HETATM   14  C19 UNL     1       5.095   2.498   0.632  1.00  0.00     0.066 A 
HETATM   15  C20 UNL     1       6.418   2.893   0.635  1.00  0.00     0.159 A 
HETATM   16  F1  UNL     1       6.837   4.054   0.054  1.00  0.00    -0.203 F 
HETATM   17  C21 UNL     1       7.401   2.126   1.234  1.00  0.00     0.196 A 
HETATM   18  F2  UNL     1       8.703   2.480   1.257  1.00  0.00    -0.199 F 
HETATM   19  C22 UNL     1       7.029   0.947   1.833  1.00  0.00     0.197 A 
HETATM   20  F3  UNL     1       7.958   0.162   2.433  1.00  0.00    -0.199 F 
HETATM   21  C23 UNL     1       5.705   0.562   1.824  1.00  0.00     0.173 A 
HETATM   22  F4  UNL     1       5.370  -0.609   2.426  1.00  0.00    -0.202 F 
ENDBRANCH  11  13
ENDBRANCH   8   9
ENDBRANCH   7   8
BRANCH   1  23
HETATM   23  C10 UNL     1      -1.389  -1.429   0.127  1.00  0.00     0.048 C 
HETATM   24  C6  UNL     1      -2.904  -1.495  -0.068  1.00  0.00     0.043 C 
HETATM   25  C7  UNL     1      -3.194  -2.738  -0.840  1.00  0.00     0.011 C 
HETATM   26  C8  UNL     1      -1.975  -3.598  -0.817  1.00  0.00     0.002 C 
HETATM   27  C9  UNL     1      -0.857  -2.647  -0.542  1.00  0.00     0.011 C 
BRANCH  24  28
HETATM   28  C4  UNL     1      -3.620  -1.484   1.235  1.00  0.00     0.011 C 
HETATM   29  N1  UNL     1      -4.477  -0.578   1.564  1.00  0.00    -0.275 N 
ATOM     30  H1  UNL     1      -4.950  -0.605   2.468  1.00  0.00     0.193 HD
HETATM   31  C5  UNL     1      -3.345  -2.565   2.216  1.00  0.00     0.066 C 
BRANCH  29  32
HETATM   32  O2  UNL     1      -4.736   0.432   0.654  1.00  0.00    -0.273 OA
BRANCH  32  33
HETATM   33  C3  UNL     1      -5.810   0.308  -0.283  1.00  0.00     0.278 C 
BRANCH  33  34
HETATM   34  C2  UNL     1      -5.847   1.526  -1.120  1.00  0.00     0.148 C 
HETATM   35  C1  UNL     1      -4.910   2.659  -0.976  1.00  0.00     0.093 C 
HETATM   36  O1  UNL     1      -6.715   1.585  -1.982  1.00  0.00    -0.296 OA
ENDBRANCH  33  34
ENDBRANCH  32  33
ENDBRANCH  29  32
ENDBRANCH  24  28
ENDBRANCH   1  23
TORSDOF 8
