REMARK  9 active torsions:
REMARK  status: ('A' for Active; 'I' for Inactive)
REMARK    1  A    between atoms: O1_2  and  C2_3 
REMARK    2  A    between atoms: C7_8  and  O2_9 
REMARK    3  A    between atoms: O2_9  and  C8_10 
REMARK    4  A    between atoms: C10_12  and  C11_13 
REMARK    5  A    between atoms: C12_14  and  C13_15 
REMARK    6  A    between atoms: C13_15  and  O4_17 
REMARK    7  A    between atoms: O4_17  and  C14_18 
REMARK    8  A    between atoms: C21_30  and  O5_31 
REMARK    9  A    between atoms: C23_33  and  O6_34 
ROOT
HETATM    1  C8  UNL     1      -1.788  -0.431  -0.804  1.00  0.00     0.113 A 
HETATM    2  C9  UNL     1      -0.410  -0.178  -0.609  1.00  0.00     0.051 A 
HETATM    3  C10 UNL     1       0.501  -1.119  -0.213  1.00  0.00    -0.030 A 
HETATM    4  C20 UNL     1       0.030  -2.387   0.006  1.00  0.00     0.051 A 
HETATM    5  C21 UNL     1      -1.298  -2.673  -0.172  1.00  0.00     0.105 A 
HETATM    6  C23 UNL     1      -2.236  -1.706  -0.580  1.00  0.00     0.135 A 
ENDROOT
BRANCH   3   7
HETATM    7  C11 UNL     1       1.910  -0.743  -0.043  1.00  0.00     0.017 C 
HETATM    8  C12 UNL     1       2.831  -1.575   0.328  1.00  0.00     0.083 C 
BRANCH   8   9
HETATM    9  C13 UNL     1       4.211  -1.087   0.466  1.00  0.00     0.288 C 
HETATM   10  O3  UNL     1       5.100  -1.893   0.825  1.00  0.00    -0.260 OA
BRANCH   9  11
HETATM   11  O4  UNL     1       4.518   0.235   0.204  1.00  0.00    -0.269 OA
BRANCH  11  12
HETATM   12  C14 UNL     1       5.816   0.686   0.335  1.00  0.00     0.163 A 
HETATM   13  C15 UNL     1       6.751   0.677  -0.679  1.00  0.00     0.195 A 
HETATM   14  F1  UNL     1       6.373   0.191  -1.903  1.00  0.00    -0.200 F 
HETATM   15  C16 UNL     1       8.043   1.145  -0.483  1.00  0.00     0.199 A 
HETATM   16  F2  UNL     1       8.963   1.139  -1.475  1.00  0.00    -0.199 F 
HETATM   17  C17 UNL     1       8.421   1.634   0.749  1.00  0.00     0.199 A 
HETATM   18  F3  UNL     1       9.677   2.102   0.981  1.00  0.00    -0.199 F 
HETATM   19  C18 UNL     1       7.496   1.654   1.791  1.00  0.00     0.199 A 
HETATM   20  F4  UNL     1       7.846   2.133   3.019  1.00  0.00    -0.199 F 
HETATM   21  C19 UNL     1       6.208   1.177   1.561  1.00  0.00     0.195 A 
HETATM   22  F5  UNL     1       5.350   1.221   2.612  1.00  0.00    -0.200 F 
ENDBRANCH  11  12
ENDBRANCH   9  11
ENDBRANCH   8   9
ENDBRANCH   3   7
BRANCH   1  23
HETATM   23  O2  UNL     1      -2.549   0.627  -1.209  1.00  0.00    -0.305 OA
BRANCH  23  24
HETATM   24  C7  UNL     1      -3.474   1.329  -0.530  1.00  0.00     0.109 A 
HETATM   25  C2  UNL     1      -4.183   2.311  -1.254  1.00  0.00     0.102 A 
HETATM   26  C3  UNL     1      -5.153   3.092  -0.669  1.00  0.00     0.039 A 
HETATM   27  C4  UNL     1      -5.490   2.960   0.660  1.00  0.00     0.003 A 
HETATM   28  C5  UNL     1      -4.796   1.999   1.368  1.00  0.00     0.003 A 
HETATM   29  C6  UNL     1      -3.826   1.213   0.798  1.00  0.00     0.040 A 
BRANCH  25  30
HETATM   30  O1  UNL     1      -3.863   2.463  -2.595  1.00  0.00    -0.353 OA
HETATM   31  C1  UNL     1      -4.551   3.436  -3.354  1.00  0.00     0.210 C 
ENDBRANCH  25  30
ENDBRANCH  23  24
ENDBRANCH   1  23
BRANCH   5  32
HETATM   32  O5  UNL     1      -1.753  -3.951   0.053  1.00  0.00    -0.353 OA
HETATM   33  C22 UNL     1      -0.847  -4.948   0.463  1.00  0.00     0.210 C 
ENDBRANCH   5  32
BRANCH   6  34
HETATM   34  O6  UNL     1      -3.523  -2.078  -0.736  1.00  0.00    -0.351 OA
HETATM   35  C24 UNL     1      -4.576  -2.285   0.113  1.00  0.00     0.210 C 
ENDBRANCH   6  34
TORSDOF 9
