REMARK  12 active torsions:
REMARK  status: ('A' for Active; 'I' for Inactive)
REMARK    1  A    between atoms: C2_2  and  C3_3 
REMARK    2  A    between atoms: C2_2  and  C11_16 
REMARK    3  A    between atoms: C3_3  and  O1_4 
REMARK    4  A    between atoms: O1_4  and  C4_5 
REMARK    5  A    between atoms: C4_5  and  C5_7 
REMARK    6  A    between atoms: C5_7  and  C7_11 
REMARK    7  A    between atoms: C7_11  and  C8_13 
REMARK    8  A    between atoms: C11_16  and  O4_18 
REMARK    9  A    between atoms: O4_18  and  C12_19 
REMARK   10  A    between atoms: C12_19  and  C13_20 
REMARK   11  A    between atoms: C13_20  and  C15_25 
REMARK   12  A    between atoms: N1_21  and  O5_23 
ROOT
HETATM    1  C11 UNL     1      -0.957  -0.144  -1.333  1.00  0.00     0.291 C 
HETATM    2  O3  UNL     1      -1.162  -0.091  -2.568  1.00  0.00    -0.260 OA
ENDROOT
BRANCH   1   3
HETATM    3  C2  UNL     1       0.407  -0.165  -0.810  1.00  0.00     0.032 C 
HETATM    4  C1  UNL     1       0.606  -0.236   0.469  1.00  0.00     0.027 C 
BRANCH   3   5
HETATM    5  C3  UNL     1       1.497  -0.124  -1.787  1.00  0.00     0.223 C 
BRANCH   5   6
HETATM    6  O1  UNL     1       2.796  -0.188  -1.307  1.00  0.00    -0.313 OA
BRANCH   6   7
HETATM    7  C4  UNL     1       3.325  -1.352  -0.738  1.00  0.00     0.297 C 
HETATM    8  O2  UNL     1       2.550  -2.370  -0.688  1.00  0.00    -0.259 OA
BRANCH   7   9
HETATM    9  C5  UNL     1       4.667  -1.479  -0.208  1.00  0.00     0.094 C 
HETATM   10  C6  UNL     1       4.996  -2.697   0.322  1.00  0.00     0.121 C 
HETATM   11 CL1  UNL     1       6.586  -2.921   0.970  1.00  0.00    -0.070 Cl
HETATM   12 CL2  UNL     1       3.865  -4.014   0.380  1.00  0.00    -0.070 Cl
BRANCH   9  13
HETATM   13  C7  UNL     1       5.638  -0.407  -0.054  1.00  0.00     0.054 C 
HETATM   14 CL3  UNL     1       4.891   0.519  -1.858  1.00  0.00    -0.083 Cl
BRANCH  13  15
HETATM   15  C8  UNL     1       6.407   0.464   0.059  1.00  0.00    -0.065 C 
HETATM   16  C9  UNL     1       7.710   0.247   0.873  1.00  0.00     0.044 C 
HETATM   17  C10 UNL     1       6.341   1.899  -0.424  1.00  0.00     0.044 C 
ENDBRANCH  13  15
ENDBRANCH   9  13
ENDBRANCH   7   9
ENDBRANCH   6   7
ENDBRANCH   5   6
ENDBRANCH   3   5
ENDBRANCH   1   3
BRANCH   1  18
HETATM   18  O4  UNL     1      -2.070  -0.183  -0.507  1.00  0.00    -0.312 OA
BRANCH  18  19
HETATM   19  C12 UNL     1      -3.347  -0.176  -1.116  1.00  0.00     0.238 C 
BRANCH  19  20
HETATM   20  C13 UNL     1      -4.446  -0.210  -0.146  1.00  0.00     0.066 C 
HETATM   21  N1  UNL     1      -5.095  -1.317   0.050  1.00  0.00    -0.268 N 
ATOM     22  H1  UNL     1      -5.862  -1.348   0.722  1.00  0.00     0.194 HD
BRANCH  21  23
HETATM   23  O5  UNL     1      -4.750  -2.433  -0.642  1.00  0.00    -0.285 OA
HETATM   24  C14 UNL     1      -5.611  -3.442  -1.083  1.00  0.00     0.237 C 
ENDBRANCH  21  23
BRANCH  20  25
HETATM   25  C15 UNL     1      -4.822   0.947   0.636  1.00  0.00    -0.008 A 
HETATM   26  C16 UNL     1      -5.794   0.947   1.613  1.00  0.00     0.013 A 
HETATM   27  C17 UNL     1      -6.172   2.055   2.340  1.00  0.00     0.003 A 
HETATM   28  C18 UNL     1      -5.544   3.257   2.088  1.00  0.00     0.024 A 
HETATM   29  C19 UNL     1      -4.565   3.302   1.118  1.00  0.00     0.035 A 
HETATM   30 CL4  UNL     1      -3.739   4.830   0.754  1.00  0.00    -0.084 Cl
HETATM   31  C20 UNL     1      -4.208   2.186   0.411  1.00  0.00     0.037 A 
ENDBRANCH  20  25
ENDBRANCH  19  20
ENDBRANCH  18  19
ENDBRANCH   1  18
TORSDOF 12
