REMARK  8 active torsions:
REMARK  status: ('A' for Active; 'I' for Inactive)
REMARK    1  A    between atoms: O1_2  and  C2_3 
REMARK    2  A    between atoms: C5_8  and  C6_9 
REMARK    3  A    between atoms: C6_9  and  N2_10 
REMARK    4  A    between atoms: N3_13  and  C9_14 
REMARK    5  A    between atoms: C9_14  and  C10_15 
REMARK    6  A    between atoms: C10_15  and  C11_17 
REMARK    7  A    between atoms: C12_18  and  O3_19 
REMARK    8  A    between atoms: O3_19  and  C13_20 
ROOT
HETATM    1  C2  UNL     1      -3.903   3.552   0.097  1.00  0.00     0.092 A 
HETATM    2  C3  UNL     1      -4.081   2.538  -0.814  1.00  0.00     0.070 A 
HETATM    3  C4  UNL     1      -3.147   1.520  -0.819  1.00  0.00     0.063 A 
HETATM    4  N1  UNL     1      -3.088   0.427  -1.595  1.00  0.00    -0.343 N 
ATOM      5  H1  UNL     1      -3.756   0.182  -2.326  1.00  0.00     0.167 HD
HETATM    6  C5  UNL     1      -1.987  -0.305  -1.247  1.00  0.00     0.102 A 
HETATM    7  N3  UNL     1      -1.381   0.367  -0.244  1.00  0.00    -0.326 N 
HETATM    8  C20 UNL     1      -2.075   1.484   0.032  1.00  0.00     0.065 A 
HETATM    9  C21 UNL     1      -1.904   2.497   0.936  1.00  0.00     0.058 A 
HETATM   10  C22 UNL     1      -2.829   3.526   0.957  1.00  0.00     0.069 A 
HETATM   11 CL2  UNL     1      -2.635   4.833   2.102  1.00  0.00    -0.081 Cl
ENDROOT
BRANCH   7  12
HETATM   12  C9  UNL     1      -0.171  -0.077   0.402  1.00  0.00     0.214 C 
BRANCH  12  13
HETATM   13  C10 UNL     1       1.047   0.438  -0.252  1.00  0.00     0.182 C 
HETATM   14  O2  UNL     1       0.940   1.174  -1.253  1.00  0.00    -0.290 OA
BRANCH  13  15
HETATM   15  C11 UNL     1       2.343   0.089   0.271  1.00  0.00     0.067 A 
HETATM   16  C12 UNL     1       2.999  -1.058  -0.195  1.00  0.00     0.091 A 
HETATM   17  C14 UNL     1       4.228  -1.391   0.299  1.00  0.00     0.045 A 
HETATM   18  C15 UNL     1       4.824  -0.582   1.270  1.00  0.00    -0.052 A 
HETATM   19  C16 UNL     1       6.145  -0.957   1.788  1.00  0.00     0.049 C 
HETATM   20  C17 UNL     1       4.206   0.529   1.732  1.00  0.00    -0.033 A 
HETATM   21  C18 UNL     1       4.872   1.373   2.771  1.00  0.00     0.050 C 
HETATM   22  C19 UNL     1       2.969   0.850   1.224  1.00  0.00     0.057 A 
HETATM   23 CL1  UNL     1       2.179   2.286   1.827  1.00  0.00    -0.083 Cl
BRANCH  16  24
HETATM   24  O3  UNL     1       2.359  -1.794  -1.137  1.00  0.00    -0.289 OA
BRANCH  24  25
HETATM   25  C13 UNL     1       2.842  -2.960  -1.722  1.00  0.00     0.505 C 
HETATM   26  F1  UNL     1       3.003  -2.752  -3.107  1.00  0.00    -0.184 F 
HETATM   27  F2  UNL     1       1.935  -4.020  -1.557  1.00  0.00    -0.184 F 
ENDBRANCH  24  25
ENDBRANCH  16  24
ENDBRANCH  13  15
ENDBRANCH  12  13
ENDBRANCH   7  12
BRANCH   6  28
HETATM   28  C6  UNL     1      -1.604  -1.583  -1.906  1.00  0.00     0.192 C 
BRANCH  28  29
HETATM   29  N2  UNL     1      -2.524  -2.620  -1.562  1.00  0.00    -0.414 N 
HETATM   30  C7  UNL     1      -2.637  -2.925  -0.177  1.00  0.00     0.143 C 
HETATM   31  C8  UNL     1      -2.522  -3.745  -2.440  1.00  0.00     0.143 C 
ENDBRANCH  28  29
ENDBRANCH   6  28
BRANCH   1  32
HETATM   32  O1  UNL     1      -4.821   4.611   0.145  1.00  0.00    -0.354 OA
HETATM   33  C1  UNL     1      -5.926   4.682  -0.706  1.00  0.00     0.210 C 
ENDBRANCH   1  32
TORSDOF 8
