REMARK  5 active torsions:
REMARK  status: ('A' for Active; 'I' for Inactive)
REMARK    1  A    between atoms: C2_2  and  N3_15 
REMARK    2  A    between atoms: N1_3  and  N2_5 
REMARK    3  A    between atoms: N2_5  and  C3_7 
REMARK    4  A    between atoms: N3_15  and  N4_17 
REMARK    5  A    between atoms: C9_19  and  C11_21 
ROOT
HETATM    1  C1  UNL     1       1.450  -2.233  -0.745  1.00  0.00     0.092 C 
HETATM    2  C2  UNL     1       0.641  -0.981  -0.769  1.00  0.00     0.106 C 
HETATM    3  N1  UNL     1      -0.637  -1.069  -0.737  1.00  0.00    -0.288 N 
ATOM      4  H1  UNL     1      -1.076  -1.989  -0.696  1.00  0.00     0.188 HD
ENDROOT
BRANCH   3   5
HETATM    5  N2  UNL     1      -1.432   0.065  -0.757  1.00  0.00    -0.299 N 
ATOM      6  H2  UNL     1      -1.125   0.895  -1.264  1.00  0.00     0.187 HD
BRANCH   5   7
HETATM    7  C3  UNL     1      -2.685   0.069  -0.065  1.00  0.00     0.051 A 
HETATM    8  C4  UNL     1      -3.487   1.197  -0.078  1.00  0.00     0.054 A 
HETATM    9  C5  UNL     1      -4.681   1.218   0.574  1.00  0.00     0.037 A 
HETATM   10 CL1  UNL     1      -5.733   2.639   0.581  1.00  0.00    -0.084 Cl
HETATM   11  C6  UNL     1      -5.075   0.084   1.253  1.00  0.00     0.048 A 
HETATM   12  C7  UNL     1      -4.300  -1.054   1.285  1.00  0.00     0.037 A 
HETATM   13 CL2  UNL     1      -4.779  -2.498   2.137  1.00  0.00    -0.084 Cl
HETATM   14  C8  UNL     1      -3.097  -1.059   0.621  1.00  0.00     0.054 A 
ENDBRANCH   5   7
ENDBRANCH   3   5
BRANCH   2  15
HETATM   15  N3  UNL     1       1.235   0.297  -0.825  1.00  0.00    -0.288 N 
ATOM     16  H3  UNL     1       1.095   0.887  -1.645  1.00  0.00     0.188 HD
BRANCH  15  17
HETATM   17  N4  UNL     1       2.007   0.753   0.230  1.00  0.00    -0.305 N 
HETATM   18  C9  UNL     1       3.289   0.840   0.110  1.00  0.00     0.033 C 
HETATM   19  C10 UNL     1       4.025   1.347   1.320  1.00  0.00     0.068 C 
ATOM     20  H4  UNL     1       1.560   1.022   1.107  1.00  0.00     0.186 HD
BRANCH  18  21
HETATM   21  C11 UNL     1       4.026   0.477  -1.111  1.00  0.00     0.224 C 
HETATM   22 CL3  UNL     1       4.940   1.865  -1.779  1.00  0.00    -0.102 Cl
HETATM   23 CL4  UNL     1       5.160  -0.868  -0.850  1.00  0.00    -0.102 Cl
ENDBRANCH  18  21
ENDBRANCH  15  17
ENDBRANCH   2  15
TORSDOF 5
