REMARK  5 active torsions:
REMARK  status: ('A' for Active; 'I' for Inactive)
REMARK    1  A    between atoms: C2_2  and  C3_3 
REMARK    2  A    between atoms: C2_2  and  C4_5 
REMARK    3  A    between atoms: C4_5  and  N1_7 
REMARK    4  A    between atoms: N1_7  and  C6_9 
REMARK    5  A    between atoms: C14_20  and  N2_21 
ROOT
HETATM    1  C6  UNL     1      -0.069  -1.197   0.274  1.00  0.00     0.061 A 
HETATM    2  C7  UNL     1      -0.204  -2.228   1.180  1.00  0.00     0.086 A 
HETATM    3 CL2  UNL     1       1.241  -3.077   1.745  1.00  0.00    -0.080 Cl
HETATM    4  C8  UNL     1      -1.437  -2.651   1.658  1.00  0.00     0.099 A 
HETATM    5 CL3  UNL     1      -1.557  -3.963   2.808  1.00  0.00    -0.079 Cl
HETATM    6  C9  UNL     1      -2.576  -2.020   1.212  1.00  0.00     0.173 A 
HETATM    7  F1  UNL     1      -3.819  -2.409   1.660  1.00  0.00    -0.201 F 
HETATM    8  C10 UNL     1      -2.484  -0.980   0.301  1.00  0.00     0.120 A 
HETATM    9  C11 UNL     1      -1.226  -0.584  -0.155  1.00  0.00     0.007 A 
HETATM   10  C12 UNL     1      -1.077   0.529  -1.134  1.00  0.00     0.048 C 
HETATM   11  C13 UNL     1      -2.407   0.685  -1.845  1.00  0.00     0.066 C 
HETATM   12  C14 UNL     1      -3.471   0.912  -0.765  1.00  0.00     0.325 C 
HETATM   13  O1  UNL     1      -3.654  -0.347  -0.146  1.00  0.00    -0.314 OA
ENDROOT
BRANCH   1  14
HETATM   14  N1  UNL     1       1.171  -0.740  -0.201  1.00  0.00    -0.380 N 
ATOM     15  H1  UNL     1       1.575  -1.275  -0.970  1.00  0.00     0.160 HD
BRANCH  14  16
HETATM   16  C4  UNL     1       1.933   0.364   0.246  1.00  0.00     0.107 C 
HETATM   17  C5  UNL     1       1.950   0.378   1.752  1.00  0.00     0.037 C 
BRANCH  16  18
HETATM   18  C2  UNL     1       3.320   0.460  -0.258  1.00  0.00    -0.053 C 
HETATM   19  C1  UNL     1       3.880  -0.499  -0.975  1.00  0.00     0.017 C 
BRANCH  18  20
HETATM   20  C3  UNL     1       4.159   1.673   0.014  1.00  0.00     0.150 C 
HETATM   21 CL1  UNL     1       4.483   1.982   1.700  1.00  0.00    -0.126 Cl
ENDBRANCH  18  20
ENDBRANCH  16  18
ENDBRANCH  14  16
ENDBRANCH   1  14
BRANCH  12  22
HETATM   22  N2  UNL     1      -4.679   1.452  -1.310  1.00  0.00    -0.052 N 
ATOM     23  H23 UNL     1      -4.498   2.306  -1.837  1.00  0.00     0.277 HD
ATOM     24  H22 UNL     1      -5.037   0.869  -2.066  1.00  0.00     0.277 HD
ATOM     25  H21 UNL     1      -5.387   1.603  -0.591  1.00  0.00     0.277 HD
ENDBRANCH  12  22
TORSDOF 5
