REMARK  5 active torsions:
REMARK  status: ('A' for Active; 'I' for Inactive)
REMARK    1  A    between atoms: O1_1  and  C1_3 
REMARK    2  A    between atoms: C1_3  and  C2_4 
REMARK    3  A    between atoms: C2_4  and  C3_5 
REMARK    4  A    between atoms: C3_5  and  C4_6 
REMARK    5  A    between atoms: C4_6  and  N1_7 
ROOT
HETATM    1  N1  UNL     1      -0.710  -0.146   0.906  1.00  0.00    -0.322 N 
HETATM    2  C5  UNL     1      -1.109  -1.100   1.774  1.00  0.00     0.179 A 
HETATM    3  S1  UNL     1      -0.258  -1.649   3.073  1.00  0.00    -0.040 SA
HETATM    4  N2  UNL     1      -2.327  -1.501   1.361  1.00  0.00    -0.330 N 
ATOM      5  H2  UNL     1      -2.888  -2.219   1.820  1.00  0.00     0.168 HD
HETATM    6  C6  UNL     1      -2.703  -0.825   0.260  1.00  0.00     0.085 A 
HETATM    7  C7  UNL     1      -3.834  -0.860  -0.535  1.00  0.00     0.086 A 
HETATM    8 CL1  UNL     1      -5.157  -1.951  -0.185  1.00  0.00    -0.080 Cl
HETATM    9  C8  UNL     1      -3.902  -0.009  -1.622  1.00  0.00     0.080 A 
HETATM   10 CL2  UNL     1      -5.312  -0.039  -2.630  1.00  0.00    -0.081 Cl
HETATM   11  C9  UNL     1      -2.879   0.868  -1.935  1.00  0.00     0.059 A 
HETATM   12 CL3  UNL     1      -2.978   1.940  -3.314  1.00  0.00    -0.082 Cl
HETATM   13  C10 UNL     1      -1.766   0.881  -1.126  1.00  0.00     0.057 A 
HETATM   14  C11 UNL     1      -1.662   0.046  -0.031  1.00  0.00     0.067 A 
ENDROOT
BRANCH   1  15
HETATM   15  C4  UNL     1       0.562   0.552   0.998  1.00  0.00     0.132 C 
BRANCH  15  16
HETATM   16  C3  UNL     1       1.642  -0.190   0.211  1.00  0.00     0.022 C 
BRANCH  16  17
HETATM   17  C2  UNL     1       2.926   0.607   0.363  1.00  0.00     0.028 C 
BRANCH  17  18
HETATM   18  C1  UNL     1       4.071  -0.029  -0.375  1.00  0.00     0.164 C 
BRANCH  18  19
HETATM   19  O1  UNL     1       5.195   0.771  -0.175  1.00  0.00    -0.401 OA
ATOM     20  H1  UNL     1       5.919   0.369  -0.641  1.00  0.00     0.209 HD
ENDBRANCH  18  19
ENDBRANCH  17  18
ENDBRANCH  16  17
ENDBRANCH  15  16
ENDBRANCH   1  15
TORSDOF 5
