REMARK  7 active torsions:
REMARK  status: ('A' for Active; 'I' for Inactive)
REMARK    1  A    between atoms: O1_1  and  C1_3 
REMARK    2  A    between atoms: C1_3  and  C2_4 
REMARK    3  A    between atoms: C1_3  and  N1_12 
REMARK    4  A    between atoms: C2_4  and  C3_5 
REMARK    5  A    between atoms: C3_5  and  C4_6 
REMARK    6  A    between atoms: N1_12  and  C10_14 
REMARK    7  A    between atoms: C11_18  and  C12_19 
ROOT
HETATM    1  N1  UNL     1       1.767  -0.873   0.441  1.00  0.00    -0.356 N 
ATOM      2  H1  UNL     1       1.338  -1.754   0.159  1.00  0.00     0.162 HD
ENDROOT
BRANCH   1   3
HETATM    3  C1  UNL     1       0.927  -0.088   1.235  1.00  0.00     0.218 C 
BRANCH   3   4
HETATM    4  O1  UNL     1       0.125  -0.921   2.081  1.00  0.00    -0.377 OA
ATOM      5  H1  UNL     1       0.687  -1.515   2.564  1.00  0.00     0.212 HD
ENDBRANCH   3   4
BRANCH   3   6
HETATM    6  C2  UNL     1       0.047   0.842   0.480  1.00  0.00     0.054 C 
BRANCH   6   7
HETATM    7  C3  UNL     1      -0.951   0.246  -0.430  1.00  0.00     0.009 C 
BRANCH   7   8
HETATM    8  C4  UNL     1      -1.976  -0.657   0.174  1.00  0.00    -0.014 C 
HETATM    9  C5  UNL     1      -2.804   0.019   1.237  1.00  0.00     0.004 C 
HETATM   10  C6  UNL     1      -4.269   0.096   0.856  1.00  0.00     0.000 C 
HETATM   11  C7  UNL     1      -4.319   0.819  -0.492  1.00  0.00     0.000 C 
HETATM   12  C8  UNL     1      -3.766  -0.134  -1.513  1.00  0.00     0.000 C 
HETATM   13  C9  UNL     1      -2.887  -1.195  -0.939  1.00  0.00     0.004 C 
ENDBRANCH   7   8
ENDBRANCH   6   7
ENDBRANCH   3   6
ENDBRANCH   1   3
BRANCH   1  14
HETATM   14  C10 UNL     1       2.950  -0.732  -0.009  1.00  0.00     0.112 A 
HETATM   15  S1  UNL     1       3.763  -1.926  -1.010  1.00  0.00     0.005 SA
HETATM   16  N2  UNL     1       5.218  -1.143  -1.237  1.00  0.00    -0.319 N 
HETATM   17  C11 UNL     1       5.084  -0.001  -0.566  1.00  0.00     0.147 A 
ATOM     18  H2  UNL     1       6.026  -1.466  -1.769  1.00  0.00     0.174 HD
HETATM   19  C13 UNL     1       3.917   0.222   0.072  1.00  0.00     0.101 A 
HETATM   20 CL1  UNL     1       3.610   1.728   1.015  1.00  0.00    -0.079 Cl
BRANCH  17  21
HETATM   21  C12 UNL     1       6.210   1.030  -0.514  1.00  0.00     0.434 C 
HETATM   22  F1  UNL     1       7.270   0.580  -1.226  1.00  0.00    -0.165 F 
HETATM   23  F2  UNL     1       5.759   2.207  -1.068  1.00  0.00    -0.165 F 
HETATM   24  F3  UNL     1       6.619   1.200   0.801  1.00  0.00    -0.165 F 
ENDBRANCH  17  21
ENDBRANCH   1  14
TORSDOF 7
