REMARK  4 active torsions:
REMARK  status: ('A' for Active; 'I' for Inactive)
REMARK    1  A    between atoms: C7_9  and  O1_10 
REMARK    2  A    between atoms: O1_10  and  C8_11 
REMARK    3  A    between atoms: C9_14  and  N2_15 
REMARK    4  A    between atoms: C10_20  and  C11_21 
ROOT
HETATM    1  C8  UNL     1       0.412   0.262   0.022  1.00  0.00     0.204 A 
HETATM    2  N1  UNL     1       0.474  -1.055   0.235  1.00  0.00    -0.167 N 
ATOM      3  H1  UNL     1      -0.394  -1.590   0.256  1.00  0.00     0.186 HD
HETATM    4  C9  UNL     1       1.644  -1.707   0.424  1.00  0.00     0.678 A 
HETATM    5  N3  UNL     1       2.775  -0.998   0.393  1.00  0.00    -0.192 N 
ATOM      6  H3  UNL     1       3.656  -1.491   0.535  1.00  0.00     0.184 HD
HETATM    7  C10 UNL     1       2.818   0.335   0.184  1.00  0.00     0.073 A 
HETATM    8  C14 UNL     1       1.588   0.967  -0.005  1.00  0.00     0.191 A 
HETATM    9  F2  UNL     1       1.559   2.299  -0.219  1.00  0.00    -0.199 F 
ENDROOT
BRANCH   1  10
HETATM   10  O1  UNL     1      -0.772   0.892  -0.164  1.00  0.00    -0.287 OA
BRANCH  10  11
HETATM   11  C7  UNL     1      -2.021   0.346  -0.168  1.00  0.00     0.124 A 
HETATM   12  C5  UNL     1      -2.761   0.242   0.986  1.00  0.00    -0.000 A 
HETATM   13  C4  UNL     1      -4.014  -0.320   0.908  1.00  0.00     0.082 A 
HETATM   14  C6  UNL     1      -2.250   0.717   2.307  1.00  0.00     0.053 C 
HETATM   15  C3  UNL     1      -4.543  -0.776  -0.279  1.00  0.00     0.147 A 
HETATM   16 CL1  UNL     1      -4.987  -0.465   2.381  1.00  0.00    -0.080 Cl
HETATM   17  C2  UNL     1      -3.816  -0.681  -1.447  1.00  0.00     0.020 A 
HETATM   18  F1  UNL     1      -5.798  -1.333  -0.323  1.00  0.00    -0.204 F 
HETATM   19  C1  UNL     1      -4.360  -1.166  -2.749  1.00  0.00     0.055 C 
HETATM   20  C15 UNL     1      -2.555  -0.110  -1.344  1.00  0.00     0.159 A 
HETATM   21  F3  UNL     1      -1.864  -0.034  -2.530  1.00  0.00    -0.202 F 
ENDBRANCH  10  11
ENDBRANCH   1  10
BRANCH   4  22
HETATM   22  N2  UNL     1       1.700  -2.980   0.630  1.00  0.00    -0.234 N 
ATOM     23  H22 UNL     1       0.836  -3.522   0.654  1.00  0.00     0.174 HD
ATOM     24  H21 UNL     1       2.582  -3.472   0.773  1.00  0.00     0.174 HD
ENDBRANCH   4  22
BRANCH   7  25
HETATM   25  C11 UNL     1       4.061   1.118   0.150  1.00  0.00     0.031 C 
HETATM   26  C12 UNL     1       5.213   0.155   0.387  1.00  0.00     0.016 C 
HETATM   27  C13 UNL     1       4.094   2.149   1.246  1.00  0.00     0.016 C 
ENDBRANCH   7  25
TORSDOF 4
