REMARK  7 active torsions:
REMARK  status: ('A' for Active; 'I' for Inactive)
REMARK    1  A    between atoms: O1_1  and  C1_3 
REMARK    2  A    between atoms: C3_5  and  O2_6 
REMARK    3  A    between atoms: C4_8  and  C5_9 
REMARK    4  A    between atoms: C5_9  and  C6_10 
REMARK    5  A    between atoms: C6_10  and  C7_11 
REMARK    6  A    between atoms: C7_11  and  C8_12 
REMARK    7  A    between atoms: C8_12  and  C9_13 
ROOT
HETATM    1  C1  UNL     1      -2.866   1.632   0.469  1.00  0.00     0.090 A 
HETATM    2  C2  UNL     1      -3.227   0.334   0.176  1.00  0.00     0.075 A 
HETATM    3  C3  UNL     1      -2.295  -0.725   0.211  1.00  0.00     0.075 A 
HETATM    4  C4  UNL     1      -1.001  -0.452   0.546  1.00  0.00    -0.019 A 
HETATM    5  C12 UNL     1      -0.647   0.884   0.844  1.00  0.00     0.037 A 
HETATM    6  C13 UNL     1      -1.566   1.902   0.806  1.00  0.00     0.067 A 
HETATM    7 CL4  UNL     1      -1.117   3.555   1.176  1.00  0.00    -0.081 Cl
ENDROOT
BRANCH   4   8
HETATM    8  C5  UNL     1       0.074  -1.489   0.548  1.00  0.00     0.083 C 
BRANCH   8   9
HETATM    9  C6  UNL     1       0.875  -1.602  -0.663  1.00  0.00    -0.013 C 
HETATM   10  C11 UNL     1       0.583  -2.580  -1.548  1.00  0.00     0.110 C 
HETATM   11 CL2  UNL     1       1.503  -2.769  -3.057  1.00  0.00    -0.070 Cl
HETATM   12 CL3  UNL     1      -0.560  -3.840  -1.238  1.00  0.00    -0.070 Cl
BRANCH   9  13
HETATM   13  C7  UNL     1       2.001  -0.787  -1.097  1.00  0.00     0.065 C 
BRANCH  13  14
HETATM   14  C8  UNL     1       2.707   0.126  -0.604  1.00  0.00    -0.127 C 
BRANCH  14  15
HETATM   15  C9  UNL     1       3.475   1.119  -0.068  1.00  0.00     0.067 C 
HETATM   16  C10 UNL     1       3.568   1.667   1.120  1.00  0.00     0.092 C 
HETATM   17 CL1  UNL     1       2.684   1.285   2.536  1.00  0.00    -0.096 Cl
ENDBRANCH  14  15
ENDBRANCH  13  14
ENDBRANCH   9  13
ENDBRANCH   8   9
ENDBRANCH   4   8
BRANCH   3  18
HETATM   18  O2  UNL     1      -2.805  -1.956  -0.097  1.00  0.00    -0.360 OA
ATOM     19  H2  UNL     1      -2.178  -2.669  -0.073  1.00  0.00     0.217 HD
ENDBRANCH   3  18
BRANCH   1  20
HETATM   20  O1  UNL     1      -3.769   2.682   0.442  1.00  0.00    -0.359 OA
ATOM     21  H1  UNL     1      -3.520   3.576   0.644  1.00  0.00     0.217 HD
ENDBRANCH   1  20
TORSDOF 7
