REMARK  4 active torsions:
REMARK  status: ('A' for Active; 'I' for Inactive)
REMARK    1  A    between atoms: C2_2  and  C3_3 
REMARK    2  A    between atoms: C4_5  and  N1_6 
REMARK    3  A    between atoms: C9_14  and  O2_15 
REMARK    4  A    between atoms: C10_17  and  O3_18 
ROOT
HETATM    1  N1  UNL     1       1.293  -0.857  -0.356  1.00  0.00    -0.320 N 
HETATM    2  C5  UNL     1       0.961  -2.102   0.036  1.00  0.00     0.186 A 
HETATM    3  N2  UNL     1       2.068  -2.881   0.029  1.00  0.00    -0.343 N 
ATOM      4  H2  UNL     1       2.095  -3.868   0.284  1.00  0.00     0.167 HD
HETATM    5  C6  UNL     1       3.127  -2.151  -0.367  1.00  0.00     0.130 A 
HETATM    6  C7  UNL     1       4.503  -2.562  -0.523  1.00  0.00     0.119 C 
HETATM    7  N3  UNL     1       5.617  -2.875  -0.652  1.00  0.00    -0.190 NA
HETATM    8  C8  UNL     1       2.605  -0.878  -0.603  1.00  0.00     0.135 A 
ENDROOT
BRANCH   1   9
HETATM    9  C4  UNL     1       0.339   0.228  -0.459  1.00  0.00     0.260 C 
HETATM   10  O1  UNL     1       0.013   0.782   0.747  1.00  0.00    -0.352 OA
HETATM   11  C3  UNL     1      -1.345   0.766   0.916  1.00  0.00     0.177 C 
HETATM   12  C10 UNL     1      -1.896   0.816  -0.501  1.00  0.00     0.183 C 
HETATM   13  C9  UNL     1      -0.942  -0.209  -1.138  1.00  0.00     0.199 C 
BRANCH  11  14
HETATM   14  C2  UNL     1      -1.880   1.826   1.776  1.00  0.00    -0.003 C 
HETATM   15  C1  UNL     1      -1.107   2.372   2.698  1.00  0.00     0.009 C 
ENDBRANCH  11  14
BRANCH  12  16
HETATM   16  O3  UNL     1      -3.204   0.437  -0.585  1.00  0.00    -0.390 OA
ATOM     17  H3  UNL     1      -3.548   0.468  -1.470  1.00  0.00     0.210 HD
ENDBRANCH  12  16
BRANCH  13  18
HETATM   18  O2  UNL     1      -0.907  -0.044  -2.510  1.00  0.00    -0.388 OA
ATOM     19  H2  UNL     1      -1.711  -0.318  -2.936  1.00  0.00     0.210 HD
ENDBRANCH  13  18
ENDBRANCH   1   9
TORSDOF 4
