REMARK  4 active torsions:
REMARK  status: ('A' for Active; 'I' for Inactive)
REMARK    1  A    between atoms: C3_5  and  C4_6 
REMARK    2  A    between atoms: C4_6  and  O2_7 
REMARK    3  A    between atoms: C9_16  and  C10_17 
REMARK    4  A    between atoms: C10_17  and  O3_18 
ROOT
HETATM    1  N1  UNL     1       2.464   3.088   0.409  1.00  0.00    -0.195 NA
HETATM    2  C1  UNL     1       1.720   2.180   0.352  1.00  0.00     0.091 C 
HETATM    3  C2  UNL     1       0.809   1.026   0.286  1.00  0.00     0.236 C 
HETATM    4  O1  UNL     1      -0.419   1.537   0.108  1.00  0.00    -0.356 OA
HETATM    5  C3  UNL     1      -1.346   0.854  -0.612  1.00  0.00     0.214 C 
HETATM    6  C5  UNL     1      -1.448  -0.501  -0.011  1.00  0.00     0.115 A 
HETATM    7  N2  UNL     1      -2.484  -1.024   0.654  1.00  0.00    -0.352 N 
ATOM      8  H2  UNL     1      -3.363  -0.539   0.837  1.00  0.00     0.166 HD
HETATM    9  C6  UNL     1      -2.204  -2.279   1.047  1.00  0.00     0.106 A 
HETATM   10  C7  UNL     1      -0.930  -2.521   0.593  1.00  0.00     0.109 A 
HETATM   11  N3  UNL     1      -0.487  -1.426  -0.049  1.00  0.00    -0.343 N 
HETATM   12  C8  UNL     1       0.827  -1.326  -0.662  1.00  0.00     0.140 C 
HETATM   13  C9  UNL     1       1.373   0.063  -0.671  1.00  0.00     0.070 C 
ENDROOT
BRANCH  13  14
HETATM   14  C10 UNL     1       2.875  -0.070  -0.368  1.00  0.00     0.174 C 
BRANCH  14  15
HETATM   15  O3  UNL     1       3.084  -0.525   0.930  1.00  0.00    -0.400 OA
ATOM     16  H3  UNL     1       4.012  -0.607   1.117  1.00  0.00     0.209 HD
ENDBRANCH  14  15
ENDBRANCH  13  14
BRANCH   5  17
HETATM   17  C4  UNL     1      -2.672   1.562  -0.508  1.00  0.00     0.204 C 
BRANCH  17  18
HETATM   18  O2  UNL     1      -3.071   1.621   0.832  1.00  0.00    -0.398 OA
ATOM     19  H2  UNL     1      -3.907   2.067   0.898  1.00  0.00     0.209 HD
ENDBRANCH  17  18
ENDBRANCH   5  17
TORSDOF 4
