REMARK  4 active torsions:
REMARK  status: ('A' for Active; 'I' for Inactive)
REMARK    1  A    between atoms: N1_2  and  O3_4 
REMARK    2  A    between atoms: O3_4  and  C1_5 
REMARK    3  A    between atoms: C4_9  and  O5_10 
REMARK    4  A    between atoms: C5_12  and  O6_13 
ROOT
HETATM    1  C1  UNL     1       1.820   0.030   0.095  1.00  0.00     0.189 C 
HETATM    2  C2  UNL     1       1.272   0.158   1.502  1.00  0.00     0.203 C 
HETATM    3  O4  UNL     1       0.075  -0.503   1.549  1.00  0.00    -0.380 OA
HETATM    4  C3  UNL     1      -0.137  -1.143   0.351  1.00  0.00     0.159 C 
HETATM    5  C4  UNL     1      -1.552  -1.448   0.037  1.00  0.00     0.176 C 
HETATM    6  C5  UNL     1      -2.339  -0.306  -0.510  1.00  0.00     0.149 C 
HETATM    7  C6  UNL     1      -1.649   0.981  -0.113  1.00  0.00     0.035 C 
HETATM    8  C7  UNL     1      -0.300   1.081  -0.737  1.00  0.00     0.012 C 
HETATM    9  C8  UNL     1       0.505  -0.189  -0.667  1.00  0.00     0.051 C 
ENDROOT
BRANCH   1  10
HETATM   10  O3  UNL     1       2.507   1.153  -0.342  1.00  0.00    -0.213 OA
BRANCH  10  11
HETATM   11  N1  UNL     1       3.785   1.006  -0.821  1.00  0.00     0.005 N 
HETATM   12  O1  UNL     1       4.217  -0.013  -1.391  1.00  0.00    -0.511 OA
HETATM   13  O2  UNL     1       4.648   2.059  -0.660  1.00  0.00    -0.511 OA
ENDBRANCH  10  11
ENDBRANCH   1  10
BRANCH   5  14
HETATM   14  O5  UNL     1      -2.165  -1.925   1.209  1.00  0.00    -0.390 OA
ATOM     15  H5  UNL     1      -3.073  -2.121   1.008  1.00  0.00     0.210 HD
ENDBRANCH   5  14
BRANCH   6  16
HETATM   16  O6  UNL     1      -3.618  -0.355   0.024  1.00  0.00    -0.393 OA
ATOM     17  H6  UNL     1      -4.119   0.373  -0.325  1.00  0.00     0.210 HD
ENDBRANCH   6  16
TORSDOF 4
