REMARK  3 active torsions:
REMARK  status: ('A' for Active; 'I' for Inactive)
REMARK    1  A    between atoms: O1_2  and  C2_3 
REMARK    2  A    between atoms: C5_8  and  O2_9 
REMARK    3  A    between atoms: C6_11  and  N2_12 
ROOT
HETATM    1  C2  UNL     1      -1.504   0.276  -0.587  1.00  0.00     0.085 C 
HETATM    2  C3  UNL     1      -2.624  -0.067   0.042  1.00  0.00     0.117 C 
HETATM    3  N1  UNL     1      -2.678  -1.290   0.808  1.00  0.00    -0.394 N 
ATOM      4  H1  UNL     1      -3.376  -1.462   1.532  1.00  0.00     0.159 HD
HETATM    5  C4  UNL     1      -1.644  -2.260   0.454  1.00  0.00     0.153 C 
HETATM    6  C5  UNL     1      -0.320  -1.487   0.575  1.00  0.00     0.164 C 
HETATM    7  C6  UNL     1      -0.270  -0.530  -0.559  1.00  0.00     0.168 C 
ENDROOT
BRANCH   7   8
HETATM    8  N2  UNL     1       0.876   0.291  -0.674  1.00  0.00    -0.396 N 
HETATM    9  C7  UNL     1       1.128   1.248   0.330  1.00  0.00     0.144 C 
HETATM   10  C8  UNL     1       2.526   1.110   0.944  1.00  0.00     0.187 C 
HETATM   11  O3  UNL     1       2.957  -0.200   0.958  1.00  0.00    -0.388 OA
HETATM   12  C9  UNL     1       3.054  -0.776  -0.283  1.00  0.00     0.187 C 
HETATM   13  C10 UNL     1       2.021  -0.311  -1.271  1.00  0.00     0.144 C 
ENDBRANCH   7   8
BRANCH   1  14
HETATM   14  O1  UNL     1      -1.474   1.455  -1.318  1.00  0.00    -0.357 OA
HETATM   15  C1  UNL     1      -2.274   2.575  -0.988  1.00  0.00     0.209 C 
ENDBRANCH   1  14
BRANCH   6  16
HETATM   16  O2  UNL     1      -0.372  -0.880   1.828  1.00  0.00    -0.391 OA
ATOM     17  H2  UNL     1       0.446  -0.402   1.903  1.00  0.00     0.210 HD
ENDBRANCH   6  16
TORSDOF 3
