REMARK  5 active torsions:
REMARK  status: ('A' for Active; 'I' for Inactive)
REMARK    1  A    between atoms: C2_2  and  O1_3 
REMARK    2  A    between atoms: O1_3  and  C3_4 
REMARK    3  A    between atoms: C4_5  and  O2_6 
REMARK    4  A    between atoms: C5_8  and  O3_9 
REMARK    5  A    between atoms: C7_13  and  N1_14 
ROOT
HETATM    1  C3  UNL     1      -0.401   0.263   0.130  1.00  0.00     0.209 C 
HETATM    2  C4  UNL     1      -1.400  -0.715   0.740  1.00  0.00     0.182 C 
HETATM    3  C5  UNL     1      -1.474  -1.890  -0.226  1.00  0.00     0.173 C 
HETATM    4  C6  UNL     1      -0.078  -2.471  -0.325  1.00  0.00     0.205 C 
HETATM    5  O4  UNL     1       0.734  -1.495  -0.907  1.00  0.00    -0.360 OA
HETATM    6  C7  UNL     1       0.903  -0.477   0.058  1.00  0.00     0.275 C 
ENDROOT
BRANCH   6   7
HETATM    7  N1  UNL     1       2.011   0.361  -0.291  1.00  0.00    -0.272 N 
HETATM    8  C8  UNL     1       2.006   1.330  -1.219  1.00  0.00     0.114 A 
HETATM    9  C9  UNL     1       3.247   1.925  -1.282  1.00  0.00     0.037 A 
HETATM   10  C10 UNL     1       4.017   1.273  -0.345  1.00  0.00     0.108 A 
HETATM   11  N2  UNL     1       3.227   0.346   0.218  1.00  0.00    -0.308 N 
ATOM     12  H2  UNL     1       3.531  -0.294   0.952  1.00  0.00     0.186 HD
ENDBRANCH   6   7
BRANCH   1  13
HETATM   13  O1  UNL     1      -0.331   1.411   0.953  1.00  0.00    -0.351 OA
BRANCH  13  14
HETATM   14  C2  UNL     1      -1.495   2.138   1.147  1.00  0.00     0.125 C 
HETATM   15  C1  UNL     1      -2.403   2.323   0.215  1.00  0.00     0.037 C 
ENDBRANCH  13  14
ENDBRANCH   1  13
BRANCH   2  16
HETATM   16  O2  UNL     1      -0.898  -1.200   1.942  1.00  0.00    -0.390 OA
ATOM     17  H2  UNL     1      -1.520  -1.809   2.322  1.00  0.00     0.210 HD
ENDBRANCH   2  16
BRANCH   3  18
HETATM   18  O3  UNL     1      -2.398  -2.833   0.169  1.00  0.00    -0.391 OA
ATOM     19  H3  UNL     1      -2.444  -3.566  -0.434  1.00  0.00     0.210 HD
ENDBRANCH   3  18
TORSDOF 5
