REMARK  5 active torsions:
REMARK  status: ('A' for Active; 'I' for Inactive)
REMARK       I    between atoms: N1_2  and  C2_3 
REMARK    1  A    between atoms: N1_2  and  C19_32 
REMARK    2  A    between atoms: C2_3  and  C3_5 
REMARK    3  A    between atoms: N2_8  and  S1_9 
REMARK    4  A    between atoms: S1_9  and  N3_12 
REMARK    5  A    between atoms: C9_15  and  C10_16 
REMARK       I    between atoms: C10_16  and  N4_18 
ROOT
HETATM    1  S1  UNL     1       0.800   1.243   0.266  1.00  0.00     0.090 S 
HETATM    2  C6  UNL     1       0.722   2.325   1.800  1.00  0.00     0.155 C 
HETATM    3  O2  UNL     1       0.812   1.733  -1.316  1.00  0.00    -0.234 OA
ENDROOT
BRANCH   1   4
HETATM    4  N2  UNL     1      -0.954   0.901   0.149  1.00  0.00    -0.163 NA
HETATM    5  C5  UNL     1      -1.466  -0.036  -0.838  1.00  0.00     0.113 C 
HETATM    6  C4  UNL     1      -2.849  -0.531  -0.480  1.00  0.00     0.030 C 
HETATM    7  C3  UNL     1      -3.788   0.647  -0.634  1.00  0.00     0.086 C 
HETATM    8  C18 UNL     1      -2.948   1.855  -0.925  1.00  0.00     0.112 C 
HETATM    9  C17 UNL     1      -1.836   2.084   0.027  1.00  0.00     0.315 C 
HETATM   10  F1  UNL     1      -1.111   3.161  -0.473  1.00  0.00    -0.187 F 
HETATM   11  F2  UNL     1      -2.371   2.351   1.272  1.00  0.00    -0.187 F 
BRANCH   7  12
HETATM   12  C2  UNL     1      -4.719   0.461  -1.793  1.00  0.00     0.224 C 
HETATM   13  N1  UNL     1      -5.987  -0.143  -1.745  1.00  0.00    -0.351 N 
HETATM   14  C1  UNL     1      -6.682  -0.275  -3.052  1.00  0.00     0.153 C 
HETATM   15  O1  UNL     1      -4.330   0.887  -2.951  1.00  0.00    -0.273 OA
BRANCH  13  16
HETATM   16  C19 UNL     1      -6.712  -0.604  -0.622  1.00  0.00     0.086 C 
HETATM   17  C20 UNL     1      -7.170   0.480   0.338  1.00  0.00     0.025 C 
HETATM   18  C21 UNL     1      -7.300  -0.053   1.747  1.00  0.00     0.002 C 
HETATM   19  C22 UNL     1      -8.012  -1.390   1.725  1.00  0.00     0.000 C 
HETATM   20  C23 UNL     1      -7.186  -2.430   0.995  1.00  0.00     0.002 C 
HETATM   21  C24 UNL     1      -6.083  -1.682   0.211  1.00  0.00     0.025 C 
ENDBRANCH  13  16
ENDBRANCH   7  12
ENDBRANCH   1   4
BRANCH   1  22
HETATM   22  N3  UNL     1       2.474   0.879   0.225  1.00  0.00    -0.331 N 
HETATM   23  C7  UNL     1       3.215   0.740   1.437  1.00  0.00     0.134 C 
HETATM   24  C8  UNL     1       4.082  -0.491   1.425  1.00  0.00     0.034 C 
HETATM   25  C9  UNL     1       5.162  -0.355   0.395  1.00  0.00     0.081 C 
HETATM   26  C15 UNL     1       4.542   0.216  -0.875  1.00  0.00     0.034 C 
HETATM   27  C16 UNL     1       3.076  -0.003  -0.791  1.00  0.00     0.134 C 
BRANCH  25  28
HETATM   28  C10 UNL     1       6.275   0.460   0.905  1.00  0.00     0.227 C 
HETATM   29  O3  UNL     1       6.196   0.923   2.074  1.00  0.00    -0.273 OA
HETATM   30  N4  UNL     1       7.445   0.774   0.182  1.00  0.00    -0.317 N 
HETATM   31  C11 UNL     1       8.473   0.019   0.111  1.00  0.00     0.079 C 
ATOM     32  H4  UNL     1       7.472   1.663  -0.317  1.00  0.00     0.170 HD
HETATM   33  C12 UNL     1       9.747   0.233  -0.607  1.00  0.00     0.078 C 
HETATM   34  N5  UNL     1       8.586  -1.247   0.749  1.00  0.00    -0.380 N 
HETATM   35  C13 UNL     1      10.691  -0.849  -0.109  1.00  0.00     0.027 C 
HETATM   36  C14 UNL     1       9.713  -1.974   0.201  1.00  0.00     0.121 C 
ATOM     37  H5  UNL     1       7.966  -1.592   1.482  1.00  0.00     0.160 HD
ENDBRANCH  25  28
ENDBRANCH   1  22
TORSDOF 5
