REMARK  5 active torsions:
REMARK  status: ('A' for Active; 'I' for Inactive)
REMARK    1  A    between atoms: C2_2  and  C3_3 
REMARK       I    between atoms: C3_3  and  N1_5 
REMARK    2  A    between atoms: C7_10  and  C8_11 
REMARK       I    between atoms: C8_11  and  N2_13 
REMARK    3  A    between atoms: N2_13  and  N3_15 
REMARK       I    between atoms: N4_23  and  C15_24 
REMARK    4  A    between atoms: C15_24  and  C16_26 
REMARK    5  A    between atoms: C16_26  and  C17_27 
ROOT
HETATM    1  C1  UNL     1      -0.592  -2.757  -0.490  1.00  0.00     0.049 C 
HETATM    2  C2  UNL     1      -0.157  -1.313  -0.374  1.00  0.00     0.114 C 
HETATM    3  C13 UNL     1      -0.200  -0.501  -1.626  1.00  0.00     0.061 C 
HETATM    4  C14 UNL     1      -0.522   0.621  -0.631  1.00  0.00     0.130 C 
HETATM    5  N4  UNL     1      -1.114  -0.429   0.213  1.00  0.00    -0.334 N 
HETATM    6  C15 UNL     1      -2.158  -0.422   1.144  1.00  0.00     0.221 C 
HETATM    7  O4  UNL     1      -2.497  -1.471   1.773  1.00  0.00    -0.273 OA
ENDROOT
BRANCH   2   8
HETATM    8  C3  UNL     1       1.215  -1.276   0.230  1.00  0.00     0.249 C 
HETATM    9  O1  UNL     1       1.298  -0.745   1.363  1.00  0.00    -0.271 OA
HETATM   10  N1  UNL     1       2.324  -1.804  -0.442  1.00  0.00    -0.334 N 
HETATM   11  C4  UNL     1       2.426  -2.406  -1.750  1.00  0.00     0.164 C 
HETATM   12  C7  UNL     1       3.676  -1.843   0.124  1.00  0.00     0.183 C 
HETATM   13  C5  UNL     1       3.451  -3.496  -1.547  1.00  0.00     0.190 C 
HETATM   14  F1  UNL     1       2.949  -4.579  -0.865  1.00  0.00    -0.248 F 
HETATM   15  C6  UNL     1       4.477  -2.806  -0.678  1.00  0.00     0.074 C 
BRANCH  12  16
HETATM   16  C8  UNL     1       4.263  -0.488   0.233  1.00  0.00     0.255 C 
HETATM   17  O2  UNL     1       3.557   0.496  -0.044  1.00  0.00    -0.270 OA
HETATM   18  N2  UNL     1       5.596  -0.315   0.641  1.00  0.00    -0.287 N 
ATOM     19  H2  UNL     1       6.158  -1.137   0.864  1.00  0.00     0.184 HD
BRANCH  18  20
HETATM   20  N3  UNL     1       6.162   0.931   0.748  1.00  0.00    -0.225 NA
HETATM   21  C9  UNL     1       6.293   1.668  -0.480  1.00  0.00     0.140 C 
HETATM   22  C10 UNL     1       6.863   3.042  -0.103  1.00  0.00     0.183 C 
HETATM   23  O3  UNL     1       8.173   2.922   0.337  1.00  0.00    -0.389 OA
HETATM   24  C11 UNL     1       8.506   1.601   0.626  1.00  0.00     0.183 C 
HETATM   25  C12 UNL     1       7.452   0.894   1.426  1.00  0.00     0.140 C 
ENDBRANCH  18  20
ENDBRANCH  12  16
ENDBRANCH   2   8
BRANCH   6  26
HETATM   26  C16 UNL     1      -2.949   0.797   1.474  1.00  0.00     0.112 C 
BRANCH  26  27
HETATM   27  C17 UNL     1      -4.323   0.803   0.863  1.00  0.00    -0.029 C 
HETATM   28  C18 UNL     1      -4.992   2.091   1.286  1.00  0.00     0.014 C 
HETATM   29  C19 UNL     1      -6.382   2.240   0.754  1.00  0.00    -0.010 C 
HETATM   30  C20 UNL     1      -6.328   2.170  -0.763  1.00  0.00     0.009 C 
HETATM   31  C24 UNL     1      -7.214   1.104   1.309  1.00  0.00     0.048 C 
HETATM   32  C21 UNL     1      -5.703   0.877  -1.173  1.00  0.00    -0.010 C 
HETATM   33  C22 UNL     1      -6.575  -0.255  -0.666  1.00  0.00     0.048 C 
HETATM   34  C26 UNL     1      -4.300   0.750  -0.648  1.00  0.00     0.014 C 
HETATM   35  C23 UNL     1      -6.584  -0.184   0.850  1.00  0.00     0.105 C 
HETATM   36  F2  UNL     1      -7.290  -1.294   1.284  1.00  0.00    -0.243 F 
HETATM   37  C25 UNL     1      -5.173  -0.341   1.360  1.00  0.00     0.053 C 
ENDBRANCH  26  27
ENDBRANCH   6  26
TORSDOF 5
