REMARK  5 active torsions:
REMARK  status: ('A' for Active; 'I' for Inactive)
REMARK    1  A    between atoms: N2_15  and  C13_16 
REMARK    2  A    between atoms: C13_16  and  C14_17 
REMARK    3  A    between atoms: C16_21  and  C17_22 
REMARK    4  A    between atoms: C17_22  and  C18_23 
REMARK    5  A    between atoms: C18_23  and  C19_24 
REMARK       I    between atoms: C19_24  and  N3_26 
ROOT
HETATM    1  C1  UNL     1      -3.463   4.804   0.595  1.00  0.00     0.152 C 
HETATM    2  N1  UNL     1      -2.683   3.667   0.147  1.00  0.00    -0.356 N 
HETATM    3  C2  UNL     1      -3.278   2.628  -0.665  1.00  0.00     0.125 C 
HETATM    4  C3  UNL     1      -4.770   2.750  -0.767  1.00  0.00     0.020 C 
HETATM    5  C4  UNL     1      -5.428   1.743   0.124  1.00  0.00     0.002 C 
HETATM    6  C5  UNL     1      -6.143   0.653  -0.628  1.00  0.00     0.000 C 
HETATM    7  C6  UNL     1      -5.272  -0.046  -1.631  1.00  0.00     0.000 C 
HETATM    8  C7  UNL     1      -4.410  -1.093  -0.978  1.00  0.00     0.000 C 
HETATM    9  C8  UNL     1      -3.148  -1.348  -1.772  1.00  0.00     0.000 C 
HETATM   10  C9  UNL     1      -2.562  -2.689  -1.374  1.00  0.00     0.000 C 
HETATM   11  C10 UNL     1      -1.063  -2.572  -1.219  1.00  0.00     0.009 C 
HETATM   12  C11 UNL     1      -0.648  -3.444  -0.059  1.00  0.00     0.103 C 
HETATM   13  C12 UNL     1       0.793  -3.696   0.005  1.00  0.00     0.220 C 
HETATM   14  O1  UNL     1       1.325  -4.261  -1.003  1.00  0.00    -0.273 OA
HETATM   15  N2  UNL     1       1.653  -3.369   1.089  1.00  0.00    -0.346 N 
HETATM   16  C15 UNL     1       1.396  -2.193   1.899  1.00  0.00     0.140 C 
HETATM   17  C16 UNL     1       1.899  -0.921   1.258  1.00  0.00     0.096 C 
HETATM   18  C23 UNL     1       1.564   0.196   2.144  1.00  0.00     0.223 C 
HETATM   19  O3  UNL     1       1.978   0.150   3.352  1.00  0.00    -0.273 OA
HETATM   20  N4  UNL     1       0.808   1.343   1.774  1.00  0.00    -0.360 N 
ATOM     21  H4  UNL     1       1.091   2.249   2.148  1.00  0.00     0.162 HD
HETATM   22  C24 UNL     1      -0.345   1.294   0.893  1.00  0.00     0.132 C 
HETATM   23  C25 UNL     1      -0.414   2.495  -0.014  1.00  0.00     0.122 C 
HETATM   24  C26 UNL     1      -1.313   3.543   0.495  1.00  0.00     0.221 C 
HETATM   25  O4  UNL     1      -0.832   4.391   1.298  1.00  0.00    -0.273 OA
ENDROOT
BRANCH  17  26
HETATM   26  C17 UNL     1       3.378  -1.012   0.963  1.00  0.00     0.025 C 
BRANCH  26  27
HETATM   27  C18 UNL     1       3.842   0.269   0.327  1.00  0.00     0.104 C 
BRANCH  27  28
HETATM   28  C19 UNL     1       5.288   0.160   0.047  1.00  0.00     0.219 C 
HETATM   29  O2  UNL     1       5.893  -0.888   0.347  1.00  0.00    -0.273 OA
HETATM   30  N3  UNL     1       6.018   1.214  -0.556  1.00  0.00    -0.352 N 
HETATM   31  C20 UNL     1       7.368   1.505  -0.980  1.00  0.00     0.127 C 
HETATM   32  C22 UNL     1       5.646   2.532  -1.021  1.00  0.00     0.127 C 
HETATM   33  C21 UNL     1       6.852   2.566  -1.909  1.00  0.00     0.040 C 
ENDBRANCH  27  28
ENDBRANCH  26  27
ENDBRANCH  17  26
BRANCH  15  34
HETATM   34  C13 UNL     1       2.807  -4.180   1.431  1.00  0.00     0.196 C 
BRANCH  34  35
HETATM   35  C14 UNL     1       2.452  -5.261   2.428  1.00  0.00     0.370 C 
HETATM   36  F1  UNL     1       1.472  -6.099   1.883  1.00  0.00    -0.213 F 
HETATM   37  F2  UNL     1       2.056  -4.746   3.646  1.00  0.00    -0.213 F 
ENDBRANCH  34  35
ENDBRANCH  15  34
TORSDOF 5
