REMARK  9 active torsions:
REMARK  status: ('A' for Active; 'I' for Inactive)
REMARK    1  A    between atoms: C2_2  and  C3_3 
REMARK    2  A    between atoms: C2_2  and  C6_6 
REMARK    3  A    between atoms: C9_9  and  C10_10 
REMARK    4  A    between atoms: C10_10  and  O1_11 
REMARK    5  A    between atoms: C10_10  and  C11_13 
REMARK    6  A    between atoms: C11_13  and  C12_14 
REMARK    7  A    between atoms: C12_14  and  C13_15 
REMARK    8  A    between atoms: C13_15  and  O2_18 
REMARK    9  A    between atoms: C18_25  and  O4_26 
ROOT
HETATM    1  C6  UNL     1      -2.388  -0.214   0.529  1.00  0.00    -0.021 C 
HETATM    2  C7  UNL     1      -1.067   0.239   0.990  1.00  0.00    -0.012 C 
HETATM    3  C8  UNL     1      -0.073   0.852   0.126  1.00  0.00     0.055 C 
HETATM    4  C9  UNL     1       1.004  -0.085  -0.437  1.00  0.00     0.113 C 
HETATM    5  N1  UNL     1       0.597  -0.262  -1.845  1.00  0.00    -0.389 N 
ATOM      6  H1  UNL     1       1.237   0.098  -2.553  1.00  0.00     0.159 HD
HETATM    7  C16 UNL     1      -0.497  -0.832  -2.282  1.00  0.00     0.122 C 
HETATM    8  C17 UNL     1      -1.665  -1.473  -1.690  1.00  0.00     0.104 A 
HETATM    9  O3  UNL     1      -2.158  -2.541  -2.327  1.00  0.00    -0.286 OA
HETATM   10  C18 UNL     1      -3.182  -2.997  -1.678  1.00  0.00     0.184 A 
HETATM   11  C19 UNL     1      -3.375  -2.197  -0.566  1.00  0.00     0.079 A 
HETATM   12  C20 UNL     1      -2.410  -1.212  -0.562  1.00  0.00     0.014 A 
ENDROOT
BRANCH   4  13
HETATM   13  C10 UNL     1       2.382   0.600  -0.427  1.00  0.00     0.141 C 
BRANCH  13  14
HETATM   14  O1  UNL     1       2.654   0.710   0.961  1.00  0.00    -0.394 OA
ATOM     15  H1  UNL     1       3.505   1.133   0.967  1.00  0.00     0.210 HD
ENDBRANCH  13  14
BRANCH  13  16
HETATM   16  C11 UNL     1       3.309  -0.357  -1.116  1.00  0.00     0.036 C 
BRANCH  16  17
HETATM   17  C12 UNL     1       4.703   0.007  -1.306  1.00  0.00     0.039 C 
BRANCH  17  18
HETATM   18  C13 UNL     1       5.634   0.326  -0.240  1.00  0.00     0.051 C 
HETATM   19  C14 UNL     1       5.872  -0.705   0.813  1.00  0.00     0.045 C 
HETATM   20  C15 UNL     1       5.492   1.693   0.359  1.00  0.00     0.045 C 
BRANCH  18  21
HETATM   21  O2  UNL     1       6.926   0.400  -0.906  1.00  0.00    -0.391 OA
ATOM     22  H2  UNL     1       7.536   0.609  -0.208  1.00  0.00     0.210 HD
ENDBRANCH  18  21
ENDBRANCH  17  18
ENDBRANCH  16  17
ENDBRANCH  13  16
ENDBRANCH   4  13
BRANCH   1  23
HETATM   23  C2  UNL     1      -3.465   0.802   0.455  1.00  0.00    -0.053 C 
HETATM   24  C1  UNL     1      -3.228   2.095   0.280  1.00  0.00     0.020 C 
BRANCH  23  25
HETATM   25  C3  UNL     1      -4.908   0.447   0.557  1.00  0.00     0.010 C 
HETATM   26  C4  UNL     1      -5.198  -0.192   1.915  1.00  0.00     0.015 C 
HETATM   27  C5  UNL     1      -5.809   1.649   0.370  1.00  0.00     0.015 C 
ENDBRANCH  23  25
ENDBRANCH   1  23
BRANCH  10  28
HETATM   28  O4  UNL     1      -3.992  -4.103  -1.996  1.00  0.00    -0.341 OA
ATOM     29  H4  UNL     1      -4.743  -4.437  -1.520  1.00  0.00     0.220 HD
ENDBRANCH  10  28
TORSDOF 9
