REMARK  8 active torsions:
REMARK  status: ('A' for Active; 'I' for Inactive)
REMARK    1  A    between atoms: C8_8  and  N1_9 
REMARK    2  A    between atoms: N1_9  and  C9_10 
REMARK    3  A    between atoms: N1_9  and  C16_25 
REMARK    4  A    between atoms: C9_10  and  C10_11 
REMARK    5  A    between atoms: C9_10  and  C15_18 
REMARK    6  A    between atoms: C10_11  and  C11_12 
REMARK    7  A    between atoms: C15_18  and  O2_19 
REMARK    8  A    between atoms: N3_21  and  O3_23 
ROOT
HETATM    1  C9  UNL     1       0.988  -0.543  -0.079  1.00  0.00     0.167 C 
ENDROOT
BRANCH   1   2
HETATM    2  N1  UNL     1      -0.351  -0.863   0.044  1.00  0.00    -0.366 N 
BRANCH   2   3
HETATM    3  C8  UNL     1      -1.455  -0.046  -0.063  1.00  0.00    -0.006 C 
HETATM    4  C2  UNL     1      -1.820   1.064   0.821  1.00  0.00    -0.009 C 
HETATM    5  C1  UNL     1      -1.580   2.469   0.316  1.00  0.00     0.021 C 
HETATM    6  C3  UNL     1      -1.451   1.023   2.255  1.00  0.00     0.021 C 
HETATM    7  C4  UNL     1      -3.390   1.068   0.864  1.00  0.00     0.015 C 
HETATM    8  C5  UNL     1      -3.979   1.224  -0.482  1.00  0.00     0.001 C 
HETATM    9  C6  UNL     1      -3.257   0.653  -1.631  1.00  0.00     0.006 C 
HETATM   10  C7  UNL     1      -1.757   0.499  -1.474  1.00  0.00     0.053 C 
ENDBRANCH   2   3
BRANCH   2  11
HETATM   11  C16 UNL     1      -0.633  -2.285   0.127  1.00  0.00     0.022 C 
HETATM   12  C17 UNL     1      -1.464  -2.654   1.345  1.00  0.00     0.037 C 
HETATM   13  C18 UNL     1      -1.385  -2.837  -1.056  1.00  0.00     0.037 C 
HETATM   14  C19 UNL     1       0.586  -3.173   0.246  1.00  0.00     0.037 C 
ENDBRANCH   2  11
ENDBRANCH   1   2
BRANCH   1  15
HETATM   15  C10 UNL     1       1.642   0.402   0.881  1.00  0.00     0.099 C 
BRANCH  15  16
HETATM   16  C11 UNL     1       3.110   0.565   0.660  1.00  0.00     0.057 A 
HETATM   17  C12 UNL     1       3.989  -0.084  -0.159  1.00  0.00     0.036 A 
HETATM   18  C13 UNL     1       5.213   0.475   0.043  1.00  0.00     0.055 A 
HETATM   19  C14 UNL     1       5.028   1.470   1.006  1.00  0.00     0.157 A 
HETATM   20  N2  UNL     1       6.028   2.324   1.537  1.00  0.00    -0.075 NA
HETATM   21  O1  UNL     1       3.784   1.477   1.328  1.00  0.00    -0.300 OA
ENDBRANCH  15  16
ENDBRANCH   1  15
BRANCH   1  22
HETATM   22  C15 UNL     1       1.328  -0.073  -1.496  1.00  0.00     0.159 C 
HETATM   23  N3  UNL     1       1.612   1.149  -1.685  1.00  0.00    -0.249 N 
ATOM     24  H3  UNL     1       1.603   1.774  -0.879  1.00  0.00     0.196 HD
BRANCH  22  25
HETATM   25  O2  UNL     1       1.342  -0.906  -2.584  1.00  0.00    -0.347 OA
ATOM     26  H2  UNL     1       1.553  -0.614  -3.463  1.00  0.00     0.219 HD
ENDBRANCH  22  25
BRANCH  23  27
HETATM   27  O3  UNL     1       1.926   1.672  -2.892  1.00  0.00    -0.288 OA
ATOM     28  H3  UNL     1       2.139   2.587  -3.034  1.00  0.00     0.244 HD
ENDBRANCH  23  27
ENDBRANCH   1  22
TORSDOF 8
