REMARK  12 active torsions:
REMARK  status: ('A' for Active; 'I' for Inactive)
REMARK    1  A    between atoms: N1_1  and  C1_4 
REMARK    2  A    between atoms: C2_7  and  N3_8 
REMARK    3  A    between atoms: C9_19  and  N5_20 
REMARK    4  A    between atoms: C11_22  and  C12_23 
REMARK    5  A    between atoms: C12_23  and  N6_24 
REMARK    6  A    between atoms: N6_24  and  C13_26 
REMARK    7  A    between atoms: C13_26  and  C14_27 
REMARK    8  A    between atoms: C16_29  and  C17_30 
REMARK    9  A    between atoms: C16_29  and  C18_33 
REMARK   10  A    between atoms: C17_30  and  O1_31 
REMARK   11  A    between atoms: C18_33  and  O2_34 
REMARK   12  A    between atoms: C19_37  and  C20_38 
ROOT
HETATM    1  N5  UNL     1       1.224   0.885  -0.496  1.00  0.00    -0.257 N 
HETATM    2  C10 UNL     1       0.383   1.338   0.441  1.00  0.00     0.149 A 
HETATM    3  C11 UNL     1      -0.414   0.228   0.291  1.00  0.00     0.081 A 
HETATM    4  N8  UNL     1       0.449  -0.176  -0.628  1.00  0.00    -0.291 N 
ATOM      5  H8  UNL     1       0.498  -1.004  -1.221  1.00  0.00     0.187 HD
ENDROOT
BRANCH   3   6
HETATM    6  C12 UNL     1      -1.703  -0.336   0.875  1.00  0.00     0.119 C 
BRANCH   6   7
HETATM    7  N6  UNL     1      -2.578   0.684   1.207  1.00  0.00    -0.376 N 
ATOM      8  H6  UNL     1      -2.301   1.622   0.918  1.00  0.00     0.164 HD
BRANCH   7   9
HETATM    9  C13 UNL     1      -3.771   0.589   1.876  1.00  0.00     0.068 C 
BRANCH   9  10
HETATM   10  C14 UNL     1      -4.926  -0.100   1.250  1.00  0.00     0.064 C 
HETATM   11  C15 UNL     1      -4.805  -1.540   0.962  1.00  0.00     0.055 C 
HETATM   12  C16 UNL     1      -5.588  -1.720  -0.315  1.00  0.00     0.105 C 
HETATM   13  O3  UNL     1      -5.773  -0.490  -0.883  1.00  0.00    -0.362 OA
HETATM   14  C19 UNL     1      -5.191   0.490  -0.134  1.00  0.00     0.206 C 
BRANCH  12  15
HETATM   15  C17 UNL     1      -6.995  -2.198   0.100  1.00  0.00     0.204 C 
BRANCH  15  16
HETATM   16  O1  UNL     1      -7.786  -2.259  -1.028  1.00  0.00    -0.398 OA
ATOM     17  H1  UNL     1      -8.652  -2.553  -0.772  1.00  0.00     0.209 HD
ENDBRANCH  15  16
ENDBRANCH  12  15
BRANCH  12  18
HETATM   18  C18 UNL     1      -5.063  -2.785  -1.224  1.00  0.00     0.204 C 
BRANCH  18  19
HETATM   19  O2  UNL     1      -3.839  -2.413  -1.748  1.00  0.00    -0.398 OA
ATOM     20  H2  UNL     1      -3.505  -3.090  -2.325  1.00  0.00     0.209 HD
ENDBRANCH  18  19
ENDBRANCH  12  18
BRANCH  14  21
HETATM   21  C20 UNL     1      -6.140   1.615   0.034  1.00  0.00     0.153 A 
HETATM   22  N7  UNL     1      -7.441   1.498   0.335  1.00  0.00    -0.346 N 
HETATM   23  C21 UNL     1      -8.009   2.699   0.413  1.00  0.00     0.114 A 
ATOM     24  H7  UNL     1      -7.927   0.614   0.483  1.00  0.00     0.167 HD
HETATM   25  C22 UNL     1      -6.997   3.604   0.143  1.00  0.00     0.161 A 
HETATM   26  O4  UNL     1      -5.909   2.906  -0.074  1.00  0.00    -0.306 OA
ENDBRANCH  14  21
ENDBRANCH   9  10
ENDBRANCH   7   9
ENDBRANCH   6   7
ENDBRANCH   3   6
BRANCH   1  27
HETATM   27  C9  UNL     1       2.427   1.397  -1.058  1.00  0.00     0.114 A 
HETATM   28  S1  UNL     1       2.645   2.694  -2.168  1.00  0.00    -0.055 SA
HETATM   29  C8  UNL     1       4.330   2.646  -2.319  1.00  0.00     0.105 A 
HETATM   30  C7  UNL     1       4.700   1.610  -1.493  1.00  0.00     0.094 A 
HETATM   31 CL1  UNL     1       5.350   3.700  -3.316  1.00  0.00    -0.074 Cl
HETATM   32  N4  UNL     1       6.013   1.224  -1.321  1.00  0.00    -0.188 N 
HETATM   33  C23 UNL     1       3.724   0.969  -0.846  1.00  0.00     0.073 A 
HETATM   34  C2  UNL     1       6.386   0.218  -0.523  1.00  0.00     0.682 A 
ATOM     35  H4  UNL     1       6.737   1.732  -1.829  1.00  0.00     0.184 HD
HETATM   36  N2  UNL     1       5.400  -0.442   0.141  1.00  0.00    -0.176 N 
HETATM   37  C1  UNL     1       4.113  -0.094  -0.002  1.00  0.00     0.130 A 
ATOM     38  H2  UNL     1       5.644  -1.216   0.759  1.00  0.00     0.186 HD
BRANCH  34  39
HETATM   39  N3  UNL     1       7.739  -0.166  -0.361  1.00  0.00    -0.218 N 
HETATM   40  C3  UNL     1       8.874   0.451  -1.004  1.00  0.00     0.141 C 
HETATM   41  C4  UNL     1       9.829   0.597   0.182  1.00  0.00     0.022 C 
HETATM   42  C5  UNL     1       9.673  -0.785   0.823  1.00  0.00     0.022 C 
HETATM   43  C6  UNL     1       8.271  -1.226   0.456  1.00  0.00     0.141 C 
ENDBRANCH  34  39
BRANCH  37  44
HETATM   44  N1  UNL     1       3.225  -0.760   0.659  1.00  0.00    -0.384 N 
ATOM     45  H12 UNL     1       3.506  -1.528   1.269  1.00  0.00     0.157 HD
ATOM     46  H11 UNL     1       2.246  -0.495   0.550  1.00  0.00     0.157 HD
ENDBRANCH  37  44
ENDBRANCH   1  27
TORSDOF 12
