REMARK  15 active torsions:
REMARK  status: ('A' for Active; 'I' for Inactive)
REMARK    1  A    between atoms: C3_5  and  C4_6 
REMARK    2  A    between atoms: C6_9  and  O2_10 
REMARK    3  A    between atoms: C7_12  and  C8_13 
REMARK    4  A    between atoms: C8_13  and  O3_14 
REMARK    5  A    between atoms: O3_14  and  C9_15 
REMARK    6  A    between atoms: C9_15  and  O5_17 
REMARK    7  A    between atoms: O5_17  and  C10_18 
REMARK    8  A    between atoms: C11_19  and  C12_20 
REMARK    9  A    between atoms: C12_20  and  C17_28 
REMARK   10  A    between atoms: C13_21  and  C14_22 
REMARK       I    between atoms: N2_23  and  C15_25 
REMARK   11  A    between atoms: C19_31  and  O7_32 
REMARK   12  A    between atoms: C20_34  and  O8_35 
REMARK   13  A    between atoms: C21_37  and  O9_38 
REMARK   14  A    between atoms: C22_40  and  O10_41 
REMARK   15  A    between atoms: C24_43  and  O11_44 
ROOT
HETATM    1  C12 UNL     1      -2.580   2.585   1.168  1.00  0.00    -0.018 C 
HETATM    2  C13 UNL     1      -3.703   3.159   1.644  1.00  0.00     0.029 C 
ENDROOT
BRANCH   1   3
HETATM    3  C11 UNL     1      -1.850   3.237   0.136  1.00  0.00     0.037 C 
HETATM    4  C10 UNL     1      -0.805   2.814  -0.506  1.00  0.00     0.149 C 
BRANCH   4   5
HETATM    5  O5  UNL     1      -0.093   1.662  -0.429  1.00  0.00    -0.268 OA
BRANCH   5   6
HETATM    6  C9  UNL     1       1.058   1.412  -1.118  1.00  0.00     0.411 C 
HETATM    7  O4  UNL     1       1.494   2.329  -1.879  1.00  0.00    -0.229 OA
BRANCH   6   8
HETATM    8  O3  UNL     1       1.778   0.227  -1.040  1.00  0.00    -0.293 OA
BRANCH   8   9
HETATM    9  C8  UNL     1       2.959   0.143  -1.810  1.00  0.00     0.225 C 
BRANCH   9  10
HETATM   10  C7  UNL     1       3.634  -1.159  -1.684  1.00  0.00     0.037 A 
HETATM   11  C6  UNL     1       4.883  -1.314  -2.444  1.00  0.00     0.107 A 
HETATM   12  C3  UNL     1       5.610  -2.416  -2.425  1.00  0.00     0.113 A 
HETATM   13  N1  UNL     1       5.165  -3.512  -1.631  1.00  0.00    -0.349 N 
HETATM   14  C2  UNL     1       3.956  -3.408  -0.876  1.00  0.00     0.057 A 
ATOM     15  H1  UNL     1       5.711  -4.373  -1.601  1.00  0.00     0.166 HD
HETATM   16  C1  UNL     1       3.494  -4.382  -0.134  1.00  0.00     0.046 C 
HETATM   17  C24 UNL     1       3.196  -2.150  -0.943  1.00  0.00     0.102 A 
BRANCH  11  18
HETATM   18  O2  UNL     1       5.364  -0.259  -3.244  1.00  0.00    -0.358 OA
ATOM     19  H2  UNL     1       4.841   0.534  -3.258  1.00  0.00     0.217 HD
ENDBRANCH  11  18
BRANCH  12  20
HETATM   20  C4  UNL     1       6.863  -2.512  -3.207  1.00  0.00     0.174 C 
HETATM   21  C5  UNL     1       7.717  -3.694  -3.230  1.00  0.00     0.098 C 
HETATM   22  O1  UNL     1       7.209  -1.512  -3.893  1.00  0.00    -0.291 OA
ENDBRANCH  12  20
BRANCH  17  23
HETATM   23  O11 UNL     1       2.013  -1.994  -0.230  1.00  0.00    -0.358 OA
ATOM     24  H11 UNL     1       1.522  -1.182  -0.273  1.00  0.00     0.217 HD
ENDBRANCH  17  23
ENDBRANCH   9  10
ENDBRANCH   8   9
ENDBRANCH   6   8
ENDBRANCH   5   6
ENDBRANCH   4   5
ENDBRANCH   1   3
BRANCH   1  25
HETATM   25  C17 UNL     1      -2.221   1.291   1.729  1.00  0.00     0.035 A 
HETATM   26  C18 UNL     1      -1.029   0.972   2.304  1.00  0.00     0.084 A 
HETATM   27 CL1  UNL     1       0.132   2.246   2.769  1.00  0.00    -0.080 Cl
HETATM   28  C19 UNL     1      -0.712  -0.319   2.690  1.00  0.00     0.124 A 
HETATM   29  C20 UNL     1      -1.661  -1.323   2.480  1.00  0.00     0.137 A 
HETATM   30  C21 UNL     1      -2.852  -0.993   1.909  1.00  0.00     0.136 A 
HETATM   31  C22 UNL     1      -3.185   0.295   1.515  1.00  0.00     0.117 A 
BRANCH  28  32
HETATM   32  O7  UNL     1       0.505  -0.639   3.271  1.00  0.00    -0.356 OA
ATOM     33  H7  UNL     1       0.723  -1.525   3.536  1.00  0.00     0.218 HD
ENDBRANCH  28  32
BRANCH  29  34
HETATM   34  O8  UNL     1      -1.340  -2.610   2.866  1.00  0.00    -0.356 OA
ATOM     35  H8  UNL     1      -1.985  -3.293   2.723  1.00  0.00     0.218 HD
ENDBRANCH  29  34
BRANCH  30  36
HETATM   36  O9  UNL     1      -3.840  -1.968   1.680  1.00  0.00    -0.356 OA
ATOM     37  H9  UNL     1      -4.671  -1.738   1.282  1.00  0.00     0.218 HD
ENDBRANCH  30  36
BRANCH  31  38
HETATM   38  O10 UNL     1      -4.398   0.573   0.949  1.00  0.00    -0.352 OA
HETATM   39  C23 UNL     1      -4.733   0.529  -0.418  1.00  0.00     0.210 C 
ENDBRANCH  31  38
ENDBRANCH   1  25
BRANCH   2  40
HETATM   40  C14 UNL     1      -4.242   4.393   1.194  1.00  0.00     0.092 C 
HETATM   41  N2  UNL     1      -5.348   4.832   1.766  1.00  0.00    -0.337 N 
HETATM   42  C15 UNL     1      -6.006   4.136   2.790  1.00  0.00     0.217 C 
ATOM     43  H2  UNL     1      -5.742   5.718   1.449  1.00  0.00     0.168 HD
HETATM   44  C16 UNL     1      -7.230   3.327   2.573  1.00  0.00     0.117 C 
HETATM   45  O6  UNL     1      -5.547   4.185   3.983  1.00  0.00    -0.274 OA
ENDBRANCH   2  40
TORSDOF 15
