REMARK  12 active torsions:
REMARK  status: ('A' for Active; 'I' for Inactive)
REMARK    1  A    between atoms: C2_3  and  O2_5 
REMARK    2  A    between atoms: O2_5  and  C3_6 
REMARK    3  A    between atoms: C4_7  and  N2_8 
REMARK    4  A    between atoms: N2_8  and  C5_10 
REMARK    5  A    between atoms: C12_22  and  O4_23 
REMARK    6  A    between atoms: C14_27  and  C15_28 
REMARK    7  A    between atoms: C16_29  and  C17_30 
REMARK    8  A    between atoms: C17_30  and  C18_32 
REMARK    9  A    between atoms: C18_32  and  C19_33 
REMARK   10  A    between atoms: N5_34  and  N6_36 
REMARK   11  A    between atoms: N6_36  and  C20_38 
REMARK   12  A    between atoms: C21_41  and  O6_42 
ROOT
HETATM    1  C1  UNL     1      -1.784  -5.823  -1.326  1.00  0.00     0.235 C 
HETATM    2  N1  UNL     1      -1.239  -4.607  -1.101  1.00  0.00    -0.370 NA
HETATM    3  C2  UNL     1      -0.695  -3.392  -0.877  1.00  0.00     0.444 C 
HETATM    4  O1  UNL     1       0.034  -2.670  -1.606  1.00  0.00    -0.221 OA
ENDROOT
BRANCH   3   5
HETATM    5  O2  UNL     1      -0.948  -2.740   0.388  1.00  0.00    -0.245 OA
BRANCH   5   6
HETATM    6  C3  UNL     1      -0.437  -1.493   0.672  1.00  0.00     0.145 A 
HETATM    7  C4  UNL     1      -1.328  -0.427   0.820  1.00  0.00     0.106 A 
HETATM    8  C12 UNL     1      -0.844   0.816   1.107  1.00  0.00     0.118 A 
HETATM    9  C13 UNL     1       0.551   0.998   1.246  1.00  0.00     0.082 A 
HETATM   10 CL1  UNL     1       1.025   2.658   1.571  1.00  0.00    -0.080 Cl
HETATM   11  C14 UNL     1       1.451  -0.005   1.109  1.00  0.00     0.025 A 
HETATM   12  C21 UNL     1       0.902  -1.265   0.816  1.00  0.00     0.116 A 
BRANCH   7  13
HETATM   13  N2  UNL     1      -2.684  -0.703   0.661  1.00  0.00    -0.333 N 
ATOM     14  H2  UNL     1      -2.961  -1.684   0.626  1.00  0.00     0.168 HD
BRANCH  13  15
HETATM   15  C5  UNL     1      -3.729   0.286   0.542  1.00  0.00     0.173 A 
HETATM   16  N3  UNL     1      -3.946   1.048  -0.475  1.00  0.00    -0.345 N 
HETATM   17  C6  UNL     1      -5.053   1.923  -0.280  1.00  0.00     0.107 A 
ATOM     18  H3  UNL     1      -3.386   1.027  -1.327  1.00  0.00     0.163 HD
HETATM   19  C7  UNL     1      -4.661   3.392  -0.353  1.00  0.00     0.054 C 
HETATM   20  C10 UNL     1      -6.071   1.845  -1.397  1.00  0.00     0.054 C 
HETATM   21  N4  UNL     1      -5.576   1.589   1.015  1.00  0.00    -0.328 N 
HETATM   22  C8  UNL     1      -6.007   4.073  -0.461  1.00  0.00     0.004 C 
HETATM   23  C9  UNL     1      -6.927   3.053  -1.113  1.00  0.00     0.004 C 
HETATM   24  C11 UNL     1      -4.727   0.560   1.547  1.00  0.00     0.287 A 
ATOM     25  H4  UNL     1      -6.391   2.002   1.468  1.00  0.00     0.165 HD
HETATM   26  O3  UNL     1      -4.877   0.034   2.684  1.00  0.00    -0.264 OA
ENDBRANCH  13  15
ENDBRANCH   7  13
BRANCH   8  27
HETATM   27  O4  UNL     1      -1.730   1.861   1.259  1.00  0.00    -0.357 OA
ATOM     28  H4  UNL     1      -1.393   2.726   1.459  1.00  0.00     0.218 HD
ENDBRANCH   8  27
BRANCH  11  29
HETATM   29  C15 UNL     1       2.867   0.154   1.273  1.00  0.00     0.020 C 
HETATM   30  C16 UNL     1       3.599   1.084   1.762  1.00  0.00     0.051 C 
BRANCH  30  31
HETATM   31  C17 UNL     1       5.066   0.946   1.773  1.00  0.00     0.154 C 
HETATM   32  O5  UNL     1       5.747   1.873   2.302  1.00  0.00    -0.293 OA
BRANCH  31  33
HETATM   33  C18 UNL     1       5.784  -0.217   1.188  1.00  0.00     0.129 C 
BRANCH  33  34
HETATM   34  C19 UNL     1       5.959   0.096  -0.250  1.00  0.00     0.088 C 
HETATM   35  N5  UNL     1       6.551  -0.770  -1.020  1.00  0.00    -0.313 N 
ATOM     36  H5  UNL     1       6.908  -1.663  -0.680  1.00  0.00     0.185 HD
BRANCH  35  37
HETATM   37  N6  UNL     1       6.656  -0.363  -2.371  1.00  0.00    -0.279 N 
ATOM     38  H6  UNL     1       6.065  -0.801  -3.078  1.00  0.00     0.189 HD
BRANCH  37  39
HETATM   39  C20 UNL     1       7.562   0.634  -2.746  1.00  0.00     0.199 C 
HETATM   40  N7  UNL     1       8.427   1.289  -1.856  1.00  0.00    -0.068 NA
HETATM   41  S1  UNL     1       7.592   1.078  -4.333  1.00  0.00    -0.043 SA
ENDBRANCH  37  39
ENDBRANCH  35  37
ENDBRANCH  33  34
ENDBRANCH  31  33
ENDBRANCH  30  31
ENDBRANCH  11  29
BRANCH  12  42
HETATM   42  O6  UNL     1       1.782  -2.331   0.666  1.00  0.00    -0.352 OA
HETATM   43  C22 UNL     1       2.121  -3.120   1.788  1.00  0.00     0.210 C 
ENDBRANCH  12  42
ENDBRANCH   5   6
ENDBRANCH   3   5
TORSDOF 11
