REMARK  11 active torsions:
REMARK  status: ('A' for Active; 'I' for Inactive)
REMARK    1  A    between atoms: C2_2  and  N2_6 
REMARK    2  A    between atoms: N2_6  and  C3_8 
REMARK    3  A    between atoms: C3_8  and  C4_9 
REMARK    4  A    between atoms: C4_9  and  N3_11 
REMARK    5  A    between atoms: N3_11  and  C6_13 
REMARK    6  A    between atoms: C8_16  and  C9_17 
REMARK    7  A    between atoms: C10_18  and  N4_19 
REMARK    8  A    between atoms: N4_19  and  C11_21 
REMARK    9  A    between atoms: C12_22  and  N5_23 
REMARK   10  A    between atoms: C22_36  and  C23_37 
REMARK   11  A    between atoms: C25_40  and  O4_41 
ROOT
HETATM    1  C9  UNL     1       0.008   1.797   1.196  1.00  0.00     0.093 A 
HETATM    2  C10 UNL     1      -0.736   2.649   0.437  1.00  0.00     0.069 A 
HETATM    3  C22 UNL     1      -1.853   3.317   0.952  1.00  0.00     0.088 A 
HETATM    4  C25 UNL     1      -2.188   3.086   2.259  1.00  0.00     0.159 A 
HETATM    5  N6  UNL     1      -1.453   2.233   3.032  1.00  0.00    -0.302 N 
ATOM      6  H6  UNL     1      -1.719   2.074   4.004  1.00  0.00     0.171 HD
HETATM    7  C26 UNL     1      -0.388   1.605   2.525  1.00  0.00     0.262 A 
HETATM    8  O5  UNL     1       0.307   0.810   3.223  1.00  0.00    -0.267 OA
ENDROOT
BRANCH   1   9
HETATM    9  C8  UNL     1       1.194   1.125   0.684  1.00  0.00     0.093 A 
HETATM   10  S1  UNL     1       1.995   1.211  -0.805  1.00  0.00    -0.079 SA
HETATM   11  C7  UNL     1       3.252   0.083  -0.491  1.00  0.00     0.100 A 
HETATM   12  C6  UNL     1       2.951  -0.296   0.797  1.00  0.00     0.108 A 
HETATM   13  N7  UNL     1       1.915   0.246   1.354  1.00  0.00    -0.336 N 
ATOM     14  H7  UNL     1       1.657  -0.006   2.308  1.00  0.00     0.168 HD
BRANCH  12  15
HETATM   15  N3  UNL     1       3.787  -1.283   1.462  1.00  0.00    -0.370 N 
ATOM     16  H3  UNL     1       3.581  -1.523   2.432  1.00  0.00     0.161 HD
BRANCH  15  17
HETATM   17  C4  UNL     1       4.876  -1.927   0.821  1.00  0.00     0.096 C 
HETATM   18  C5  UNL     1       5.733  -2.673   1.817  1.00  0.00     0.034 C 
BRANCH  17  19
HETATM   19  C3  UNL     1       4.494  -2.901  -0.273  1.00  0.00     0.145 C 
BRANCH  19  20
HETATM   20  N2  UNL     1       5.729  -3.362  -0.877  1.00  0.00    -0.379 N 
ATOM     21  H2  UNL     1       6.010  -4.334  -0.747  1.00  0.00     0.160 HD
BRANCH  20  22
HETATM   22  C2  UNL     1       6.570  -2.494  -1.653  1.00  0.00     0.066 C 
HETATM   23  C1  UNL     1       7.953  -2.267  -1.178  1.00  0.00     0.088 C 
HETATM   24  N1  UNL     1       6.119  -1.939  -2.724  1.00  0.00    -0.389 N 
ATOM     25  H12 UNL     1       6.716  -1.323  -3.275  1.00  0.00     0.157 HD
ATOM     26  H11 UNL     1       5.166  -2.095  -3.051  1.00  0.00     0.157 HD
ENDBRANCH  20  22
ENDBRANCH  19  20
ENDBRANCH  17  19
ENDBRANCH  15  17
ENDBRANCH  12  15
ENDBRANCH   1   9
BRANCH   2  27
HETATM   27  N4  UNL     1      -0.418   2.864  -0.909  1.00  0.00    -0.349 N 
ATOM     28  H4  UNL     1       0.210   3.622  -1.176  1.00  0.00     0.166 HD
BRANCH  27  29
HETATM   29  C11 UNL     1      -0.987   2.004  -1.909  1.00  0.00     0.118 A 
HETATM   30  C12 UNL     1      -1.803   0.914  -1.941  1.00  0.00     0.116 A 
HETATM   31  C20 UNL     1      -1.739   0.875  -3.329  1.00  0.00     0.252 A 
HETATM   32  O1  UNL     1      -2.213   0.161  -4.232  1.00  0.00    -0.281 OA
HETATM   33  C21 UNL     1      -0.924   1.961  -3.307  1.00  0.00     0.253 A 
HETATM   34  O2  UNL     1      -0.334   2.671  -4.150  1.00  0.00    -0.281 OA
BRANCH  30  35
HETATM   35  N5  UNL     1      -2.510   0.056  -1.056  1.00  0.00    -0.372 N 
HETATM   36  C13 UNL     1      -1.836  -1.125  -0.550  1.00  0.00     0.160 C 
HETATM   37  C14 UNL     1      -2.746  -2.333  -0.557  1.00  0.00     0.188 C 
HETATM   38  F1  UNL     1      -2.266  -3.338  -1.397  1.00  0.00    -0.248 F 
HETATM   39  C15 UNL     1      -4.137  -1.999  -0.997  1.00  0.00     0.049 C 
HETATM   40  C16 UNL     1      -4.714  -0.780  -0.358  1.00  0.00    -0.029 C 
HETATM   41  C17 UNL     1      -6.104  -0.561  -0.955  1.00  0.00     0.016 C 
HETATM   42  C18 UNL     1      -4.841  -0.912   1.145  1.00  0.00     0.016 C 
HETATM   43  C19 UNL     1      -3.860   0.410  -0.725  1.00  0.00     0.132 C 
ENDBRANCH  30  35
ENDBRANCH  27  29
ENDBRANCH   2  27
BRANCH   3  44
HETATM   44  C23 UNL     1      -2.611   4.233   0.130  1.00  0.00     0.162 C 
HETATM   45  C24 UNL     1      -3.791   4.948   0.679  1.00  0.00     0.097 C 
HETATM   46  O3  UNL     1      -2.354   4.501  -1.081  1.00  0.00    -0.293 OA
ENDBRANCH   3  44
BRANCH   4  47
HETATM   47  O4  UNL     1      -3.292   3.701   2.884  1.00  0.00    -0.345 OA
ATOM     48  H4  UNL     1      -3.524   3.541   3.791  1.00  0.00     0.219 HD
ENDBRANCH   4  47
TORSDOF 11
