REMARK  9 active torsions:
REMARK  status: ('A' for Active; 'I' for Inactive)
REMARK    1  A    between atoms: O1_2  and  C2_3 
REMARK    2  A    between atoms: C3_4  and  N1_5 
REMARK       I    between atoms: N1_5  and  C4_7 
REMARK    3  A    between atoms: C4_7  and  C5_9 
REMARK    4  A    between atoms: C5_9  and  N2_10 
REMARK       I    between atoms: N2_10  and  C6_12 
REMARK    5  A    between atoms: C6_12  and  C7_14 
REMARK    6  A    between atoms: C7_14  and  S1_15 
REMARK    7  A    between atoms: C7_14  and  C14_31 
REMARK    8  A    between atoms: S1_15  and  C8_16 
REMARK    9  A    between atoms: C19_39  and  N7_40 
ROOT
HETATM    1  N2  UNL     1       1.149  -0.532  -0.462  1.00  0.00    -0.351 N 
ATOM      2  H2  UNL     1       0.651  -0.881   0.357  1.00  0.00     0.163 HD
HETATM    3  C6  UNL     1       2.511  -0.950  -0.760  1.00  0.00     0.242 C 
HETATM    4  O3  UNL     1       3.042  -0.484  -1.769  1.00  0.00    -0.272 OA
ENDROOT
BRANCH   3   5
HETATM    5  C7  UNL     1       3.116  -1.882   0.164  1.00  0.00     0.245 C 
BRANCH   5   6
HETATM    6  S1  UNL     1       4.817  -2.326  -0.026  1.00  0.00    -0.095 SA
BRANCH   6   7
HETATM    7  C8  UNL     1       5.987  -0.993   0.331  1.00  0.00     0.070 A 
HETATM    8  S2  UNL     1       6.591  -0.523   1.858  1.00  0.00    -0.062 SA
HETATM    9  C9  UNL     1       7.656   0.714   1.370  1.00  0.00     0.092 A 
HETATM   10  N3  UNL     1       8.503   1.562   2.036  1.00  0.00    -0.346 N 
HETATM   11  C12 UNL     1       7.519   0.737   0.010  1.00  0.00     0.067 A 
HETATM   12  C10 UNL     1       9.243   2.463   1.370  1.00  0.00     0.182 A 
ATOM     13  H3  UNL     1       8.572   1.508   3.052  1.00  0.00     0.167 HD
HETATM   14  N4  UNL     1       9.132   2.508   0.053  1.00  0.00    -0.338 N 
HETATM   15  C11 UNL     1       8.315   1.697  -0.647  1.00  0.00     0.114 A 
ATOM     16  H4  UNL     1       9.692   3.190  -0.458  1.00  0.00     0.168 HD
HETATM   17  N5  UNL     1       8.330   1.875  -1.898  1.00  0.00    -0.385 N 
ATOM     18  H52 UNL     1       8.906   2.570  -2.373  1.00  0.00     0.157 HD
ATOM     19  H51 UNL     1       7.711   1.261  -2.428  1.00  0.00     0.157 HD
HETATM   20  C13 UNL     1       6.647  -0.158  -0.525  1.00  0.00     0.086 A 
HETATM   21  N6  UNL     1       6.415  -0.303  -1.947  1.00  0.00    -0.099 NA
ENDBRANCH   6   7
ENDBRANCH   5   6
BRANCH   5  22
HETATM   22  C14 UNL     1       2.328  -3.174   0.245  1.00  0.00     0.197 C 
HETATM   23  O4  UNL     1       1.821  -3.584   1.314  1.00  0.00    -0.647 OA
HETATM   24  O5  UNL     1       2.186  -3.890  -0.912  1.00  0.00    -0.647 OA
ENDBRANCH   5  22
ENDBRANCH   3   5
BRANCH   1  25
HETATM   25  C5  UNL     1       0.543   0.387  -1.367  1.00  0.00     0.225 C 
BRANCH  25  26
HETATM   26  C4  UNL     1      -0.818   0.751  -1.002  1.00  0.00     0.239 C 
HETATM   27  N1  UNL     1      -1.533   0.289   0.109  1.00  0.00    -0.322 N 
ATOM     28  H1  UNL     1      -1.088  -0.369   0.748  1.00  0.00     0.169 HD
HETATM   29  O2  UNL     1      -1.446   1.584  -1.766  1.00  0.00    -0.271 OA
BRANCH  27  30
HETATM   30  C3  UNL     1      -2.888   0.722   0.373  1.00  0.00     0.093 A 
HETATM   31  C2  UNL     1      -3.921   0.015  -0.168  1.00  0.00     0.140 A 
HETATM   32  C19 UNL     1      -5.259   0.355   0.030  1.00  0.00     0.237 A 
HETATM   33  C17 UNL     1      -5.491   1.456   0.817  1.00  0.00    -0.014 A 
HETATM   34  C16 UNL     1      -4.427   2.183   1.375  1.00  0.00     0.036 A 
HETATM   35  C18 UNL     1      -6.828   1.918   1.143  1.00  0.00     0.051 C 
HETATM   36  C15 UNL     1      -3.103   1.808   1.148  1.00  0.00     0.064 A 
HETATM   37 CL1  UNL     1      -1.813   2.744   1.860  1.00  0.00    -0.082 Cl
BRANCH  31  38
HETATM   38  O1  UNL     1      -3.634  -1.090  -0.949  1.00  0.00    -0.351 OA
HETATM   39  C1  UNL     1      -3.478  -2.320  -0.212  1.00  0.00     0.210 C 
ENDBRANCH  31  38
BRANCH  32  40
HETATM   40  N7  UNL     1      -6.332  -0.328  -0.545  1.00  0.00     0.042 N 
HETATM   41  C20 UNL     1      -7.009  -1.277   0.273  1.00  0.00     0.363 C 
HETATM   42  C21 UNL     1      -7.267   0.530  -1.279  1.00  0.00     0.363 C 
HETATM   43  O6  UNL     1      -5.808  -1.100  -1.578  1.00  0.00    -0.060 OA
ENDBRANCH  32  40
ENDBRANCH  27  30
ENDBRANCH  25  26
ENDBRANCH   1  25
TORSDOF 9
