REMARK  12 active torsions:
REMARK  status: ('A' for Active; 'I' for Inactive)
REMARK    1  A    between atoms: O1_2  and  C2_3 
REMARK    2  A    between atoms: C4_5  and  O2_6 
REMARK    3  A    between atoms: C6_9  and  O3_10 
REMARK    4  A    between atoms: C8_12  and  C9_13 
REMARK    5  A    between atoms: C9_13  and  C11_15 
REMARK    6  A    between atoms: C11_15  and  N1_16 
REMARK    7  A    between atoms: N1_16  and  C12_17 
REMARK    8  A    between atoms: C14_19  and  S1_20 
REMARK    9  A    between atoms: C17_27  and  N2_28 
REMARK   10  A    between atoms: N2_28  and  C18_30 
REMARK   11  A    between atoms: C20_37  and  N5_38 
REMARK   12  A    between atoms: C21_41  and  N6_42 
ROOT
HETATM    1  C12 UNL     1       1.382  -1.077  -1.764  1.00  0.00     0.136 A 
HETATM    2  C13 UNL     1       1.023  -1.798  -2.910  1.00  0.00     0.073 A 
HETATM    3  C14 UNL     1       1.918  -1.823  -3.947  1.00  0.00     0.085 A 
HETATM    4  C15 UNL     1       3.137  -1.169  -3.888  1.00  0.00     0.052 A 
HETATM    5  C16 UNL     1       3.511  -0.453  -2.768  1.00  0.00     0.065 A 
HETATM    6 CL1  UNL     1       5.076   0.379  -2.721  1.00  0.00    -0.082 Cl
HETATM    7  C17 UNL     1       2.643  -0.414  -1.729  1.00  0.00     0.097 A 
ENDROOT
BRANCH   7   8
HETATM    8  N2  UNL     1       2.968   0.262  -0.539  1.00  0.00    -0.336 N 
ATOM      9  H2  UNL     1       3.534  -0.257   0.133  1.00  0.00     0.168 HD
BRANCH   8  10
HETATM   10  C18 UNL     1       2.608   1.559  -0.169  1.00  0.00     0.147 A 
HETATM   11  N3  UNL     1       1.850   2.339  -0.942  1.00  0.00    -0.292 N 
HETATM   12  C19 UNL     1       1.478   3.593  -0.580  1.00  0.00     0.327 A 
ATOM     13  H3  UNL     1       1.537   1.978  -1.843  1.00  0.00     0.172 HD
HETATM   14  O7  UNL     1       0.754   4.298  -1.356  1.00  0.00    -0.247 OA
HETATM   15  N4  UNL     1       1.880   4.079   0.600  1.00  0.00    -0.293 N 
HETATM   16  C20 UNL     1       2.652   3.360   1.451  1.00  0.00     0.140 A 
ATOM     17  H4  UNL     1       1.596   5.021   0.868  1.00  0.00     0.172 HD
HETATM   18  C21 UNL     1       3.016   2.083   1.051  1.00  0.00     0.190 A 
BRANCH  16  19
HETATM   19  N5  UNL     1       3.025   3.846   2.584  1.00  0.00    -0.383 N 
ATOM     20  H52 UNL     1       2.757   4.785   2.878  1.00  0.00     0.157 HD
ATOM     21  H51 UNL     1       3.606   3.305   3.224  1.00  0.00     0.157 HD
ENDBRANCH  16  19
BRANCH  18  22
HETATM   22  N6  UNL     1       3.820   1.278   1.866  1.00  0.00    -0.108 N 
HETATM   23  O8  UNL     1       5.011   1.101   1.543  1.00  0.00    -0.531 OA
HETATM   24  O9  UNL     1       3.385   0.663   3.010  1.00  0.00    -0.531 OA
ENDBRANCH  18  22
ENDBRANCH   8  10
ENDBRANCH   7   8
BRANCH   1  25
HETATM   25  N1  UNL     1       0.526  -1.013  -0.737  1.00  0.00    -0.419 NA
BRANCH  25  26
HETATM   26  C11 UNL     1      -0.186  -0.911   0.188  1.00  0.00     0.164 C 
BRANCH  26  27
HETATM   27  C9  UNL     1      -1.491  -1.636   0.522  1.00  0.00     0.072 C 
HETATM   28  C10 UNL     1      -1.107  -2.871   1.265  1.00  0.00     0.022 C 
BRANCH  27  29
HETATM   29  C8  UNL     1      -2.368  -0.741   1.265  1.00  0.00     0.018 A 
HETATM   30  C2  UNL     1      -3.002   0.281   0.533  1.00  0.00     0.080 A 
HETATM   31  C3  UNL     1      -3.813   1.216   1.100  1.00  0.00     0.074 A 
HETATM   32  C4  UNL     1      -4.039   1.184   2.444  1.00  0.00     0.071 A 
HETATM   33  C5  UNL     1      -3.435   0.196   3.194  1.00  0.00     0.074 A 
HETATM   34  C6  UNL     1      -2.596  -0.774   2.613  1.00  0.00     0.080 A 
BRANCH  30  35
HETATM   35  O1  UNL     1      -2.778   0.321  -0.828  1.00  0.00    -0.355 OA
HETATM   36  C1  UNL     1      -3.393   1.326  -1.602  1.00  0.00     0.210 C 
ENDBRANCH  30  35
BRANCH  32  37
HETATM   37  O2  UNL     1      -4.867   2.119   3.101  1.00  0.00    -0.361 OA
ATOM     38  H2  UNL     1      -5.024   2.097   4.038  1.00  0.00     0.217 HD
ENDBRANCH  32  37
BRANCH  34  39
HETATM   39  O3  UNL     1      -2.002  -1.747   3.372  1.00  0.00    -0.355 OA
HETATM   40  C7  UNL     1      -2.146  -1.888   4.733  1.00  0.00     0.210 C 
ENDBRANCH  34  39
ENDBRANCH  27  29
ENDBRANCH  26  27
ENDBRANCH  25  26
ENDBRANCH   1  25
BRANCH   3  41
HETATM   41  S1  UNL     1       1.497  -2.723  -5.410  1.00  0.00     0.137 S 
HETATM   42  O4  UNL     1       2.127  -2.090  -6.626  1.00  0.00    -0.591 OA
HETATM   43  O5  UNL     1       0.016  -2.708  -5.602  1.00  0.00    -0.591 OA
HETATM   44  O6  UNL     1       2.011  -4.315  -5.237  1.00  0.00    -0.591 OA
ENDBRANCH   3  41
TORSDOF 12
