REMARK  15 active torsions:
REMARK  status: ('A' for Active; 'I' for Inactive)
REMARK    1  A    between atoms: S1_2  and  C2_3 
REMARK    2  A    between atoms: C2_3  and  C3_4 
REMARK    3  A    between atoms: C3_4  and  C4_5 
REMARK    4  A    between atoms: C4_5  and  N1_6 
REMARK    5  A    between atoms: C4_5  and  N7_28 
REMARK    6  A    between atoms: N1_6  and  N2_8 
REMARK    7  A    between atoms: N2_8  and  C5_10 
REMARK    8  A    between atoms: C8_13  and  O1_14 
REMARK    9  A    between atoms: O1_14  and  N3_15 
REMARK   10  A    between atoms: N3_15  and  N4_17 
REMARK   11  A    between atoms: N4_17  and  N5_18 
REMARK   12  A    between atoms: N4_17  and  O2_21 
REMARK   13  A    between atoms: C9_23  and  N6_24 
REMARK       I    between atoms: N7_28  and  C11_30 
REMARK       I    between atoms: C11_30  and  N8_32 
REMARK   14  A    between atoms: N8_32  and  N9_34 
REMARK       I    between atoms: N9_34  and  C12_36 
REMARK   15  A    between atoms: C12_36  and  C13_38 
ROOT
HETATM    1  C4  UNL     1       0.472  -1.588  -0.113  1.00  0.00     0.100 C 
ENDROOT
BRANCH   1   2
HETATM    2  C3  UNL     1       0.311  -3.023  -0.412  1.00  0.00     0.088 C 
BRANCH   2   3
HETATM    3  C2  UNL     1      -0.681  -3.222  -1.503  1.00  0.00     0.081 C 
BRANCH   3   4
HETATM    4  S1  UNL     1      -0.923  -4.981  -1.892  1.00  0.00    -0.173 SA
HETATM    5  C1  UNL     1       0.583  -5.701  -2.608  1.00  0.00     0.089 C 
ENDBRANCH   3   4
ENDBRANCH   2   3
ENDBRANCH   1   2
BRANCH   1   6
HETATM    6  N1  UNL     1       1.464  -1.005  -0.769  1.00  0.00    -0.288 N 
ATOM      7  H1  UNL     1       2.045  -1.538  -1.416  1.00  0.00     0.188 HD
BRANCH   6   8
HETATM    8  N2  UNL     1       1.693   0.332  -0.560  1.00  0.00    -0.299 N 
ATOM      9  H2  UNL     1       0.994   1.021  -0.838  1.00  0.00     0.187 HD
BRANCH   8  10
HETATM   10  C5  UNL     1       2.903   0.752   0.042  1.00  0.00     0.050 A 
HETATM   11  C6  UNL     1       2.994   1.034   1.401  1.00  0.00     0.034 A 
HETATM   12  C7  UNL     1       4.191   1.420   1.877  1.00  0.00     0.044 A 
HETATM   13  C8  UNL     1       5.381   1.565   1.101  1.00  0.00     0.133 A 
HETATM   14  C9  UNL     1       5.238   1.271  -0.238  1.00  0.00     0.141 A 
HETATM   15  C10 UNL     1       4.000   0.864  -0.775  1.00  0.00     0.070 A 
BRANCH  13  16
HETATM   16  O1  UNL     1       6.495   1.970   1.740  1.00  0.00    -0.217 OA
BRANCH  16  17
HETATM   17  N3  UNL     1       7.707   2.240   1.399  1.00  0.00    -0.160 N 
ATOM     18  H3  UNL     1       8.245   1.514   0.925  1.00  0.00     0.220 HD
BRANCH  17  19
HETATM   19  N4  UNL     1       8.270   3.349   1.616  1.00  0.00    -0.081 N 
BRANCH  19  20
HETATM   20  N5  UNL     1       9.583   3.571   1.220  1.00  0.00    -0.302 N 
ATOM     21  H52 UNL     1      10.094   2.824   0.749  1.00  0.00     0.181 HD
ATOM     22  H51 UNL     1      10.038   4.467   1.395  1.00  0.00     0.181 HD
ENDBRANCH  19  20
BRANCH  19  23
HETATM   23  O2  UNL     1       7.585   4.350   2.247  1.00  0.00    -0.252 OA
ATOM     24  H2  UNL     1       8.009   5.184   2.410  1.00  0.00     0.248 HD
ENDBRANCH  19  23
ENDBRANCH  17  19
ENDBRANCH  16  17
ENDBRANCH  13  16
BRANCH  14  25
HETATM   25  N6  UNL     1       6.277   1.346  -1.195  1.00  0.00    -0.113 N 
HETATM   26  O3  UNL     1       5.933   1.677  -2.390  1.00  0.00    -0.532 OA
HETATM   27  O4  UNL     1       7.599   1.138  -1.054  1.00  0.00    -0.532 OA
ENDBRANCH  14  25
ENDBRANCH   8  10
ENDBRANCH   6   8
ENDBRANCH   1   6
BRANCH   1  28
HETATM   28  N7  UNL     1      -0.290  -0.792   0.744  1.00  0.00    -0.296 N 
HETATM   29  C11 UNL     1      -1.360  -1.274   1.502  1.00  0.00     0.340 C 
HETATM   30  O5  UNL     1      -1.669  -2.520   1.408  1.00  0.00    -0.245 OA
HETATM   31  N8  UNL     1      -2.109  -0.458   2.364  1.00  0.00    -0.248 N 
ATOM     32  H8  UNL     1      -2.026  -0.660   3.360  1.00  0.00     0.192 HD
ATOM     33  H7  UNL     1      -0.052   0.197   0.821  1.00  0.00     0.172 HD
BRANCH  31  34
HETATM   34  N9  UNL     1      -2.847   0.463   2.062  1.00  0.00    -0.262 N 
HETATM   35  C12 UNL     1      -3.215   1.032   0.846  1.00  0.00     0.275 C 
HETATM   36  O6  UNL     1      -2.391   1.665   0.105  1.00  0.00    -0.266 OA
ATOM     37  H9  UNL     1      -3.286   0.910   2.867  1.00  0.00     0.190 HD
BRANCH  35  38
HETATM   38  C13 UNL     1      -4.597   0.926   0.354  1.00  0.00     0.097 A 
HETATM   39  C14 UNL     1      -4.894   1.490  -0.865  1.00  0.00     0.135 A 
HETATM   40  N10 UNL     1      -3.888   2.162  -1.619  1.00  0.00    -0.082 NA
HETATM   41  N11 UNL     1      -6.150   1.414  -1.349  1.00  0.00    -0.330 N 
HETATM   42  C15 UNL     1      -7.095   0.797  -0.653  1.00  0.00     0.107 A 
ATOM     43  H11 UNL     1      -6.374   1.832  -2.252  1.00  0.00     0.168 HD
HETATM   44  N12 UNL     1      -8.295   0.716  -1.102  1.00  0.00    -0.385 N 
HETATM   45  C16 UNL     1      -6.855   0.213   0.578  1.00  0.00     0.004 A 
ATOM     46 2H12 UNL     1      -8.472   1.147  -2.010  1.00  0.00     0.157 HD
ATOM     47 1H12 UNL     1      -9.022   0.241  -0.567  1.00  0.00     0.157 HD
HETATM   48  C17 UNL     1      -7.922  -0.470   1.337  1.00  0.00     0.054 C 
HETATM   49  C18 UNL     1      -5.565   0.283   1.096  1.00  0.00     0.062 A 
HETATM   50 CL1  UNL     1      -5.242  -0.409   2.636  1.00  0.00    -0.082 Cl
ENDBRANCH  35  38
ENDBRANCH  31  34
ENDBRANCH   1  28
TORSDOF 15
