REMARK  5 active torsions:
REMARK  status: ('A' for Active; 'I' for Inactive)
REMARK    1  A    between atoms: C4_4  and  C5_5 
REMARK    2  A    between atoms: C5_5  and  C6_6 
REMARK    3  A    between atoms: C6_6  and  S1_7 
REMARK    4  A    between atoms: S1_7  and  C7_8 
REMARK    5  A    between atoms: C10_11  and  C11_12 
ROOT
HETATM    1  C7  UNL     1      -0.196  -1.167  -1.563  1.00  0.00     0.000 A 
HETATM    2  C8  UNL     1      -0.847  -0.175  -2.285  1.00  0.00     0.019 A 
HETATM    3  C9  UNL     1      -2.084   0.288  -1.887  1.00  0.00     0.013 A 
HETATM    4  C10 UNL     1      -2.716  -0.223  -0.753  1.00  0.00    -0.026 A 
HETATM    5  C17 UNL     1      -2.034  -1.207  -0.067  1.00  0.00     0.013 A 
HETATM    6  C18 UNL     1      -0.802  -1.689  -0.438  1.00  0.00     0.019 A 
ENDROOT
BRANCH   1   7
HETATM    7  S1  UNL     1       1.392  -1.793  -2.036  1.00  0.00    -0.130 SA
BRANCH   7   8
HETATM    8  C6  UNL     1       2.758  -0.879  -1.288  1.00  0.00     0.084 C 
BRANCH   8   9
HETATM    9  C5  UNL     1       2.769  -1.083   0.233  1.00  0.00     0.049 C 
BRANCH   9  10
HETATM   10  C4  UNL     1       3.911  -0.312   0.810  1.00  0.00    -0.057 A 
HETATM   11  C3  UNL     1       3.777   0.995   1.226  1.00  0.00     0.007 A 
HETATM   12  C2  UNL     1       4.816   1.726   1.760  1.00  0.00     0.001 A 
HETATM   13  C1  UNL     1       6.045   1.113   1.880  1.00  0.00     0.000 A 
HETATM   14  C20 UNL     1       6.219  -0.189   1.477  1.00  0.00     0.001 A 
HETATM   15  C19 UNL     1       5.165  -0.902   0.945  1.00  0.00     0.007 A 
ENDBRANCH   9  10
ENDBRANCH   8   9
ENDBRANCH   7   8
ENDBRANCH   1   7
BRANCH   4  16
HETATM   16  C11 UNL     1      -4.029   0.270  -0.336  1.00  0.00    -0.026 A 
HETATM   17  C12 UNL     1      -4.435   0.321   0.981  1.00  0.00     0.012 A 
HETATM   18  C13 UNL     1      -5.662   0.781   1.375  1.00  0.00     0.001 A 
HETATM   19  C14 UNL     1      -6.540   1.218   0.402  1.00  0.00     0.000 A 
HETATM   20  C15 UNL     1      -6.189   1.192  -0.935  1.00  0.00     0.001 A 
HETATM   21  C16 UNL     1      -4.940   0.719  -1.280  1.00  0.00     0.012 A 
ENDBRANCH   4  16
TORSDOF 5
