REMARK  5 active torsions:
REMARK  status: ('A' for Active; 'I' for Inactive)
REMARK    1  A    between atoms: C3_3  and  C4_4 
REMARK    2  A    between atoms: C4_4  and  C5_5 
REMARK    3  A    between atoms: C5_5  and  C6_6 
REMARK    4  A    between atoms: C6_6  and  S1_7 
REMARK    5  A    between atoms: S1_7  and  C7_8 
ROOT
HETATM    1  C1  UNL     1       7.666   1.943  -0.363  1.00  0.00     0.012 C 
HETATM    2  C2  UNL     1       6.922   1.008  -0.512  1.00  0.00    -0.117 C 
HETATM    3  C3  UNL     1       6.032  -0.145  -0.677  1.00  0.00     0.093 C 
ENDROOT
BRANCH   3   4
HETATM    4  C4  UNL     1       4.675   0.214  -0.059  1.00  0.00     0.013 C 
BRANCH   4   5
HETATM    5  C5  UNL     1       3.775  -0.984  -0.241  1.00  0.00     0.011 C 
BRANCH   5   6
HETATM    6  C6  UNL     1       2.405  -0.774   0.320  1.00  0.00     0.079 C 
BRANCH   6   7
HETATM    7  S1  UNL     1       1.628   0.640  -0.518  1.00  0.00    -0.130 SA
BRANCH   7   8
HETATM    8  C7  UNL     1      -0.015   0.822   0.215  1.00  0.00     0.001 A 
HETATM    9  C8  UNL     1      -0.225   1.606   1.303  1.00  0.00     0.019 A 
HETATM   10  C9  UNL     1      -1.465   1.761   1.879  1.00  0.00     0.013 A 
HETATM   11  C10 UNL     1      -2.520   1.081   1.308  1.00  0.00    -0.025 A 
HETATM   12  C11 UNL     1      -3.788   1.201   1.848  1.00  0.00     0.013 A 
HETATM   13  C19 UNL     1      -2.350   0.255   0.180  1.00  0.00    -0.013 A 
HETATM   14  C12 UNL     1      -4.864   0.537   1.306  1.00  0.00     0.013 A 
HETATM   15  C13 UNL     1      -4.693  -0.272   0.199  1.00  0.00    -0.025 A 
HETATM   16  C14 UNL     1      -5.795  -0.943  -0.345  1.00  0.00     0.012 A 
HETATM   17  C18 UNL     1      -3.438  -0.402  -0.350  1.00  0.00    -0.015 A 
HETATM   18  C15 UNL     1      -5.617  -1.738  -1.436  1.00  0.00     0.001 A 
HETATM   19  C16 UNL     1      -4.362  -1.873  -1.990  1.00  0.00     0.001 A 
HETATM   20  C17 UNL     1      -3.250  -1.200  -1.448  1.00  0.00     0.013 A 
HETATM   21  C20 UNL     1      -1.088   0.142  -0.349  1.00  0.00     0.031 A 
ENDBRANCH   7   8
ENDBRANCH   6   7
ENDBRANCH   5   6
ENDBRANCH   4   5
ENDBRANCH   3   4
TORSDOF 5
