REMARK  5 active torsions:
REMARK  status: ('A' for Active; 'I' for Inactive)
REMARK    1  A    between atoms: C2_3  and  C3_4 
REMARK    2  A    between atoms: C3_4  and  C4_5 
REMARK    3  A    between atoms: C4_5  and  C5_6 
REMARK    4  A    between atoms: C10_11  and  C11_12 
REMARK    5  A    between atoms: C11_12  and  C12_13 
ROOT
HETATM    1  N1  UNL     1       7.381  -0.687   1.665  1.00  0.00    -0.197 NA
HETATM    2  C1  UNL     1       7.010  -0.124   0.711  1.00  0.00     0.059 C 
HETATM    3  C2  UNL     1       6.560   0.574  -0.503  1.00  0.00     0.124 C 
ENDROOT
BRANCH   3   4
HETATM    4  C3  UNL     1       5.156   0.120  -0.801  1.00  0.00     0.018 C 
BRANCH   4   5
HETATM    5  C4  UNL     1       4.289   0.479   0.383  1.00  0.00     0.039 C 
BRANCH   5   6
HETATM    6  C5  UNL     1       2.872   0.064   0.174  1.00  0.00    -0.057 A 
HETATM    7  C6  UNL     1       2.415  -1.180   0.558  1.00  0.00     0.008 A 
HETATM    8  C7  UNL     1       1.109  -1.579   0.371  1.00  0.00     0.013 A 
HETATM    9  C8  UNL     1       0.200  -0.724  -0.220  1.00  0.00    -0.025 A 
HETATM   10  C9  UNL     1      -1.127  -1.108  -0.419  1.00  0.00     0.019 A 
HETATM   11  C20 UNL     1       0.614   0.509  -0.612  1.00  0.00    -0.025 A 
HETATM   12  C10 UNL     1      -2.045  -0.268  -1.006  1.00  0.00    -0.053 A 
HETATM   13  C18 UNL     1      -1.613   0.979  -1.398  1.00  0.00     0.008 A 
HETATM   14  C19 UNL     1      -0.296   1.365  -1.203  1.00  0.00     0.013 A 
HETATM   15  C21 UNL     1       1.945   0.900  -0.415  1.00  0.00     0.019 A 
BRANCH  12  16
HETATM   16  C11 UNL     1      -3.434  -0.661  -1.217  1.00  0.00     0.077 C 
BRANCH  16  17
HETATM   17  C12 UNL     1      -4.338  -0.336  -0.101  1.00  0.00    -0.054 A 
HETATM   18  C13 UNL     1      -4.576  -1.204   0.946  1.00  0.00     0.007 A 
HETATM   19  C14 UNL     1      -5.438  -0.875   1.996  1.00  0.00     0.001 A 
HETATM   20  C15 UNL     1      -6.077   0.357   1.996  1.00  0.00     0.000 A 
HETATM   21  C16 UNL     1      -5.849   1.236   0.957  1.00  0.00     0.001 A 
HETATM   22  C17 UNL     1      -4.983   0.883  -0.079  1.00  0.00     0.007 A 
ENDBRANCH  16  17
ENDBRANCH  12  16
ENDBRANCH   5   6
ENDBRANCH   4   5
ENDBRANCH   3   4
TORSDOF 5
