REMARK  12 active torsions:
REMARK  status: ('A' for Active; 'I' for Inactive)
REMARK    1  A    between atoms: C4_4  and  O1_5 
REMARK    2  A    between atoms: O1_5  and  C5_6 
REMARK    3  A    between atoms: C6_8  and  C7_9 
REMARK    4  A    between atoms: C7_9  and  O3_10 
REMARK    5  A    between atoms: C8_12  and  O4_13 
REMARK    6  A    between atoms: C9_15  and  O5_16 
REMARK    7  A    between atoms: C10_18  and  O6_19 
REMARK    8  A    between atoms: C11_21  and  C12_22 
REMARK       I    between atoms: C12_22  and  N1_24 
REMARK    9  A    between atoms: N1_24  and  C13_26 
REMARK   10  A    between atoms: C13_26  and  C14_27 
REMARK   11  A    between atoms: C17_30  and  N2_31 
REMARK   12  A    between atoms: C20_37  and  O8_38 
ROOT
HETATM    1  O8  UNL     1       0.800  -3.633  -0.790  1.00  0.00    -0.277 OA
HETATM    2  C21 UNL     1       2.031  -4.168  -0.443  1.00  0.00     0.229 C 
HETATM    3  N3  UNL     1       3.049  -4.629  -0.144  1.00  0.00    -0.164 NA
ENDROOT
BRANCH   1   4
HETATM    4  C20 UNL     1       0.188  -2.724   0.084  1.00  0.00     0.161 C 
HETATM    5  C2  UNL     1      -1.078  -3.405   0.628  1.00  0.00     0.015 C 
HETATM    6  C1  UNL     1      -0.753  -4.465   1.633  1.00  0.00     0.012 C 
HETATM    7  C3  UNL     1      -1.783  -2.211   1.241  1.00  0.00     0.039 C 
HETATM    8  C4  UNL     1      -1.718  -1.254   0.040  1.00  0.00     0.140 C 
HETATM    9  C11 UNL     1      -0.389  -1.502  -0.585  1.00  0.00     0.137 C 
BRANCH   8  10
HETATM   10  O1  UNL     1      -1.988   0.038   0.381  1.00  0.00    -0.352 OA
BRANCH  10  11
HETATM   11  C5  UNL     1      -3.167   0.526  -0.170  1.00  0.00     0.292 C 
HETATM   12  O2  UNL     1      -2.846   1.523  -1.057  1.00  0.00    -0.348 OA
HETATM   13  C6  UNL     1      -3.933   2.096  -1.662  1.00  0.00     0.179 C 
HETATM   14  C8  UNL     1      -4.728   2.846  -0.645  1.00  0.00     0.180 C 
HETATM   15  C9  UNL     1      -4.818   2.223   0.692  1.00  0.00     0.183 C 
HETATM   16  C10 UNL     1      -4.149   0.921   0.877  1.00  0.00     0.204 C 
BRANCH  13  17
HETATM   17  C7  UNL     1      -4.780   1.120  -2.449  1.00  0.00     0.198 C 
BRANCH  17  18
HETATM   18  O3  UNL     1      -5.836   1.863  -2.996  1.00  0.00    -0.398 OA
ATOM     19  H3  UNL     1      -6.368   1.250  -3.490  1.00  0.00     0.209 HD
ENDBRANCH  17  18
ENDBRANCH  13  17
BRANCH  14  20
HETATM   20  O4  UNL     1      -4.167   4.143  -0.566  1.00  0.00    -0.390 OA
ATOM     21  H4  UNL     1      -4.673   4.620   0.081  1.00  0.00     0.210 HD
ENDBRANCH  14  20
BRANCH  15  22
HETATM   22  O5  UNL     1      -4.398   3.167   1.660  1.00  0.00    -0.390 OA
ATOM     23  H5  UNL     1      -4.456   2.766   2.520  1.00  0.00     0.210 HD
ENDBRANCH  15  22
BRANCH  16  24
HETATM   24  O6  UNL     1      -5.076  -0.131   1.060  1.00  0.00    -0.388 OA
ATOM     25  H6  UNL     1      -5.703   0.121   1.728  1.00  0.00     0.210 HD
ENDBRANCH  16  24
ENDBRANCH  10  11
ENDBRANCH   8  10
BRANCH   9  26
HETATM   26  C12 UNL     1       0.526  -0.341  -0.510  1.00  0.00     0.226 C 
HETATM   27  O7  UNL     1       0.248   0.723   0.099  1.00  0.00    -0.273 OA
HETATM   28  N1  UNL     1       1.779  -0.413  -1.149  1.00  0.00    -0.360 N 
ATOM     29  H1  UNL     1       2.002  -1.276  -1.646  1.00  0.00     0.162 HD
BRANCH  28  30
HETATM   30  C13 UNL     1       2.772   0.631  -1.159  1.00  0.00     0.127 C 
BRANCH  30  31
HETATM   31  C14 UNL     1       3.285   1.031   0.184  1.00  0.00     0.003 C 
HETATM   32  C15 UNL     1       4.309   2.126  -0.034  1.00  0.00     0.008 C 
HETATM   33  C16 UNL     1       5.545   1.941   0.789  1.00  0.00     0.033 C 
HETATM   34  C17 UNL     1       6.267   0.656   0.490  1.00  0.00     0.183 C 
HETATM   35  C18 UNL     1       5.285  -0.479   0.380  1.00  0.00     0.033 C 
HETATM   36  C19 UNL     1       3.932  -0.111   0.932  1.00  0.00     0.008 C 
BRANCH  34  37
HETATM   37  N2  UNL     1       7.090   0.712  -0.681  1.00  0.00    -0.075 N 
ATOM     38  H23 UNL     1       6.545   1.013  -1.489  1.00  0.00     0.274 HD
ATOM     39  H22 UNL     1       7.749   1.488  -0.619  1.00  0.00     0.274 HD
ATOM     40  H21 UNL     1       7.580  -0.159  -0.884  1.00  0.00     0.274 HD
ENDBRANCH  34  37
ENDBRANCH  30  31
ENDBRANCH  28  30
ENDBRANCH   9  26
ENDBRANCH   1   4
TORSDOF 12
