REMARK  12 active torsions:
REMARK  status: ('A' for Active; 'I' for Inactive)
REMARK    1  A    between atoms: O1_2  and  C2_3 
REMARK    2  A    between atoms: C2_3  and  C3_4 
REMARK    3  A    between atoms: C3_4  and  C4_5 
REMARK       I    between atoms: C4_5  and  N1_7 
REMARK    4  A    between atoms: N1_7  and  C5_9 
REMARK    5  A    between atoms: C6_10  and  O3_11 
REMARK    6  A    between atoms: C9_15  and  S1_16 
REMARK    7  A    between atoms: S1_16  and  C10_17 
REMARK    8  A    between atoms: C11_19  and  C12_20 
REMARK    9  A    between atoms: C12_20  and  O5_21 
REMARK   10  A    between atoms: C13_23  and  O6_24 
REMARK   11  A    between atoms: C14_26  and  O7_27 
REMARK   12  A    between atoms: C15_29  and  O8_30 
ROOT
HETATM    1  C5  UNL     1      -0.290  -0.223  -2.087  1.00  0.00     0.127 C 
HETATM    2  C6  UNL     1      -0.107  -0.922  -3.413  1.00  0.00     0.142 C 
HETATM    3  C7  UNL     1       1.179  -0.280  -3.955  1.00  0.00     0.035 C 
HETATM    4  C8  UNL     1       2.045  -0.302  -2.720  1.00  0.00     0.020 C 
HETATM    5  C9  UNL     1       1.082   0.132  -1.641  1.00  0.00     0.075 C 
ENDROOT
BRANCH   5   6
HETATM    6  S1  UNL     1       1.536  -0.626  -0.059  1.00  0.00    -0.128 SA
BRANCH   6   7
HETATM    7  C10 UNL     1       3.213  -0.069   0.346  1.00  0.00     0.215 C 
HETATM    8  O4  UNL     1       3.173   1.289   0.587  1.00  0.00    -0.363 OA
HETATM    9  C11 UNL     1       4.463   1.779   0.656  1.00  0.00     0.178 C 
HETATM   10  C13 UNL     1       5.545   0.759   0.645  1.00  0.00     0.180 C 
HETATM   11  C14 UNL     1       5.280  -0.415   1.553  1.00  0.00     0.181 C 
HETATM   12  C15 UNL     1       3.797  -0.810   1.503  1.00  0.00     0.188 C 
BRANCH   9  13
HETATM   13  C12 UNL     1       4.557   2.718   1.846  1.00  0.00     0.198 C 
BRANCH  13  14
HETATM   14  O5  UNL     1       3.654   3.773   1.684  1.00  0.00    -0.398 OA
ATOM     15  H5  UNL     1       3.713   4.360   2.428  1.00  0.00     0.209 HD
ENDBRANCH  13  14
ENDBRANCH   9  13
BRANCH  10  16
HETATM   16  O6  UNL     1       6.723   1.360   1.124  1.00  0.00    -0.390 OA
ATOM     17  H6  UNL     1       7.414   0.708   1.117  1.00  0.00     0.210 HD
ENDBRANCH  10  16
BRANCH  11  18
HETATM   18  O7  UNL     1       6.008  -1.509   1.084  1.00  0.00    -0.390 OA
ATOM     19  H7  UNL     1       5.841  -2.249   1.656  1.00  0.00     0.210 HD
ENDBRANCH  11  18
BRANCH  12  20
HETATM   20  O8  UNL     1       3.174  -0.596   2.711  1.00  0.00    -0.389 OA
ATOM     21  H8  UNL     1       3.546  -1.068   3.447  1.00  0.00     0.210 HD
ENDBRANCH  12  20
ENDBRANCH   6   7
ENDBRANCH   5   6
BRANCH   1  22
HETATM   22  N1  UNL     1      -1.060  -0.946  -1.130  1.00  0.00    -0.353 N 
HETATM   23  C4  UNL     1      -2.266  -0.470  -0.589  1.00  0.00     0.223 C 
HETATM   24  O2  UNL     1      -2.673   0.652  -0.980  1.00  0.00    -0.273 OA
ATOM     25  H1  UNL     1      -0.718  -1.856  -0.822  1.00  0.00     0.163 HD
BRANCH  23  26
HETATM   26  C3  UNL     1      -3.022  -1.237   0.385  1.00  0.00     0.171 C 
BRANCH  26  27
HETATM   27  C2  UNL     1      -4.345  -0.632   0.803  1.00  0.00     0.171 C 
HETATM   28  C16 UNL     1      -5.310  -0.493  -0.321  1.00  0.00     0.069 C 
HETATM   29  C17 UNL     1      -6.404   0.475   0.166  1.00  0.00     0.007 C 
HETATM   30  C18 UNL     1      -7.052  -0.260   1.325  1.00  0.00     0.026 C 
HETATM   31  C19 UNL     1      -6.026  -0.743   2.316  1.00  0.00     0.171 C 
HETATM   32  O9  UNL     1      -4.942  -1.381   1.807  1.00  0.00    -0.355 OA
BRANCH  27  33
HETATM   33  O1  UNL     1      -4.050   0.610   1.336  1.00  0.00    -0.359 OA
HETATM   34  C1  UNL     1      -3.186   0.614   2.396  1.00  0.00     0.205 C 
ENDBRANCH  27  33
ENDBRANCH  26  27
ENDBRANCH  23  26
ENDBRANCH   1  22
BRANCH   2  35
HETATM   35  O3  UNL     1       0.168  -2.273  -3.242  1.00  0.00    -0.393 OA
ATOM     36  H3  UNL     1       0.283  -2.713  -4.076  1.00  0.00     0.210 HD
ENDBRANCH   2  35
TORSDOF 12
