REMARK  12 active torsions:
REMARK  status: ('A' for Active; 'I' for Inactive)
REMARK    1  A    between atoms: C2_2  and  C3_3 
REMARK    2  A    between atoms: C2_2  and  O1_10 
REMARK    3  A    between atoms: C2_2  and  C22_43 
REMARK    4  A    between atoms: C3_3  and  C4_4 
REMARK    5  A    between atoms: O1_10  and  C10_11 
REMARK    6  A    between atoms: C12_13  and  O2_14 
REMARK    7  A    between atoms: O2_14  and  C13_15 
REMARK    8  A    between atoms: C15_18  and  O4_19 
REMARK    9  A    between atoms: C16_21  and  N1_22 
REMARK   10  A    between atoms: C18_27  and  N2_28 
REMARK   11  A    between atoms: C19_32  and  N3_33 
REMARK   12  A    between atoms: C21_38  and  N4_39 
ROOT
HETATM    1  C10 UNL     1      -1.320   0.523  -0.684  1.00  0.00     0.156 C 
HETATM    2  C11 UNL     1       0.052   0.052  -0.346  1.00  0.00     0.068 C 
HETATM    3  C12 UNL     1       1.180   0.987  -0.669  1.00  0.00     0.157 C 
HETATM    4  C19 UNL     1       0.923   2.431  -0.402  1.00  0.00     0.214 C 
HETATM    5  C20 UNL     1      -0.540   2.772  -0.251  1.00  0.00     0.070 C 
HETATM    6  C21 UNL     1      -1.288   1.948  -1.268  1.00  0.00     0.214 C 
ENDROOT
BRANCH   3   7
HETATM    7  O2  UNL     1       2.257   0.600   0.147  1.00  0.00    -0.352 OA
BRANCH   7   8
HETATM    8  C13 UNL     1       3.365   0.209  -0.574  1.00  0.00     0.290 C 
HETATM    9  O3  UNL     1       4.491   0.959  -0.370  1.00  0.00    -0.357 OA
HETATM   10  C14 UNL     1       5.182   0.717   0.789  1.00  0.00     0.205 C 
HETATM   11  C15 UNL     1       6.161  -0.437   0.663  1.00  0.00     0.172 C 
HETATM   12  C16 UNL     1       6.005  -0.998  -0.729  1.00  0.00     0.216 C 
HETATM   13  C17 UNL     1       4.785  -1.842  -0.894  1.00  0.00     0.073 C 
HETATM   14  C18 UNL     1       3.541  -1.273  -0.322  1.00  0.00     0.240 C 
BRANCH  11  15
HETATM   15  O4  UNL     1       7.472   0.029   0.770  1.00  0.00    -0.391 OA
ATOM     16  H4  UNL     1       8.084  -0.693   0.691  1.00  0.00     0.210 HD
ENDBRANCH  11  15
BRANCH  12  17
HETATM   17  N1  UNL     1       7.169  -1.822  -0.993  1.00  0.00    -0.072 N 
ATOM     18  H13 UNL     1       8.049  -1.324  -0.859  1.00  0.00     0.274 HD
ATOM     19  H12 UNL     1       7.317  -2.543  -0.286  1.00  0.00     0.274 HD
ATOM     20  H11 UNL     1       7.064  -2.201  -1.934  1.00  0.00     0.274 HD
ENDBRANCH  12  17
BRANCH  14  21
HETATM   21  N2  UNL     1       3.344  -1.607   1.092  1.00  0.00    -0.070 N 
ATOM     22  H23 UNL     1       3.952  -1.052   1.694  1.00  0.00     0.274 HD
ATOM     23  H22 UNL     1       2.441  -1.276   1.431  1.00  0.00     0.274 HD
ATOM     24  H21 UNL     1       3.463  -2.606   1.262  1.00  0.00     0.274 HD
ENDBRANCH  14  21
ENDBRANCH   7   8
ENDBRANCH   3   7
BRANCH   4  25
HETATM   25  N3  UNL     1       1.541   3.285  -1.433  1.00  0.00    -0.072 N 
ATOM     26  H33 UNL     1       2.538   3.094  -1.529  1.00  0.00     0.274 HD
ATOM     27  H32 UNL     1       1.239   3.018  -2.370  1.00  0.00     0.274 HD
ATOM     28  H31 UNL     1       1.365   4.273  -1.250  1.00  0.00     0.274 HD
ENDBRANCH   4  25
BRANCH   1  29
HETATM   29  O1  UNL     1      -2.096   0.475   0.439  1.00  0.00    -0.362 OA
BRANCH  29  30
HETATM   30  C2  UNL     1      -3.270  -0.258   0.377  1.00  0.00     0.149 C 
HETATM   31  C1  UNL     1      -4.126   0.355  -0.724  1.00  0.00     0.058 C 
BRANCH  30  32
HETATM   32  C3  UNL     1      -3.989   0.076   1.689  1.00  0.00     0.087 C 
BRANCH  32  33
HETATM   33  C4  UNL     1      -5.332  -0.423   1.834  1.00  0.00    -0.055 A 
HETATM   34  C5  UNL     1      -6.468   0.245   1.361  1.00  0.00     0.007 A 
HETATM   35  C6  UNL     1      -7.742  -0.246   1.544  1.00  0.00     0.001 A 
HETATM   36  C7  UNL     1      -7.951  -1.417   2.201  1.00  0.00     0.000 A 
HETATM   37  C8  UNL     1      -6.861  -2.104   2.682  1.00  0.00     0.001 A 
HETATM   38  C9  UNL     1      -5.593  -1.605   2.494  1.00  0.00     0.007 A 
ENDBRANCH  32  33
ENDBRANCH  30  32
BRANCH  30  39
HETATM   39  C22 UNL     1      -3.121  -1.694   0.270  1.00  0.00     0.209 C 
HETATM   40  O5  UNL     1      -4.045  -2.524   0.095  1.00  0.00    -0.646 OA
HETATM   41  O6  UNL     1      -1.844  -2.289   0.364  1.00  0.00    -0.646 OA
ENDBRANCH  30  39
ENDBRANCH  29  30
ENDBRANCH   1  29
BRANCH   6  42
HETATM   42  N4  UNL     1      -0.671   1.940  -2.575  1.00  0.00    -0.072 N 
ATOM     43  H43 UNL     1       0.256   1.516  -2.555  1.00  0.00     0.274 HD
ATOM     44  H42 UNL     1      -1.125   1.280  -3.206  1.00  0.00     0.274 HD
ATOM     45  H41 UNL     1      -0.650   2.884  -2.962  1.00  0.00     0.274 HD
ENDBRANCH   6  42
TORSDOF 12
