REMARK  11 active torsions:
REMARK  status: ('A' for Active; 'I' for Inactive)
REMARK    1  A    between atoms: C1_2  and  N2_4 
REMARK    2  A    between atoms: N2_4  and  C2_6 
REMARK    3  A    between atoms: C2_6  and  C3_7 
REMARK    4  A    between atoms: C4_11  and  C5_12 
REMARK    5  A    between atoms: C5_12  and  O1_13 
REMARK    6  A    between atoms: C8_20  and  C9_21 
REMARK    7  A    between atoms: C9_21  and  O5_22 
REMARK    8  A    between atoms: O5_22  and  C10_23 
REMARK    9  A    between atoms: C16_29  and  O6_30 
REMARK   10  A    between atoms: C17_32  and  C18_33 
REMARK   11  A    between atoms: C18_33  and  O7_34 
ROOT
HETATM    1  C3  UNL     1       3.086  -0.218   0.430  1.00  0.00     0.244 C 
HETATM    2  N3  UNL     1       3.613  -0.902  -0.730  1.00  0.00    -0.057 N 
ATOM      3  H31 UNL     1       4.591  -1.178  -0.647  1.00  0.00     0.278 HD
ATOM      4  H32 UNL     1       3.737  -0.307  -1.549  1.00  0.00     0.278 HD
HETATM    5  C4  UNL     1       2.706  -1.993  -0.925  1.00  0.00     0.242 C 
HETATM    6  C6  UNL     1       1.376  -1.543  -0.466  1.00  0.00     0.206 C 
HETATM    7  O2  UNL     1       0.969  -2.399   0.586  1.00  0.00    -0.287 OA
HETATM    8  C7  UNL     1       0.921  -1.666   1.746  1.00  0.00     0.408 C 
HETATM    9  O3  UNL     1       0.933  -2.115   2.942  1.00  0.00    -0.229 OA
HETATM   10  O4  UNL     1       0.854  -0.314   1.361  1.00  0.00    -0.280 OA
HETATM   11  C8  UNL     1       1.589  -0.200   0.175  1.00  0.00     0.152 C 
ENDROOT
BRANCH  11  12
HETATM   12  C9  UNL     1       1.184   0.891  -0.756  1.00  0.00     0.214 C 
BRANCH  12  13
HETATM   13  O5  UNL     1      -0.028   0.824  -1.168  1.00  0.00    -0.358 OA
BRANCH  13  14
HETATM   14  C10 UNL     1      -1.215   0.915  -0.515  1.00  0.00     0.260 C 
HETATM   15  C11 UNL     1      -1.768   2.303  -0.882  1.00  0.00     0.061 C 
HETATM   16  C12 UNL     1      -2.929   2.788  -0.005  1.00  0.00     0.005 C 
HETATM   17  C13 UNL     1      -3.657   1.593   0.303  1.00  0.00     0.000 C 
HETATM   18  C14 UNL     1      -4.823   1.195   1.035  1.00  0.00     0.002 C 
HETATM   19  C15 UNL     1      -4.791  -0.348   0.783  1.00  0.00     0.034 C 
HETATM   20  C16 UNL     1      -3.465  -0.971   0.832  1.00  0.00     0.149 C 
HETATM   21  C17 UNL     1      -2.553  -1.080  -0.311  1.00  0.00     0.176 C 
HETATM   22  O8  UNL     1      -1.902  -0.138  -0.929  1.00  0.00    -0.351 OA
BRANCH  20  23
HETATM   23  O6  UNL     1      -3.772  -2.348   1.131  1.00  0.00    -0.393 OA
ATOM     24  H6  UNL     1      -2.913  -2.752   1.163  1.00  0.00     0.210 HD
ENDBRANCH  20  23
BRANCH  21  25
HETATM   25  C18 UNL     1      -3.232  -1.973  -1.371  1.00  0.00     0.198 C 
BRANCH  25  26
HETATM   26  O7  UNL     1      -4.105  -1.257  -2.172  1.00  0.00    -0.398 OA
ATOM     27  H7  UNL     1      -4.523  -1.807  -2.824  1.00  0.00     0.209 HD
ENDBRANCH  25  26
ENDBRANCH  21  25
ENDBRANCH  13  14
ENDBRANCH  12  13
ENDBRANCH  11  12
BRANCH   1  28
HETATM   28  C2  UNL     1       3.692   1.117   0.677  1.00  0.00     0.158 C 
BRANCH  28  29
HETATM   29  N2  UNL     1       5.111   0.964   0.886  1.00  0.00    -0.367 N 
ATOM     30  H2  UNL     1       5.526   0.033   0.847  1.00  0.00     0.161 HD
BRANCH  29  31
HETATM   31  C1  UNL     1       5.936   2.083   1.144  1.00  0.00     0.181 C 
HETATM   32  N1  UNL     1       5.358   3.372   1.197  1.00  0.00    -0.070 NA
HETATM   33  S1  UNL     1       7.544   1.907   1.380  1.00  0.00    -0.044 SA
ENDBRANCH  29  31
ENDBRANCH  28  29
ENDBRANCH   1  28
BRANCH   5  34
HETATM   34  C5  UNL     1       2.694  -2.469  -2.371  1.00  0.00     0.199 C 
BRANCH  34  35
HETATM   35  O1  UNL     1       1.777  -3.529  -2.430  1.00  0.00    -0.399 OA
ATOM     36  H1  UNL     1       1.770  -3.826  -3.332  1.00  0.00     0.209 HD
ENDBRANCH  34  35
ENDBRANCH   5  34
TORSDOF 11
