REMARK  17 active torsions:
REMARK  status: ('A' for Active; 'I' for Inactive)
REMARK       I    between atoms: C2_2  and  N1_4 
REMARK    1  A    between atoms: N1_4  and  C3_6 
REMARK    2  A    between atoms: C3_6  and  C5_8 
REMARK       I    between atoms: C5_8  and  N2_10 
REMARK    3  A    between atoms: N2_10  and  C6_12 
REMARK    4  A    between atoms: C6_12  and  C7_13 
REMARK    5  A    between atoms: C7_13  and  C9_15 
REMARK    6  A    between atoms: C9_15  and  O3_16 
REMARK    7  A    between atoms: C9_15  and  C10_18 
REMARK    8  A    between atoms: C10_18  and  O4_19 
REMARK    9  A    between atoms: C10_18  and  C11_21 
REMARK   10  A    between atoms: C11_21  and  O5_22 
REMARK   11  A    between atoms: C11_21  and  C12_24 
REMARK   12  A    between atoms: C12_24  and  O6_25 
REMARK   13  A    between atoms: C12_24  and  N3_27 
REMARK   14  A    between atoms: C14_29  and  C15_30 
REMARK   15  A    between atoms: C15_30  and  N4_31 
REMARK   16  A    between atoms: C19_38  and  N6_39 
REMARK   17  A    between atoms: N6_39  and  N7_41 
ROOT
HETATM    1  C12 UNL     1       1.978   0.012  -1.954  1.00  0.00     0.273 C 
ENDROOT
BRANCH   1   2
HETATM    2  C11 UNL     1       1.226   0.204  -0.676  1.00  0.00     0.199 C 
BRANCH   2   3
HETATM    3  C10 UNL     1      -0.239  -0.193  -0.733  1.00  0.00     0.180 C 
BRANCH   3   4
HETATM    4  C9  UNL     1      -1.104   0.639  -1.585  1.00  0.00     0.154 C 
BRANCH   4   5
HETATM    5  C7  UNL     1      -2.570   0.189  -1.631  1.00  0.00     0.031 C 
HETATM    6  C8  UNL     1      -3.305   1.280  -2.467  1.00  0.00     0.014 C 
BRANCH   5   7
HETATM    7  C6  UNL     1      -3.253   0.093  -0.321  1.00  0.00     0.129 C 
BRANCH   7   8
HETATM    8  N2  UNL     1      -4.678  -0.240  -0.540  1.00  0.00    -0.359 N 
HETATM    9  C5  UNL     1      -5.561  -0.391   0.544  1.00  0.00     0.240 C 
HETATM   10  O2  UNL     1      -5.121  -0.239   1.721  1.00  0.00    -0.271 OA
ATOM     11  H2  UNL     1      -5.025  -0.362  -1.491  1.00  0.00     0.162 HD
BRANCH   9  12
HETATM   12  C3  UNL     1      -6.979  -0.724   0.284  1.00  0.00     0.172 C 
HETATM   13  C4  UNL     1      -7.059  -2.032  -0.511  1.00  0.00     0.042 C 
BRANCH  12  14
HETATM   14  N1  UNL     1      -7.744  -0.843   1.501  1.00  0.00    -0.349 N 
HETATM   15  C2  UNL     1      -8.877  -0.011   1.689  1.00  0.00     0.214 C 
HETATM   16  C1  UNL     1      -9.683  -0.119   2.943  1.00  0.00     0.117 C 
HETATM   17  O1  UNL     1      -9.243   0.832   0.832  1.00  0.00    -0.274 OA
ATOM     18  H1  UNL     1      -7.474  -1.517   2.217  1.00  0.00     0.163 HD
ENDBRANCH  12  14
ENDBRANCH   9  12
ENDBRANCH   7   8
ENDBRANCH   5   7
ENDBRANCH   4   5
BRANCH   4  19
HETATM   19  O3  UNL     1      -0.652   0.657  -2.936  1.00  0.00    -0.392 OA
ATOM     20  H3  UNL     1       0.256   0.936  -2.908  1.00  0.00     0.210 HD
ENDBRANCH   4  19
ENDBRANCH   3   4
BRANCH   3  21
HETATM   21  O4  UNL     1      -0.717  -0.115   0.607  1.00  0.00    -0.390 OA
ATOM     22  H4  UNL     1      -0.159  -0.652   1.157  1.00  0.00     0.210 HD
ENDBRANCH   3  21
ENDBRANCH   2   3
BRANCH   2  23
HETATM   23  O5  UNL     1       1.796  -0.746   0.226  1.00  0.00    -0.388 OA
ATOM     24  H5  UNL     1       2.712  -0.498   0.262  1.00  0.00     0.210 HD
ENDBRANCH   2  23
ENDBRANCH   1   2
BRANCH   1  25
HETATM   25  O6  UNL     1       1.793  -1.269  -2.481  1.00  0.00    -0.372 OA
ATOM     26  H6  UNL     1       2.271  -1.391  -3.293  1.00  0.00     0.212 HD
ENDBRANCH   1  25
BRANCH   1  27
HETATM   27  N3  UNL     1       3.414   0.256  -1.749  1.00  0.00    -0.255 N 
HETATM   28  C13 UNL     1       3.927   1.031  -0.785  1.00  0.00     0.143 A 
HETATM   29  C14 UNL     1       5.291   0.999  -0.930  1.00  0.00     0.063 A 
HETATM   30  N8  UNL     1       5.538   0.202  -1.980  1.00  0.00    -0.287 N 
HETATM   31  N9  UNL     1       4.402  -0.244  -2.470  1.00  0.00    -0.238 N 
ATOM     32  H8  UNL     1       6.464  -0.024  -2.343  1.00  0.00     0.188 HD
ATOM     33  H9  UNL     1       4.301  -0.869  -3.270  1.00  0.00     0.208 HD
BRANCH  29  34
HETATM   34  C15 UNL     1       6.324   1.672  -0.138  1.00  0.00     0.207 C 
BRANCH  34  35
HETATM   35  N4  UNL     1       6.795   0.908   0.975  1.00  0.00    -0.186 N 
HETATM   36  C16 UNL     1       6.190   1.023   2.171  1.00  0.00     0.115 A 
HETATM   37  C17 UNL     1       6.616   0.298   3.278  1.00  0.00     0.092 A 
HETATM   38  C18 UNL     1       7.689  -0.567   3.164  1.00  0.00     0.260 A 
HETATM   39  O7  UNL     1       8.105  -1.247   4.162  1.00  0.00    -0.268 OA
HETATM   40  N5  UNL     1       8.269  -0.656   1.953  1.00  0.00    -0.154 N 
HETATM   41  C19 UNL     1       7.840   0.053   0.900  1.00  0.00     0.701 A 
ATOM     42  H5  UNL     1       9.063  -1.285   1.832  1.00  0.00     0.187 HD
BRANCH  41  43
HETATM   43  N6  UNL     1       8.417  -0.058  -0.237  1.00  0.00    -0.138 N 
ATOM     44  H6  UNL     1       8.082   0.486  -1.032  1.00  0.00     0.205 HD
BRANCH  43  45
HETATM   45  N7  UNL     1       9.503  -0.920  -0.393  1.00  0.00    -0.331 N 
ATOM     46  H72 UNL     1       9.826  -1.457   0.412  1.00  0.00     0.177 HD
ATOM     47  H71 UNL     1       9.963  -1.008  -1.299  1.00  0.00     0.177 HD
ENDBRANCH  43  45
ENDBRANCH  41  43
ENDBRANCH  34  35
ENDBRANCH  29  34
ENDBRANCH   1  27
TORSDOF 17
