REMARK  13 active torsions:
REMARK  status: ('A' for Active; 'I' for Inactive)
REMARK       I    between atoms: C2_2  and  N1_4 
REMARK    1  A    between atoms: N1_4  and  C3_5 
REMARK    2  A    between atoms: N1_4  and  C6_14 
REMARK    3  A    between atoms: C3_5  and  C4_6 
REMARK    4  A    between atoms: C4_6  and  N2_7 
REMARK       I    between atoms: N2_7  and  C5_9 
REMARK    5  A    between atoms: C10_23  and  N7_24 
REMARK    6  A    between atoms: N7_24  and  C11_26 
REMARK    7  A    between atoms: C11_26  and  C12_27 
REMARK    8  A    between atoms: C12_27  and  N8_28 
REMARK    9  A    between atoms: N10_35  and  C15_36 
REMARK   10  A    between atoms: C16_38  and  C17_39 
REMARK   11  A    between atoms: C17_39  and  O4_40 
REMARK   12  A    between atoms: C18_42  and  N11_43 
REMARK   13  A    between atoms: C19_47  and  N12_48 
ROOT
HETATM    1  C6  UNL     1       1.736  -0.236  -1.002  1.00  0.00     0.690 A 
HETATM    2  N5  UNL     1       0.926  -1.295  -1.016  1.00  0.00    -0.154 N 
ATOM      3  H5  UNL     1       1.272  -2.190  -1.360  1.00  0.00     0.187 HD
HETATM    4  C7  UNL     1      -0.368  -1.193  -0.572  1.00  0.00     0.290 A 
HETATM    5  O2  UNL     1      -1.078  -2.218  -0.614  1.00  0.00    -0.265 OA
HETATM    6  C8  UNL     1      -0.879  -0.018  -0.102  1.00  0.00     0.156 A 
HETATM    7  C9  UNL     1      -0.012   1.107  -0.091  1.00  0.00     0.111 A 
HETATM    8  N6  UNL     1       1.235   0.915  -0.543  1.00  0.00    -0.186 N 
ATOM      9  H6  UNL     1       1.859   1.722  -0.536  1.00  0.00     0.184 HD
HETATM   10  C10 UNL     1      -0.473   2.392   0.376  1.00  0.00     0.075 A 
HETATM   11  C13 UNL     1      -1.690   2.516   0.787  1.00  0.00     0.142 A 
HETATM   12  N9  UNL     1      -2.583   1.424   0.792  1.00  0.00    -0.296 N 
HETATM   13  C14 UNL     1      -3.957   1.658   1.187  1.00  0.00     0.177 C 
HETATM   14  N10 UNL     1      -2.236   0.099   0.356  1.00  0.00    -0.226 N 
ENDROOT
BRANCH  14  15
HETATM   15  C15 UNL     1      -3.107  -0.986   0.393  1.00  0.00     0.167 C 
HETATM   16  O3  UNL     1      -3.617  -1.548  -0.767  1.00  0.00    -0.326 OA
HETATM   17  C16 UNL     1      -4.635  -2.370  -0.331  1.00  0.00     0.186 C 
HETATM   18  C18 UNL     1      -4.261  -2.894   1.015  1.00  0.00     0.246 C 
HETATM   19  C19 UNL     1      -3.132  -1.964   1.514  1.00  0.00     0.208 C 
BRANCH  17  20
HETATM   20  C17 UNL     1      -6.002  -1.777  -0.434  1.00  0.00     0.198 C 
BRANCH  20  21
HETATM   21  O4  UNL     1      -6.992  -2.654   0.028  1.00  0.00    -0.398 OA
ATOM     22  H4  UNL     1      -7.861  -2.277  -0.038  1.00  0.00     0.209 HD
ENDBRANCH  20  21
ENDBRANCH  17  20
BRANCH  18  23
HETATM   23  N11 UNL     1      -3.738  -4.245   0.970  1.00  0.00    -0.070 N 
ATOM     24 3H11 UNL     1      -4.392  -4.873   0.503  1.00  0.00     0.274 HD
ATOM     25 2H11 UNL     1      -2.953  -4.310   0.322  1.00  0.00     0.274 HD
ATOM     26 1H11 UNL     1      -3.482  -4.603   1.890  1.00  0.00     0.274 HD
ENDBRANCH  18  23
BRANCH  19  27
HETATM   27  N12 UNL     1      -3.621  -1.449   2.766  1.00  0.00    -0.328 N 
HETATM   28  N13 UNL     1      -3.061  -1.618   3.856  1.00  0.00    -0.349 N 
ATOM     29 2H13 UNL     1      -2.197  -2.160   3.849  1.00  0.00     0.176 HD
ATOM     30 1H13 UNL     1      -3.408  -1.253   4.743  1.00  0.00     0.176 HD
ATOM     31  H12 UNL     1      -4.486  -0.909   2.754  1.00  0.00     0.180 HD
ENDBRANCH  19  27
ENDBRANCH  14  15
BRANCH  10  32
HETATM   32  N7  UNL     1       0.373   3.519   0.407  1.00  0.00    -0.385 N 
ATOM     33  H7  UNL     1       1.378   3.374   0.311  1.00  0.00     0.159 HD
BRANCH  32  34
HETATM   34  C11 UNL     1      -0.115   4.873   0.568  1.00  0.00     0.147 C 
BRANCH  34  35
HETATM   35  C12 UNL     1      -0.889   5.332  -0.638  1.00  0.00     0.249 C 
BRANCH  35  36
HETATM   36  N8  UNL     1      -0.101   5.324  -1.852  1.00  0.00    -0.078 N 
ATOM     37  H83 UNL     1       0.752   5.872  -1.736  1.00  0.00     0.274 HD
ATOM     38  H82 UNL     1       0.312   4.405  -2.012  1.00  0.00     0.274 HD
ATOM     39  H81 UNL     1      -0.626   5.635  -2.670  1.00  0.00     0.274 HD
ENDBRANCH  35  36
ENDBRANCH  34  35
ENDBRANCH  32  34
ENDBRANCH  10  32
BRANCH   1  40
HETATM   40  N1  UNL     1       3.097  -0.338  -1.452  1.00  0.00    -0.150 N 
HETATM   41  C2  UNL     1       3.377  -0.336  -2.825  1.00  0.00     0.234 C 
HETATM   42  C1  UNL     1       4.751  -0.423  -3.331  1.00  0.00     0.118 C 
HETATM   43  O1  UNL     1       2.438  -0.259  -3.650  1.00  0.00    -0.273 OA
BRANCH  40  44
HETATM   44  C3  UNL     1       4.184  -0.457  -0.493  1.00  0.00     0.170 C 
BRANCH  44  45
HETATM   45  C4  UNL     1       4.453  -1.914  -0.160  1.00  0.00     0.143 C 
BRANCH  45  46
HETATM   46  N2  UNL     1       5.512  -2.039   0.791  1.00  0.00    -0.363 N 
HETATM   47  C5  UNL     1       6.841  -1.712   0.437  1.00  0.00     0.181 C 
HETATM   48  N3  UNL     1       7.255  -1.730  -0.778  1.00  0.00    -0.374 N 
HETATM   49  N4  UNL     1       7.753  -1.349   1.467  1.00  0.00    -0.064 NA
ATOM     50  H32 UNL     1       6.601  -1.990  -1.516  1.00  0.00     0.158 HD
ATOM     51  H31 UNL     1       8.214  -1.494  -1.033  1.00  0.00     0.158 HD
ATOM     52  H2  UNL     1       5.307  -2.367   1.735  1.00  0.00     0.162 HD
ENDBRANCH  45  46
ENDBRANCH  44  45
ENDBRANCH  40  44
ENDBRANCH   1  40
TORSDOF 13
