REMARK  17 active torsions:
REMARK  status: ('A' for Active; 'I' for Inactive)
REMARK    1  A    between atoms: O1_2  and  C2_3 
REMARK    2  A    between atoms: C2_3  and  C3_4 
REMARK    3  A    between atoms: C2_3  and  C18_45 
REMARK    4  A    between atoms: C3_4  and  C4_5 
REMARK    5  A    between atoms: C4_5  and  N1_6 
REMARK    6  A    between atoms: C6_11  and  N3_12 
REMARK    7  A    between atoms: N3_12  and  C7_14 
REMARK    8  A    between atoms: C7_14  and  C8_15 
REMARK    9  A    between atoms: C8_15  and  N4_16 
REMARK   10  A    between atoms: C8_15  and  C15_34 
REMARK       I    between atoms: N4_16  and  C9_18 
REMARK   11  A    between atoms: C9_18  and  C10_20 
REMARK   12  A    between atoms: C11_24  and  C12_25 
REMARK   13  A    between atoms: C12_25  and  N6_27 
REMARK   14  A    between atoms: C14_31  and  O5_32 
REMARK   15  A    between atoms: C17_41  and  N8_42 
REMARK   16  A    between atoms: C18_45  and  N9_46 
REMARK   17  A    between atoms: C18_45  and  N10_50 
ROOT
HETATM    1  N1  UNL     1      -1.960  -0.191  -0.265  1.00  0.00    -0.281 N 
HETATM    2  C5  UNL     1      -1.385   0.850  -0.939  1.00  0.00     0.342 C 
HETATM    3  O2  UNL     1      -1.811   1.033  -2.109  1.00  0.00    -0.246 OA
HETATM    4  N2  UNL     1      -0.430   1.694  -0.510  1.00  0.00    -0.141 N 
ATOM      5  H2  UNL     1      -0.159   2.417  -1.177  1.00  0.00     0.189 HD
HETATM    6  C6  UNL     1       0.232   1.729   0.686  1.00  0.00     0.685 C 
HETATM    7  N7  UNL     1       0.317   0.674   1.504  1.00  0.00    -0.153 N 
ATOM      8  H7  UNL     1       1.172   0.627   2.058  1.00  0.00     0.187 HD
HETATM    9  C16 UNL     1      -0.564  -0.351   1.713  1.00  0.00     0.303 C 
HETATM   10  O8  UNL     1      -0.491  -0.980   2.784  1.00  0.00    -0.263 OA
HETATM   11  C17 UNL     1      -1.561  -0.798   0.864  1.00  0.00     0.175 C 
ENDROOT
BRANCH   6  12
HETATM   12  N3  UNL     1       0.784   2.803   1.032  1.00  0.00    -0.223 N 
ATOM     13  H3  UNL     1       0.681   3.568   0.365  1.00  0.00     0.177 HD
BRANCH  12  14
HETATM   14  C7  UNL     1       1.529   3.131   2.199  1.00  0.00     0.174 C 
BRANCH  14  15
HETATM   15  C8  UNL     1       2.994   3.443   1.872  1.00  0.00     0.204 C 
BRANCH  15  16
HETATM   16  N4  UNL     1       3.589   2.265   1.250  1.00  0.00    -0.340 N 
HETATM   17  C9  UNL     1       4.688   1.605   1.828  1.00  0.00     0.273 C 
HETATM   18  O3  UNL     1       5.137   2.078   2.910  1.00  0.00    -0.266 OA
ATOM     19  H4  UNL     1       3.199   1.912   0.376  1.00  0.00     0.163 HD
BRANCH  17  20
HETATM   20  C10 UNL     1       5.336   0.432   1.278  1.00  0.00     0.158 A 
HETATM   21  N5  UNL     1       6.396  -0.221   1.814  1.00  0.00    -0.253 N 
HETATM   22  O4  UNL     1       6.714  -1.207   1.077  1.00  0.00    -0.237 OA
ATOM     23  H5  UNL     1       6.868   0.040   2.680  1.00  0.00     0.195 HD
HETATM   24  C11 UNL     1       5.947  -1.312   0.034  1.00  0.00     0.141 A 
HETATM   25  C14 UNL     1       5.039  -0.263   0.131  1.00  0.00     0.134 A 
BRANCH  24  26
HETATM   26  C12 UNL     1       5.973  -2.305  -1.064  1.00  0.00     0.241 C 
HETATM   27  C13 UNL     1       7.104  -3.296  -0.842  1.00  0.00     0.047 C 
BRANCH  26  28
HETATM   28  N6  UNL     1       4.694  -2.961  -1.106  1.00  0.00    -0.069 N 
ATOM     29  H63 UNL     1       4.433  -3.372  -0.210  1.00  0.00     0.275 HD
ATOM     30  H62 UNL     1       3.918  -2.305  -1.188  1.00  0.00     0.275 HD
ATOM     31  H61 UNL     1       4.712  -3.645  -1.862  1.00  0.00     0.275 HD
ENDBRANCH  26  28
ENDBRANCH  24  26
BRANCH  25  32
HETATM   32  O5  UNL     1       4.036  -0.005  -0.785  1.00  0.00    -0.356 OA
ATOM     33  H5  UNL     1       3.831  -0.486  -1.578  1.00  0.00     0.218 HD
ENDBRANCH  25  32
ENDBRANCH  17  20
ENDBRANCH  15  16
BRANCH  15  34
HETATM   34  C15 UNL     1       3.042   4.614   0.981  1.00  0.00     0.198 C 
HETATM   35  O6  UNL     1       3.547   4.525  -0.153  1.00  0.00    -0.646 OA
HETATM   36  O7  UNL     1       2.517   5.805   1.430  1.00  0.00    -0.646 OA
ENDBRANCH  15  34
ENDBRANCH  14  15
ENDBRANCH  12  14
ENDBRANCH   6  12
BRANCH   1  37
HETATM   37  C4  UNL     1      -3.188  -0.739  -0.830  1.00  0.00     0.138 C 
BRANCH  37  38
HETATM   38  C3  UNL     1      -4.351   0.009  -0.230  1.00  0.00     0.056 C 
BRANCH  38  39
HETATM   39  C2  UNL     1      -5.698  -0.433  -0.731  1.00  0.00     0.180 C 
BRANCH  39  40
HETATM   40  O1  UNL     1      -5.858  -0.295  -2.099  1.00  0.00    -0.387 OA
HETATM   41  C1  UNL     1      -6.849   0.609  -2.441  1.00  0.00     0.202 C 
ENDBRANCH  39  40
BRANCH  39  42
HETATM   42  C18 UNL     1      -6.137  -1.783  -0.259  1.00  0.00     0.406 C 
BRANCH  42  43
HETATM   43  N9  UNL     1      -5.461  -2.897  -0.841  1.00  0.00    -0.048 N 
ATOM     44  H93 UNL     1      -5.524  -2.848  -1.858  1.00  0.00     0.276 HD
ATOM     45  H92 UNL     1      -4.454  -2.796  -0.715  1.00  0.00     0.276 HD
ATOM     46  H91 UNL     1      -5.760  -3.817  -0.519  1.00  0.00     0.276 HD
ENDBRANCH  42  43
BRANCH  42  47
HETATM   47  N10 UNL     1      -7.573  -1.986  -0.479  1.00  0.00    -0.048 N 
ATOM     48 3H10 UNL     1      -8.125  -1.243  -0.052  1.00  0.00     0.276 HD
ATOM     49 2H10 UNL     1      -7.827  -1.830  -1.454  1.00  0.00     0.276 HD
ATOM     50 1H10 UNL     1      -7.872  -2.906  -0.157  1.00  0.00     0.276 HD
ENDBRANCH  42  47
ENDBRANCH  39  42
ENDBRANCH  38  39
ENDBRANCH  37  38
ENDBRANCH   1  37
BRANCH  11  51
HETATM   51  N8  UNL     1      -2.169  -1.901   1.179  1.00  0.00    -0.381 N 
ATOM     52  H82 UNL     1      -2.904  -2.231   0.553  1.00  0.00     0.157 HD
ATOM     53  H81 UNL     1      -1.866  -2.362   2.037  1.00  0.00     0.157 HD
ENDBRANCH  11  51
TORSDOF 17
