REMARK  14 active torsions:
REMARK  status: ('A' for Active; 'I' for Inactive)
REMARK    1  A    between atoms: S1_2  and  N1_5 
REMARK       I    between atoms: N1_5  and  C2_7 
REMARK    2  A    between atoms: N3_9  and  C3_11 
REMARK    3  A    between atoms: C3_11  and  C4_12 
REMARK    4  A    between atoms: C4_12  and  C5_13 
REMARK    5  A    between atoms: C5_13  and  N4_14 
REMARK    6  A    between atoms: N4_14  and  C6_17 
REMARK    7  A    between atoms: C6_17  and  C7_18 
REMARK    8  A    between atoms: C7_18  and  C8_19 
REMARK    9  A    between atoms: C8_19  and  N5_20 
REMARK       I    between atoms: N5_20  and  C9_22 
REMARK       I    between atoms: C9_22  and  N6_24 
REMARK   10  A    between atoms: N6_24  and  C10_26 
REMARK   11  A    between atoms: C12_35  and  C13_36 
REMARK   12  A    between atoms: C13_36  and  N10_37 
REMARK   13  A    between atoms: C13_36  and  N11_41 
REMARK   14  A    between atoms: N12_45  and  C14_46 
ROOT
HETATM    1  C10 UNL     1      -4.587  -0.448   0.013  1.00  0.00     0.710 A 
HETATM    2  N7  UNL     1      -4.707  -0.815   1.308  1.00  0.00    -0.022 N 
ATOM      3  H7  UNL     1      -4.132  -1.583   1.654  1.00  0.00     0.203 HD
HETATM    4  C11 UNL     1      -5.562  -0.202   2.168  1.00  0.00     0.691 A 
HETATM    5  N8  UNL     1      -5.660  -0.567   3.394  1.00  0.00    -0.234 N 
ATOM      6  H81 UNL     1      -6.302  -0.107   4.040  1.00  0.00     0.174 HD
ATOM      7  H82 UNL     1      -5.099  -1.331   3.770  1.00  0.00     0.174 HD
HETATM    8  N9  UNL     1      -6.301   0.805   1.672  1.00  0.00    -0.175 N 
ATOM      9  H9  UNL     1      -6.954   1.288   2.289  1.00  0.00     0.185 HD
HETATM   10  C12 UNL     1      -6.207   1.201   0.374  1.00  0.00     0.180 A 
HETATM   11  N12 UNL     1      -5.354   0.576  -0.447  1.00  0.00    -0.108 N 
ENDROOT
BRANCH   1  12
HETATM   12  N6  UNL     1      -3.798  -0.985  -0.838  1.00  0.00    -0.140 N 
HETATM   13  C9  UNL     1      -2.960  -2.073  -0.402  1.00  0.00     0.334 C 
HETATM   14  N5  UNL     1      -1.550  -1.929  -0.373  1.00  0.00    -0.342 N 
HETATM   15  O3  UNL     1      -3.448  -3.170  -0.039  1.00  0.00    -0.247 OA
ATOM     16  H5  UNL     1      -1.128  -1.049  -0.668  1.00  0.00     0.164 HD
ATOM     17  H6  UNL     1      -3.763  -0.652  -1.801  1.00  0.00     0.189 HD
BRANCH  14  18
HETATM   18  C8  UNL     1      -0.711  -3.004   0.066  1.00  0.00     0.126 C 
BRANCH  18  19
HETATM   19  C7  UNL     1       0.760  -2.632   0.006  1.00  0.00     0.047 C 
BRANCH  19  20
HETATM   20  C6  UNL     1       1.034  -1.427   0.887  1.00  0.00     0.234 C 
BRANCH  20  21
HETATM   21  N4  UNL     1       2.429  -1.077   0.804  1.00  0.00    -0.075 N 
ATOM     22  H42 UNL     1       2.587  -0.147   1.192  1.00  0.00     0.277 HD
ATOM     23  H41 UNL     1       2.697  -0.909  -0.166  1.00  0.00     0.277 HD
BRANCH  21  24
HETATM   24  C5  UNL     1       3.314  -2.030   1.411  1.00  0.00     0.237 C 
BRANCH  24  25
HETATM   25  C4  UNL     1       4.756  -1.505   1.210  1.00  0.00     0.072 C 
BRANCH  25  26
HETATM   26  C3  UNL     1       4.802  -0.170   1.871  1.00  0.00     0.065 C 
BRANCH  26  27
HETATM   27  N3  UNL     1       6.012   0.543   1.842  1.00  0.00    -0.344 N 
HETATM   28  C2  UNL     1       6.928   0.663   1.004  1.00  0.00     0.201 C 
HETATM   29  N1  UNL     1       8.049   1.485   1.292  1.00  0.00    -0.258 N 
HETATM   30  N2  UNL     1       6.896   0.007  -0.246  1.00  0.00    -0.063 NA
ATOM     31  H1  UNL     1       8.556   1.391   2.172  1.00  0.00     0.181 HD
ATOM     32  H3  UNL     1       6.178   1.080   2.693  1.00  0.00     0.167 HD
BRANCH  29  33
HETATM   33  S1  UNL     1       8.529   2.647   0.113  1.00  0.00     0.229 S 
HETATM   34  C1  UNL     1       8.994   1.854  -1.393  1.00  0.00     0.186 C 
HETATM   35  O1  UNL     1       9.634   3.528   0.651  1.00  0.00    -0.206 OA
HETATM   36  O2  UNL     1       7.311   3.522  -0.148  1.00  0.00    -0.206 OA
ENDBRANCH  29  33
ENDBRANCH  26  27
ENDBRANCH  25  26
ENDBRANCH  24  25
ENDBRANCH  21  24
ENDBRANCH  20  21
ENDBRANCH  19  20
ENDBRANCH  18  19
ENDBRANCH  14  18
ENDBRANCH   1  12
BRANCH  11  37
HETATM   37  C14 UNL     1      -5.249   0.979  -1.797  1.00  0.00     0.222 A 
HETATM   38  N13 UNL     1      -4.500   1.951  -2.346  1.00  0.00    -0.219 N 
HETATM   39  O4  UNL     1      -4.699   1.991  -3.618  1.00  0.00    -0.152 OA
ATOM     40  H13 UNL     1      -3.868   2.565  -1.832  1.00  0.00     0.198 HD
HETATM   41  N14 UNL     1      -5.558   1.084  -3.975  1.00  0.00    -0.203 N 
HETATM   42  C15 UNL     1      -5.938   0.417  -2.871  1.00  0.00     0.314 A 
ATOM     43  H14 UNL     1      -5.886   0.909  -4.925  1.00  0.00     0.200 HD
HETATM   44  O5  UNL     1      -6.768  -0.539  -2.834  1.00  0.00    -0.262 OA
ENDBRANCH  11  37
BRANCH  10  45
HETATM   45  C13 UNL     1      -7.032   2.320  -0.153  1.00  0.00     0.446 C 
BRANCH  45  46
HETATM   46  N10 UNL     1      -6.940   3.382   0.862  1.00  0.00    -0.043 N 
ATOM     47 3H10 UNL     1      -7.207   3.080   1.799  1.00  0.00     0.277 HD
ATOM     48 2H10 UNL     1      -5.983   3.649   1.092  1.00  0.00     0.277 HD
ATOM     49 1H10 UNL     1      -7.506   4.150   0.500  1.00  0.00     0.277 HD
ENDBRANCH  45  46
BRANCH  45  50
HETATM   50  N11 UNL     1      -8.420   1.912  -0.321  1.00  0.00    -0.043 N 
ATOM     51 3H11 UNL     1      -8.499   1.079  -0.905  1.00  0.00     0.277 HD
ATOM     52 2H11 UNL     1      -8.808   1.533   0.543  1.00  0.00     0.277 HD
ATOM     53 1H11 UNL     1      -8.986   2.680  -0.683  1.00  0.00     0.277 HD
ENDBRANCH  45  50
ENDBRANCH  10  45
TORSDOF 14
