REMARK  1 active torsions:
REMARK  status: ('A' for Active; 'I' for Inactive)
REMARK    1  A    between atoms: N1_2  and  C2_5 
ROOT
HETATM    1  C2  UNL     1      -0.332   0.681   0.321  1.00  0.00     0.209 C 
HETATM    2  C3  UNL     1       0.216  -0.401   1.193  1.00  0.00     0.037 C 
HETATM    3  C4  UNL     1       1.556  -0.823   0.675  1.00  0.00     0.028 C 
HETATM    4  C5  UNL     1       2.239   0.216  -0.160  1.00  0.00     0.167 C 
HETATM    5  O1  UNL     1       1.520   0.677  -1.217  1.00  0.00    -0.389 OA
HETATM    6  C6  UNL     1       0.151   0.597  -1.094  1.00  0.00     0.200 C 
ENDROOT
BRANCH   1   7
HETATM    7  N1  UNL     1      -1.769   0.790   0.356  1.00  0.00    -0.073 N 
HETATM    8  C1  UNL     1      -2.453  -0.371  -0.118  1.00  0.00     0.267 C 
ATOM      9  H12 UNL     1      -2.077   1.619  -0.152  1.00  0.00     0.277 HD
ATOM     10  H11 UNL     1      -2.086   1.034   1.294  1.00  0.00     0.277 HD
ENDBRANCH   1   7
TORSDOF 1
