REMARK  2 active torsions:
REMARK  status: ('A' for Active; 'I' for Inactive)
REMARK    1  A    between atoms: C2_2  and  C4_4 
REMARK    2  A    between atoms: C4_4  and  N1_5 
ROOT
HETATM    1  C4  UNL     1      -0.397   0.315  -0.057  1.00  0.00     0.149 C 
HETATM    2  C5  UNL     1      -0.406  -0.656   1.107  1.00  0.00     0.067 C 
HETATM    3  C6  UNL     1      -1.926  -0.745   1.315  1.00  0.00     0.170 C 
HETATM    4  O1  UNL     1      -2.523  -0.590   0.098  1.00  0.00    -0.389 OA
HETATM    5  C7  UNL     1      -1.566  -0.248  -0.854  1.00  0.00     0.206 C 
ENDROOT
BRANCH   1   6
HETATM    6  C2  UNL     1       0.885   0.346  -0.803  1.00  0.00     0.015 C 
HETATM    7  C1  UNL     1       1.310  -0.965  -1.391  1.00  0.00     0.012 C 
HETATM    8  C3  UNL     1       1.961   0.783   0.202  1.00  0.00     0.012 C 
ENDBRANCH   1   6
BRANCH   1   9
HETATM    9  N1  UNL     1      -0.690   1.631   0.454  1.00  0.00    -0.068 N 
ATOM     10  H13 UNL     1       0.074   2.004   1.017  1.00  0.00     0.275 HD
ATOM     11  H12 UNL     1      -0.689   2.338  -0.281  1.00  0.00     0.275 HD
ATOM     12  H11 UNL     1      -1.571   1.610   0.967  1.00  0.00     0.275 HD
ENDBRANCH   1   9
TORSDOF 2
