REMARK  1 active torsions:
REMARK  status: ('A' for Active; 'I' for Inactive)
REMARK    1  A    between atoms: O1_2  and  C2_3 
ROOT
HETATM    1  C2  UNL     1      -0.631   0.416  -0.063  1.00  0.00     0.159 C 
HETATM    2  C3  UNL     1       0.204   0.984   1.040  1.00  0.00     0.042 C 
HETATM    3  C4  UNL     1       1.609   0.551   1.081  1.00  0.00     0.047 C 
HETATM    4  C5  UNL     1       2.014  -0.601   0.255  1.00  0.00     0.060 C 
HETATM    5  N1  UNL     1       1.196  -0.963  -0.828  1.00  0.00    -0.380 N 
ATOM      6  H1  UNL     1       1.352  -1.842  -1.322  1.00  0.00     0.164 HD
HETATM    7  C6  UNL     1       0.165  -0.104  -1.221  1.00  0.00     0.091 C 
ENDROOT
BRANCH   1   8
HETATM    8  O1  UNL     1      -1.390  -0.667   0.432  1.00  0.00    -0.386 OA
HETATM    9  C1  UNL     1      -2.750  -0.439   0.233  1.00  0.00     0.202 C 
ENDBRANCH   1   8
TORSDOF 1
