REMARK  5 active torsions:
REMARK  status: ('A' for Active; 'I' for Inactive)
REMARK    1  A    between atoms: N1_1  and  C1_4 
REMARK    2  A    between atoms: C2_7  and  C3_8 
REMARK    3  A    between atoms: N6_17  and  C5_18 
REMARK    4  A    between atoms: C5_18  and  C6_19 
REMARK    5  A    between atoms: C6_19  and  O2_20 
ROOT
HETATM    1  C1  UNL     1      -0.526   2.776  -0.600  1.00  0.00     0.681 A 
HETATM    2  N2  UNL     1       0.315   2.024   0.100  1.00  0.00    -0.172 N 
ATOM      3  H2  UNL     1       0.970   2.469   0.743  1.00  0.00     0.186 HD
HETATM    4  C2  UNL     1       0.317   0.650  -0.029  1.00  0.00     0.177 A 
HETATM    5  N6  UNL     1      -0.548   0.088  -0.878  1.00  0.00    -0.258 N 
HETATM    6  C7  UNL     1      -1.409   0.887  -1.592  1.00  0.00     0.346 A 
HETATM    7  O3  UNL     1      -2.186   0.304  -2.362  1.00  0.00    -0.246 OA
HETATM    8  N7  UNL     1      -1.409   2.205  -1.465  1.00  0.00    -0.141 N 
ATOM      9  H7  UNL     1      -2.057   2.780  -2.004  1.00  0.00     0.189 HD
ENDROOT
BRANCH   4  10
HETATM   10  C3  UNL     1       1.297  -0.020   0.805  1.00  0.00     0.170 A 
HETATM   11  N3  UNL     1       1.537  -1.325   0.900  1.00  0.00    -0.278 N 
HETATM   12  N4  UNL     1       2.504  -1.577   1.762  1.00  0.00    -0.250 N 
ATOM     13  H3  UNL     1       1.037  -2.041   0.373  1.00  0.00     0.189 HD
HETATM   14  C4  UNL     1       2.923  -0.406   2.258  1.00  0.00     0.340 A 
ATOM     15  H4  UNL     1       2.867  -2.498   2.006  1.00  0.00     0.192 HD
HETATM   16  O1  UNL     1       3.834  -0.276   3.106  1.00  0.00    -0.245 OA
HETATM   17  N5  UNL     1       2.177   0.542   1.666  1.00  0.00    -0.289 N 
ATOM     18  H5  UNL     1       2.262   1.543   1.841  1.00  0.00     0.172 HD
ENDBRANCH   4  10
BRANCH   5  19
HETATM   19  C5  UNL     1      -0.584  -1.304  -1.039  1.00  0.00     0.102 C 
BRANCH  19  20
HETATM   20  C6  UNL     1      -1.446  -2.152  -0.214  1.00  0.00     0.209 C 
BRANCH  20  21
HETATM   21  O2  UNL     1      -2.786  -1.745  -0.438  1.00  0.00    -0.396 OA
ATOM     22  H2  UNL     1      -3.345  -2.295   0.097  1.00  0.00     0.209 HD
ENDBRANCH  20  21
ENDBRANCH  19  20
ENDBRANCH   5  19
BRANCH   1  23
HETATM   23  N1  UNL     1      -0.550   4.074  -0.497  1.00  0.00    -0.234 N 
ATOM     24  H12 UNL     1       0.111   4.502   0.151  1.00  0.00     0.174 HD
ATOM     25  H11 UNL     1      -1.196   4.652  -1.035  1.00  0.00     0.174 HD
ENDBRANCH   1  23
TORSDOF 5
