REMARK  5 active torsions:
REMARK  status: ('A' for Active; 'I' for Inactive)
REMARK    1  A    between atoms: N1_1  and  C1_4 
REMARK    2  A    between atoms: C2_7  and  N3_8 
REMARK    3  A    between atoms: N3_8  and  O1_10 
REMARK    4  A    between atoms: O1_10  and  C3_11 
REMARK    5  A    between atoms: C3_11  and  C4_12 
ROOT
HETATM    1  C1  UNL     1      -2.561  -1.577   0.799  1.00  0.00     0.693 A 
HETATM    2  N2  UNL     1      -1.287  -1.150   0.584  1.00  0.00    -0.021 N 
ATOM      3  H2  UNL     1      -0.579  -1.884   0.608  1.00  0.00     0.203 HD
HETATM    4  C2  UNL     1      -0.813   0.082   0.346  1.00  0.00     0.718 A 
HETATM    5  N7  UNL     1      -1.468   1.244   0.236  1.00  0.00    -0.169 N 
ATOM      6  H7  UNL     1      -0.911   2.070   0.016  1.00  0.00     0.186 HD
HETATM    7  C6  UNL     1      -2.809   1.427   0.390  1.00  0.00     0.184 A 
HETATM    8  N8  UNL     1      -3.202   2.631   0.276  1.00  0.00    -0.381 N 
ATOM      9  H81 UNL     1      -4.206   2.768   0.391  1.00  0.00     0.157 HD
ATOM     10  H82 UNL     1      -2.464   3.308   0.083  1.00  0.00     0.157 HD
HETATM   11  C7  UNL     1      -3.804   0.514   0.650  1.00  0.00     0.303 A 
HETATM   12  O2  UNL     1      -4.971   0.962   0.736  1.00  0.00    -0.263 OA
HETATM   13  N9  UNL     1      -3.645  -0.810   0.819  1.00  0.00    -0.153 N 
ATOM     14  H9  UNL     1      -4.513  -1.317   0.994  1.00  0.00     0.187 HD
ENDROOT
BRANCH   4  15
HETATM   15  N3  UNL     1       0.461   0.160   0.201  1.00  0.00    -0.095 N 
ATOM     16  H3  UNL     1       0.906   1.059   0.017  1.00  0.00     0.213 HD
BRANCH  15  17
HETATM   17  O1  UNL     1       1.215  -0.980   0.297  1.00  0.00    -0.260 OA
BRANCH  17  18
HETATM   18  C3  UNL     1       2.313  -1.150  -0.584  1.00  0.00     0.262 C 
BRANCH  18  19
HETATM   19  C4  UNL     1       3.251  -0.015  -0.345  1.00  0.00     0.070 A 
HETATM   20  C5  UNL     1       4.458   0.219  -0.986  1.00  0.00     0.137 A 
HETATM   21  N4  UNL     1       5.011   1.351  -0.487  1.00  0.00    -0.296 N 
HETATM   22  N5  UNL     1       4.176   1.795   0.426  1.00  0.00    -0.243 N 
ATOM     23  H4  UNL     1       5.897   1.774  -0.764  1.00  0.00     0.187 HD
HETATM   24  N6  UNL     1       3.123   1.002   0.530  1.00  0.00    -0.287 N 
ATOM     25  H5  UNL     1       4.321   2.639   0.980  1.00  0.00     0.208 HD
ATOM     26  H6  UNL     1       2.340   1.138   1.169  1.00  0.00     0.188 HD
ENDBRANCH  18  19
ENDBRANCH  17  18
ENDBRANCH  15  17
ENDBRANCH   4  15
BRANCH   1  27
HETATM   27  N1  UNL     1      -2.749  -2.822   1.001  1.00  0.00    -0.234 N 
ATOM     28  H12 UNL     1      -1.916  -3.411   0.986  1.00  0.00     0.174 HD
ATOM     29  H11 UNL     1      -3.704  -3.142   1.162  1.00  0.00     0.174 HD
ENDBRANCH   1  27
TORSDOF 5
