REMARK  4 active torsions:
REMARK  status: ('A' for Active; 'I' for Inactive)
REMARK    1  A    between atoms: C3_8  and  N4_9 
REMARK    2  A    between atoms: N4_9  and  N5_11 
REMARK    3  A    between atoms: N5_11  and  C4_13 
REMARK    4  A    between atoms: N6_14  and  N7_16 
REMARK       I    between atoms: N7_16  and  C5_18 
ROOT
HETATM    1  N1  UNL     1      -6.359  -1.995   0.174  1.00  0.00    -0.190 NA
HETATM    2  C1  UNL     1      -5.328  -1.463   0.172  1.00  0.00     0.123 C 
HETATM    3  C2  UNL     1      -4.043  -0.800   0.151  1.00  0.00     0.173 A 
HETATM    4  N2  UNL     1      -2.902  -1.466   0.400  1.00  0.00    -0.273 N 
ATOM      5  H2  UNL     1      -2.939  -2.464   0.609  1.00  0.00     0.188 HD
HETATM    6  N3  UNL     1      -1.733  -0.849   0.378  1.00  0.00    -0.130 N 
ATOM      7  H3  UNL     1      -0.894  -1.396   0.573  1.00  0.00     0.205 HD
HETATM    8  C3  UNL     1      -1.592   0.459   0.112  1.00  0.00     0.713 A 
HETATM    9  N10 UNL     1      -2.704   1.162  -0.142  1.00  0.00    -0.171 N 
ATOM     10  H10 UNL     1      -2.639   2.159  -0.349  1.00  0.00     0.186 HD
HETATM   11  C6  UNL     1      -3.926   0.547  -0.125  1.00  0.00     0.154 A 
HETATM   12  N11 UNL     1      -4.999   1.210  -0.367  1.00  0.00    -0.383 N 
ATOM     13 1H11 UNL     1      -4.913   2.206  -0.571  1.00  0.00     0.157 HD
ATOM     14 2H11 UNL     1      -5.910   0.751  -0.354  1.00  0.00     0.157 HD
ENDROOT
BRANCH   8  15
HETATM   15  N4  UNL     1      -0.407   1.020   0.104  1.00  0.00    -0.130 N 
ATOM     16  H4  UNL     1      -0.298   2.014  -0.097  1.00  0.00     0.205 HD
BRANCH  15  17
HETATM   17  N5  UNL     1       0.704   0.216   0.379  1.00  0.00    -0.281 N 
ATOM     18  H5  UNL     1       1.031   0.157   1.343  1.00  0.00     0.188 HD
BRANCH  17  19
HETATM   19  C4  UNL     1       1.401  -0.522  -0.614  1.00  0.00     0.214 C 
HETATM   20  N6  UNL     1       2.558  -0.144  -0.974  1.00  0.00    -0.293 N 
ATOM     21  H6  UNL     1       3.048  -0.683  -1.688  1.00  0.00     0.187 HD
BRANCH  20  22
HETATM   22  N7  UNL     1       3.189   0.981  -0.433  1.00  0.00    -0.273 N 
HETATM   23  C5  UNL     1       4.588   0.941  -0.188  1.00  0.00     0.200 C 
HETATM   24  N8  UNL     1       5.428   0.596  -1.107  1.00  0.00    -0.372 N 
HETATM   25  N9  UNL     1       5.129   1.283   1.099  1.00  0.00    -0.062 NA
ATOM     26  H82 UNL     1       5.044   0.353  -2.020  1.00  0.00     0.158 HD
ATOM     27  H81 UNL     1       6.432   0.567  -0.931  1.00  0.00     0.158 HD
ATOM     28  H7  UNL     1       2.651   1.820  -0.217  1.00  0.00     0.189 HD
ENDBRANCH  20  22
ENDBRANCH  17  19
ENDBRANCH  15  17
ENDBRANCH   8  15
TORSDOF 4
