REMARK  5 active torsions:
REMARK  status: ('A' for Active; 'I' for Inactive)
REMARK    1  A    between atoms: C2_5  and  C3_6 
REMARK    2  A    between atoms: C3_6  and  N3_7 
REMARK    3  A    between atoms: C3_6  and  N4_11 
REMARK    4  A    between atoms: C5_17  and  N6_18 
REMARK    5  A    between atoms: N6_18  and  S1_20 
ROOT
HETATM    1  N1  UNL     1      -0.238   3.737  -0.626  1.00  0.00    -0.063 NA
HETATM    2  C1  UNL     1      -0.214   2.355  -0.320  1.00  0.00     0.194 A 
HETATM    3  N2  UNL     1       0.975   1.710  -0.212  1.00  0.00    -0.329 N 
ATOM      4  H2  UNL     1       1.845   2.224  -0.351  1.00  0.00     0.168 HD
HETATM    5  C2  UNL     1       1.014   0.411   0.074  1.00  0.00     0.097 A 
HETATM    6  C4  UNL     1      -0.203  -0.274   0.262  1.00  0.00     0.117 A 
HETATM    7  N5  UNL     1      -0.137  -1.643   0.565  1.00  0.00    -0.096 NA
HETATM    8  C5  UNL     1      -1.407   0.353   0.158  1.00  0.00     0.144 A 
HETATM    9  N7  UNL     1      -1.365   1.692  -0.139  1.00  0.00    -0.314 N 
ATOM     10  H7  UNL     1      -2.244   2.203  -0.225  1.00  0.00     0.170 HD
ENDROOT
BRANCH   5  11
HETATM   11  C3  UNL     1       2.311  -0.321   0.198  1.00  0.00     0.429 C 
BRANCH  11  12
HETATM   12  N3  UNL     1       2.247  -1.585  -0.501  1.00  0.00    -0.045 N 
ATOM     13  H33 UNL     1       1.460  -2.152  -0.188  1.00  0.00     0.277 HD
ATOM     14  H32 UNL     1       1.970  -1.466  -1.475  1.00  0.00     0.277 HD
ATOM     15  H31 UNL     1       3.132  -2.085  -0.416  1.00  0.00     0.277 HD
ENDBRANCH  11  12
BRANCH  11  16
HETATM   16  N4  UNL     1       2.548  -0.619   1.598  1.00  0.00    -0.045 N 
ATOM     17  H43 UNL     1       2.513   0.214   2.185  1.00  0.00     0.277 HD
ATOM     18  H42 UNL     1       1.772  -1.125   2.025  1.00  0.00     0.277 HD
ATOM     19  H41 UNL     1       3.433  -1.119   1.683  1.00  0.00     0.277 HD
ENDBRANCH  11  16
ENDBRANCH   5  11
BRANCH   8  20
HETATM   20  N6  UNL     1      -2.497  -0.188   0.309  1.00  0.00    -0.254 N 
ATOM     21  H6  UNL     1      -3.240   0.499   0.179  1.00  0.00     0.181 HD
BRANCH  20  22
HETATM   22  S1  UNL     1      -3.161  -1.661   0.653  1.00  0.00     0.360 S 
HETATM   23  O1  UNL     1      -3.095  -2.678  -0.484  1.00  0.00    -0.187 OA
HETATM   24  O2  UNL     1      -2.717  -2.326   1.935  1.00  0.00    -0.187 OA
ENDBRANCH  20  22
ENDBRANCH   8  20
TORSDOF 5
