REMARK  4 active torsions:
REMARK  status: ('A' for Active; 'I' for Inactive)
REMARK    1  A    between atoms: N1_1  and  C1_4 
REMARK    2  A    between atoms: C2_7  and  C3_8 
REMARK       I    between atoms: C3_8  and  N3_10 
REMARK    3  A    between atoms: N3_10  and  N4_12 
REMARK    4  A    between atoms: N6_17  and  O2_18 
ROOT
HETATM    1  C1  UNL     1      -1.920  -0.768  -0.190  1.00  0.00     0.695 A 
HETATM    2  N2  UNL     1      -0.587  -0.587  -0.140  1.00  0.00    -0.169 N 
ATOM      3  H2  UNL     1       0.016  -1.409  -0.154  1.00  0.00     0.186 HD
HETATM    4  C2  UNL     1      -0.015   0.626  -0.072  1.00  0.00     0.208 A 
HETATM    5  N5  UNL     1      -0.840   1.685  -0.055  1.00  0.00    -0.238 N 
ATOM      6  H5  UNL     1      -0.445   2.624  -0.004  1.00  0.00     0.193 HD
HETATM    7  N6  UNL     1      -2.152   1.537  -0.103  1.00  0.00    -0.079 N 
HETATM    8  N7  UNL     1      -2.697   0.330  -0.170  1.00  0.00    -0.090 N 
ATOM      9  H7  UNL     1      -3.712   0.233  -0.207  1.00  0.00     0.210 HD
ENDROOT
BRANCH   4  10
HETATM   10  C3  UNL     1       1.438   0.763  -0.020  1.00  0.00     0.305 C 
HETATM   11  O1  UNL     1       1.991   1.869   0.044  1.00  0.00    -0.263 OA
HETATM   12  N3  UNL     1       2.244  -0.399  -0.042  1.00  0.00    -0.270 N 
ATOM     13  H3  UNL     1       1.785  -1.308  -0.095  1.00  0.00     0.189 HD
BRANCH  12  14
HETATM   14  N4  UNL     1       3.635  -0.360   0.005  1.00  0.00    -0.342 N 
ATOM     15  H42 UNL     1       4.078   0.557   0.058  1.00  0.00     0.176 HD
ATOM     16  H41 UNL     1       4.216  -1.198  -0.011  1.00  0.00     0.176 HD
ENDBRANCH  12  14
ENDBRANCH   4  10
BRANCH   1  17
HETATM   17  N1  UNL     1      -2.458  -1.960  -0.256  1.00  0.00    -0.233 N 
ATOM     18  H12 UNL     1      -1.869  -2.793  -0.271  1.00  0.00     0.174 HD
ATOM     19  H11 UNL     1      -3.468  -2.097  -0.294  1.00  0.00     0.174 HD
ENDBRANCH   1  17
BRANCH   7  20
HETATM   20  O2  UNL     1      -3.000   2.641  -0.085  1.00  0.00    -0.253 OA
ATOM     21  H2  UNL     1      -3.943   2.535  -0.120  1.00  0.00     0.248 HD
ENDBRANCH   7  20
TORSDOF 4
