REMARK  3 active torsions:
REMARK  status: ('A' for Active; 'I' for Inactive)
REMARK    1  A    between atoms: N3_9  and  N4_11 
REMARK    2  A    between atoms: N7_17  and  N8_18 
REMARK    3  A    between atoms: N8_18  and  O1_20 
ROOT
HETATM    1  N1  UNL     1      -4.099  -0.242   0.677  1.00  0.00    -0.233 N 
ATOM      2  H11 UNL     1      -4.716   0.538   0.903  1.00  0.00     0.174 HD
ATOM      3  H12 UNL     1      -4.475  -1.183   0.792  1.00  0.00     0.174 HD
HETATM    4  C1  UNL     1      -2.905   0.002   0.269  1.00  0.00     0.690 C 
HETATM    5  N2  UNL     1      -2.032  -1.102  -0.051  1.00  0.00    -0.220 N 
ATOM      6  H2  UNL     1      -2.306  -2.069   0.125  1.00  0.00     0.178 HD
HETATM    7  C2  UNL     1      -0.749  -0.772  -0.633  1.00  0.00     0.194 C 
HETATM    8  C3  UNL     1      -0.176   0.394   0.048  1.00  0.00     0.042 C 
HETATM    9  N3  UNL     1       0.984   0.351   0.553  1.00  0.00    -0.303 N 
ATOM     10  H3  UNL     1       1.375   1.166   1.025  1.00  0.00     0.186 HD
HETATM   11  C5  UNL     1      -0.973   1.626   0.138  1.00  0.00     0.225 C 
HETATM   12  N7  UNL     1      -2.386   1.300   0.111  1.00  0.00    -0.100 N 
ENDROOT
BRANCH   9  13
HETATM   13  N4  UNL     1       1.719  -0.831   0.453  1.00  0.00    -0.276 N 
HETATM   14  C4  UNL     1       2.962  -0.820   0.153  1.00  0.00     0.215 C 
HETATM   15  N5  UNL     1       3.643   0.401  -0.091  1.00  0.00    -0.065 NA
HETATM   16  N6  UNL     1       3.689  -2.022   0.056  1.00  0.00    -0.065 NA
ATOM     17  H4  UNL     1       1.255  -1.723   0.623  1.00  0.00     0.189 HD
ENDBRANCH   9  13
BRANCH  12  18
HETATM   18  N8  UNL     1      -3.301   2.353  -0.086  1.00  0.00    -0.193 N 
ATOM     19  H8  UNL     1      -4.256   2.134  -0.369  1.00  0.00     0.216 HD
BRANCH  18  20
HETATM   20  O1  UNL     1      -2.976   3.543   0.076  1.00  0.00    -0.274 OA
ATOM     21  H1  UNL     1      -3.593   4.253  -0.057  1.00  0.00     0.246 HD
ENDBRANCH  18  20
ENDBRANCH  12  18
TORSDOF 3
