REMARK  9 active torsions:
REMARK  status: ('A' for Active; 'I' for Inactive)
REMARK    1  A    between atoms: O1_2  and  N1_3 
REMARK       I    between atoms: N1_3  and  C2_5 
REMARK       I    between atoms: C2_5  and  N2_7 
REMARK    2  A    between atoms: N2_7  and  C3_9 
REMARK    3  A    between atoms: C3_9  and  C4_10 
REMARK    4  A    between atoms: C4_10  and  C5_11 
REMARK    5  A    between atoms: C5_11  and  C6_12 
REMARK    6  A    between atoms: C6_12  and  C7_13 
REMARK    7  A    between atoms: C6_12  and  C11_20 
REMARK    8  A    between atoms: C10_17  and  O4_18 
REMARK    9  A    between atoms: C22_31  and  O5_32 
ROOT
HETATM    1  C6  UNL     1       0.257  -0.617   1.085  1.00  0.00    -0.058 C 
ENDROOT
BRANCH   1   2
HETATM    2  C5  UNL     1       1.381   0.253   1.594  1.00  0.00     0.037 C 
BRANCH   2   3
HETATM    3  C4  UNL     1       2.704   0.215   0.967  1.00  0.00     0.024 C 
BRANCH   3   4
HETATM    4  C3  UNL     1       3.501  -1.039   0.925  1.00  0.00     0.125 C 
BRANCH   4   5
HETATM    5  N2  UNL     1       4.809  -0.866   0.300  1.00  0.00    -0.341 N 
HETATM    6  C2  UNL     1       5.057  -0.476  -1.018  1.00  0.00     0.339 C 
HETATM    7  N1  UNL     1       6.418  -0.364  -1.494  1.00  0.00    -0.217 N 
HETATM    8  O2  UNL     1       4.153  -0.212  -1.853  1.00  0.00    -0.245 OA
ATOM      9  H1  UNL     1       7.180  -0.569  -0.848  1.00  0.00     0.199 HD
ATOM     10  H2  UNL     1       5.624  -1.048   0.885  1.00  0.00     0.164 HD
BRANCH   7  11
HETATM   11  O1  UNL     1       6.720  -0.003  -2.745  1.00  0.00    -0.281 OA
HETATM   12  C1  UNL     1       7.550   1.096  -2.760  1.00  0.00     0.237 C 
ENDBRANCH   7  11
ENDBRANCH   4   5
ENDBRANCH   3   4
ENDBRANCH   2   3
ENDBRANCH   1   2
BRANCH   1  13
HETATM   13  C7  UNL     1       0.532  -2.032   1.214  1.00  0.00     0.027 A 
HETATM   14  C8  UNL     1       0.975  -2.499   2.521  1.00  0.00     0.041 A 
HETATM   15  C9  UNL     1       1.009  -3.857   2.517  1.00  0.00     0.146 A 
HETATM   16  O3  UNL     1       0.640  -4.238   1.355  1.00  0.00    -0.300 OA
HETATM   17  C10 UNL     1       0.356  -3.212   0.570  1.00  0.00     0.193 A 
BRANCH  17  18
HETATM   18  O4  UNL     1      -0.050  -3.413  -0.740  1.00  0.00    -0.340 OA
ATOM     19  H4  UNL     1      -0.173  -4.240  -1.191  1.00  0.00     0.220 HD
ENDBRANCH  17  18
ENDBRANCH   1  13
BRANCH   1  20
HETATM   20  C11 UNL     1      -0.634  -0.007   0.061  1.00  0.00     0.045 C 
HETATM   21  C12 UNL     1      -1.791  -0.834  -0.342  1.00  0.00     0.017 C 
HETATM   22  C13 UNL     1      -2.631  -0.123  -1.366  1.00  0.00    -0.005 C 
HETATM   23  C14 UNL     1      -4.044  -0.664  -1.429  1.00  0.00    -0.014 C 
HETATM   24  C18 UNL     1      -2.683   1.345  -1.317  1.00  0.00     0.000 C 
HETATM   25  C15 UNL     1      -4.359  -1.648  -0.329  1.00  0.00     0.010 C 
HETATM   26  C16 UNL     1      -4.960   0.544  -1.395  1.00  0.00     0.005 C 
HETATM   27  C17 UNL     1      -4.078   1.711  -1.790  1.00  0.00     0.006 C 
HETATM   28  C19 UNL     1      -2.312   1.950  -0.013  1.00  0.00    -0.017 C 
HETATM   29  C20 UNL     1      -2.041   3.437  -0.336  1.00  0.00     0.018 C 
HETATM   30  C21 UNL     1      -3.453   2.033   0.990  1.00  0.00     0.018 C 
HETATM   31  C22 UNL     1      -1.088   1.352   0.576  1.00  0.00     0.134 C 
BRANCH  31  32
HETATM   32  O5  UNL     1      -1.207   1.352   1.996  1.00  0.00    -0.394 OA
ATOM     33  H5  UNL     1      -1.490   2.200   2.317  1.00  0.00     0.210 HD
ENDBRANCH  31  32
ENDBRANCH   1  20
TORSDOF 9
