REMARK  9 active torsions:
REMARK  status: ('A' for Active; 'I' for Inactive)
REMARK    1  A    between atoms: C11_11  and  O1_12 
REMARK    2  A    between atoms: C12_14  and  O2_15 
REMARK    3  A    between atoms: C20_24  and  N1_25 
REMARK    4  A    between atoms: N1_25  and  C21_27 
REMARK    5  A    between atoms: C21_27  and  C22_28 
REMARK    6  A    between atoms: C22_28  and  N2_29 
REMARK    7  A    between atoms: N2_29  and  C24_31 
REMARK    8  A    between atoms: C24_31  and  C25_32 
REMARK    9  A    between atoms: C25_32  and  O3_33 
ROOT
HETATM    1  C1  UNL     1      -1.418  -2.607   0.635  1.00  0.00     0.016 C 
HETATM    2  C2  UNL     1      -1.120  -1.527  -0.053  1.00  0.00    -0.066 C 
HETATM    3  C3  UNL     1      -0.640  -1.616  -1.485  1.00  0.00     0.036 C 
HETATM    4  C4  UNL     1       0.708  -0.993  -1.552  1.00  0.00     0.010 C 
HETATM    5  C5  UNL     1       0.918   0.281  -0.798  1.00  0.00     0.001 C 
HETATM    6  C6  UNL     1       2.409   0.524  -0.758  1.00  0.00    -0.001 C 
HETATM    7  C7  UNL     1       2.804   1.960  -1.045  1.00  0.00     0.010 C 
HETATM    8  C8  UNL     1       4.116   2.352  -0.406  1.00  0.00     0.039 C 
HETATM    9  C9  UNL     1       5.044   1.204  -0.186  1.00  0.00    -0.049 A 
HETATM   10  C10 UNL     1       6.388   1.250  -0.479  1.00  0.00     0.047 A 
HETATM   11  C11 UNL     1       7.154   0.121  -0.231  1.00  0.00     0.099 A 
HETATM   12  C12 UNL     1       6.560  -1.027   0.301  1.00  0.00     0.099 A 
HETATM   13  C13 UNL     1       5.206  -1.068   0.594  1.00  0.00     0.047 A 
HETATM   14  C14 UNL     1       4.466   0.062   0.343  1.00  0.00    -0.044 A 
HETATM   15  C15 UNL     1       3.017   0.204   0.597  1.00  0.00     0.024 C 
HETATM   16  C16 UNL     1       2.333  -0.889   1.304  1.00  0.00     0.010 C 
HETATM   17  C17 UNL     1       0.929  -0.410   1.611  1.00  0.00     0.012 C 
HETATM   18  C18 UNL     1       0.279   0.365   0.527  1.00  0.00    -0.016 C 
HETATM   19  C19 UNL     1       0.049   1.834   0.943  1.00  0.00     0.018 C 
HETATM   20  C20 UNL     1      -1.179  -0.139   0.446  1.00  0.00     0.117 C 
ENDROOT
BRANCH  20  21
HETATM   21  N1  UNL     1      -1.995   0.691  -0.315  1.00  0.00    -0.392 N 
ATOM     22  H1  UNL     1      -1.529   1.389  -0.895  1.00  0.00     0.159 HD
BRANCH  21  23
HETATM   23  C21 UNL     1      -3.377   0.661  -0.362  1.00  0.00     0.086 C 
BRANCH  23  24
HETATM   24  C22 UNL     1      -4.130  -0.492  -0.953  1.00  0.00     0.316 C 
BRANCH  24  25
HETATM   25  N2  UNL     1      -5.542  -0.292  -1.009  1.00  0.00     0.090 N 
HETATM   26  C23 UNL     1      -6.195  -1.487  -1.453  1.00  0.00     0.310 C 
BRANCH  25  27
HETATM   27  C24 UNL     1      -6.084   0.337   0.126  1.00  0.00     0.298 C 
BRANCH  27  28
HETATM   28  C25 UNL     1      -7.613   0.470   0.028  1.00  0.00     0.194 C 
BRANCH  28  29
HETATM   29  O3  UNL     1      -8.034   1.118   1.211  1.00  0.00    -0.399 OA
ATOM     30  H3  UNL     1      -8.979   1.200   1.150  1.00  0.00     0.209 HD
ENDBRANCH  28  29
ENDBRANCH  27  28
ENDBRANCH  25  27
ENDBRANCH  24  25
ENDBRANCH  23  24
ENDBRANCH  21  23
ENDBRANCH  20  21
BRANCH  12  31
HETATM   31  O2  UNL     1       7.380  -2.097   0.517  1.00  0.00    -0.358 OA
ATOM     32  H2  UNL     1       6.976  -2.877   0.879  1.00  0.00     0.217 HD
ENDBRANCH  12  31
BRANCH  11  33
HETATM   33  O1  UNL     1       8.494   0.171  -0.524  1.00  0.00    -0.358 OA
ATOM     34  H1  UNL     1       9.019  -0.602  -0.354  1.00  0.00     0.217 HD
ENDBRANCH  11  33
TORSDOF 9
