REMARK  11 active torsions:
REMARK  status: ('A' for Active; 'I' for Inactive)
REMARK    1  A    between atoms: O1_2  and  C2_3 
REMARK    2  A    between atoms: C4_5  and  O2_6 
REMARK    3  A    between atoms: C5_8  and  C6_9 
REMARK    4  A    between atoms: C6_9  and  C7_10 
REMARK    5  A    between atoms: C7_10  and  C8_11 
REMARK    6  A    between atoms: C8_11  and  C10_13 
REMARK    7  A    between atoms: C10_13  and  C11_14 
REMARK    8  A    between atoms: C11_14  and  C12_15 
REMARK    9  A    between atoms: C13_18  and  C14_19 
REMARK   10  A    between atoms: C14_19  and  O5_20 
REMARK   11  A    between atoms: C19_26  and  O6_27 
ROOT
HETATM    1  C2  UNL     1      -0.875   4.058   0.876  1.00  0.00     0.071 A 
HETATM    2  C3  UNL     1       0.312   4.252   0.215  1.00  0.00     0.073 A 
HETATM    3  C4  UNL     1       1.046   3.139  -0.102  1.00  0.00     0.075 A 
HETATM    4  C5  UNL     1       0.649   1.814   0.213  1.00  0.00    -0.015 A 
HETATM    5  C13 UNL     1      -0.535   1.607   0.871  1.00  0.00    -0.012 A 
HETATM    6  C24 UNL     1      -1.263   2.789   1.181  1.00  0.00     0.047 A 
ENDROOT
BRANCH   5   7
HETATM    7  C14 UNL     1      -1.106   0.352   1.198  1.00  0.00     0.093 C 
HETATM    8  C15 UNL     1      -0.560  -0.694   2.020  1.00  0.00     0.044 C 
HETATM    9  C16 UNL     1      -1.843  -1.464   2.413  1.00  0.00     0.009 C 
HETATM   10  C17 UNL     1      -2.733  -1.289   1.221  1.00  0.00    -0.001 C 
HETATM   11  C18 UNL     1      -3.190  -2.585   0.682  1.00  0.00     0.037 C 
HETATM   12  C22 UNL     1      -1.971  -0.408   0.204  1.00  0.00    -0.005 C 
HETATM   13  C19 UNL     1      -3.449  -2.592  -0.791  1.00  0.00     0.118 C 
HETATM   14  C20 UNL     1      -2.319  -2.063  -1.597  1.00  0.00     0.032 C 
HETATM   15  C21 UNL     1      -1.339  -1.197  -0.840  1.00  0.00     0.015 C 
HETATM   16  C23 UNL     1      -3.027   0.471  -0.425  1.00  0.00     0.019 C 
BRANCH   7  17
HETATM   17  O5  UNL     1      -2.286   0.741   2.031  1.00  0.00    -0.384 OA
ATOM     18  H5  UNL     1      -2.669  -0.100   2.250  1.00  0.00     0.211 HD
ENDBRANCH   7  17
BRANCH  13  19
HETATM   19  O6  UNL     1      -3.744  -3.926  -1.153  1.00  0.00    -0.396 OA
ATOM     20  H6  UNL     1      -3.909  -3.930  -2.089  1.00  0.00     0.210 HD
ENDBRANCH  13  19
ENDBRANCH   5   7
BRANCH   4  21
HETATM   21  C6  UNL     1       1.613   0.784  -0.054  1.00  0.00     0.042 C 
BRANCH  21  22
HETATM   22  C7  UNL     1       2.011   0.479  -1.469  1.00  0.00     0.009 C 
BRANCH  22  23
HETATM   23  C8  UNL     1       3.099  -0.606  -1.499  1.00  0.00    -0.018 C 
HETATM   24  C9  UNL     1       4.313  -0.189  -0.778  1.00  0.00     0.010 C 
BRANCH  23  25
HETATM   25  C10 UNL     1       2.505  -1.916  -1.263  1.00  0.00     0.015 C 
BRANCH  25  26
HETATM   26  C11 UNL     1       3.347  -3.124  -1.239  1.00  0.00     0.113 C 
BRANCH  26  27
HETATM   27  C12 UNL     1       4.286  -3.294  -0.128  1.00  0.00     0.172 C 
HETATM   28  O3  UNL     1       4.174  -2.693   0.964  1.00  0.00    -0.648 OA
HETATM   29  O4  UNL     1       5.391  -4.173  -0.254  1.00  0.00    -0.648 OA
ENDBRANCH  26  27
ENDBRANCH  25  26
ENDBRANCH  23  25
ENDBRANCH  22  23
ENDBRANCH  21  22
ENDBRANCH   4  21
BRANCH   3  30
HETATM   30  O2  UNL     1       2.260   3.359  -0.776  1.00  0.00    -0.360 OA
ATOM     31  H2  UNL     1       2.769   2.587  -0.996  1.00  0.00     0.217 HD
ENDBRANCH   3  30
BRANCH   1  32
HETATM   32  O1  UNL     1      -1.704   5.127   1.249  1.00  0.00    -0.356 OA
HETATM   33  C1  UNL     1      -1.269   6.447   0.915  1.00  0.00     0.210 C 
ENDBRANCH   1  32
TORSDOF 11
