REMARK  11 active torsions:
REMARK  status: ('A' for Active; 'I' for Inactive)
REMARK    1  A    between atoms: C2_2  and  C4_4 
REMARK    2  A    between atoms: C4_4  and  O1_5 
REMARK    3  A    between atoms: C5_7  and  C6_8 
REMARK    4  A    between atoms: C6_8  and  C7_9 
REMARK    5  A    between atoms: C7_9  and  C8_10 
REMARK    6  A    between atoms: C8_10  and  O2_13 
REMARK    7  A    between atoms: C18_22  and  C19_23 
REMARK    8  A    between atoms: C20_25  and  C22_27 
REMARK    9  A    between atoms: C22_27  and  C23_28 
REMARK   10  A    between atoms: C23_28  and  O4_30 
REMARK   11  A    between atoms: C23_28  and  O5_32 
ROOT
HETATM    1  C4  UNL     1       0.262  -0.923   0.169  1.00  0.00     0.092 C 
HETATM    2  C5  UNL     1       1.541  -0.449  -0.570  1.00  0.00     0.025 C 
HETATM    3  C11 UNL     1       1.168   0.778  -1.314  1.00  0.00     0.009 C 
HETATM    4  C12 UNL     1      -0.208   1.063  -0.765  1.00  0.00     0.014 C 
HETATM    5  C13 UNL     1      -0.855  -0.312  -0.599  1.00  0.00     0.007 C 
HETATM    6  C14 UNL     1      -0.802  -0.978  -1.955  1.00  0.00    -0.006 C 
HETATM    7  C15 UNL     1      -1.008  -0.121  -3.169  1.00  0.00     0.011 C 
HETATM    8  C16 UNL     1      -1.627  -2.191  -2.159  1.00  0.00     0.006 C 
HETATM    9  C17 UNL     1      -3.001  -1.855  -1.801  1.00  0.00     0.013 C 
HETATM   10  C18 UNL     1      -3.212  -0.524  -1.123  1.00  0.00     0.056 C 
HETATM   11  C20 UNL     1      -2.254  -0.243   0.022  1.00  0.00    -0.018 C 
HETATM   12  C21 UNL     1      -2.528  -1.319   1.022  1.00  0.00     0.017 C 
ENDROOT
BRANCH   1  13
HETATM   13  C2  UNL     1       0.452  -0.998   1.575  1.00  0.00    -0.058 C 
HETATM   14  C1  UNL     1       0.199  -0.212   2.598  1.00  0.00     0.017 C 
HETATM   15  C3  UNL     1       1.171  -2.236   2.176  1.00  0.00     0.046 C 
ENDBRANCH   1  13
BRANCH   1  16
HETATM   16  O1  UNL     1       0.285  -2.333  -0.218  1.00  0.00    -0.384 OA
ATOM     17  H1  UNL     1       0.158  -2.283  -1.158  1.00  0.00     0.211 HD
ENDBRANCH   1  16
BRANCH  11  18
HETATM   18  C22 UNL     1      -2.568   1.145   0.471  1.00  0.00     0.078 C 
BRANCH  18  19
HETATM   19  C23 UNL     1      -3.680   1.679   1.180  1.00  0.00     0.156 C 
HETATM   20  C24 UNL     1      -3.364   3.237   1.355  1.00  0.00     0.078 C 
BRANCH  19  21
HETATM   21  O4  UNL     1      -4.978   1.729   0.918  1.00  0.00    -0.366 OA
ATOM     22  H4  UNL     1      -5.720   2.086   1.391  1.00  0.00     0.213 HD
ENDBRANCH  19  21
BRANCH  19  23
HETATM   23  O5  UNL     1      -3.653   1.356   2.592  1.00  0.00    -0.366 OA
ATOM     24  H5  UNL     1      -4.395   1.713   3.065  1.00  0.00     0.213 HD
ENDBRANCH  19  23
ENDBRANCH  18  19
ENDBRANCH  11  18
BRANCH   2  25
HETATM   25  C6  UNL     1       2.699  -0.191   0.359  1.00  0.00     0.011 C 
BRANCH  25  26
HETATM   26  C7  UNL     1       3.888   0.240  -0.481  1.00  0.00     0.037 C 
BRANCH  26  27
HETATM   27  C8  UNL     1       5.081   0.494   0.430  1.00  0.00     0.051 C 
HETATM   28  C9  UNL     1       6.287   0.924  -0.352  1.00  0.00     0.045 C 
HETATM   29  C10 UNL     1       4.773   1.515   1.475  1.00  0.00     0.045 C 
BRANCH  27  30
HETATM   30  O2  UNL     1       5.374  -0.729   1.060  1.00  0.00    -0.391 OA
ATOM     31  H2  UNL     1       6.118  -0.570   1.628  1.00  0.00     0.210 HD
ENDBRANCH  27  30
ENDBRANCH  26  27
ENDBRANCH  25  26
ENDBRANCH   2  25
BRANCH  10  32
HETATM   32  C19 UNL     1      -4.663  -0.519  -0.920  1.00  0.00     0.236 C 
HETATM   33  O3  UNL     1      -5.344  -1.308  -0.284  1.00  0.00    -0.306 OA
ENDBRANCH  10  32
TORSDOF 11
