REMARK  12 active torsions:
REMARK  status: ('A' for Active; 'I' for Inactive)
REMARK    1  A    between atoms: C2_2  and  C3_3 
REMARK    2  A    between atoms: C3_3  and  O1_4 
REMARK    3  A    between atoms: C3_3  and  C4_6 
REMARK    4  A    between atoms: C5_7  and  O2_8 
REMARK    5  A    between atoms: C7_11  and  O3_12 
REMARK    6  A    between atoms: C10_16  and  C11_17 
REMARK    7  A    between atoms: C12_18  and  C13_19 
REMARK    8  A    between atoms: C14_20  and  O4_21 
REMARK    9  A    between atoms: C14_20  and  C15_23 
REMARK   10  A    between atoms: C17_25  and  C18_26 
REMARK   11  A    between atoms: C18_26  and  O5_27 
REMARK   12  A    between atoms: O5_27  and  C19_28 
ROOT
HETATM    1  C11 UNL     1      -2.811   1.213   0.954  1.00  0.00    -0.017 C 
HETATM    2  C12 UNL     1      -1.905   0.342   0.608  1.00  0.00    -0.001 C 
ENDROOT
BRANCH   1   3
HETATM    3  C10 UNL     1      -4.193   1.353   0.515  1.00  0.00     0.048 C 
HETATM    4  C4  UNL     1      -4.736   0.199  -0.221  1.00  0.00     0.059 C 
HETATM    5  C5  UNL     1      -5.942   0.476  -1.087  1.00  0.00     0.128 C 
HETATM    6  C6  UNL     1      -6.000   1.821  -1.704  1.00  0.00     0.068 C 
HETATM    7  C7  UNL     1      -5.793   2.920  -0.669  1.00  0.00     0.149 C 
HETATM    8  C8  UNL     1      -4.433   2.688  -0.140  1.00  0.00    -0.053 C 
HETATM    9  C9  UNL     1      -3.533   3.625  -0.262  1.00  0.00     0.017 C 
BRANCH   4  10
HETATM   10  C3  UNL     1      -5.237  -0.833   0.804  1.00  0.00     0.147 C 
BRANCH  10  11
HETATM   11  C2  UNL     1      -5.715  -2.072   0.130  1.00  0.00    -0.005 C 
HETATM   12  C1  UNL     1      -5.002  -3.181   0.066  1.00  0.00     0.009 C 
ENDBRANCH  10  11
BRANCH  10  13
HETATM   13  O1  UNL     1      -4.306  -1.173   1.742  1.00  0.00    -0.391 OA
ATOM     14  H1  UNL     1      -4.001  -0.383   2.172  1.00  0.00     0.210 HD
ENDBRANCH  10  13
ENDBRANCH   4  10
BRANCH   5  15
HETATM   15  O2  UNL     1      -5.931  -0.484  -2.111  1.00  0.00    -0.395 OA
ATOM     16  H2  UNL     1      -6.690  -0.310  -2.656  1.00  0.00     0.210 HD
ENDBRANCH   5  15
BRANCH   7  17
HETATM   17  O3  UNL     1      -5.947   4.144  -1.272  1.00  0.00    -0.391 OA
ATOM     18  H3  UNL     1      -5.818   4.829  -0.627  1.00  0.00     0.210 HD
ENDBRANCH   7  17
ENDBRANCH   1   3
BRANCH   2  19
HETATM   19  C13 UNL     1      -0.549   0.336   1.146  1.00  0.00     0.032 C 
HETATM   20  C14 UNL     1       0.342  -0.564   0.771  1.00  0.00     0.051 C 
BRANCH  20  21
HETATM   21  O4  UNL     1      -0.016  -1.540  -0.165  1.00  0.00    -0.364 OA
ATOM     22  H4  UNL     1       0.625  -2.187  -0.435  1.00  0.00     0.217 HD
ENDBRANCH  20  21
BRANCH  20  23
HETATM   23  C15 UNL     1       1.712  -0.597   1.292  1.00  0.00     0.065 C 
HETATM   24  C16 UNL     1       2.681  -0.364   0.203  1.00  0.00    -0.010 C 
HETATM   25  C17 UNL     1       3.925  -0.796   0.211  1.00  0.00    -0.056 C 
HETATM   26  C22 UNL     1       4.439  -1.568   1.354  1.00  0.00     0.012 C 
HETATM   27  C23 UNL     1       4.954  -2.918   0.886  1.00  0.00     0.015 C 
HETATM   28  C24 UNL     1       3.484  -1.738   2.487  1.00  0.00     0.010 C 
HETATM   29  C25 UNL     1       2.043  -1.889   1.997  1.00  0.00     0.016 C 
BRANCH  25  30
HETATM   30  C18 UNL     1       4.846  -0.507  -0.953  1.00  0.00     0.202 C 
BRANCH  30  31
HETATM   31  O5  UNL     1       5.912   0.221  -0.421  1.00  0.00    -0.382 OA
BRANCH  31  32
HETATM   32  C19 UNL     1       6.850   0.564  -1.371  1.00  0.00     0.113 C 
HETATM   33  C20 UNL     1       8.193  -0.019  -0.952  1.00  0.00     0.039 C 
HETATM   34  C21 UNL     1       7.031   2.079  -1.375  1.00  0.00     0.039 C 
ENDBRANCH  31  32
ENDBRANCH  30  31
ENDBRANCH  25  30
ENDBRANCH  20  23
ENDBRANCH   2  19
TORSDOF 12
