REMARK  4 active torsions:
REMARK  status: ('A' for Active; 'I' for Inactive)
REMARK    1  A    between atoms: N1_2  and  N2_3 
REMARK    2  A    between atoms: N1_2  and  C2_7 
REMARK    3  A    between atoms: N2_3  and  N3_4 
REMARK    4  A    between atoms: C2_7  and  C3_11 
ROOT
HETATM    1  C2  UNL     1       0.381   0.222  -0.328  1.00  0.00     0.144 C 
HETATM    2  N4  UNL     1       0.917   0.448  -1.469  1.00  0.00    -0.384 N 
ATOM      3  H41 UNL     1       0.361   0.636  -2.303  1.00  0.00     0.157 HD
ATOM      4  H42 UNL     1       1.934   0.440  -1.544  1.00  0.00     0.157 HD
ENDROOT
BRANCH   1   5
HETATM    5  N1  UNL     1       1.160  -0.041   0.841  1.00  0.00    -0.198 N 
HETATM    6  C1  UNL     1       1.189  -1.390   1.361  1.00  0.00     0.197 C 
BRANCH   5   7
HETATM    7  N2  UNL     1       1.860   0.929   1.465  1.00  0.00    -0.240 NA
BRANCH   7   8
HETATM    8  N3  UNL     1       2.464   1.748   1.978  1.00  0.00    -0.260 N 
ATOM      9  H32 UNL     1       2.495   1.175   1.135  1.00  0.00     0.193 HD
ATOM     10  H31 UNL     1       2.993   2.481   2.450  1.00  0.00     0.193 HD
ENDBRANCH   7   8
ENDBRANCH   5   7
ENDBRANCH   1   5
BRANCH   1  11
HETATM   11  C3  UNL     1      -1.093   0.233  -0.219  1.00  0.00     0.169 C 
HETATM   12  C4  UNL     1      -1.741   0.526  -1.536  1.00  0.00     0.059 C 
HETATM   13 CL1  UNL     1      -1.615   1.394   1.019  1.00  0.00    -0.093 Cl
HETATM   14 CL2  UNL     1      -1.580  -1.431   0.244  1.00  0.00    -0.093 Cl
ENDBRANCH   1  11
TORSDOF 4
