REMARK  0 active torsions:
REMARK  status: ('A' for Active; 'I' for Inactive)
ROOT
HETATM    1  C1  UNL     1       2.199   0.160   0.109  1.00  0.00     0.017 C 
HETATM    2  C2  UNL     1       0.684   0.154   0.209  1.00  0.00     0.069 C 
HETATM    3  C3  UNL     1       0.200   1.454  -0.296  1.00  0.00     0.093 C 
HETATM    4  S1  UNL     1      -1.535   1.525  -0.712  1.00  0.00    -0.094 SA
HETATM    5  C4  UNL     1      -2.196  -0.127  -0.487  1.00  0.00     0.137 C 
HETATM    6  N1  UNL     1      -3.453  -0.335  -0.280  1.00  0.00    -0.380 N 
ATOM      7  H11 UNL     1      -3.829  -1.275  -0.152  1.00  0.00     0.158 HD
ATOM      8  H12 UNL     1      -4.131   0.425  -0.234  1.00  0.00     0.158 HD
HETATM    9  N2  UNL     1      -1.260  -1.176  -0.551  1.00  0.00    -0.322 N 
ATOM     10  H2  UNL     1      -1.633  -2.108  -0.733  1.00  0.00     0.166 HD
HETATM   11  C5  UNL     1       0.150  -1.078  -0.390  1.00  0.00     0.260 C 
HETATM   12  F1  UNL     1       0.520  -2.149   0.444  1.00  0.00    -0.200 F 
HETATM   13 CL1  UNL     1       0.880  -1.477  -1.969  1.00  0.00    -0.059 Cl
ENDROOT
TORSDOF 0
