REMARK  1 active torsions:
REMARK  status: ('A' for Active; 'I' for Inactive)
REMARK    1  A    between atoms: N1_8  and  O1_10 
ROOT
HETATM    1  C1  UNL     1      -2.507   0.714   0.566  1.00  0.00     0.053 C 
HETATM    2  C2  UNL     1      -1.354  -0.120   0.021  1.00  0.00     0.115 C 
HETATM    3  F1  UNL     1      -1.819  -1.092  -0.829  1.00  0.00    -0.242 F 
HETATM    4  C3  UNL     1      -0.449   0.788  -0.734  1.00  0.00     0.045 C 
HETATM    5  C4  UNL     1       0.255   0.052  -1.862  1.00  0.00     0.011 C 
HETATM    6  C5  UNL     1       1.300  -0.896  -1.292  1.00  0.00     0.078 C 
HETATM    7  C6  UNL     1       1.599  -0.435   0.089  1.00  0.00     0.097 C 
HETATM    8  N1  UNL     1       2.802  -0.032   0.344  1.00  0.00    -0.257 N 
ATOM      9  H1  UNL     1       3.485  -0.050  -0.413  1.00  0.00     0.195 HD
HETATM   10  N2  UNL     1       0.702  -0.384   1.189  1.00  0.00    -0.375 N 
ATOM     11  H2  UNL     1       1.075  -0.017   2.065  1.00  0.00     0.160 HD
HETATM   12  C7  UNL     1      -0.692  -0.800   1.199  1.00  0.00     0.164 C 
ENDROOT
BRANCH   8  13
HETATM   13  O1  UNL     1       3.207   0.412   1.557  1.00  0.00    -0.288 OA
ATOM     14  H1  UNL     1       4.090   0.708   1.744  1.00  0.00     0.244 HD
ENDBRANCH   8  13
TORSDOF 1
