REMARK  1 active torsions:
REMARK  status: ('A' for Active; 'I' for Inactive)
REMARK    1  A    between atoms: C2_2  and  C4_4 
ROOT
HETATM    1  C4  UNL     1      -0.229   0.450  -0.488  1.00  0.00     0.086 C 
HETATM    2  C5  UNL     1       0.204  -0.700  -1.348  1.00  0.00     0.032 C 
HETATM    3  C6  UNL     1       1.653  -1.056  -1.203  1.00  0.00     0.089 C 
HETATM    4  C7  UNL     1       2.389  -0.261  -0.177  1.00  0.00     0.298 C 
HETATM    5  F1  UNL     1       3.485  -0.962   0.288  1.00  0.00    -0.198 F 
HETATM    6  F2  UNL     1       2.912   0.891  -0.783  1.00  0.00    -0.198 F 
HETATM    7  C8  UNL     1       1.593   0.176   0.962  1.00  0.00     0.161 C 
HETATM    8  N1  UNL     1       2.231   0.223   2.257  1.00  0.00    -0.081 NA
HETATM    9  N2  UNL     1       0.372   0.504   0.800  1.00  0.00    -0.372 N 
ATOM     10  H2  UNL     1      -0.180   0.808   1.602  1.00  0.00     0.161 HD
ENDROOT
BRANCH   1  11
HETATM   11  C2  UNL     1      -1.760   0.465  -0.393  1.00  0.00     0.000 C 
HETATM   12  C1  UNL     1      -2.248   1.595   0.455  1.00  0.00     0.011 C 
HETATM   13  C3  UNL     1      -2.274  -0.839   0.175  1.00  0.00     0.011 C 
ENDBRANCH   1  11
TORSDOF 1
