REMARK  1 active torsions:
REMARK  status: ('A' for Active; 'I' for Inactive)
REMARK    1  A    between atoms: C5_11  and  C6_12 
ROOT
HETATM    1  C1  UNL     1      -1.041  -1.396   1.106  1.00  0.00     0.029 C 
HETATM    2  C2  UNL     1      -0.662  -0.502  -0.038  1.00  0.00     0.034 C 
HETATM    3  C3  UNL     1      -1.873  -0.130  -0.818  1.00  0.00     0.029 C 
HETATM    4  S1  UNL     1       0.495  -1.459  -1.105  1.00  0.00    -0.083 SA
HETATM    5  C4  UNL     1       1.976  -0.760  -0.418  1.00  0.00     0.135 C 
HETATM    6  N1  UNL     1       3.140  -1.127  -0.712  1.00  0.00    -0.380 N 
ATOM      7  H11 UNL     1       3.991  -0.726  -0.317  1.00  0.00     0.158 HD
ATOM      8  H12 UNL     1       3.436  -1.854  -1.363  1.00  0.00     0.158 HD
HETATM    9  N2  UNL     1       1.570   0.239   0.477  1.00  0.00    -0.360 N 
ATOM     10  H2  UNL     1       2.210   0.665   1.148  1.00  0.00     0.162 HD
HETATM   11  C5  UNL     1       0.210   0.614   0.383  1.00  0.00     0.166 C 
ENDROOT
BRANCH  11  12
HETATM   12  C6  UNL     1       0.066   1.858  -0.462  1.00  0.00     0.377 C 
HETATM   13  F1  UNL     1       0.957   2.794   0.080  1.00  0.00    -0.212 F 
HETATM   14  F2  UNL     1      -1.193   2.446  -0.305  1.00  0.00    -0.212 F 
ENDBRANCH  11  12
TORSDOF 1
