REMARK  3 active torsions:
REMARK  status: ('A' for Active; 'I' for Inactive)
REMARK    1  A    between atoms: C2_2  and  S1_5 
REMARK    2  A    between atoms: S1_5  and  C5_6 
REMARK    3  A    between atoms: C5_6  and  N1_7 
ROOT
HETATM    1  C5  UNL     1       2.199   0.458  -0.491  1.00  0.00     0.389 C 
HETATM    2  F1  UNL     1       1.854   0.257  -1.792  1.00  0.00    -0.180 F 
HETATM    3 CL1  UNL     1       3.129   1.992  -0.471  1.00  0.00    -0.041 Cl
ENDROOT
BRANCH   1   4
HETATM    4  S1  UNL     1       0.898   0.594   0.685  1.00  0.00    -0.072 SA
BRANCH   4   5
HETATM    5  C2  UNL     1      -0.731   0.112   0.251  1.00  0.00     0.003 C 
HETATM    6  C1  UNL     1      -0.912  -0.853  -0.865  1.00  0.00     0.026 C 
HETATM    7  C3  UNL     1      -1.348  -0.568   1.474  1.00  0.00     0.026 C 
HETATM    8  C4  UNL     1      -1.569   1.351  -0.016  1.00  0.00     0.026 C 
ENDBRANCH   4   5
ENDBRANCH   1   4
BRANCH   1   9
HETATM    9  N1  UNL     1       3.142  -0.551  -0.010  1.00  0.00    -0.018 N 
ATOM     10  H13 UNL     1       3.481  -0.356   0.932  1.00  0.00     0.280 HD
ATOM     11  H12 UNL     1       2.695  -1.446   0.188  1.00  0.00     0.280 HD
ATOM     12  H11 UNL     1       3.896  -0.630  -0.692  1.00  0.00     0.280 HD
ENDBRANCH   1   9
TORSDOF 3
