REMARK  11 active torsions:
REMARK  status: ('A' for Active; 'I' for Inactive)
REMARK    1  A    between atoms: C2_2  and  C3_3 
REMARK    2  A    between atoms: C3_3  and  C4_4 
REMARK    3  A    between atoms: C4_4  and  O1_5 
REMARK    4  A    between atoms: C12_14  and  O2_15 
REMARK    5  A    between atoms: O2_15  and  C13_16 
REMARK    6  A    between atoms: C13_16  and  C14_17 
REMARK    7  A    between atoms: C14_17  and  O3_18 
REMARK    8  A    between atoms: C14_17  and  C15_20 
REMARK    9  A    between atoms: C15_20  and  N1_21 
REMARK   10  A    between atoms: N1_21  and  C16_24 
REMARK   11  A    between atoms: C20_28  and  O4_29 
ROOT
HETATM    1  C4  UNL     1      -3.968  -0.737   1.020  1.00  0.00     0.068 C 
HETATM    2  C5  UNL     1      -4.653  -1.222  -0.262  1.00  0.00     0.017 C 
HETATM    3  C6  UNL     1      -5.701  -0.277  -0.762  1.00  0.00     0.013 C 
HETATM    4  C7  UNL     1      -3.692  -1.708  -1.294  1.00  0.00     0.008 C 
HETATM    5  C8  UNL     1      -2.286  -1.168  -1.065  1.00  0.00     0.010 C 
HETATM    6  C9  UNL     1      -2.457   0.268  -0.648  1.00  0.00     0.026 C 
HETATM    7  C10 UNL     1      -1.217   1.046  -0.728  1.00  0.00    -0.044 A 
HETATM    8  C11 UNL     1      -0.029   0.644  -1.278  1.00  0.00     0.047 A 
HETATM    9  C12 UNL     1       1.064   1.478  -1.299  1.00  0.00     0.102 A 
HETATM   10  C20 UNL     1       0.928   2.766  -0.732  1.00  0.00     0.099 A 
HETATM   11  C21 UNL     1      -0.257   3.180  -0.178  1.00  0.00     0.047 A 
HETATM   12  C22 UNL     1      -1.320   2.324  -0.179  1.00  0.00    -0.049 A 
HETATM   13  C23 UNL     1      -2.617   2.769   0.400  1.00  0.00     0.040 C 
HETATM   14  C24 UNL     1      -3.278   1.674   1.190  1.00  0.00     0.013 C 
HETATM   15  C25 UNL     1      -2.929   0.288   0.793  1.00  0.00     0.029 C 
ENDROOT
BRANCH   9  16
HETATM   16  O2  UNL     1       2.254   1.128  -1.835  1.00  0.00    -0.346 OA
BRANCH  16  17
HETATM   17  C13 UNL     1       2.744  -0.002  -2.428  1.00  0.00     0.209 C 
BRANCH  17  18
HETATM   18  C14 UNL     1       2.873  -1.224  -1.555  1.00  0.00     0.168 C 
BRANCH  18  19
HETATM   19  O3  UNL     1       3.371  -2.292  -2.327  1.00  0.00    -0.392 OA
ATOM     20  H3  UNL     1       3.452  -3.062  -1.777  1.00  0.00     0.210 HD
ENDBRANCH  18  19
BRANCH  18  21
HETATM   21  C15 UNL     1       3.838  -0.928  -0.412  1.00  0.00     0.267 C 
BRANCH  21  22
HETATM   22  N1  UNL     1       5.143  -0.538  -0.868  1.00  0.00    -0.065 N 
ATOM     23  H12 UNL     1       5.487  -1.188  -1.575  1.00  0.00     0.278 HD
ATOM     24  H11 UNL     1       5.089   0.312  -1.430  1.00  0.00     0.278 HD
BRANCH  22  25
HETATM   25  C16 UNL     1       6.096  -0.387   0.186  1.00  0.00     0.115 C 
HETATM   26  C17 UNL     1       6.360  -1.715   0.896  1.00  0.00     0.045 C 
HETATM   27  C18 UNL     1       7.351   0.236  -0.335  1.00  0.00     0.045 C 
HETATM   28  C19 UNL     1       5.552   0.533   1.284  1.00  0.00     0.045 C 
ENDBRANCH  22  25
ENDBRANCH  21  22
ENDBRANCH  18  21
ENDBRANCH  17  18
ENDBRANCH  16  17
ENDBRANCH   9  16
BRANCH  10  29
HETATM   29  O4  UNL     1       2.064   3.584  -0.768  1.00  0.00    -0.358 OA
ATOM     30  H4  UNL     1       1.973   4.449  -0.387  1.00  0.00     0.217 HD
ENDBRANCH  10  29
BRANCH   1  31
HETATM   31  C3  UNL     1      -5.054  -0.452   1.986  1.00  0.00     0.065 C 
BRANCH  31  32
HETATM   32  C2  UNL     1      -4.650  -0.250   3.399  1.00  0.00    -0.034 C 
HETATM   33  C1  UNL     1      -5.138  -1.066   4.366  1.00  0.00     0.007 C 
ENDBRANCH  31  32
ENDBRANCH   1  31
BRANCH   1  34
HETATM   34  O1  UNL     1      -3.323  -1.916   1.484  1.00  0.00    -0.389 OA
ATOM     35  H1  UNL     1      -2.626  -2.099   0.864  1.00  0.00     0.210 HD
ENDBRANCH   1  34
TORSDOF 11
