REMARK  11 active torsions:
REMARK  status: ('A' for Active; 'I' for Inactive)
REMARK    1  A    between atoms: C2_2  and  C3_3 
REMARK    2  A    between atoms: C3_3  and  O1_4 
REMARK    3  A    between atoms: C5_7  and  C7_9 
REMARK    4  A    between atoms: C7_9  and  C8_10 
REMARK    5  A    between atoms: C8_10  and  O2_11 
REMARK    6  A    between atoms: C8_10  and  C9_13 
REMARK    7  A    between atoms: C9_13  and  O3_14 
REMARK    8  A    between atoms: C9_13  and  C10_16 
REMARK    9  A    between atoms: C10_16  and  C11_17 
REMARK   10  A    between atoms: C17_24  and  O5_25 
REMARK   11  A    between atoms: C18_27  and  C20_29 
ROOT
HETATM    1  C3  UNL     1      -0.827  -1.180  -1.081  1.00  0.00     0.066 C 
HETATM    2  C4  UNL     1       0.618  -0.707  -0.869  1.00  0.00     0.056 C 
HETATM    3  C5  UNL     1       0.862   0.739  -1.010  1.00  0.00     0.026 C 
HETATM    4  C6  UNL     1       1.151   1.179  -2.425  1.00  0.00     0.024 C 
HETATM    5  C14 UNL     1      -0.336   1.547  -0.567  1.00  0.00     0.164 C 
HETATM    6  O4  UNL     1      -0.389   2.788  -0.769  1.00  0.00    -0.292 OA
HETATM    7  C15 UNL     1      -1.423   0.905   0.088  1.00  0.00    -0.006 C 
HETATM    8  C16 UNL     1      -2.194   1.559   0.927  1.00  0.00     0.016 C 
HETATM    9  C17 UNL     1      -3.337   0.908   1.624  1.00  0.00     0.150 C 
HETATM   10  C18 UNL     1      -3.961  -0.209   0.870  1.00  0.00    -0.011 C 
HETATM   11  C19 UNL     1      -3.991  -1.463   1.708  1.00  0.00     0.018 C 
HETATM   12  C23 UNL     1      -3.218  -0.572  -0.430  1.00  0.00     0.025 C 
HETATM   13  C24 UNL     1      -1.756  -0.545  -0.135  1.00  0.00     0.057 C 
ENDROOT
BRANCH   3  14
HETATM   14  C7  UNL     1       1.966   1.155  -0.066  1.00  0.00     0.051 C 
BRANCH  14  15
HETATM   15  C8  UNL     1       3.286   0.510  -0.262  1.00  0.00     0.148 C 
BRANCH  15  16
HETATM   16  O2  UNL     1       3.284  -0.869  -0.128  1.00  0.00    -0.393 OA
ATOM     17  H2  UNL     1       4.130  -1.282  -0.254  1.00  0.00     0.210 HD
ENDBRANCH  15  16
BRANCH  15  18
HETATM   18  C9  UNL     1       4.296   1.060   0.745  1.00  0.00     0.147 C 
BRANCH  18  19
HETATM   19  O3  UNL     1       3.939   0.694   2.031  1.00  0.00    -0.393 OA
ATOM     20  H3  UNL     1       4.567   1.036   2.657  1.00  0.00     0.210 HD
ENDBRANCH  18  19
BRANCH  18  21
HETATM   21  C10 UNL     1       5.710   0.854   0.385  1.00  0.00     0.038 C 
BRANCH  21  22
HETATM   22  C11 UNL     1       6.199  -0.537   0.220  1.00  0.00    -0.020 C 
HETATM   23  C12 UNL     1       6.068  -1.387   1.449  1.00  0.00     0.009 C 
HETATM   24  C13 UNL     1       7.707  -0.420  -0.085  1.00  0.00     0.009 C 
ENDBRANCH  21  22
ENDBRANCH  18  21
ENDBRANCH  15  18
ENDBRANCH  14  15
ENDBRANCH   3  14
BRANCH   1  25
HETATM   25  C2  UNL     1      -1.149  -1.152  -2.538  1.00  0.00     0.034 C 
HETATM   26  C1  UNL     1      -2.381  -1.854  -2.979  1.00  0.00     0.008 C 
ENDBRANCH   1  25
BRANCH   1  27
HETATM   27  O1  UNL     1      -0.714  -2.550  -0.724  1.00  0.00    -0.389 OA
ATOM     28  H1  UNL     1      -0.509  -2.568   0.203  1.00  0.00     0.210 HD
ENDBRANCH   1  27
BRANCH   9  29
HETATM   29  O5  UNL     1      -4.268   1.897   1.926  1.00  0.00    -0.391 OA
ATOM     30  H5  UNL     1      -4.997   1.482   2.371  1.00  0.00     0.210 HD
ENDBRANCH   9  29
BRANCH  10  31
HETATM   31  C20 UNL     1      -5.391   0.082   0.465  1.00  0.00    -0.012 C 
HETATM   32  C21 UNL     1      -5.514   1.288  -0.411  1.00  0.00     0.010 C 
HETATM   33  C22 UNL     1      -6.294   0.235   1.649  1.00  0.00     0.010 C 
ENDBRANCH  10  31
TORSDOF 11
