REMARK  11 active torsions:
REMARK  status: ('A' for Active; 'I' for Inactive)
REMARK    1  A    between atoms: C6_6  and  C7_7 
REMARK    2  A    between atoms: C10_11  and  O1_12 
REMARK    3  A    between atoms: C12_15  and  O2_16 
REMARK    4  A    between atoms: C15_21  and  C16_22 
REMARK    5  A    between atoms: C16_22  and  C17_23 
REMARK    6  A    between atoms: C17_23  and  C18_24 
REMARK    7  A    between atoms: C18_24  and  C19_25 
REMARK    8  A    between atoms: C19_25  and  C20_26 
REMARK    9  A    between atoms: C22_28  and  O4_29 
REMARK   10  A    between atoms: C24_32  and  C25_33 
REMARK   11  A    between atoms: C25_33  and  O5_34 
ROOT
HETATM    1  C1  UNL     1      -0.517  -2.995  -0.585  1.00  0.00     0.012 C 
HETATM    2  C2  UNL     1      -0.627  -2.276   0.377  1.00  0.00    -0.109 C 
HETATM    3  C3  UNL     1      -0.738  -1.381   1.559  1.00  0.00     0.103 C 
HETATM    4  C4  UNL     1      -2.103  -1.605   2.105  1.00  0.00     0.025 C 
HETATM    5  C5  UNL     1      -3.148  -1.377   1.082  1.00  0.00     0.040 C 
HETATM    6  C6  UNL     1      -2.870  -0.287   0.147  1.00  0.00    -0.046 C 
HETATM    7  C13 UNL     1      -1.695   0.305   0.164  1.00  0.00     0.020 C 
HETATM    8  C14 UNL     1      -0.542   0.015   1.041  1.00  0.00     0.100 C 
HETATM    9  O3  UNL     1       0.576  -0.096   0.172  1.00  0.00    -0.366 OA
HETATM   10  C15 UNL     1       1.726  -0.442   0.793  1.00  0.00     0.151 C 
HETATM   11  C22 UNL     1       2.034   0.176   2.099  1.00  0.00     0.147 C 
HETATM   12  C23 UNL     1       0.851   0.530   2.953  1.00  0.00     0.044 C 
HETATM   13  C24 UNL     1      -0.199   1.067   2.005  1.00  0.00     0.051 C 
ENDROOT
BRANCH  13  14
HETATM   14  C25 UNL     1      -1.268   1.743   2.749  1.00  0.00     0.172 C 
BRANCH  14  15
HETATM   15  O5  UNL     1      -2.176   2.393   1.882  1.00  0.00    -0.400 OA
ATOM     16  H5  UNL     1      -2.868   2.831   2.364  1.00  0.00     0.209 HD
ENDBRANCH  14  15
ENDBRANCH  13  14
BRANCH   6  17
HETATM   17  C7  UNL     1      -3.919   0.179  -0.810  1.00  0.00     0.005 A 
HETATM   18  C8  UNL     1      -3.755   1.307  -1.571  1.00  0.00     0.041 A 
HETATM   19  C9  UNL     1      -4.728   1.722  -2.500  1.00  0.00     0.068 A 
HETATM   20 CL1  UNL     1      -4.463   3.170  -3.442  1.00  0.00    -0.081 Cl
HETATM   21  C10 UNL     1      -5.883   1.015  -2.684  1.00  0.00     0.090 A 
HETATM   22  C11 UNL     1      -6.057  -0.119  -1.926  1.00  0.00     0.075 A 
HETATM   23  C12 UNL     1      -5.084  -0.518  -1.010  1.00  0.00     0.079 A 
BRANCH  21  24
HETATM   24  O1  UNL     1      -6.860   1.427  -3.613  1.00  0.00    -0.359 OA
ATOM     25  H1  UNL     1      -7.663   0.936  -3.741  1.00  0.00     0.217 HD
ENDBRANCH  21  24
BRANCH  23  26
HETATM   26  O2  UNL     1      -5.389  -1.674  -0.321  1.00  0.00    -0.360 OA
ATOM     27  H2  UNL     1      -6.196  -2.157  -0.459  1.00  0.00     0.217 HD
ENDBRANCH  23  26
ENDBRANCH   6  17
BRANCH  10  28
HETATM   28  C16 UNL     1       2.877  -0.011  -0.171  1.00  0.00     0.034 C 
BRANCH  28  29
HETATM   29  C17 UNL     1       2.733  -0.721  -1.471  1.00  0.00     0.002 C 
BRANCH  29  30
HETATM   30  C18 UNL     1       3.715  -0.393  -2.503  1.00  0.00     0.000 C 
BRANCH  30  31
HETATM   31  C19 UNL     1       5.143  -0.652  -2.372  1.00  0.00    -0.000 C 
BRANCH  31  32
HETATM   32  C20 UNL     1       5.952  -0.025  -1.309  1.00  0.00    -0.005 C 
HETATM   33  C21 UNL     1       5.929   1.485  -1.291  1.00  0.00     0.005 C 
ENDBRANCH  31  32
ENDBRANCH  30  31
ENDBRANCH  29  30
ENDBRANCH  28  29
ENDBRANCH  10  28
BRANCH  11  34
HETATM   34  O4  UNL     1       2.838  -0.683   2.887  1.00  0.00    -0.393 OA
ATOM     35  H4  UNL     1       3.036  -0.286   3.727  1.00  0.00     0.210 HD
ENDBRANCH  11  34
TORSDOF 11
