REMARK  11 active torsions:
REMARK  status: ('A' for Active; 'I' for Inactive)
REMARK    1  A    between atoms: C2_2  and  C3_3 
REMARK    2  A    between atoms: C2_2  and  O2_26 
REMARK    3  A    between atoms: C3_3  and  C4_4 
REMARK    4  A    between atoms: C4_4  and  C5_5 
REMARK    5  A    between atoms: C5_5  and  C6_6 
REMARK    6  A    between atoms: C6_6  and  O1_7 
REMARK    7  A    between atoms: C6_6  and  C7_9 
REMARK    8  A    between atoms: O2_26  and  C23_27 
REMARK    9  A    between atoms: C23_27  and  O3_28 
REMARK   10  A    between atoms: C23_27  and  C24_30 
REMARK   11  A    between atoms: C24_30  and  O4_32 
ROOT
HETATM    1  C7  UNL     1      -0.522  -1.041   0.182  1.00  0.00     0.019 C 
HETATM    2  C8  UNL     1      -1.446  -2.256   0.376  1.00  0.00     0.008 C 
HETATM    3  C9  UNL     1      -2.848  -1.692   0.536  1.00  0.00     0.011 C 
HETATM    4  C10 UNL     1      -2.607  -0.250   0.769  1.00  0.00    -0.028 C 
HETATM    5  C11 UNL     1      -2.048  -0.044   2.156  1.00  0.00     0.016 C 
HETATM    6  C12 UNL     1      -1.502   0.058  -0.209  1.00  0.00     0.005 C 
HETATM    7  C13 UNL     1      -1.924  -0.026  -1.626  1.00  0.00     0.033 C 
HETATM    8  C14 UNL     1      -3.335   0.395  -1.780  1.00  0.00    -0.021 C 
HETATM    9  C15 UNL     1      -4.194   0.697  -0.835  1.00  0.00    -0.053 C 
HETATM   10  C16 UNL     1      -5.498   1.063  -1.522  1.00  0.00     0.134 C 
HETATM   11 CL1  UNL     1      -5.337   1.183  -3.248  1.00  0.00    -0.116 Cl
HETATM   12  C17 UNL     1      -6.462   0.013  -1.085  1.00  0.00    -0.006 C 
HETATM   13  C18 UNL     1      -6.775  -0.264   0.175  1.00  0.00    -0.029 C 
HETATM   14  C19 UNL     1      -6.250   0.389   1.366  1.00  0.00     0.028 C 
HETATM   15  C20 UNL     1      -4.797   0.312   1.599  1.00  0.00     0.018 C 
HETATM   16  C21 UNL     1      -3.822   0.650   0.570  1.00  0.00    -0.011 C 
HETATM   17  C22 UNL     1      -3.251   2.060   0.864  1.00  0.00     0.021 C 
ENDROOT
BRANCH   1  18
HETATM   18  C6  UNL     1       0.474  -1.401  -0.836  1.00  0.00     0.122 C 
BRANCH  18  19
HETATM   19  C5  UNL     1       1.494  -0.310  -1.173  1.00  0.00     0.032 C 
BRANCH  19  20
HETATM   20  C4  UNL     1       2.309   0.069   0.012  1.00  0.00     0.005 C 
BRANCH  20  21
HETATM   21  C3  UNL     1       3.317   1.135  -0.105  1.00  0.00     0.032 C 
BRANCH  21  22
HETATM   22  C2  UNL     1       4.450   0.994  -1.053  1.00  0.00     0.120 C 
HETATM   23  C1  UNL     1       4.078   0.893  -2.486  1.00  0.00     0.039 C 
BRANCH  22  24
HETATM   24  O2  UNL     1       5.252  -0.078  -0.636  1.00  0.00    -0.354 OA
BRANCH  24  25
HETATM   25  C23 UNL     1       6.520   0.252  -0.265  1.00  0.00     0.285 C 
BRANCH  25  26
HETATM   26  O3  UNL     1       7.364  -0.326  -1.263  1.00  0.00    -0.369 OA
ATOM     27  H3  UNL     1       8.249  -0.096  -1.004  1.00  0.00     0.212 HD
ENDBRANCH  25  26
BRANCH  25  28
HETATM   28  C24 UNL     1       7.013  -0.308   1.028  1.00  0.00     0.169 C 
HETATM   29  C25 UNL     1       6.345   0.212   2.257  1.00  0.00     0.044 C 
BRANCH  28  30
HETATM   30  O4  UNL     1       7.003  -1.704   1.040  1.00  0.00    -0.391 OA
ATOM     31  H4  UNL     1       7.317  -2.060   1.863  1.00  0.00     0.210 HD
ENDBRANCH  28  30
ENDBRANCH  25  28
ENDBRANCH  24  25
ENDBRANCH  22  24
ENDBRANCH  21  22
ENDBRANCH  20  21
ENDBRANCH  19  20
ENDBRANCH  18  19
BRANCH  18  32
HETATM   32  O1  UNL     1       1.210  -2.497  -0.389  1.00  0.00    -0.395 OA
ATOM     33  H1  UNL     1       0.577  -3.174  -0.180  1.00  0.00     0.210 HD
ENDBRANCH  18  32
ENDBRANCH   1  18
TORSDOF 11
