REMARK  10 active torsions:
REMARK  status: ('A' for Active; 'I' for Inactive)
REMARK    1  A    between atoms: S1_2  and  C2_3 
REMARK    2  A    between atoms: C7_9  and  N1_10 
REMARK       I    between atoms: N1_10  and  C8_12 
REMARK       I    between atoms: C8_12  and  N4_28 
REMARK    3  A    between atoms: N2_13  and  C9_15 
REMARK    4  A    between atoms: C9_15  and  C10_16 
REMARK    5  A    between atoms: C10_16  and  C11_17 
REMARK    6  A    between atoms: C11_17  and  C12_18 
REMARK    7  A    between atoms: C12_18  and  N3_19 
REMARK       I    between atoms: N3_19  and  C13_21 
REMARK    8  A    between atoms: C13_21  and  O2_23 
REMARK    9  A    between atoms: O2_23  and  C14_24 
REMARK   10  A    between atoms: N4_28  and  C18_30 
ROOT
HETATM    1  N1  UNL     1      -3.268  -0.179   0.440  1.00  0.00    -0.191 N 
ATOM      2  H1  UNL     1      -3.072   0.711   0.898  1.00  0.00     0.184 HD
HETATM    3  C8  UNL     1      -2.550  -1.328   0.863  1.00  0.00     0.680 C 
HETATM    4  N2  UNL     1      -1.443  -1.609   0.298  1.00  0.00    -0.226 N 
ATOM      5  H2  UNL     1      -0.953  -2.442   0.625  1.00  0.00     0.177 HD
HETATM    6  N4  UNL     1      -3.048  -2.173   1.908  1.00  0.00    -0.175 N 
ATOM      7  H4  UNL     1      -3.929  -2.670   1.777  1.00  0.00     0.185 HD
ENDROOT
BRANCH   1   8
HETATM    8  C7  UNL     1      -4.244  -0.207  -0.587  1.00  0.00     0.066 A 
HETATM    9  C2  UNL     1      -4.874   0.985  -0.904  1.00  0.00     0.030 A 
HETATM   10  C3  UNL     1      -5.822   0.959  -1.901  1.00  0.00     0.063 A 
HETATM   11  C4  UNL     1      -6.160  -0.191  -2.582  1.00  0.00     0.117 A 
HETATM   12  F1  UNL     1      -7.096  -0.199  -3.560  1.00  0.00    -0.206 F 
HETATM   13  C5  UNL     1      -5.502  -1.359  -2.228  1.00  0.00     0.044 A 
HETATM   14  C6  UNL     1      -4.551  -1.386  -1.244  1.00  0.00     0.034 A 
BRANCH   9  15
HETATM   15  S1  UNL     1      -4.469   2.515  -0.045  1.00  0.00    -0.132 SA
HETATM   16  C1  UNL     1      -3.110   3.287  -0.996  1.00  0.00     0.095 C 
ENDBRANCH   9  15
ENDBRANCH   1   8
BRANCH   4  17
HETATM   17  C9  UNL     1      -0.820  -0.854  -0.764  1.00  0.00     0.138 C 
BRANCH  17  18
HETATM   18  C10 UNL     1      -0.041   0.271  -0.146  1.00  0.00     0.022 C 
BRANCH  18  19
HETATM   19  C11 UNL     1       0.652   1.125  -1.194  1.00  0.00     0.021 C 
BRANCH  19  20
HETATM   20  C12 UNL     1       1.394   2.219  -0.457  1.00  0.00     0.125 C 
BRANCH  20  21
HETATM   21  N3  UNL     1       2.373   1.751   0.468  1.00  0.00    -0.337 N 
HETATM   22  C13 UNL     1       3.476   0.974   0.058  1.00  0.00     0.361 C 
HETATM   23  O1  UNL     1       3.623   0.677  -1.130  1.00  0.00    -0.238 OA
ATOM     24  H3  UNL     1       2.272   1.985   1.456  1.00  0.00     0.164 HD
BRANCH  22  25
HETATM   25  O2  UNL     1       4.440   0.505   0.933  1.00  0.00    -0.294 OA
BRANCH  25  26
HETATM   26  C14 UNL     1       5.548  -0.263   0.600  1.00  0.00     0.061 C 
HETATM   27  C15 UNL     1       5.055  -1.558  -0.025  1.00  0.00     0.046 C 
HETATM   28  C16 UNL     1       6.481   0.374  -0.392  1.00  0.00     0.046 C 
HETATM   29  C17 UNL     1       6.366  -0.660   1.816  1.00  0.00     0.046 C 
ENDBRANCH  25  26
ENDBRANCH  22  25
ENDBRANCH  20  21
ENDBRANCH  19  20
ENDBRANCH  18  19
ENDBRANCH  17  18
ENDBRANCH   4  17
BRANCH   6  30
HETATM   30  C18 UNL     1      -2.337  -2.327   3.114  1.00  0.00     0.164 C 
HETATM   31  S2  UNL     1      -0.937  -1.535   3.324  1.00  0.00    -0.051 SA
HETATM   32  S3  UNL     1      -2.957  -3.372   4.401  1.00  0.00    -0.020 SA
ENDBRANCH   6  30
TORSDOF 10
