REMARK  11 active torsions:
REMARK  status: ('A' for Active; 'I' for Inactive)
REMARK    1  A    between atoms: O1_2  and  C2_3 
REMARK    2  A    between atoms: C5_7  and  C6_8 
REMARK    3  A    between atoms: C6_8  and  C7_9 
REMARK    4  A    between atoms: C8_10  and  C9_11 
REMARK    5  A    between atoms: C9_11  and  C10_12 
REMARK    6  A    between atoms: C13_15  and  O3_16 
REMARK    7  A    between atoms: C24_28  and  C25_29 
REMARK    8  A    between atoms: C25_29  and  O4_30 
REMARK    9  A    between atoms: C26_32  and  O5_33 
REMARK   10  A    between atoms: O5_33  and  C27_34 
REMARK   11  A    between atoms: C34_45  and  O10_46 
ROOT
HETATM    1  C2  UNL     1      -0.757  -2.296  -2.109  1.00  0.00     0.220 C 
HETATM    2  C3  UNL     1       0.388  -2.228  -1.181  1.00  0.00     0.163 C 
HETATM    3  O2  UNL     1       0.972  -3.314  -0.983  1.00  0.00    -0.295 OA
HETATM    4  C4  UNL     1       1.024  -1.220  -0.429  1.00  0.00     0.076 C 
HETATM    5  C5  UNL     1       2.302  -1.196   0.259  1.00  0.00     0.031 C 
HETATM    6  C13 UNL     1       1.653   0.169   0.670  1.00  0.00     0.133 C 
HETATM    7  C14 UNL     1       0.411  -0.678   0.782  1.00  0.00     0.003 C 
HETATM    8  C15 UNL     1       0.543  -1.309   2.137  1.00  0.00     0.022 C 
HETATM    9  C16 UNL     1      -0.601  -1.218   3.080  1.00  0.00    -0.043 C 
HETATM   10  C17 UNL     1      -0.536   0.005   4.010  1.00  0.00     0.015 C 
HETATM   11  C18 UNL     1      -0.451  -2.391   4.073  1.00  0.00     0.015 C 
HETATM   12  C19 UNL     1      -1.979  -1.270   2.527  1.00  0.00     0.002 C 
HETATM   13  C20 UNL     1      -2.586  -2.659   2.531  1.00  0.00     0.007 C 
HETATM   14  C21 UNL     1      -1.811  -2.754   1.203  1.00  0.00     0.011 C 
HETATM   15  C22 UNL     1      -1.902  -1.341   1.038  1.00  0.00    -0.029 C 
HETATM   16  C23 UNL     1      -3.134  -1.057   0.225  1.00  0.00     0.026 C 
HETATM   17  C24 UNL     1      -2.533  -0.574  -1.115  1.00  0.00     0.033 C 
HETATM   18  C26 UNL     1      -2.026  -1.700  -1.942  1.00  0.00     0.180 C 
HETATM   19  C29 UNL     1      -1.581   0.415  -0.556  1.00  0.00     0.115 C 
HETATM   20  C30 UNL     1      -0.892   1.119  -1.619  1.00  0.00     0.276 C 
HETATM   21  O7  UNL     1      -0.849   0.718  -2.801  1.00  0.00    -0.264 OA
HETATM   22  O8  UNL     1      -0.183   2.330  -1.519  1.00  0.00    -0.283 OA
HETATM   23  C31 UNL     1      -0.525   3.242  -0.440  1.00  0.00     0.169 C 
HETATM   24  C32 UNL     1      -1.548   4.254  -0.895  1.00  0.00     0.079 C 
HETATM   25  C33 UNL     1       0.730   3.891   0.076  1.00  0.00     0.079 C 
HETATM   26  O9  UNL     1      -0.953   2.355   0.497  1.00  0.00    -0.324 OA
HETATM   27  C34 UNL     1      -2.214   1.691   0.043  1.00  0.00     0.282 C 
HETATM   28  C36 UNL     1      -0.938  -0.282   0.580  1.00  0.00     0.030 C 
ENDROOT
BRANCH  17  29
HETATM   29  C25 UNL     1      -3.726   0.002  -1.847  1.00  0.00     0.177 C 
BRANCH  29  30
HETATM   30  O4  UNL     1      -4.416   1.023  -1.327  1.00  0.00    -0.400 OA
ATOM     31  H4  UNL     1      -5.165   1.385  -1.786  1.00  0.00     0.209 HD
ENDBRANCH  29  30
ENDBRANCH  17  29
BRANCH  27  32
HETATM   32  O10 UNL     1      -2.703   1.599   1.300  1.00  0.00    -0.365 OA
HETATM   33  C35 UNL     1      -3.669   2.437   1.736  1.00  0.00     0.204 C 
ENDBRANCH  27  32
BRANCH  18  34
HETATM   34  O5  UNL     1      -2.645  -1.624  -3.236  1.00  0.00    -0.312 OA
BRANCH  34  35
HETATM   35  C27 UNL     1      -3.574  -2.393  -3.799  1.00  0.00     0.255 C 
HETATM   36  C28 UNL     1      -4.177  -2.256  -5.136  1.00  0.00     0.126 C 
HETATM   37  O6  UNL     1      -3.929  -3.309  -3.069  1.00  0.00    -0.266 OA
ENDBRANCH  34  35
ENDBRANCH  18  34
BRANCH   1  38
HETATM   38  O1  UNL     1      -0.924  -3.690  -2.390  1.00  0.00    -0.381 OA
HETATM   39  C1  UNL     1      -0.416  -4.131  -3.545  1.00  0.00     0.202 C 
ENDBRANCH   1  38
BRANCH   6  40
HETATM   40  O3  UNL     1       2.229   0.672   1.801  1.00  0.00    -0.394 OA
ATOM     41  H3  UNL     1       1.835   1.500   2.050  1.00  0.00     0.210 HD
ENDBRANCH   6  40
BRANCH   5  42
HETATM   42  C6  UNL     1       3.576  -0.944  -0.553  1.00  0.00     0.035 C 
BRANCH  42  43
HETATM   43  C7  UNL     1       3.600   0.326  -1.254  1.00  0.00    -0.030 C 
HETATM   44  C8  UNL     1       4.521   1.223  -1.021  1.00  0.00    -0.030 C 
BRANCH  44  45
HETATM   45  C9  UNL     1       5.654   1.165  -0.078  1.00  0.00     0.030 C 
BRANCH  45  46
HETATM   46  C10 UNL     1       5.586   2.280   0.954  1.00  0.00    -0.019 C 
HETATM   47  C11 UNL     1       6.745   2.215   1.913  1.00  0.00     0.010 C 
HETATM   48  C12 UNL     1       5.631   3.639   0.274  1.00  0.00     0.010 C 
ENDBRANCH  45  46
ENDBRANCH  44  45
ENDBRANCH  42  43
ENDBRANCH   5  42
TORSDOF 11
