REMARK  9 active torsions:
REMARK  status: ('A' for Active; 'I' for Inactive)
REMARK    1  A    between atoms: C5_5  and  N1_6 
REMARK    2  A    between atoms: C6_7  and  N2_8 
REMARK    3  A    between atoms: N2_8  and  S1_10 
REMARK    4  A    between atoms: S1_10  and  C8_13 
REMARK    5  A    between atoms: C11_16  and  N3_17 
REMARK    6  A    between atoms: C17_25  and  N5_26 
REMARK    7  A    between atoms: N5_26  and  C18_28 
REMARK    8  A    between atoms: C21_31  and  N6_32 
REMARK    9  A    between atoms: N6_32  and  S2_34 
ROOT
HETATM    1  N1  UNL     1      -0.357  -2.595  -0.217  1.00  0.00    -0.261 N 
HETATM    2  C6  UNL     1      -0.887  -1.452  -0.644  1.00  0.00     0.154 A 
HETATM    3  C17 UNL     1      -2.293  -1.474  -0.873  1.00  0.00     0.080 A 
HETATM    4  C24 UNL     1      -3.037  -2.602  -0.665  1.00  0.00     0.046 A 
HETATM    5  C25 UNL     1      -2.441  -3.759  -0.222  1.00  0.00     0.009 A 
HETATM    6  C26 UNL     1      -3.300  -4.952  -0.018  1.00  0.00     0.054 C 
HETATM    7  C27 UNL     1      -1.111  -3.731  -0.008  1.00  0.00     0.260 A 
HETATM    8  O5  UNL     1      -0.554  -4.797   0.400  1.00  0.00    -0.267 OA
ENDROOT
BRANCH   2   9
HETATM    9  N2  UNL     1      -0.217  -0.236  -0.918  1.00  0.00    -0.259 N 
HETATM   10  C7  UNL     1       0.146  -0.039  -2.337  1.00  0.00     0.171 C 
BRANCH   9  11
HETATM   11  S1  UNL     1       0.108   1.046   0.142  1.00  0.00     0.266 S 
HETATM   12  O1  UNL     1      -0.319   0.678   1.560  1.00  0.00    -0.200 OA
HETATM   13  O2  UNL     1      -0.651   2.310  -0.267  1.00  0.00    -0.200 OA
BRANCH  11  14
HETATM   14  C8  UNL     1       1.785   1.498   0.257  1.00  0.00     0.080 A 
HETATM   15  C9  UNL     1       2.667   1.134   1.218  1.00  0.00     0.027 A 
HETATM   16  C10 UNL     1       3.975   1.557   1.167  1.00  0.00     0.031 A 
HETATM   17  C11 UNL     1       4.476   2.366   0.157  1.00  0.00     0.039 A 
HETATM   18  C15 UNL     1       3.544   2.720  -0.811  1.00  0.00     0.031 A 
HETATM   19  C16 UNL     1       2.241   2.317  -0.788  1.00  0.00     0.027 A 
BRANCH  17  20
HETATM   20  N3  UNL     1       5.833   2.775   0.122  1.00  0.00    -0.317 N 
HETATM   21  C12 UNL     1       6.562   3.047  -0.971  1.00  0.00     0.115 A 
HETATM   22  C13 UNL     1       7.853   3.417  -0.588  1.00  0.00     0.106 A 
HETATM   23  N4  UNL     1       7.857   3.353   0.750  1.00  0.00    -0.360 N 
HETATM   24  C14 UNL     1       6.637   2.966   1.182  1.00  0.00     0.188 A 
ATOM     25  H4  UNL     1       8.656   3.563   1.349  1.00  0.00     0.166 HD
ENDBRANCH  17  20
ENDBRANCH  11  14
ENDBRANCH   9  11
ENDBRANCH   2   9
BRANCH   1  26
HETATM   26  C5  UNL     1       1.022  -2.766   0.069  1.00  0.00     0.050 A 
HETATM   27  C4  UNL     1       1.487  -2.469   1.317  1.00  0.00     0.031 A 
HETATM   28  C3  UNL     1       2.829  -2.678   1.599  1.00  0.00     0.009 A 
HETATM   29  C2  UNL     1       3.674  -3.172   0.650  1.00  0.00    -0.061 A 
HETATM   30  C1  UNL     1       5.120  -3.382   0.987  1.00  0.00     0.048 C 
HETATM   31  C30 UNL     1       3.216  -3.473  -0.606  1.00  0.00     0.015 A 
HETATM   32  C28 UNL     1       1.865  -3.261  -0.879  1.00  0.00    -0.034 A 
HETATM   33  C29 UNL     1       1.388  -3.636  -2.245  1.00  0.00     0.050 C 
ENDBRANCH   1  26
BRANCH   3  34
HETATM   34  N5  UNL     1      -2.932  -0.322  -1.338  1.00  0.00    -0.339 N 
ATOM     35  H5  UNL     1      -2.656   0.008  -2.263  1.00  0.00     0.167 HD
BRANCH  34  36
HETATM   36  C18 UNL     1      -3.820   0.361  -0.735  1.00  0.00     0.105 A 
HETATM   37  C19 UNL     1      -4.339   1.479  -1.365  1.00  0.00     0.051 A 
HETATM   38  C20 UNL     1      -5.311   2.264  -0.780  1.00  0.00     0.035 A 
HETATM   39  C21 UNL     1      -5.780   1.935   0.456  1.00  0.00     0.057 A 
HETATM   40  C23 UNL     1      -5.248   0.801   1.087  1.00  0.00     0.119 A 
HETATM   41  N7  UNL     1      -4.322   0.096   0.474  1.00  0.00    -0.350 N 
ATOM     42  H7  UNL     1      -3.957  -0.721   0.963  1.00  0.00     0.166 HD
BRANCH  39  43
HETATM   43  N6  UNL     1      -6.795   2.663   1.136  1.00  0.00    -0.284 N 
ATOM     44  H6  UNL     1      -7.571   2.162   1.568  1.00  0.00     0.178 HD
BRANCH  43  45
HETATM   45  S2  UNL     1      -6.730   4.367   1.239  1.00  0.00     0.227 S 
HETATM   46  C22 UNL     1      -5.234   4.819   2.122  1.00  0.00     0.186 C 
HETATM   47  O3  UNL     1      -7.935   4.892   1.995  1.00  0.00    -0.206 OA
HETATM   48  O4  UNL     1      -6.711   4.954  -0.136  1.00  0.00    -0.206 OA
ENDBRANCH  43  45
ENDBRANCH  39  43
ENDBRANCH  34  36
ENDBRANCH   3  34
TORSDOF 9
