REMARK  11 active torsions:
REMARK  status: ('A' for Active; 'I' for Inactive)
REMARK    1  A    between atoms: C2_2  and  C3_3 
REMARK    2  A    between atoms: C3_3  and  O1_4 
REMARK    3  A    between atoms: O1_4  and  C4_5 
REMARK    4  A    between atoms: C4_5  and  C5_6 
REMARK       I    between atoms: C5_6  and  N1_8 
REMARK    5  A    between atoms: N1_8  and  C7_10 
REMARK    6  A    between atoms: C7_10  and  C8_11 
REMARK    7  A    between atoms: C8_11  and  O4_13 
REMARK    8  A    between atoms: O4_13  and  C9_14 
REMARK    9  A    between atoms: C11_16  and  O5_17 
REMARK   10  A    between atoms: C24_32  and  O7_33 
REMARK   11  A    between atoms: C29_39  and  O9_40 
ROOT
HETATM    1  C9  UNL     1       1.998   2.161  -0.496  1.00  0.00     0.142 C 
HETATM    2  C10 UNL     1       1.603   0.998  -1.399  1.00  0.00     0.066 C 
HETATM    3  C11 UNL     1       0.085   1.203  -1.598  1.00  0.00     0.133 C 
HETATM    4  C12 UNL     1      -0.659   1.375  -0.334  1.00  0.00     0.015 C 
HETATM    5  C13 UNL     1      -1.137   2.861  -0.358  1.00  0.00     0.023 C 
HETATM    6  C14 UNL     1       0.139   1.277   0.944  1.00  0.00     0.011 C 
HETATM    7  C15 UNL     1       0.135  -0.064   1.585  1.00  0.00     0.007 C 
HETATM    8  C16 UNL     1      -1.261  -0.667   1.735  1.00  0.00     0.015 C 
HETATM    9  C17 UNL     1      -1.907  -0.788   0.321  1.00  0.00    -0.004 C 
HETATM   10  C18 UNL     1      -0.996  -1.779  -0.334  1.00  0.00     0.021 C 
HETATM   11  C19 UNL     1      -1.922   0.605  -0.125  1.00  0.00    -0.009 C 
HETATM   12  C20 UNL     1      -2.976   0.940  -1.095  1.00  0.00     0.176 C 
HETATM   13  O6  UNL     1      -2.872   1.618  -2.135  1.00  0.00    -0.288 OA
HETATM   14  C21 UNL     1      -4.304   0.391  -0.762  1.00  0.00     0.059 C 
HETATM   15  C22 UNL     1      -4.432  -0.672  -0.034  1.00  0.00    -0.050 C 
HETATM   16  C23 UNL     1      -5.759  -1.151   0.254  1.00  0.00     0.065 A 
HETATM   17  C24 UNL     1      -6.877  -0.236  -0.099  1.00  0.00     0.141 A 
HETATM   18  C26 UNL     1      -7.556  -0.566   1.254  1.00  0.00     0.066 A 
HETATM   19  C27 UNL     1      -6.394  -1.554   1.429  1.00  0.00     0.142 A 
HETATM   20  O8  UNL     1      -6.716  -2.806   0.860  1.00  0.00    -0.375 OA
HETATM   21  C28 UNL     1      -5.926  -2.579  -0.260  1.00  0.00     0.168 C 
HETATM   22  C29 UNL     1      -4.690  -3.336  -0.451  1.00  0.00     0.149 C 
HETATM   23  C30 UNL     1      -3.371  -2.675  -0.528  1.00  0.00     0.049 C 
HETATM   24  C31 UNL     1      -3.256  -1.425   0.413  1.00  0.00    -0.006 C 
HETATM   25  C32 UNL     1      -3.303  -2.075   1.763  1.00  0.00     0.021 C 
HETATM   26  C33 UNL     1       1.528   1.825   0.877  1.00  0.00    -0.016 C 
HETATM   27  C34 UNL     1       2.559   0.845   1.451  1.00  0.00     0.018 C 
HETATM   28  C35 UNL     1       1.708   3.096   1.723  1.00  0.00     0.018 C 
ENDROOT
BRANCH   1  29
HETATM   29  O4  UNL     1       3.406   2.319  -0.487  1.00  0.00    -0.314 OA
BRANCH  29  30
HETATM   30  C8  UNL     1       4.038   3.431  -0.986  1.00  0.00     0.277 C 
HETATM   31  O3  UNL     1       3.315   4.339  -1.468  1.00  0.00    -0.263 OA
BRANCH  30  32
HETATM   32  C7  UNL     1       5.503   3.547  -0.958  1.00  0.00     0.236 C 
BRANCH  32  33
HETATM   33  N1  UNL     1       6.129   2.438  -0.287  1.00  0.00    -0.345 N 
HETATM   34  C5  UNL     1       6.507   1.248  -0.970  1.00  0.00     0.243 C 
HETATM   35  O2  UNL     1       6.267   1.182  -2.191  1.00  0.00    -0.271 OA
HETATM   36  C6  UNL     1       6.396   2.545   1.131  1.00  0.00     0.153 C 
BRANCH  34  37
HETATM   37  C4  UNL     1       7.154   0.166  -0.224  1.00  0.00     0.270 C 
BRANCH  37  38
HETATM   38  O1  UNL     1       7.421  -0.985  -0.887  1.00  0.00    -0.382 OA
BRANCH  38  39
HETATM   39  C3  UNL     1       6.314  -1.670  -1.326  1.00  0.00     0.168 C 
BRANCH  39  40
HETATM   40  C2  UNL     1       6.705  -2.956  -2.039  1.00  0.00     0.022 C 
HETATM   41  C1  UNL     1       7.476  -3.854  -1.089  1.00  0.00     0.007 C 
ENDBRANCH  39  40
ENDBRANCH  38  39
ENDBRANCH  37  38
ENDBRANCH  34  37
ENDBRANCH  32  33
ENDBRANCH  30  32
ENDBRANCH  29  30
ENDBRANCH   1  29
BRANCH   3  42
HETATM   42  O5  UNL     1      -0.403   0.304  -2.527  1.00  0.00    -0.394 OA
ATOM     43  H5  UNL     1      -1.337   0.430  -2.649  1.00  0.00     0.210 HD
ENDBRANCH   3  42
BRANCH  22  44
HETATM   44  O9  UNL     1      -4.704  -4.463   0.414  1.00  0.00    -0.393 OA
ATOM     45  H9  UNL     1      -3.901  -4.955   0.290  1.00  0.00     0.210 HD
ENDBRANCH  22  44
BRANCH  17  46
HETATM   46  O7  UNL     1      -7.748  -0.687  -1.090  1.00  0.00    -0.389 OA
HETATM   47  C25 UNL     1      -8.123   0.406  -1.859  1.00  0.00     0.202 C 
ENDBRANCH  17  46
TORSDOF 11
