REMARK  8 active torsions:
REMARK  status: ('A' for Active; 'I' for Inactive)
REMARK    1  A    between atoms: C2_3  and  C3_5 
REMARK    2  A    between atoms: C4_6  and  S1_7 
REMARK    3  A    between atoms: S1_7  and  C5_8 
REMARK    4  A    between atoms: C5_8  and  C6_9 
REMARK       I    between atoms: C6_9  and  N2_11 
REMARK    5  A    between atoms: N3_14  and  C9_15 
REMARK    6  A    between atoms: C9_15  and  C10_16 
REMARK       I    between atoms: C10_16  and  N4_18 
REMARK    7  A    between atoms: N4_18  and  C11_20 
REMARK    8  A    between atoms: C22_35  and  N7_36 
ROOT
HETATM    1  C1  UNL     1      -2.023   2.542  -1.868  1.00  0.00     0.233 C 
HETATM    2  N1  UNL     1      -1.636   2.337  -0.584  1.00  0.00    -0.391 NA
HETATM    3  C2  UNL     1      -1.240   2.128   0.726  1.00  0.00     0.328 C 
HETATM    4  O1  UNL     1      -1.556   2.898   1.698  1.00  0.00    -0.251 OA
ENDROOT
BRANCH   3   5
HETATM    5  C3  UNL     1      -0.413   1.002   1.162  1.00  0.00     0.098 A 
HETATM    6  C4  UNL     1       0.916   1.112   1.599  1.00  0.00     0.092 A 
HETATM    7  N3  UNL     1       1.364  -0.078   1.978  1.00  0.00    -0.317 N 
HETATM    8  C20 UNL     1       0.356  -0.970   1.799  1.00  0.00     0.125 A 
HETATM    9  N5  UNL     1       0.262  -2.286   2.011  1.00  0.00    -0.338 N 
HETATM   10  C32 UNL     1      -0.786  -0.315   1.284  1.00  0.00     0.072 A 
HETATM   11  C21 UNL     1      -0.842  -3.014   1.765  1.00  0.00     0.183 A 
ATOM     12  H5  UNL     1       1.080  -2.769   2.383  1.00  0.00     0.168 HD
HETATM   13  N6  UNL     1      -1.909  -2.398   1.284  1.00  0.00    -0.338 N 
HETATM   14  C22 UNL     1      -1.914  -1.042   1.032  1.00  0.00     0.119 A 
ATOM     15  H6  UNL     1      -2.751  -2.941   1.094  1.00  0.00     0.168 HD
BRANCH   6  16
HETATM   16  S1  UNL     1       1.773   2.679   1.627  1.00  0.00    -0.102 SA
BRANCH  16  17
HETATM   17  C5  UNL     1       2.569   2.976   0.020  1.00  0.00     0.183 C 
BRANCH  17  18
HETATM   18  C6  UNL     1       3.193   4.340   0.067  1.00  0.00     0.228 C 
HETATM   19  O2  UNL     1       4.423   4.410   0.302  1.00  0.00    -0.273 OA
HETATM   20  N2  UNL     1       2.331   5.445  -0.161  1.00  0.00    -0.360 N 
HETATM   21  C7  UNL     1       2.871   6.778  -0.153  1.00  0.00     0.152 C 
HETATM   22  C8  UNL     1       0.911   5.266  -0.395  1.00  0.00     0.152 C 
ENDBRANCH  17  18
ENDBRANCH  16  17
ENDBRANCH   6  16
BRANCH   7  23
HETATM   23  C9  UNL     1       2.687  -0.446   2.455  1.00  0.00     0.234 C 
BRANCH  23  24
HETATM   24  C10 UNL     1       3.481  -0.973   1.297  1.00  0.00     0.240 C 
HETATM   25  O3  UNL     1       2.987  -0.959   0.152  1.00  0.00    -0.271 OA
HETATM   26  N4  UNL     1       4.784  -1.496   1.473  1.00  0.00    -0.325 N 
ATOM     27  H4  UNL     1       5.178  -1.496   2.414  1.00  0.00     0.169 HD
BRANCH  26  28
HETATM   28  C11 UNL     1       5.566  -2.014   0.431  1.00  0.00     0.046 A 
HETATM   29  C12 UNL     1       5.523  -3.350   0.088  1.00  0.00    -0.034 A 
HETATM   30  C13 UNL     1       4.630  -4.289   0.815  1.00  0.00     0.050 C 
HETATM   31  C14 UNL     1       6.297  -3.851  -0.948  1.00  0.00     0.015 A 
HETATM   32  C15 UNL     1       7.122  -3.020  -1.650  1.00  0.00    -0.061 A 
HETATM   33  C16 UNL     1       7.929  -3.619  -2.761  1.00  0.00     0.048 C 
HETATM   34  C17 UNL     1       7.175  -1.691  -1.318  1.00  0.00     0.015 A 
HETATM   35  C18 UNL     1       6.395  -1.181  -0.274  1.00  0.00    -0.034 A 
HETATM   36  C19 UNL     1       6.516   0.291   0.018  1.00  0.00     0.050 C 
ENDBRANCH  26  28
ENDBRANCH  23  24
ENDBRANCH   7  23
BRANCH  14  37
HETATM   37  N7  UNL     1      -3.101  -0.493   0.549  1.00  0.00    -0.366 N 
HETATM   38  C23 UNL     1      -4.039   0.343   1.201  1.00  0.00     0.125 C 
HETATM   39  C24 UNL     1      -5.425  -0.283   1.255  1.00  0.00     0.031 C 
HETATM   40  C25 UNL     1      -5.847  -0.734  -0.097  1.00  0.00    -0.009 C 
HETATM   41  C26 UNL     1      -7.122  -0.069  -0.561  1.00  0.00     0.041 C 
HETATM   42  C29 UNL     1      -6.167  -2.224  -0.004  1.00  0.00     0.281 C 
HETATM   43  C30 UNL     1      -4.825  -0.484  -1.188  1.00  0.00     0.031 C 
HETATM   44  C27 UNL     1      -7.959  -1.210  -1.033  1.00  0.00     0.272 C 
HETATM   45  N8  UNL     1      -7.591  -2.319  -0.179  1.00  0.00     0.085 N 
HETATM   46  C28 UNL     1      -8.356  -2.229   1.035  1.00  0.00     0.309 C 
HETATM   47  C31 UNL     1      -3.439  -0.900  -0.832  1.00  0.00     0.125 C 
ENDBRANCH  14  37
ENDBRANCH   3   5
TORSDOF 7
