REMARK  9 active torsions:
REMARK  status: ('A' for Active; 'I' for Inactive)
REMARK    1  A    between atoms: N1_2  and  C3_4 
REMARK    2  A    between atoms: C3_4  and  C4_5 
REMARK       I    between atoms: C4_5  and  N2_7 
REMARK    3  A    between atoms: C12_17  and  N3_18 
REMARK       I    between atoms: N3_18  and  C13_20 
REMARK    4  A    between atoms: C13_20  and  C14_22 
REMARK    5  A    between atoms: C19_29  and  C20_30 
REMARK    6  A    between atoms: C20_30  and  N4_31 
REMARK    7  A    between atoms: N4_31  and  C22_33 
REMARK    8  A    between atoms: C22_33  and  C23_34 
REMARK    9  A    between atoms: C29_40  and  C30_41 
ROOT
HETATM    1  C4  UNL     1       7.480   1.096   0.965  1.00  0.00     0.255 C 
HETATM    2  O1  UNL     1       6.876   1.839   1.782  1.00  0.00    -0.271 OA
HETATM    3  N2  UNL     1       6.777   0.180   0.146  1.00  0.00    -0.282 N 
HETATM    4  C5  UNL     1       7.573  -0.621  -0.755  1.00  0.00     0.138 C 
HETATM    5  C6  UNL     1       7.072  -2.039  -0.609  1.00  0.00     0.058 C 
HETATM    6  C7  UNL     1       6.248  -2.546  -1.736  1.00  0.00     0.062 C 
HETATM    7  C8  UNL     1       6.443  -4.080  -1.704  1.00  0.00     0.046 C 
HETATM    8  C9  UNL     1       6.808  -2.150  -3.109  1.00  0.00     0.046 C 
HETATM    9  O2  UNL     1       4.882  -2.313  -1.683  1.00  0.00    -0.338 OA
HETATM   10  C10 UNL     1       3.927  -1.405  -1.145  1.00  0.00     0.112 A 
HETATM   11  C11 UNL     1       4.189  -0.368  -0.296  1.00  0.00     0.109 A 
HETATM   12  S1  UNL     1       2.667   0.326  -0.021  1.00  0.00    -0.063 SA
HETATM   13  C12 UNL     1       1.713  -0.732  -1.007  1.00  0.00     0.097 A 
HETATM   14  C29 UNL     1       2.633  -1.594  -1.516  1.00  0.00     0.109 A 
HETATM   15  C31 UNL     1       5.379   0.218   0.363  1.00  0.00     0.270 C 
HETATM   16  O8  UNL     1       4.982   0.911   1.351  1.00  0.00    -0.266 OA
ENDROOT
BRANCH  13  17
HETATM   17  N3  UNL     1       0.279  -0.638  -1.171  1.00  0.00    -0.318 N 
HETATM   18  C13 UNL     1      -0.429   0.388  -0.488  1.00  0.00     0.252 C 
HETATM   19  O3  UNL     1       0.219   1.181   0.232  1.00  0.00    -0.270 OA
ATOM     20  H3  UNL     1      -0.217  -1.299  -1.769  1.00  0.00     0.169 HD
BRANCH  18  21
HETATM   21  C14 UNL     1      -1.880   0.566  -0.579  1.00  0.00     0.229 C 
HETATM   22  O4  UNL     1      -2.480  -0.430  -1.418  1.00  0.00    -0.305 OA
HETATM   23  C15 UNL     1      -2.863  -1.505  -0.624  1.00  0.00     0.268 C 
HETATM   24  O5  UNL     1      -2.719  -2.706  -0.941  1.00  0.00    -0.264 OA
HETATM   25  C16 UNL     1      -3.438  -0.881   0.592  1.00  0.00     0.051 C 
HETATM   26  C17 UNL     1      -3.329  -1.841   1.726  1.00  0.00     0.026 C 
HETATM   27  C18 UNL     1      -4.817  -0.400   0.299  1.00  0.00     0.026 C 
HETATM   28  C28 UNL     1      -2.571   0.351   0.746  1.00  0.00     0.043 C 
HETATM   29  C19 UNL     1      -4.895   1.074   0.574  1.00  0.00     0.015 C 
HETATM   30  C27 UNL     1      -3.526   1.443   1.088  1.00  0.00     0.015 C 
BRANCH  29  31
HETATM   31  C20 UNL     1      -5.871   1.314   1.691  1.00  0.00     0.276 C 
BRANCH  31  32
HETATM   32  N4  UNL     1      -7.228   0.822   1.374  1.00  0.00     0.085 N 
HETATM   33  C21 UNL     1      -7.982   1.071   2.602  1.00  0.00     0.309 C 
BRANCH  32  34
HETATM   34  C22 UNL     1      -7.790   1.579   0.300  1.00  0.00     0.280 C 
BRANCH  34  35
HETATM   35  C23 UNL     1      -9.080   1.129  -0.265  1.00  0.00    -0.025 C 
HETATM   36  C24 UNL     1      -9.424   2.122  -1.404  1.00  0.00     0.016 C 
HETATM   37  C25 UNL     1      -8.976  -0.217  -0.971  1.00  0.00     0.016 C 
HETATM   38  C26 UNL     1     -10.264   1.074   0.628  1.00  0.00     0.016 C 
ENDBRANCH  34  35
ENDBRANCH  32  34
ENDBRANCH  31  32
ENDBRANCH  29  31
ENDBRANCH  18  21
ENDBRANCH  13  17
BRANCH  14  39
HETATM   39  C30 UNL     1       2.228  -2.697  -2.451  1.00  0.00     0.215 C 
HETATM   40  O6  UNL     1       3.108  -3.457  -2.893  1.00  0.00    -0.644 OA
HETATM   41  O7  UNL     1       0.935  -2.910  -2.843  1.00  0.00    -0.644 OA
ENDBRANCH  14  39
BRANCH   1  42
HETATM   42  C3  UNL     1       8.952   1.199   0.875  1.00  0.00     0.374 C 
BRANCH  42  43
HETATM   43  N1  UNL     1       9.517   2.189   1.766  1.00  0.00     0.088 N 
HETATM   44  C1  UNL     1       9.434   1.828   3.146  1.00  0.00     0.310 C 
HETATM   45  C2  UNL     1       8.990   3.479   1.450  1.00  0.00     0.310 C 
ENDBRANCH  42  43
ENDBRANCH   1  42
TORSDOF 9
