REMARK  11 active torsions:
REMARK  status: ('A' for Active; 'I' for Inactive)
REMARK    1  A    between atoms: N1_1  and  C1_4 
REMARK    2  A    between atoms: C3_9  and  C4_10 
REMARK    3  A    between atoms: N6_15  and  C5_16 
REMARK    4  A    between atoms: C6_19  and  N8_20 
REMARK    5  A    between atoms: N11_27  and  C8_28 
REMARK    6  A    between atoms: C8_28  and  C9_29 
REMARK    7  A    between atoms: C8_28  and  C10_34 
REMARK    8  A    between atoms: C9_29  and  N12_30 
REMARK    9  A    between atoms: N12_30  and  O1_32 
REMARK   10  A    between atoms: C10_34  and  C11_35 
REMARK   11  A    between atoms: C11_35  and  O2_36 
ROOT
HETATM    1  C5  UNL     1      -0.340   0.560  -1.627  1.00  0.00     0.723 A 
HETATM    2  N7  UNL     1      -0.523   0.526  -2.960  1.00  0.00    -0.171 N 
ATOM      3  H7  UNL     1       0.273   0.756  -3.555  1.00  0.00     0.186 HD
HETATM    4  C6  UNL     1      -1.672   0.213  -3.553  1.00  0.00     0.146 A 
HETATM    5  C7  UNL     1      -2.744  -0.097  -2.743  1.00  0.00     0.136 A 
HETATM    6  N9  UNL     1      -4.033  -0.454  -2.949  1.00  0.00    -0.277 N 
ATOM      7  H9  UNL     1      -4.475  -0.565  -3.862  1.00  0.00     0.184 HD
HETATM    8  N10 UNL     1      -4.634  -0.638  -1.779  1.00  0.00    -0.017 NA
HETATM    9  N11 UNL     1      -3.784  -0.413  -0.790  1.00  0.00    -0.248 N 
HETATM   10  C12 UNL     1      -2.597  -0.074  -1.372  1.00  0.00     0.169 A 
HETATM   11  N13 UNL     1      -1.399   0.254  -0.857  1.00  0.00    -0.170 N 
ATOM     12  H13 UNL     1      -1.289   0.271   0.157  1.00  0.00     0.186 HD
ENDROOT
BRANCH   1  13
HETATM   13  N6  UNL     1       0.909   0.901  -1.029  1.00  0.00    -0.004 N 
HETATM   14  N5  UNL     1       1.197   2.040  -0.429  1.00  0.00    -0.205 N 
HETATM   15  N4  UNL     1       2.445   2.022   0.011  1.00  0.00    -0.267 N 
ATOM     16  H5  UNL     1       0.551   2.822  -0.320  1.00  0.00     0.211 HD
HETATM   17  C4  UNL     1       2.986   0.832  -0.314  1.00  0.00     0.157 A 
ATOM     18  H4  UNL     1       2.915   2.778   0.509  1.00  0.00     0.190 HD
HETATM   19  N14 UNL     1       2.007   0.160  -0.959  1.00  0.00    -0.246 N 
ATOM     20  H14 UNL     1       2.099  -0.782  -1.338  1.00  0.00     0.191 HD
BRANCH  17  21
HETATM   21  C3  UNL     1       4.346   0.390  -0.018  1.00  0.00     0.121 A 
HETATM   22  C2  UNL     1       4.619  -0.277   1.168  1.00  0.00     0.151 A 
HETATM   23  N2  UNL     1       5.879  -0.668   1.406  1.00  0.00    -0.178 N 
HETATM   24  N3  UNL     1       3.545  -0.497   2.045  1.00  0.00    -0.081 NA
HETATM   25  C1  UNL     1       6.911  -0.460   0.570  1.00  0.00     0.680 A 
ATOM     26  H2  UNL     1       6.068  -1.157   2.281  1.00  0.00     0.185 HD
HETATM   27  N15 UNL     1       6.661   0.185  -0.584  1.00  0.00    -0.155 N 
HETATM   28  C13 UNL     1       5.409   0.602  -0.874  1.00  0.00     0.277 A 
ATOM     29  H15 UNL     1       7.420   0.360  -1.243  1.00  0.00     0.187 HD
HETATM   30  O3  UNL     1       5.161   1.207  -1.950  1.00  0.00    -0.267 OA
BRANCH  25  31
HETATM   31  N1  UNL     1       8.113  -0.871   0.869  1.00  0.00    -0.234 N 
ATOM     32  H12 UNL     1       8.303  -1.360   1.744  1.00  0.00     0.174 HD
ATOM     33  H11 UNL     1       8.896  -0.713   0.235  1.00  0.00     0.174 HD
ENDBRANCH  25  31
ENDBRANCH  17  21
ENDBRANCH   1  13
BRANCH   4  34
HETATM   34  N8  UNL     1      -1.834   0.184  -4.837  1.00  0.00    -0.383 N 
ATOM     35  H82 UNL     1      -1.041   0.413  -5.436  1.00  0.00     0.157 HD
ATOM     36  H81 UNL     1      -2.715  -0.056  -5.292  1.00  0.00     0.157 HD
ENDBRANCH   4  34
BRANCH   9  37
HETATM   37  C8  UNL     1      -4.015  -0.496   0.639  1.00  0.00     0.150 C 
BRANCH  37  38
HETATM   38  C9  UNL     1      -3.077  -1.378   1.335  1.00  0.00     0.113 C 
BRANCH  38  39
HETATM   39  N12 UNL     1      -3.135  -2.653   1.244  1.00  0.00    -0.282 N 
ATOM     40  H12 UNL     1      -2.442  -3.194   1.762  1.00  0.00     0.192 HD
BRANCH  39  41
HETATM   41  O1  UNL     1      -4.049  -3.343   0.510  1.00  0.00    -0.290 OA
ATOM     42  H1  UNL     1      -4.092  -4.290   0.442  1.00  0.00     0.244 HD
ENDBRANCH  39  41
ENDBRANCH  38  39
ENDBRANCH  37  38
BRANCH  37  43
HETATM   43  C10 UNL     1      -4.068   0.893   1.240  1.00  0.00     0.058 C 
BRANCH  43  44
HETATM   44  C11 UNL     1      -4.308   0.805   2.727  1.00  0.00     0.166 C 
BRANCH  44  45
HETATM   45  O2  UNL     1      -4.349   2.111   3.235  1.00  0.00    -0.401 OA
ATOM     46  H2  UNL     1      -4.500   2.056   4.171  1.00  0.00     0.209 HD
ENDBRANCH  44  45
ENDBRANCH  43  44
ENDBRANCH  37  43
ENDBRANCH   9  37
TORSDOF 11
