REMARK  10 active torsions:
REMARK  status: ('A' for Active; 'I' for Inactive)
REMARK    1  A    between atoms: C2_2  and  O1_3 
REMARK    2  A    between atoms: C2_2  and  C12_36 
REMARK    3  A    between atoms: O1_3  and  N1_4 
REMARK       I    between atoms: N1_4  and  C3_6 
REMARK    4  A    between atoms: C3_6  and  C4_8 
REMARK    5  A    between atoms: C5_10  and  N2_11 
REMARK    6  A    between atoms: N4_17  and  C7_19 
REMARK    7  A    between atoms: C7_19  and  N5_20 
REMARK    8  A    between atoms: C9_27  and  O3_28 
REMARK    9  A    between atoms: O3_28  and  C10_29 
REMARK       I    between atoms: C12_36  and  N12_38 
REMARK   10  A    between atoms: N12_38  and  N13_40 
ROOT
HETATM    1  C4  UNL     1      -0.134   0.280   0.939  1.00  0.00     0.116 A 
HETATM    2  S1  UNL     1       0.528   0.554   2.538  1.00  0.00    -0.046 SA
HETATM    3  C5  UNL     1       2.216   0.492   2.585  1.00  0.00     0.144 A 
HETATM    4  N3  UNL     1       2.809   0.249   1.424  1.00  0.00    -0.321 N 
ATOM      5  H3  UNL     1       3.828   0.207   1.433  1.00  0.00     0.169 HD
HETATM    6  C6  UNL     1       2.224   0.057   0.265  1.00  0.00     0.144 A 
HETATM    7  N4  UNL     1       2.939  -0.170  -0.773  1.00  0.00    -0.333 N 
ATOM      8  H4  UNL     1       2.399  -0.307  -1.628  1.00  0.00     0.168 HD
HETATM    9  C9  UNL     1       0.840   0.070   0.019  1.00  0.00     0.146 A 
ENDROOT
BRANCH   1  10
HETATM   10  C3  UNL     1      -1.564   0.283   0.750  1.00  0.00     0.285 C 
HETATM   11  N1  UNL     1      -2.325   0.006  -0.369  1.00  0.00    -0.229 N 
ATOM     12  H1  UNL     1      -1.849  -0.254  -1.233  1.00  0.00     0.198 HD
HETATM   13  O2  UNL     1      -2.235   0.592   1.809  1.00  0.00    -0.265 OA
BRANCH  11  14
HETATM   14  O1  UNL     1      -3.707   0.068  -0.364  1.00  0.00    -0.263 OA
BRANCH  14  15
HETATM   15  C2  UNL     1      -4.278  -0.888   0.440  1.00  0.00     0.241 C 
HETATM   16  C1  UNL     1      -5.020  -1.941  -0.376  1.00  0.00     0.052 C 
BRANCH  15  17
HETATM   17  C12 UNL     1      -5.284  -0.288   1.334  1.00  0.00     0.266 C 
HETATM   18  O4  UNL     1      -5.846  -1.105   2.145  1.00  0.00    -0.269 OA
HETATM   19  N12 UNL     1      -5.674   1.057   1.377  1.00  0.00    -0.274 N 
ATOM     20  H12 UNL     1      -5.242   1.729   0.742  1.00  0.00     0.189 HD
BRANCH  19  21
HETATM   21  N13 UNL     1      -6.641   1.483   2.274  1.00  0.00    -0.343 N 
ATOM     22 2H13 UNL     1      -7.063   0.798   2.902  1.00  0.00     0.176 HD
ATOM     23 1H13 UNL     1      -6.925   2.462   2.305  1.00  0.00     0.176 HD
ENDBRANCH  19  21
ENDBRANCH  15  17
ENDBRANCH  14  15
ENDBRANCH  11  14
ENDBRANCH   1  10
BRANCH   9  24
HETATM   24  O3  UNL     1       0.447  -0.147  -1.329  1.00  0.00    -0.273 OA
BRANCH  24  25
HETATM   25  C10 UNL     1       0.479   1.030  -2.124  1.00  0.00     0.237 C 
HETATM   26  N9  UNL     1       1.036   2.127  -1.766  1.00  0.00    -0.340 N 
HETATM   27  C11 UNL     1       0.904   3.150  -2.790  1.00  0.00     0.259 C 
ATOM     28  H9  UNL     1       1.512   2.265  -0.875  1.00  0.00     0.164 HD
HETATM   29  N10 UNL     1      -0.050   2.614  -3.729  1.00  0.00    -0.118 NA
HETATM   30  N11 UNL     1      -0.063   1.238  -3.406  1.00  0.00    -0.267 N 
ATOM     31  H11 UNL     1      -0.415   0.500  -4.016  1.00  0.00     0.186 HD
ENDBRANCH  24  25
ENDBRANCH   9  24
BRANCH   3  32
HETATM   32  N2  UNL     1       2.949   0.664   3.658  1.00  0.00    -0.380 N 
ATOM     33  H22 UNL     1       2.493   0.851   4.551  1.00  0.00     0.158 HD
ATOM     34  H21 UNL     1       3.968   0.627   3.686  1.00  0.00     0.158 HD
ENDBRANCH   3  32
BRANCH   7  35
HETATM   35  C7  UNL     1       4.334  -0.266  -0.953  1.00  0.00     0.232 C 
BRANCH  35  36
HETATM   36  N5  UNL     1       4.872  -1.605  -0.904  1.00  0.00    -0.159 N 
HETATM   37  N6  UNL     1       5.056  -2.517  -1.832  1.00  0.00    -0.203 N 
HETATM   38  N7  UNL     1       5.556  -3.338  -0.952  1.00  0.00    -0.208 N 
ATOM     39  H6  UNL     1       4.879  -2.564  -2.835  1.00  0.00     0.212 HD
HETATM   40  N8  UNL     1       5.373  -2.427  -0.017  1.00  0.00    -0.200 N 
ATOM     41  H7  UNL     1       5.931  -4.286  -0.976  1.00  0.00     0.211 HD
HETATM   42  C8  UNL     1       5.640  -2.378   1.435  1.00  0.00     0.204 C 
ENDBRANCH  35  36
ENDBRANCH   7  35
TORSDOF 10
