REMARK  10 active torsions:
REMARK  status: ('A' for Active; 'I' for Inactive)
REMARK    1  A    between atoms: C2_2  and  O1_3 
REMARK    2  A    between atoms: O1_3  and  C3_4 
REMARK    3  A    between atoms: C3_4  and  C4_6 
REMARK    4  A    between atoms: C4_6  and  C5_7 
REMARK    5  A    between atoms: C5_7  and  O3_8 
REMARK    6  A    between atoms: O3_8  and  C6_9 
REMARK    7  A    between atoms: C8_15  and  S1_16 
REMARK    8  A    between atoms: S1_16  and  N3_17 
REMARK    9  A    between atoms: N3_17  and  N4_19 
REMARK   10  A    between atoms: N11_37  and  N12_38 
ROOT
HETATM    1  C4  UNL     1      -1.825  -0.322  -0.252  1.00  0.00     0.206 C 
HETATM    2  C7  UNL     1      -0.387  -0.728  -0.172  1.00  0.00     0.084 A 
HETATM    3  N2  UNL     1       0.646  -0.324   0.589  1.00  0.00    -0.334 N 
ATOM      4  H2  UNL     1       0.485   0.410   1.279  1.00  0.00     0.168 HD
HETATM    5  C8  UNL     1       1.881  -0.844   0.482  1.00  0.00     0.169 A 
HETATM    6  N9  UNL     1       2.063  -1.811  -0.436  1.00  0.00    -0.300 N 
ATOM      7  H9  UNL     1       2.990  -2.223  -0.538  1.00  0.00     0.171 HD
HETATM    8  C10 UNL     1       1.067  -2.254  -1.223  1.00  0.00     0.277 A 
HETATM    9  O5  UNL     1       1.218  -3.152  -2.081  1.00  0.00    -0.266 OA
HETATM   10  C11 UNL     1      -0.217  -1.715  -1.114  1.00  0.00     0.138 A 
HETATM   11  N10 UNL     1      -1.445  -1.956  -1.773  1.00  0.00    -0.293 N 
ATOM     12  H10 UNL     1      -1.689  -2.780  -2.322  1.00  0.00     0.183 HD
HETATM   13  N11 UNL     1      -2.255  -0.852  -1.527  1.00  0.00    -0.117 NA
ENDROOT
BRANCH   5  14
HETATM   14  S1  UNL     1       3.233  -0.273   1.520  1.00  0.00     0.041 SA
BRANCH  14  15
HETATM   15  N3  UNL     1       4.096   1.058   0.779  1.00  0.00    -0.229 N 
ATOM     16  H3  UNL     1       3.583   1.785   0.280  1.00  0.00     0.198 HD
BRANCH  15  17
HETATM   17  N4  UNL     1       5.478   1.123   0.871  1.00  0.00     0.003 N 
HETATM   18  N5  UNL     1       6.228   0.233   1.493  1.00  0.00    -0.191 N 
HETATM   19  N6  UNL     1       7.481   0.595   1.389  1.00  0.00    -0.212 N 
ATOM     20  H5  UNL     1       5.887  -0.599   1.975  1.00  0.00     0.212 HD
HETATM   21  N7  UNL     1       7.550   1.708   0.707  1.00  0.00    -0.114 N 
ATOM     22  H6  UNL     1       8.277   0.089   1.778  1.00  0.00     0.210 HD
HETATM   23  C9  UNL     1       6.317   2.054   0.375  1.00  0.00     0.730 A 
ATOM     24  H7  UNL     1       8.402   2.218   0.473  1.00  0.00     0.207 HD
HETATM   25  N8  UNL     1       5.957   3.080  -0.294  1.00  0.00    -0.230 N 
ATOM     26  H82 UNL     1       5.006   3.347  -0.550  1.00  0.00     0.174 HD
ATOM     27  H81 UNL     1       6.592   3.785  -0.669  1.00  0.00     0.174 HD
ENDBRANCH  15  17
ENDBRANCH  14  15
ENDBRANCH   5  14
BRANCH   1  28
HETATM   28  C3  UNL     1      -1.907   1.154  -0.270  1.00  0.00     0.294 C 
HETATM   29  O2  UNL     1      -1.580   1.822   0.736  1.00  0.00    -0.262 OA
BRANCH  28  30
HETATM   30  O1  UNL     1      -2.347   1.807  -1.404  1.00  0.00    -0.320 OA
BRANCH  30  31
HETATM   31  C2  UNL     1      -2.454   3.212  -1.501  1.00  0.00     0.174 C 
HETATM   32  C1  UNL     1      -3.419   3.674  -0.439  1.00  0.00     0.034 C 
ENDBRANCH  30  31
ENDBRANCH  28  30
ENDBRANCH   1  28
BRANCH   1  33
HETATM   33  C5  UNL     1      -2.624  -0.835   0.898  1.00  0.00     0.226 C 
BRANCH  33  34
HETATM   34  O3  UNL     1      -2.564  -2.240   1.033  1.00  0.00    -0.303 OA
BRANCH  34  35
HETATM   35  C6  UNL     1      -3.208  -2.945   2.004  1.00  0.00     0.372 C 
HETATM   36  N1  UNL     1      -3.095  -4.355   2.069  1.00  0.00    -0.032 NA
HETATM   37  O4  UNL     1      -3.906  -2.339   2.848  1.00  0.00    -0.242 OA
ENDBRANCH  34  35
ENDBRANCH  33  34
ENDBRANCH   1  33
BRANCH  13  38
HETATM   38  N12 UNL     1      -3.579  -1.304  -1.491  1.00  0.00    -0.344 NA
ATOM     39 2H12 UNL     1      -4.173  -0.495  -1.311  1.00  0.00     0.172 HD
ATOM     40 1H12 UNL     1      -3.882  -1.678  -2.390  1.00  0.00     0.172 HD
ENDBRANCH  13  38
TORSDOF 10
