REMARK  10 active torsions:
REMARK  status: ('A' for Active; 'I' for Inactive)
REMARK    1  A    between atoms: O1_2  and  C2_3 
REMARK    2  A    between atoms: C5_6  and  N1_7 
REMARK    3  A    between atoms: C6_12  and  C7_13 
REMARK    4  A    between atoms: C7_13  and  N4_14 
REMARK    5  A    between atoms: C9_22  and  N8_23 
REMARK    6  A    between atoms: C10_24  and  N9_25 
REMARK    7  A    between atoms: C11_30  and  N11_31 
REMARK    8  A    between atoms: C13_38  and  O3_39 
REMARK    9  A    between atoms: C14_41  and  N13_42 
REMARK   10  A    between atoms: N13_42  and  N14_44 
ROOT
HETATM    1  N1  UNL     1      -0.290  -1.218  -0.901  1.00  0.00    -0.220 N 
HETATM    2  N2  UNL     1      -0.565  -2.324  -1.624  1.00  0.00    -0.234 N 
ATOM      3  H2  UNL     1       0.139  -2.995  -1.932  1.00  0.00     0.209 HD
HETATM    4  N3  UNL     1      -1.822  -2.431  -1.878  1.00  0.00    -0.284 N 
ATOM      5  H3  UNL     1      -2.270  -3.179  -2.407  1.00  0.00     0.188 HD
HETATM    6  C6  UNL     1      -2.447  -1.355  -1.306  1.00  0.00     0.094 A 
HETATM    7  C9  UNL     1      -1.462  -0.624  -0.708  1.00  0.00     0.182 A 
ENDROOT
BRANCH   1   8
HETATM    8  C5  UNL     1       1.047  -0.892  -0.535  1.00  0.00     0.095 A 
HETATM    9  C4  UNL     1       1.636  -1.303   0.632  1.00  0.00     0.037 A 
HETATM   10  C3  UNL     1       2.937  -0.984   0.955  1.00  0.00     0.041 A 
HETATM   11  C2  UNL     1       3.735  -0.228   0.125  1.00  0.00     0.099 A 
HETATM   12  C14 UNL     1       3.153   0.197  -1.063  1.00  0.00     0.116 A 
HETATM   13  C13 UNL     1       1.854  -0.122  -1.388  1.00  0.00     0.125 A 
BRANCH  11  14
HETATM   14  O1  UNL     1       5.043   0.090   0.453  1.00  0.00    -0.353 OA
HETATM   15  C1  UNL     1       5.647  -0.333   1.650  1.00  0.00     0.210 C 
ENDBRANCH  11  14
BRANCH  12  16
HETATM   16  N13 UNL     1       3.970   0.991  -1.941  1.00  0.00    -0.302 N 
ATOM     17  H13 UNL     1       3.556   1.295  -2.822  1.00  0.00     0.186 HD
BRANCH  16  18
HETATM   18  N14 UNL     1       5.262   1.370  -1.684  1.00  0.00    -0.345 N 
ATOM     19 2H14 UNL     1       5.659   1.057  -0.798  1.00  0.00     0.176 HD
ATOM     20 1H14 UNL     1       5.841   1.933  -2.307  1.00  0.00     0.176 HD
ENDBRANCH  16  18
ENDBRANCH  12  16
BRANCH  13  21
HETATM   21  O3  UNL     1       1.247   0.279  -2.554  1.00  0.00    -0.356 OA
ATOM     22  H3  UNL     1       1.793   0.800  -3.131  1.00  0.00     0.218 HD
ENDBRANCH  13  21
ENDBRANCH   1   8
BRANCH   7  23
HETATM   23  N8  UNL     1      -1.652   0.581  -0.011  1.00  0.00    -0.076 N 
HETATM   24  C10 UNL     1      -1.709   0.586   1.329  1.00  0.00     0.702 A 
HETATM   25  N10 UNL     1      -1.877   1.756   2.010  1.00  0.00    -0.022 N 
HETATM   26  C11 UNL     1      -1.982   2.891   1.304  1.00  0.00     0.694 A 
ATOM     27  H10 UNL     1      -1.922   1.767   3.029  1.00  0.00     0.203 HD
HETATM   28  N12 UNL     1      -1.924   2.880  -0.034  1.00  0.00    -0.140 N 
HETATM   29  C12 UNL     1      -1.760   1.740  -0.713  1.00  0.00     0.361 A 
ATOM     30  H12 UNL     1      -2.007   3.759  -0.545  1.00  0.00     0.189 HD
HETATM   31  O2  UNL     1      -1.710   1.746  -1.971  1.00  0.00    -0.245 OA
BRANCH  24  32
HETATM   32  N9  UNL     1      -1.639  -0.464   2.060  1.00  0.00    -0.233 N 
ATOM     33  H92 UNL     1      -1.513  -1.339   1.551  1.00  0.00     0.174 HD
ATOM     34  H91 UNL     1      -1.682  -0.460   3.079  1.00  0.00     0.174 HD
ENDBRANCH  24  32
BRANCH  26  35
HETATM   35  N11 UNL     1      -2.140   3.991   1.984  1.00  0.00    -0.234 N 
ATOM     36 2H11 UNL     1      -2.184   3.999   3.003  1.00  0.00     0.174 HD
ATOM     37 1H11 UNL     1      -2.220   4.854   1.447  1.00  0.00     0.174 HD
ENDBRANCH  26  35
ENDBRANCH   7  23
BRANCH   6  38
HETATM   38  C7  UNL     1      -3.905  -1.190  -1.426  1.00  0.00     0.214 C 
BRANCH  38  39
HETATM   39  N4  UNL     1      -4.625  -1.615  -0.254  1.00  0.00    -0.265 N 
HETATM   40  C8  UNL     1      -5.056  -2.899  -0.046  1.00  0.00     0.220 A 
HETATM   41  N5  UNL     1      -5.717  -2.927   1.138  1.00  0.00    -0.279 N 
HETATM   42  N6  UNL     1      -5.698  -1.720   1.641  1.00  0.00    -0.227 N 
ATOM     43  H5  UNL     1      -6.153  -3.746   1.562  1.00  0.00     0.189 HD
HETATM   44  N7  UNL     1      -5.042  -0.957   0.792  1.00  0.00    -0.225 N 
ATOM     45  H6  UNL     1      -6.113  -1.425   2.525  1.00  0.00     0.210 HD
ATOM     46  H7  UNL     1      -4.878   0.039   0.936  1.00  0.00     0.210 HD
ENDBRANCH  38  39
ENDBRANCH   6  38
TORSDOF 10
