REMARK  17 active torsions:
REMARK  status: ('A' for Active; 'I' for Inactive)
REMARK    1  A    between atoms: N1_2  and  C2_4 
REMARK    2  A    between atoms: C4_9  and  N4_10 
REMARK    3  A    between atoms: N5_12  and  O1_14 
REMARK    4  A    between atoms: O1_14  and  C5_15 
REMARK    5  A    between atoms: C5_15  and  C6_16 
REMARK    6  A    between atoms: C5_15  and  N8_25 
REMARK       I    between atoms: C6_16  and  N6_18 
REMARK    7  A    between atoms: N6_18  and  N7_20 
REMARK    8  A    between atoms: N7_20  and  O3_21 
REMARK    9  A    between atoms: N7_20  and  O4_23 
REMARK   10  A    between atoms: N8_25  and  O5_26 
REMARK   11  A    between atoms: N8_25  and  C7_28 
REMARK   12  A    between atoms: C7_28  and  N9_30 
REMARK   13  A    between atoms: N9_30  and  O6_31 
REMARK   14  A    between atoms: N9_30  and  N10_33 
REMARK   15  A    between atoms: N10_33  and  O7_35 
REMARK   16  A    between atoms: C8_37  and  N11_38 
REMARK   17  A    between atoms: N11_38  and  O8_40 
ROOT
HETATM    1  C5  UNL     1      -2.493   0.063  -0.230  1.00  0.00     0.377 C 
ENDROOT
BRANCH   1   2
HETATM    2  O1  UNL     1      -1.469   0.566  -1.077  1.00  0.00    -0.227 OA
BRANCH   2   3
HETATM    3  N5  UNL     1      -0.212   0.776  -0.508  1.00  0.00    -0.204 N 
HETATM    4  N4  UNL     1       0.712   0.074  -0.987  1.00  0.00    -0.274 N 
ATOM      5  H4  UNL     1       0.506  -0.586  -1.737  1.00  0.00     0.189 HD
ATOM      6  H5  UNL     1      -0.056   1.450   0.242  1.00  0.00     0.216 HD
BRANCH   4   7
HETATM    7  C4  UNL     1       2.023   0.185  -0.504  1.00  0.00     0.138 A 
HETATM    8  C3  UNL     1       2.816   1.233  -0.945  1.00  0.00     0.163 A 
HETATM    9  N2  UNL     1       4.088   1.363  -0.492  1.00  0.00    -0.176 N 
HETATM   10  N3  UNL     1       2.285   2.161  -1.874  1.00  0.00    -0.080 NA
HETATM   11  C2  UNL     1       4.565   0.463   0.390  1.00  0.00     0.680 A 
ATOM     12  H2  UNL     1       4.676   2.132  -0.815  1.00  0.00     0.185 HD
HETATM   13  N12 UNL     1       3.802  -0.560   0.825  1.00  0.00    -0.173 N 
HETATM   14  C8  UNL     1       2.547  -0.729   0.409  1.00  0.00     0.172 A 
ATOM     15  H12 UNL     1       4.197  -1.224   1.492  1.00  0.00     0.186 HD
BRANCH  11  16
HETATM   16  N1  UNL     1       5.760   0.556   0.837  1.00  0.00    -0.230 N 
HETATM   17  C1  UNL     1       6.379  -0.331   1.769  1.00  0.00     0.165 C 
ATOM     18  H1  UNL     1       6.322   1.336   0.496  1.00  0.00     0.177 HD
ENDBRANCH  11  16
BRANCH  14  19
HETATM   19  N11 UNL     1       1.767  -1.690   0.793  1.00  0.00    -0.251 N 
ATOM     20  H11 UNL     1       0.820  -1.733   0.417  1.00  0.00     0.196 HD
BRANCH  19  21
HETATM   21  O8  UNL     1       2.165  -2.649   1.684  1.00  0.00    -0.288 OA
ATOM     22  H8  UNL     1       1.593  -3.353   1.966  1.00  0.00     0.244 HD
ENDBRANCH  19  21
ENDBRANCH  14  19
ENDBRANCH   4   7
ENDBRANCH   2   3
ENDBRANCH   1   2
BRANCH   1  23
HETATM   23  C6  UNL     1      -2.396  -1.461  -0.271  1.00  0.00     0.289 C 
HETATM   24  O2  UNL     1      -1.522  -1.959  -0.978  1.00  0.00    -0.267 OA
HETATM   25  N6  UNL     1      -3.310  -2.204   0.500  1.00  0.00    -0.238 N 
ATOM     26  H6  UNL     1      -4.001  -1.701   1.057  1.00  0.00     0.188 HD
BRANCH  25  27
HETATM   27  N7  UNL     1      -3.312  -3.607   0.536  1.00  0.00     0.036 NA
BRANCH  27  28
HETATM   28  O3  UNL     1      -2.051  -3.982   0.181  1.00  0.00    -0.271 OA
ATOM     29  H3  UNL     1      -2.052  -4.932   0.205  1.00  0.00     0.241 HD
ENDBRANCH  27  28
BRANCH  27  30
HETATM   30  O4  UNL     1      -4.209  -4.008  -0.410  1.00  0.00    -0.271 OA
ATOM     31  H4  UNL     1      -4.210  -4.958  -0.386  1.00  0.00     0.241 HD
ENDBRANCH  27  30
ENDBRANCH  25  27
ENDBRANCH   1  23
BRANCH   1  32
HETATM   32  N8  UNL     1      -3.820   0.386  -0.640  1.00  0.00    -0.189 N 
BRANCH  32  33
HETATM   33  O5  UNL     1      -4.613  -0.609  -1.216  1.00  0.00    -0.282 OA
ATOM     34  H5  UNL     1      -5.497  -0.394  -1.489  1.00  0.00     0.245 HD
ENDBRANCH  32  33
BRANCH  32  35
HETATM   35  C7  UNL     1      -4.420   1.628  -0.517  1.00  0.00     0.247 C 
HETATM   36  S1  UNL     1      -5.984   1.776  -1.098  1.00  0.00    -0.035 SA
BRANCH  35  37
HETATM   37  N9  UNL     1      -3.825   2.764   0.050  1.00  0.00    -0.113 N 
BRANCH  37  38
HETATM   38  O6  UNL     1      -2.602   2.874   0.583  1.00  0.00    -0.264 OA
ATOM     39  H6  UNL     1      -2.199   3.644   0.967  1.00  0.00     0.247 HD
ENDBRANCH  37  38
BRANCH  37  40
HETATM   40  N10 UNL     1      -4.597   3.961   0.073  1.00  0.00    -0.181 N 
ATOM     41  H10 UNL     1      -4.880   4.412   0.943  1.00  0.00     0.218 HD
BRANCH  40  42
HETATM   42  O7  UNL     1      -4.905   4.422  -1.055  1.00  0.00    -0.272 OA
ATOM     43  H7  UNL     1      -5.420   5.220  -1.040  1.00  0.00     0.246 HD
ENDBRANCH  40  42
ENDBRANCH  37  40
ENDBRANCH  35  37
ENDBRANCH  32  35
ENDBRANCH   1  32
TORSDOF 17
