REMARK  11 active torsions:
REMARK  status: ('A' for Active; 'I' for Inactive)
REMARK    1  A    between atoms: C2_2  and  N1_3 
REMARK    2  A    between atoms: N2_5  and  N3_7 
REMARK    3  A    between atoms: C4_12  and  N5_13 
REMARK    4  A    between atoms: C6_19  and  C7_20 
REMARK    5  A    between atoms: C7_20  and  O1_21 
REMARK    6  A    between atoms: C8_23  and  C9_24 
REMARK    7  A    between atoms: C9_24  and  N7_25 
REMARK    8  A    between atoms: C10_30  and  N10_31 
REMARK    9  A    between atoms: C11_32  and  N11_33 
REMARK   10  A    between atoms: N11_33  and  O2_35 
REMARK   11  A    between atoms: C12_37  and  O3_38 
ROOT
HETATM    1  N1  UNL     1      -2.983  -0.927   0.251  1.00  0.00    -0.179 N 
HETATM    2  C3  UNL     1      -4.267  -0.824  -0.217  1.00  0.00     0.700 A 
HETATM    3  N2  UNL     1      -4.929  -1.905  -0.341  1.00  0.00    -0.138 N 
ATOM      4  H2  UNL     1      -4.500  -2.797  -0.097  1.00  0.00     0.205 HD
HETATM    5  N4  UNL     1      -4.824   0.335  -0.536  1.00  0.00    -0.173 N 
ATOM      6  H4  UNL     1      -5.783   0.374  -0.881  1.00  0.00     0.186 HD
HETATM    7  C4  UNL     1      -4.105   1.449  -0.397  1.00  0.00     0.144 A 
HETATM    8  C5  UNL     1      -2.817   1.408   0.067  1.00  0.00     0.106 A 
HETATM    9  N6  UNL     1      -1.896   2.341   0.321  1.00  0.00    -0.352 N 
ATOM     10  H6  UNL     1      -2.019   3.343   0.177  1.00  0.00     0.166 HD
HETATM   11  C6  UNL     1      -0.785   1.758   0.795  1.00  0.00     0.047 A 
HETATM   12  C8  UNL     1      -0.953   0.362   0.868  1.00  0.00     0.038 A 
HETATM   13  C14 UNL     1      -2.258   0.164   0.396  1.00  0.00     0.096 A 
ENDROOT
BRANCH  12  14
HETATM   14  C9  UNL     1       0.049  -0.526   1.397  1.00  0.00     0.154 C 
BRANCH  14  15
HETATM   15  N7  UNL     1       1.221  -0.832   0.607  1.00  0.00    -0.178 N 
HETATM   16  N8  UNL     1       1.361  -1.796  -0.286  1.00  0.00    -0.207 N 
HETATM   17  N9  UNL     1       2.578  -1.781  -0.757  1.00  0.00    -0.114 N 
ATOM     18  H8  UNL     1       0.630  -2.451  -0.564  1.00  0.00     0.211 HD
HETATM   19  C10 UNL     1       3.258  -0.789  -0.166  1.00  0.00     0.726 A 
ATOM     20  H9  UNL     1       2.950  -2.420  -1.460  1.00  0.00     0.207 HD
HETATM   21  N13 UNL     1       2.391  -0.219   0.674  1.00  0.00    -0.108 N 
ATOM     22  H13 UNL     1       2.601   0.574   1.280  1.00  0.00     0.208 HD
BRANCH  19  23
HETATM   23  N10 UNL     1       4.616  -0.501  -0.456  1.00  0.00    -0.072 N 
HETATM   24  C11 UNL     1       5.095   0.711  -0.835  1.00  0.00     0.204 A 
HETATM   25  C12 UNL     1       6.476   0.571  -1.023  1.00  0.00     0.192 A 
HETATM   26  N12 UNL     1       6.791  -0.703  -0.756  1.00  0.00    -0.285 N 
HETATM   27  C13 UNL     1       5.678  -1.357  -0.413  1.00  0.00     0.349 A 
ATOM     28  H12 UNL     1       7.726  -1.107  -0.806  1.00  0.00     0.172 HD
HETATM   29  O4  UNL     1       5.547  -2.562  -0.092  1.00  0.00    -0.245 OA
BRANCH  24  30
HETATM   30  N11 UNL     1       4.358   1.909  -1.015  1.00  0.00    -0.248 N 
ATOM     31  H11 UNL     1       3.391   1.966  -0.696  1.00  0.00     0.196 HD
BRANCH  30  32
HETATM   32  O2  UNL     1       4.889   2.884  -1.559  1.00  0.00    -0.288 OA
ATOM     33  H2  UNL     1       4.395   3.687  -1.680  1.00  0.00     0.244 HD
ENDBRANCH  30  32
ENDBRANCH  24  30
BRANCH  25  34
HETATM   34  O3  UNL     1       7.353   1.572  -1.414  1.00  0.00    -0.343 OA
ATOM     35  H3  UNL     1       8.290   1.477  -1.542  1.00  0.00     0.219 HD
ENDBRANCH  25  34
ENDBRANCH  19  23
ENDBRANCH  14  15
ENDBRANCH  12  14
BRANCH  11  36
HETATM   36  C7  UNL     1       0.415   2.565   1.144  1.00  0.00     0.222 C 
BRANCH  36  37
HETATM   37  O1  UNL     1       0.136   3.944   0.984  1.00  0.00    -0.395 OA
ATOM     38  H1  UNL     1       0.902   4.459   1.207  1.00  0.00     0.209 HD
ENDBRANCH  36  37
ENDBRANCH  11  36
BRANCH   1  39
HETATM   39  C2  UNL     1      -2.515  -2.248   0.564  1.00  0.00     0.143 C 
HETATM   40  C1  UNL     1      -2.013  -2.888  -0.745  1.00  0.00     0.027 C 
ENDBRANCH   1  39
BRANCH   7  41
HETATM   41  N5  UNL     1      -4.646   2.573  -0.708  1.00  0.00    -0.383 N 
ATOM     42  H52 UNL     1      -5.605   2.604  -1.054  1.00  0.00     0.157 HD
ATOM     43  H51 UNL     1      -4.096   3.425  -0.602  1.00  0.00     0.157 HD
ENDBRANCH   7  41
BRANCH   3  44
HETATM   44  N3  UNL     1      -6.235  -1.867  -0.809  1.00  0.00    -0.331 N 
ATOM     45  H32 UNL     1      -6.649  -0.966  -1.049  1.00  0.00     0.177 HD
ATOM     46  H31 UNL     1      -6.765  -2.733  -0.908  1.00  0.00     0.177 HD
ENDBRANCH   3  44
TORSDOF 11
