REMARK  13 active torsions:
REMARK  status: ('A' for Active; 'I' for Inactive)
REMARK    1  A    between atoms: N1_1  and  C1_4 
REMARK    2  A    between atoms: C2_10  and  C3_11 
REMARK       I    between atoms: C3_11  and  N4_13 
REMARK    3  A    between atoms: N4_13  and  N5_15 
REMARK    4  A    between atoms: N5_15  and  N6_17 
REMARK    5  A    between atoms: N6_17  and  C4_19 
REMARK    6  A    between atoms: N9_25  and  C6_27 
REMARK    7  A    between atoms: C6_27  and  O3_28 
REMARK    8  A    between atoms: C6_27  and  C7_30 
REMARK    9  A    between atoms: C8_33  and  C9_34 
REMARK   10  A    between atoms: C9_34  and  O4_35 
REMARK   11  A    between atoms: C9_34  and  C10_37 
REMARK   12  A    between atoms: C10_37  and  O5_38 
REMARK   13  A    between atoms: C11_41  and  O7_42 
ROOT
HETATM    1  C4  UNL     1       2.566   0.501   0.157  1.00  0.00     0.262 A 
HETATM    2  N7  UNL     1       1.801   1.130  -0.734  1.00  0.00    -0.262 N 
ATOM      3  H7  UNL     1       2.246   1.791  -1.371  1.00  0.00     0.190 HD
HETATM    4  N8  UNL     1       0.477   0.942  -0.840  1.00  0.00    -0.278 N 
ATOM      5  H8  UNL     1      -0.082   1.440  -1.533  1.00  0.00     0.189 HD
HETATM    6  C5  UNL     1      -0.073   0.067   0.010  1.00  0.00     0.195 A 
HETATM    7  N9  UNL     1      -1.328  -0.171  -0.024  1.00  0.00    -0.339 N 
ATOM      8  H9  UNL     1      -1.745  -0.838   0.625  1.00  0.00     0.164 HD
HETATM    9  C12 UNL     1       0.725  -0.598   0.948  1.00  0.00     0.336 A 
HETATM   10  O8  UNL     1       0.156  -1.395   1.708  1.00  0.00    -0.255 OA
HETATM   11  O9  UNL     1       2.011  -0.343   0.971  1.00  0.00    -0.237 OA
ENDROOT
BRANCH   7  12
HETATM   12  C6  UNL     1      -2.148   0.516  -0.992  1.00  0.00     0.275 C 
BRANCH  12  13
HETATM   13  O3  UNL     1      -1.902   0.016  -2.291  1.00  0.00    -0.371 OA
ATOM     14  H3  UNL     1      -2.442   0.468  -2.928  1.00  0.00     0.212 HD
ENDBRANCH  12  13
BRANCH  12  15
HETATM   15  C7  UNL     1      -3.569   0.178  -0.644  1.00  0.00     0.118 A 
HETATM   16  N10 UNL     1      -4.622   0.985  -0.571  1.00  0.00    -0.334 N 
HETATM   17  C8  UNL     1      -5.693   0.247  -0.224  1.00  0.00     0.158 A 
ATOM     18  H10 UNL     1      -4.619   1.990  -0.747  1.00  0.00     0.168 HD
HETATM   19  O6  UNL     1      -5.291  -0.994  -0.090  1.00  0.00    -0.270 OA
HETATM   20  C11 UNL     1      -3.986  -1.084  -0.339  1.00  0.00     0.212 A 
BRANCH  17  21
HETATM   21  C9  UNL     1      -7.066   0.785  -0.038  1.00  0.00     0.216 C 
BRANCH  21  22
HETATM   22  O4  UNL     1      -7.094   1.956   0.693  1.00  0.00    -0.385 OA
ATOM     23  H4  UNL     1      -7.972   2.300   0.812  1.00  0.00     0.210 HD
ENDBRANCH  21  22
BRANCH  21  24
HETATM   24  C10 UNL     1      -7.879  -0.260   0.734  1.00  0.00     0.204 C 
BRANCH  24  25
HETATM   25  O5  UNL     1      -7.284  -0.433   1.982  1.00  0.00    -0.398 OA
ATOM     26  H5  UNL     1      -7.788  -1.081   2.461  1.00  0.00     0.209 HD
ENDBRANCH  24  25
ENDBRANCH  21  24
ENDBRANCH  17  21
BRANCH  20  27
HETATM   27  O7  UNL     1      -3.191  -2.227  -0.302  1.00  0.00    -0.339 OA
ATOM     28  H7  UNL     1      -3.482  -3.106  -0.090  1.00  0.00     0.220 HD
ENDBRANCH  20  27
ENDBRANCH  12  15
ENDBRANCH   7  12
BRANCH   1  29
HETATM   29  N6  UNL     1       3.978   0.768   0.196  1.00  0.00    -0.249 N 
ATOM     30  H6  UNL     1       4.567   0.288   0.876  1.00  0.00     0.192 HD
BRANCH  29  31
HETATM   31  N5  UNL     1       4.541   1.675  -0.688  1.00  0.00    -0.237 N 
ATOM     32  H5  UNL     1       3.947   2.162  -1.359  1.00  0.00     0.208 HD
BRANCH  31  33
HETATM   33  N4  UNL     1       5.777   1.902  -0.670  1.00  0.00    -0.250 N 
HETATM   34  C3  UNL     1       6.572   1.198   0.286  1.00  0.00     0.293 C 
HETATM   35  O2  UNL     1       6.635   1.535   1.473  1.00  0.00    -0.264 OA
ATOM     36  H4  UNL     1       6.199   2.568  -1.317  1.00  0.00     0.192 HD
BRANCH  34  37
HETATM   37  C2  UNL     1       7.330   0.035  -0.195  1.00  0.00     0.171 A 
HETATM   38  C1  UNL     1       8.163  -0.812   0.492  1.00  0.00     0.155 A 
HETATM   39  N2  UNL     1       8.635  -1.742  -0.389  1.00  0.00    -0.224 N 
HETATM   40  O1  UNL     1       8.109  -1.456  -1.529  1.00  0.00    -0.155 OA
ATOM     41  H2  UNL     1       9.276  -2.509  -0.185  1.00  0.00     0.198 HD
HETATM   42  N3  UNL     1       7.339  -0.431  -1.481  1.00  0.00    -0.232 N 
ATOM     43  H3  UNL     1       6.823  -0.033  -2.266  1.00  0.00     0.197 HD
BRANCH  38  44
HETATM   44  N1  UNL     1       8.471  -0.777   1.731  1.00  0.00    -0.382 N 
ATOM     45  H12 UNL     1       9.090  -1.407   2.242  1.00  0.00     0.157 HD
ATOM     46  H11 UNL     1       8.118  -0.082   2.389  1.00  0.00     0.157 HD
ENDBRANCH  38  44
ENDBRANCH  34  37
ENDBRANCH  31  33
ENDBRANCH  29  31
ENDBRANCH   1  29
TORSDOF 13
