REMARK  9 active torsions:
REMARK  status: ('A' for Active; 'I' for Inactive)
REMARK    1  A    between atoms: O1_2  and  C2_3 
REMARK    2  A    between atoms: N1_7  and  O4_8 
REMARK    3  A    between atoms: C4_10  and  C5_11 
REMARK    4  A    between atoms: C6_14  and  C7_15 
REMARK    5  A    between atoms: C7_15  and  C8_16 
REMARK    6  A    between atoms: C8_16  and  N3_17 
REMARK    7  A    between atoms: N4_21  and  N5_22 
REMARK    8  A    between atoms: N5_22  and  C9_24 
REMARK    9  A    between atoms: C11_32  and  N9_33 
ROOT
HETATM    1  C5  UNL     1      -2.037  -0.284   1.188  1.00  0.00     0.158 A 
HETATM    2  N2  UNL     1      -2.241  -1.625   1.378  1.00  0.00    -0.326 N 
ATOM      3  H2  UNL     1      -3.059  -2.036   1.827  1.00  0.00     0.169 HD
HETATM    4  C6  UNL     1      -1.202  -2.318   0.884  1.00  0.00     0.125 A 
HETATM    5  N4  UNL     1      -0.326  -1.434   0.374  1.00  0.00    -0.181 N 
HETATM    6  N11 UNL     1      -0.850  -0.226   0.570  1.00  0.00    -0.261 N 
ATOM      7  H11 UNL     1      -0.400   0.643   0.283  1.00  0.00     0.191 HD
ENDROOT
BRANCH   5   8
HETATM    8  N5  UNL     1       0.900  -1.731  -0.244  1.00  0.00    -0.258 N 
ATOM      9  H5  UNL     1       1.198  -2.702  -0.334  1.00  0.00     0.191 HD
BRANCH   8  10
HETATM   10  C9  UNL     1       1.719  -0.705  -0.739  1.00  0.00     0.188 A 
HETATM   11  N6  UNL     1       1.534  -0.258  -2.012  1.00  0.00    -0.280 N 
HETATM   12  N7  UNL     1       2.271   0.698  -2.518  1.00  0.00    -0.282 N 
ATOM     13  H6  UNL     1       0.803  -0.679  -2.585  1.00  0.00     0.189 HD
HETATM   14  C10 UNL     1       3.247   1.290  -1.811  1.00  0.00     0.155 A 
ATOM     15  H7  UNL     1       2.099   1.002  -3.476  1.00  0.00     0.188 HD
HETATM   16  N8  UNL     1       3.994   2.265  -2.336  1.00  0.00    -0.174 N 
HETATM   17  C13 UNL     1       3.486   0.874  -0.496  1.00  0.00     0.132 A 
HETATM   18  C11 UNL     1       4.965   2.828  -1.580  1.00  0.00     0.680 A 
ATOM     19  H8  UNL     1       3.835   2.581  -3.293  1.00  0.00     0.186 HD
HETATM   20  N10 UNL     1       5.214   2.447  -0.317  1.00  0.00    -0.155 N 
HETATM   21  C12 UNL     1       4.485   1.471   0.244  1.00  0.00     0.277 A 
ATOM     22  H10 UNL     1       5.957   2.899   0.216  1.00  0.00     0.187 HD
HETATM   23  O5  UNL     1       4.716   1.113   1.426  1.00  0.00    -0.266 OA
HETATM   24  C14 UNL     1       2.708  -0.126   0.017  1.00  0.00     0.237 A 
HETATM   25  O6  UNL     1       2.887  -0.525   1.179  1.00  0.00    -0.283 OA
BRANCH  18  26
HETATM   26  N9  UNL     1       5.684   3.773  -2.095  1.00  0.00    -0.234 N 
ATOM     27  H92 UNL     1       5.495   4.062  -3.055  1.00  0.00     0.174 HD
ATOM     28  H91 UNL     1       6.416   4.197  -1.525  1.00  0.00     0.174 HD
ENDBRANCH  18  26
ENDBRANCH   8  10
ENDBRANCH   5   8
BRANCH   4  29
HETATM   29  C7  UNL     1      -1.039  -3.795   0.887  1.00  0.00     0.107 C 
BRANCH  29  30
HETATM   30  C8  UNL     1      -1.614  -4.421  -0.364  1.00  0.00     0.237 C 
BRANCH  30  31
HETATM   31  N3  UNL     1      -3.016  -4.170  -0.531  1.00  0.00    -0.079 N 
ATOM     32  H33 UNL     1      -3.538  -4.465   0.294  1.00  0.00     0.274 HD
ATOM     33  H32 UNL     1      -3.211  -3.169  -0.504  1.00  0.00     0.274 HD
ATOM     34  H31 UNL     1      -3.404  -4.592  -1.375  1.00  0.00     0.274 HD
ENDBRANCH  30  31
ENDBRANCH  29  30
ENDBRANCH   4  29
BRANCH   1  35
HETATM   35  C4  UNL     1      -2.949   0.780   1.601  1.00  0.00     0.172 A 
HETATM   36  C2  UNL     1      -2.840   2.129   1.433  1.00  0.00     0.223 A 
HETATM   37  O2  UNL     1      -3.898   2.695   1.987  1.00  0.00    -0.233 OA
HETATM   38  C3  UNL     1      -4.692   1.793   2.506  1.00  0.00     0.399 A 
HETATM   39  O3  UNL     1      -5.799   2.002   3.115  1.00  0.00    -0.235 OA
HETATM   40  N1  UNL     1      -4.107   0.606   2.269  1.00  0.00    -0.158 N 
BRANCH  36  41
HETATM   41  O1  UNL     1      -1.813   2.808   0.799  1.00  0.00    -0.333 OA
HETATM   42  C1  UNL     1      -1.882   2.974  -0.599  1.00  0.00     0.212 C 
ENDBRANCH  36  41
BRANCH  40  43
HETATM   43  O4  UNL     1      -4.620  -0.626   2.655  1.00  0.00    -0.278 OA
ATOM     44  H4  UNL     1      -4.207  -1.465   2.488  1.00  0.00     0.245 HD
ENDBRANCH  40  43
ENDBRANCH   1  35
TORSDOF 9
