REMARK  15 active torsions:
REMARK  status: ('A' for Active; 'I' for Inactive)
REMARK    1  A    between atoms: C2_2  and  C3_3 
REMARK    2  A    between atoms: C3_3  and  C4_4 
REMARK    3  A    between atoms: C3_3  and  O2_22 
REMARK    4  A    between atoms: C4_4  and  N1_5 
REMARK    5  A    between atoms: N2_8  and  C7_9 
REMARK    6  A    between atoms: C7_9  and  C8_10 
REMARK    7  A    between atoms: C8_10  and  C9_11 
REMARK    8  A    between atoms: C9_11  and  N3_12 
REMARK       I    between atoms: N3_12  and  C10_14 
REMARK    9  A    between atoms: C10_14  and  C11_16 
REMARK   10  A    between atoms: O2_22  and  C17_23 
REMARK   11  A    between atoms: C17_23  and  C18_24 
REMARK   12  A    between atoms: C18_24  and  C19_26 
REMARK   13  A    between atoms: C19_26  and  O4_27 
REMARK   14  A    between atoms: O4_27  and  C20_28 
REMARK       I    between atoms: C20_28  and  N4_30 
REMARK   15  A    between atoms: N4_30  and  C21_32 
ROOT
HETATM    1  C3  UNL     1      -1.379  -0.393  -1.388  1.00  0.00     0.150 C 
ENDROOT
BRANCH   1   2
HETATM    2  C2  UNL     1      -1.406   0.264  -2.726  1.00  0.00     0.029 C 
HETATM    3  C1  UNL     1      -2.263  -0.593  -3.653  1.00  0.00     0.007 C 
ENDBRANCH   1   2
BRANCH   1   4
HETATM    4  C4  UNL     1      -0.582   0.313  -0.350  1.00  0.00     0.304 C 
BRANCH   4   5
HETATM    5  N1  UNL     1       0.754   0.572  -0.819  1.00  0.00     0.094 N 
HETATM    6  C5  UNL     1       1.591  -0.564  -0.992  1.00  0.00     0.302 C 
HETATM    7  C6  UNL     1       2.395  -0.904   0.244  1.00  0.00     0.302 C 
HETATM    8  N2  UNL     1       3.123   0.206   0.766  1.00  0.00     0.092 N 
HETATM    9  C15 UNL     1       2.880   1.371  -0.053  1.00  0.00     0.302 C 
HETATM   10  C16 UNL     1       1.394   1.634  -0.061  1.00  0.00     0.302 C 
BRANCH   8  11
HETATM   11  C7  UNL     1       4.564  -0.078   0.903  1.00  0.00     0.277 C 
BRANCH  11  12
HETATM   12  C8  UNL     1       5.237  -0.209  -0.392  1.00  0.00     0.074 C 
BRANCH  12  13
HETATM   13  C9  UNL     1       6.668  -0.580  -0.356  1.00  0.00     0.065 C 
BRANCH  13  14
HETATM   14  N3  UNL     1       7.632   0.190   0.307  1.00  0.00    -0.340 N 
HETATM   15  C10 UNL     1       7.853   0.450   1.662  1.00  0.00     0.225 C 
HETATM   16  O1  UNL     1       7.162  -0.033   2.568  1.00  0.00    -0.273 OA
ATOM     17  H3  UNL     1       8.298   0.647  -0.316  1.00  0.00     0.167 HD
BRANCH  15  18
HETATM   18  C11 UNL     1       8.968   1.350   2.101  1.00  0.00     0.078 A 
HETATM   19  C12 UNL     1       8.836   2.753   1.552  1.00  0.00     0.014 A 
HETATM   20  C13 UNL     1      10.178   2.639   0.830  1.00  0.00     0.002 A 
HETATM   21  C14 UNL     1      10.227   1.195   1.270  1.00  0.00     0.014 A 
ENDBRANCH  15  18
ENDBRANCH  13  14
ENDBRANCH  12  13
ENDBRANCH  11  12
ENDBRANCH   8  11
ENDBRANCH   4   5
ENDBRANCH   1   4
BRANCH   1  22
HETATM   22  O2  UNL     1      -2.685  -0.656  -0.987  1.00  0.00    -0.377 OA
BRANCH  22  23
HETATM   23  C17 UNL     1      -2.971  -1.978  -0.870  1.00  0.00     0.250 C 
BRANCH  23  24
HETATM   24  C18 UNL     1      -4.304  -2.374  -0.448  1.00  0.00     0.185 C 
HETATM   25  O3  UNL     1      -4.487  -3.618  -0.504  1.00  0.00    -0.292 OA
BRANCH  24  26
HETATM   26  C19 UNL     1      -5.443  -1.593   0.014  1.00  0.00     0.134 C 
HETATM   27  C24 UNL     1      -6.499  -1.411  -1.081  1.00  0.00     0.047 C 
HETATM   28  C25 UNL     1      -7.191  -2.688  -1.463  1.00  0.00     0.004 C 
HETATM   29  C26 UNL     1      -7.989  -3.124  -0.241  1.00  0.00     0.000 C 
HETATM   30  C27 UNL     1      -7.022  -3.390   0.862  1.00  0.00     0.004 C 
HETATM   31  C28 UNL     1      -6.160  -2.221   1.184  1.00  0.00     0.047 C 
BRANCH  26  32
HETATM   32  O4  UNL     1      -5.142  -0.253   0.400  1.00  0.00    -0.284 OA
BRANCH  32  33
HETATM   33  C20 UNL     1      -4.318   0.122   1.429  1.00  0.00     0.367 C 
HETATM   34  O5  UNL     1      -3.778  -0.784   2.114  1.00  0.00    -0.238 OA
HETATM   35  N4  UNL     1      -4.065   1.515   1.732  1.00  0.00    -0.282 N 
ATOM     36  H4  UNL     1      -3.133   1.881   1.928  1.00  0.00     0.173 HD
BRANCH  35  37
HETATM   37  C21 UNL     1      -5.144   2.267   1.732  1.00  0.00     0.152 A 
HETATM   38  N5  UNL     1      -5.190   3.573   1.978  1.00  0.00    -0.346 N 
HETATM   39  C22 UNL     1      -6.341   4.181   1.940  1.00  0.00     0.097 A 
ATOM     40  H5  UNL     1      -4.338   4.090   2.193  1.00  0.00     0.167 HD
HETATM   41  C23 UNL     1      -7.449   3.426   1.644  1.00  0.00     0.070 A 
HETATM   42  S1  UNL     1      -6.774   1.873   1.436  1.00  0.00    -0.064 SA
ENDBRANCH  35  37
ENDBRANCH  32  33
ENDBRANCH  26  32
ENDBRANCH  24  26
ENDBRANCH  23  24
ENDBRANCH  22  23
ENDBRANCH   1  22
TORSDOF 15
