REMARK  14 active torsions:
REMARK  status: ('A' for Active; 'I' for Inactive)
REMARK       I    between atoms: N3_10  and  C6_12 
REMARK    1  A    between atoms: C6_12  and  C7_14 
REMARK    2  A    between atoms: C7_14  and  C8_15 
REMARK    3  A    between atoms: C8_15  and  C9_16 
REMARK    4  A    between atoms: C9_16  and  C10_17 
REMARK    5  A    between atoms: C10_17  and  C11_18 
REMARK    6  A    between atoms: N4_21  and  C14_22 
REMARK    7  A    between atoms: C14_22  and  C15_23 
REMARK    8  A    between atoms: C15_23  and  N5_24 
REMARK    9  A    between atoms: C23_33  and  N6_34 
REMARK   10  A    between atoms: N6_34  and  C24_36 
REMARK   11  A    between atoms: C24_36  and  O3_37 
REMARK   12  A    between atoms: C24_36  and  C25_39 
REMARK   13  A    between atoms: C25_39  and  C26_40 
REMARK   14  A    between atoms: C26_40  and  N7_41 
ROOT
HETATM    1  C1  UNL     1       6.634  -2.743   3.293  1.00  0.00     0.070 C 
HETATM    2  C2  UNL     1       5.276  -2.267   2.864  1.00  0.00     0.035 A 
HETATM    3  N1  UNL     1       4.138  -2.620   3.478  1.00  0.00    -0.365 N 
ATOM      4  H1  UNL     1       4.192  -3.264   4.267  1.00  0.00     0.165 HD
HETATM    5  C3  UNL     1       2.920  -2.162   3.101  1.00  0.00     0.120 A 
HETATM    6  C4  UNL     1       2.829  -1.281   2.022  1.00  0.00     0.087 A 
HETATM    7  N2  UNL     1       1.829  -0.632   1.377  1.00  0.00    -0.318 N 
ATOM      8  H2  UNL     1       0.842  -0.706   1.622  1.00  0.00     0.169 HD
HETATM    9  C5  UNL     1       2.301   0.113   0.384  1.00  0.00     0.232 A 
HETATM   10  N3  UNL     1       1.751   0.881  -0.473  1.00  0.00    -0.292 N 
ATOM     11  H3  UNL     1       2.356   1.348  -1.148  1.00  0.00     0.172 HD
HETATM   12  C6  UNL     1       0.361   1.131  -0.554  1.00  0.00     0.224 C 
HETATM   13  O1  UNL     1      -0.422   0.935   0.393  1.00  0.00    -0.273 OA
HETATM   14  O2  UNL     1       3.648  -0.072   0.399  1.00  0.00    -0.274 OA
HETATM   15  C22 UNL     1       3.959  -0.901   1.374  1.00  0.00     0.136 A 
HETATM   16  C23 UNL     1       5.200  -1.396   1.794  1.00  0.00     0.093 A 
ENDROOT
BRANCH  12  17
HETATM   17  C7  UNL     1      -0.074   1.656  -1.891  1.00  0.00     0.103 C 
BRANCH  17  18
HETATM   18  C8  UNL     1      -1.147   2.647  -1.772  1.00  0.00     0.009 C 
BRANCH  18  19
HETATM   19  C9  UNL     1      -2.466   2.197  -1.256  1.00  0.00     0.001 C 
BRANCH  19  20
HETATM   20  C10 UNL     1      -3.011   1.147  -2.198  1.00  0.00     0.005 C 
BRANCH  20  21
HETATM   21  C11 UNL     1      -4.367   0.664  -1.824  1.00  0.00    -0.011 C 
HETATM   22  C12 UNL     1      -5.391   1.782  -1.791  1.00  0.00     0.035 C 
HETATM   23  C13 UNL     1      -5.676   2.094  -0.374  1.00  0.00     0.273 C 
HETATM   24  N4  UNL     1      -6.577   1.040   0.182  1.00  0.00     0.090 N 
HETATM   25  C20 UNL     1      -5.932  -0.229  -0.112  1.00  0.00     0.273 C 
HETATM   26  C21 UNL     1      -4.467  -0.069  -0.521  1.00  0.00     0.035 C 
BRANCH  24  27
HETATM   27  C14 UNL     1      -7.844   1.128  -0.425  1.00  0.00     0.302 C 
BRANCH  27  28
HETATM   28  C15 UNL     1      -8.989   0.509   0.245  1.00  0.00     0.302 C 
BRANCH  28  29
HETATM   29  N5  UNL     1      -8.917  -0.889   0.494  1.00  0.00     0.090 N 
HETATM   30  C16 UNL     1     -10.267  -1.489   0.393  1.00  0.00     0.272 C 
HETATM   31  C17 UNL     1     -10.935  -1.384   1.701  1.00  0.00     0.032 C 
HETATM   32  C18 UNL     1      -9.868  -0.965   2.643  1.00  0.00     0.032 C 
HETATM   33  C19 UNL     1      -8.583  -1.140   1.910  1.00  0.00     0.272 C 
ENDBRANCH  28  29
ENDBRANCH  27  28
ENDBRANCH  24  27
ENDBRANCH  20  21
ENDBRANCH  19  20
ENDBRANCH  18  19
ENDBRANCH  17  18
ENDBRANCH  12  17
BRANCH  16  34
HETATM   34  N6  UNL     1       6.309  -1.001   1.064  1.00  0.00    -0.327 N 
ATOM     35  H6  UNL     1       6.877  -0.213   1.375  1.00  0.00     0.169 HD
BRANCH  34  36
HETATM   36  C24 UNL     1       6.656  -1.724  -0.155  1.00  0.00     0.187 C 
BRANCH  36  37
HETATM   37  O3  UNL     1       5.848  -2.715  -0.415  1.00  0.00    -0.340 OA
ATOM     38  H3  UNL     1       6.074  -3.186  -1.209  1.00  0.00     0.220 HD
ENDBRANCH  36  37
BRANCH  36  39
HETATM   39  C25 UNL     1       7.736  -1.389  -0.963  1.00  0.00    -0.071 C 
BRANCH  39  40
HETATM   40  C26 UNL     1       8.842  -1.048  -1.792  1.00  0.00     0.361 C 
BRANCH  40  41
HETATM   41  N7  UNL     1       9.722   0.006  -1.276  1.00  0.00     0.102 N 
HETATM   42  C27 UNL     1      10.448  -0.436  -0.112  1.00  0.00     0.299 C 
HETATM   43  C28 UNL     1      10.213   0.500   1.062  1.00  0.00     0.198 C 
HETATM   44  O4  UNL     1      10.493   1.808   0.729  1.00  0.00    -0.388 OA
HETATM   45  C29 UNL     1       9.938   2.232  -0.474  1.00  0.00     0.198 C 
HETATM   46  C30 UNL     1       8.959   1.222  -1.042  1.00  0.00     0.299 C 
ENDBRANCH  40  41
ENDBRANCH  39  40
ENDBRANCH  36  39
ENDBRANCH  34  36
ENDBRANCH  16  34
TORSDOF 14
