REMARK  1 active torsions:
REMARK  status: ('A' for Active; 'I' for Inactive)
REMARK    1  A    between atoms: N2_3  and  C2_5 
ROOT
HETATM    1  N1  UNL     1      -2.473   0.373  -0.229  1.00  0.00    -0.097 NA
HETATM    2  C1  UNL     1      -1.387   0.055   0.610  1.00  0.00     0.187 C 
HETATM    3  N2  UNL     1      -0.181   0.017   0.195  1.00  0.00    -0.360 N 
ATOM      4  H2  UNL     1      -0.035   0.232  -0.791  1.00  0.00     0.162 HD
ENDROOT
BRANCH   3   5
HETATM    5  C2  UNL     1       0.979  -0.290   0.951  1.00  0.00     0.245 A 
HETATM    6  C3  UNL     1       2.293  -0.077   0.220  1.00  0.00     0.224 A 
HETATM    7  O1  UNL     1       1.817  -1.334   0.600  1.00  0.00    -0.360 OA
ENDBRANCH   3   5
TORSDOF 1
