REMARK  1 active torsions:
REMARK  status: ('A' for Active; 'I' for Inactive)
REMARK    1  A    between atoms: N1_1  and  C1_5 
ROOT
HETATM    1  C1  UNL     1       0.439  -0.557  -0.387  1.00  0.00     0.320 A 
HETATM    2  C2  UNL     1      -0.584  -0.313   0.686  1.00  0.00     0.087 A 
HETATM    3  C3  UNL     1      -1.173   0.595  -0.329  1.00  0.00     0.174 A 
HETATM    4  O1  UNL     1      -0.150   0.357  -1.252  1.00  0.00    -0.359 OA
ENDROOT
BRANCH   1   5
HETATM    5  N1  UNL     1       1.789  -0.201  -0.024  1.00  0.00    -0.053 N 
ATOM      6  H13 UNL     1       1.828   0.769   0.288  1.00  0.00     0.277 HD
ATOM      7  H12 UNL     1       2.060  -0.674   0.838  1.00  0.00     0.277 HD
ATOM      8  H11 UNL     1       2.483  -0.367  -0.752  1.00  0.00     0.277 HD
ENDBRANCH   1   5
TORSDOF 1
