REMARK  1 active torsions:
REMARK  status: ('A' for Active; 'I' for Inactive)
REMARK    1  A    between atoms: O1_1  and  N1_3 
ROOT
HETATM    1  N1  UNL     1       1.247  -0.447   0.024  1.00  0.00    -0.247 N 
HETATM    2  C1  UNL     1       0.992   0.871  -0.036  1.00  0.00     0.122 A 
HETATM    3  C2  UNL     1      -0.281   1.374  -0.062  1.00  0.00     0.020 A 
HETATM    4  C3  UNL     1      -1.305   0.472  -0.025  1.00  0.00     0.003 A 
HETATM    5  C4  UNL     1      -1.054  -0.881   0.036  1.00  0.00     0.020 A 
HETATM    6  C5  UNL     1       0.240  -1.313   0.060  1.00  0.00     0.122 A 
ENDROOT
BRANCH   1   7
HETATM    7  O1  UNL     1       2.574  -0.867   0.047  1.00  0.00    -0.284 OA
ATOM      8  H1  UNL     1       2.754  -1.799   0.089  1.00  0.00     0.245 HD
ENDBRANCH   1   7
TORSDOF 1
