REMARK  1 active torsions:
REMARK  status: ('A' for Active; 'I' for Inactive)
REMARK    1  A    between atoms: N1_1  and  C1_5 
ROOT
HETATM    1  C1  UNL     1       1.065  -0.472  -0.457  1.00  0.00     0.192 A 
HETATM    2  C2  UNL     1       0.005  -0.729   0.447  1.00  0.00     0.022 A 
HETATM    3  C3  UNL     1      -1.499  -0.641   0.193  1.00  0.00     0.007 C 
HETATM    4  C4  UNL     1      -1.116   0.855   0.271  1.00  0.00     0.007 C 
HETATM    5  C5  UNL     1      -0.053   0.359  -0.711  1.00  0.00     0.022 A 
ENDROOT
BRANCH   1   6
HETATM    6  N1  UNL     1       2.304   0.189  -0.007  1.00  0.00    -0.074 N 
ATOM      7  H13 UNL     1       2.049   1.070   0.440  1.00  0.00     0.274 HD
ATOM      8  H12 UNL     1       2.679  -0.343   0.778  1.00  0.00     0.274 HD
ATOM      9  H11 UNL     1       3.067   0.374  -0.658  1.00  0.00     0.274 HD
ENDBRANCH   1   6
TORSDOF 1
