REMARK  8 active torsions:
REMARK  status: ('A' for Active; 'I' for Inactive)
REMARK    1  A    between atoms: S1_2  and  N1_5 
REMARK    2  A    between atoms: N1_5  and  N2_7 
REMARK    3  A    between atoms: N2_7  and  C2_9 
REMARK    4  A    between atoms: C3_13  and  O3_14 
REMARK    5  A    between atoms: O3_14  and  C4_15 
REMARK    6  A    between atoms: C6_20  and  N5_21 
REMARK    7  A    between atoms: C7_26  and  N6_27 
REMARK    8  A    between atoms: C8_31  and  O5_32 
ROOT
HETATM    1  C2  UNL     1       1.890  -0.635  -0.668  1.00  0.00     0.450 C 
HETATM    2  N3  UNL     1       0.648   0.082  -0.920  1.00  0.00    -0.001 N 
ATOM      3  H31 UNL     1       0.464   0.190  -1.918  1.00  0.00     0.285 HD
ATOM      4  H32 UNL     1       0.720   1.069  -0.674  1.00  0.00     0.285 HD
HETATM    5  C3  UNL     1      -0.455  -0.574  -0.229  1.00  0.00     0.367 C 
HETATM    6  C7  UNL     1      -0.259  -2.071  -0.424  1.00  0.00     0.317 C 
HETATM    7  C8  UNL     1       1.027  -2.491   0.247  1.00  0.00     0.291 C 
HETATM    8  C9  UNL     1       0.768  -3.171   1.521  1.00  0.00     0.131 C 
HETATM    9  N7  UNL     1       0.549  -3.700   2.519  1.00  0.00    -0.191 NA
HETATM   10  O6  UNL     1       1.748  -1.327   0.530  1.00  0.00    -0.291 OA
ENDROOT
BRANCH   7  11
HETATM   11  O5  UNL     1       1.826  -3.282  -0.564  1.00  0.00    -0.352 OA
ATOM     12  H5  UNL     1       2.635  -3.546  -0.142  1.00  0.00     0.214 HD
ENDBRANCH   7  11
BRANCH   6  13
HETATM   13  N6  UNL     1      -1.370  -2.841   0.063  1.00  0.00    -0.065 N 
ATOM     14  H63 UNL     1      -1.569  -2.621   1.039  1.00  0.00     0.275 HD
ATOM     15  H62 UNL     1      -2.245  -2.528  -0.357  1.00  0.00     0.275 HD
ATOM     16  H61 UNL     1      -1.239  -3.844  -0.068  1.00  0.00     0.275 HD
ENDBRANCH   6  13
BRANCH   5  17
HETATM   17  O3  UNL     1      -1.630  -0.161  -0.812  1.00  0.00    -0.303 OA
BRANCH  17  18
HETATM   18  C4  UNL     1      -2.469   0.502   0.052  1.00  0.00     0.473 C 
HETATM   19  N4  UNL     1      -3.728  -0.212   0.099  1.00  0.00    -0.021 N 
HETATM   20  C5  UNL     1      -4.738   0.783   0.298  1.00  0.00     0.299 C 
ATOM     21  H42 UNL     1      -3.892  -0.801  -0.717  1.00  0.00     0.283 HD
ATOM     22  H41 UNL     1      -3.748  -0.957   0.795  1.00  0.00     0.283 HD
HETATM   23  C6  UNL     1      -3.987   2.103   0.274  1.00  0.00     0.348 C 
HETATM   24  O4  UNL     1      -2.796   1.783  -0.396  1.00  0.00    -0.304 OA
BRANCH  23  25
HETATM   25  N5  UNL     1      -4.682   3.097  -0.514  1.00  0.00    -0.051 N 
ATOM     26  H53 UNL     1      -4.871   2.759  -1.458  1.00  0.00     0.277 HD
ATOM     27  H52 UNL     1      -5.643   3.221  -0.194  1.00  0.00     0.277 HD
ATOM     28  H51 UNL     1      -4.178   3.983  -0.530  1.00  0.00     0.277 HD
ENDBRANCH  23  25
ENDBRANCH  17  18
ENDBRANCH   5  17
BRANCH   1  29
HETATM   29  N2  UNL     1       2.965   0.256  -0.641  1.00  0.00    -0.275 N 
ATOM     30  H2  UNL     1       3.733   0.154  -1.304  1.00  0.00     0.185 HD
BRANCH  29  31
HETATM   31  N1  UNL     1       2.980   1.252   0.268  1.00  0.00    -0.228 N 
ATOM     32  H1  UNL     1       2.191   1.477   0.874  1.00  0.00     0.199 HD
BRANCH  31  33
HETATM   33  S1  UNL     1       4.469   2.099   0.294  1.00  0.00     0.239 S 
HETATM   34  C1  UNL     1       5.528   1.271   1.487  1.00  0.00     0.187 C 
HETATM   35  O1  UNL     1       4.327   3.543   0.612  1.00  0.00    -0.205 OA
HETATM   36  O2  UNL     1       5.141   1.913  -1.047  1.00  0.00    -0.205 OA
ENDBRANCH  31  33
ENDBRANCH  29  31
ENDBRANCH   1  29
TORSDOF 8
