REMARK  8 active torsions:
REMARK  status: ('A' for Active; 'I' for Inactive)
REMARK    1  A    between atoms: N1_1  and  C1_4 
REMARK    2  A    between atoms: N3_9  and  S1_10 
REMARK    3  A    between atoms: S1_10  and  C3_13 
REMARK    4  A    between atoms: C3_13  and  C4_14 
REMARK    5  A    between atoms: C4_14  and  O4_15 
REMARK    6  A    between atoms: C6_21  and  O5_22 
REMARK    7  A    between atoms: C8_28  and  O6_29 
REMARK    8  A    between atoms: N6_31  and  N7_32 
ROOT
HETATM    1  C4  UNL     1      -1.257   0.334   0.198  1.00  0.00     0.270 C 
HETATM    2  N4  UNL     1      -1.453   0.939  -1.096  1.00  0.00    -0.035 N 
ATOM      3  H41 UNL     1      -1.019   0.386  -1.835  1.00  0.00     0.281 HD
ATOM      4  H42 UNL     1      -0.905   1.793  -1.194  1.00  0.00     0.281 HD
HETATM    5  C5  UNL     1      -2.864   1.179  -1.371  1.00  0.00     0.307 C 
HETATM    6  C6  UNL     1      -3.635  -0.034  -0.950  1.00  0.00     0.277 C 
HETATM    7  N5  UNL     1      -2.765  -1.214  -0.808  1.00  0.00    -0.027 N 
ATOM      8  H51 UNL     1      -2.074  -1.456  -1.518  1.00  0.00     0.281 HD
ATOM      9  H52 UNL     1      -3.133  -2.162  -0.890  1.00  0.00     0.281 HD
HETATM   10  C7  UNL     1      -2.370  -0.654   0.487  1.00  0.00     0.286 C 
HETATM   11  C8  UNL     1      -3.716  -0.017   0.569  1.00  0.00     0.218 C 
ENDROOT
BRANCH   1  12
HETATM   12  C3  UNL     1       0.037  -0.453   0.195  1.00  0.00     0.236 C 
BRANCH  12  13
HETATM   13  S1  UNL     1       1.353   0.670  -0.181  1.00  0.00     0.261 S 
HETATM   14  O2  UNL     1       1.128   1.209  -1.565  1.00  0.00    -0.203 OA
HETATM   15  O3  UNL     1       1.394   1.782   0.795  1.00  0.00    -0.203 OA
BRANCH  13  16
HETATM   16  N3  UNL     1       2.878  -0.161  -0.203  1.00  0.00    -0.090 N 
HETATM   17  C2  UNL     1       3.233  -1.166  -1.024  1.00  0.00     0.371 A 
HETATM   18  N2  UNL     1       4.499  -1.546  -0.732  1.00  0.00    -0.136 N 
HETATM   19  O1  UNL     1       2.478  -1.657  -1.921  1.00  0.00    -0.243 OA
HETATM   20  C1  UNL     1       4.937  -0.776   0.276  1.00  0.00     0.717 A 
ATOM     21  H2  UNL     1       5.026  -2.286  -1.196  1.00  0.00     0.189 HD
HETATM   22  N6  UNL     1       3.931   0.054   0.573  1.00  0.00    -0.006 N 
BRANCH  20  23
HETATM   23  N1  UNL     1       6.107  -0.824   0.851  1.00  0.00    -0.231 N 
ATOM     24  H12 UNL     1       6.874  -1.457   0.625  1.00  0.00     0.174 HD
ATOM     25  H11 UNL     1       6.440  -0.239   1.617  1.00  0.00     0.174 HD
ENDBRANCH  20  23
BRANCH  22  26
HETATM   26  N7  UNL     1       3.938   1.040   1.569  1.00  0.00    -0.308 N 
ATOM     27  H72 UNL     1       4.748   1.205   2.166  1.00  0.00     0.179 HD
ATOM     28  H71 UNL     1       3.171   1.673   1.795  1.00  0.00     0.179 HD
ENDBRANCH  22  26
ENDBRANCH  13  16
ENDBRANCH  12  13
ENDBRANCH   1  12
BRANCH   1  29
HETATM   29  O4  UNL     1      -1.208   1.343   1.155  1.00  0.00    -0.362 OA
ATOM     30  H4  UNL     1      -2.020   1.837   1.157  1.00  0.00     0.212 HD
ENDBRANCH   1  29
BRANCH  11  31
HETATM   31  O6  UNL     1      -3.790   1.250   1.094  1.00  0.00    -0.388 OA
ATOM     32  H6  UNL     1      -3.841   1.261   2.043  1.00  0.00     0.210 HD
ENDBRANCH  11  31
BRANCH   6  33
HETATM   33  O5  UNL     1      -4.818  -0.281  -1.599  1.00  0.00    -0.362 OA
ATOM     34  H5  UNL     1      -5.307  -1.050  -1.332  1.00  0.00     0.212 HD
ENDBRANCH   6  33
TORSDOF 8
