REMARK  9 active torsions:
REMARK  status: ('A' for Active; 'I' for Inactive)
REMARK    1  A    between atoms: N1_1  and  N2_4 
REMARK    2  A    between atoms: N2_4  and  C1_6 
REMARK    3  A    between atoms: N5_15  and  C4_16 
REMARK    4  A    between atoms: C5_18  and  C6_19 
REMARK    5  A    between atoms: C6_19  and  O4_20 
REMARK    6  A    between atoms: C6_19  and  C7_22 
REMARK    7  A    between atoms: C7_22  and  O5_23 
REMARK    8  A    between atoms: C9_26  and  O6_27 
REMARK    9  A    between atoms: C9_26  and  C10_29 
ROOT
HETATM    1  C4  UNL     1       0.098   0.102  -0.087  1.00  0.00     0.296 C 
HETATM    2  O3  UNL     1      -0.785  -0.631   0.757  1.00  0.00    -0.354 OA
HETATM    3  C5  UNL     1      -1.979   0.082   0.651  1.00  0.00     0.158 C 
HETATM    4  C8  UNL     1      -1.663   1.482   0.236  1.00  0.00     0.088 C 
HETATM    5  C9  UNL     1      -0.110   1.448   0.415  1.00  0.00     0.193 C 
ENDROOT
BRANCH   1   6
HETATM    6  N5  UNL     1       1.305  -0.516  -0.329  1.00  0.00    -0.100 N 
HETATM    7  C1  UNL     1       2.519  -0.224   0.147  1.00  0.00     0.709 A 
HETATM    8  N3  UNL     1       3.625  -0.916  -0.172  1.00  0.00    -0.139 N 
HETATM    9  C2  UNL     1       3.564  -1.966  -1.009  1.00  0.00     0.342 A 
ATOM     10  H3  UNL     1       4.523  -0.641   0.226  1.00  0.00     0.189 HD
HETATM   11  O1  UNL     1       4.618  -2.588  -1.283  1.00  0.00    -0.246 OA
HETATM   12  N4  UNL     1       2.375  -2.286  -1.501  1.00  0.00    -0.259 N 
HETATM   13  C3  UNL     1       1.267  -1.597  -1.186  1.00  0.00     0.347 A 
ATOM     14  H4  UNL     1       2.300  -3.079  -2.138  1.00  0.00     0.175 HD
HETATM   15  O2  UNL     1       0.190  -1.984  -1.708  1.00  0.00    -0.246 OA
BRANCH   7  16
HETATM   16  N2  UNL     1       2.631   0.749   0.936  1.00  0.00    -0.138 N 
ATOM     17  H2  UNL     1       1.786   1.269   1.173  1.00  0.00     0.205 HD
BRANCH  16  18
HETATM   18  N1  UNL     1       3.825   1.161   1.504  1.00  0.00    -0.331 N 
ATOM     19  H12 UNL     1       4.659   0.629   1.256  1.00  0.00     0.177 HD
ATOM     20  H11 UNL     1       3.916   1.950   2.144  1.00  0.00     0.177 HD
ENDBRANCH  16  18
ENDBRANCH   7  16
ENDBRANCH   1   6
BRANCH   5  21
HETATM   21  O6  UNL     1      -0.039   1.650   1.796  1.00  0.00    -0.375 OA
ATOM     22  H6  UNL     1      -0.175   2.531   2.125  1.00  0.00     0.211 HD
ENDBRANCH   5  21
BRANCH   5  23
HETATM   23  C10 UNL     1       0.359   2.573  -0.372  1.00  0.00     0.213 C 
HETATM   24  O7  UNL     1       0.348   2.517  -1.620  1.00  0.00    -0.646 OA
HETATM   25  O8  UNL     1       0.825   3.723   0.229  1.00  0.00    -0.646 OA
ENDBRANCH   5  23
BRANCH   3  26
HETATM   26  C6  UNL     1      -2.890  -0.650  -0.282  1.00  0.00     0.170 C 
BRANCH  26  27
HETATM   27  O4  UNL     1      -4.080   0.028  -0.409  1.00  0.00    -0.391 OA
ATOM     28  H4  UNL     1      -4.659  -0.437  -1.002  1.00  0.00     0.210 HD
ENDBRANCH  26  27
BRANCH  26  29
HETATM   29  C7  UNL     1      -3.108  -2.044   0.305  1.00  0.00     0.198 C 
BRANCH  29  30
HETATM   30  O5  UNL     1      -3.947  -2.784  -0.526  1.00  0.00    -0.398 OA
ATOM     31  H5  UNL     1      -4.083  -3.651  -0.161  1.00  0.00     0.209 HD
ENDBRANCH  29  30
ENDBRANCH  26  29
ENDBRANCH   3  26
TORSDOF 9
