REMARK  10 active torsions:
REMARK  status: ('A' for Active; 'I' for Inactive)
REMARK    1  A    between atoms: N1_1  and  N2_4 
REMARK       I    between atoms: N2_4  and  C1_6 
REMARK    2  A    between atoms: C1_6  and  C2_8 
REMARK    3  A    between atoms: C2_8  and  O2_9 
REMARK    4  A    between atoms: C2_8  and  C3_11 
REMARK    5  A    between atoms: C4_13  and  N3_14 
REMARK    6  A    between atoms: C6_16  and  C7_17 
REMARK    7  A    between atoms: C7_17  and  N4_18 
REMARK    8  A    between atoms: C7_17  and  N5_22 
REMARK    9  A    between atoms: C10_32  and  O6_33 
REMARK   10  A    between atoms: C11_35  and  O7_36 
ROOT
HETATM    1  C3  UNL     1      -1.704   0.176   0.682  1.00  0.00     0.193 C 
HETATM    2  O3  UNL     1      -0.341   0.232   0.748  1.00  0.00    -0.352 OA
HETATM    3  C4  UNL     1       0.145  -1.058   0.939  1.00  0.00     0.264 C 
HETATM    4  C10 UNL     1      -0.813  -1.996   0.287  1.00  0.00     0.198 C 
HETATM    5  C11 UNL     1      -2.091  -1.179   0.167  1.00  0.00     0.183 C 
ENDROOT
BRANCH   3   6
HETATM    6  N3  UNL     1       1.488  -1.099   0.445  1.00  0.00    -0.279 N 
HETATM    7  C5  UNL     1       2.178   0.053   0.365  1.00  0.00     0.115 A 
HETATM    8  C6  UNL     1       3.490   0.094  -0.104  1.00  0.00     0.083 A 
HETATM    9  C8  UNL     1       4.107  -1.071  -0.498  1.00  0.00     0.260 A 
HETATM   10  O4  UNL     1       5.290  -1.102  -0.931  1.00  0.00    -0.267 OA
HETATM   11  N6  UNL     1       3.409  -2.214  -0.414  1.00  0.00    -0.275 N 
HETATM   12  C9  UNL     1       2.148  -2.199   0.044  1.00  0.00     0.331 A 
ATOM     13  H6  UNL     1       3.837  -3.095  -0.699  1.00  0.00     0.173 HD
HETATM   14  O5  UNL     1       1.539  -3.296   0.103  1.00  0.00    -0.246 OA
BRANCH   8  15
HETATM   15  C7  UNL     1       4.251   1.359  -0.193  1.00  0.00     0.417 C 
BRANCH  15  16
HETATM   16  N4  UNL     1       4.026   2.079   1.045  1.00  0.00    -0.046 N 
ATOM     17  H43 UNL     1       3.037   2.220   1.252  1.00  0.00     0.277 HD
ATOM     18  H42 UNL     1       4.256   1.531   1.874  1.00  0.00     0.277 HD
ATOM     19  H41 UNL     1       4.551   2.951   0.984  1.00  0.00     0.277 HD
ENDBRANCH  15  16
BRANCH  15  20
HETATM   20  N5  UNL     1       3.844   2.164  -1.328  1.00  0.00    -0.046 N 
ATOM     21  H53 UNL     1       3.906   1.634  -2.197  1.00  0.00     0.277 HD
ATOM     22  H52 UNL     1       2.839   2.338  -1.316  1.00  0.00     0.277 HD
ATOM     23  H51 UNL     1       4.369   3.036  -1.389  1.00  0.00     0.277 HD
ENDBRANCH  15  20
ENDBRANCH   8  15
ENDBRANCH   3   6
BRANCH   4  24
HETATM   24  O6  UNL     1      -1.150  -3.091   1.118  1.00  0.00    -0.388 OA
ATOM     25  H6  UNL     1      -1.760  -3.689   0.703  1.00  0.00     0.210 HD
ENDBRANCH   4  24
BRANCH   1  26
HETATM   26  C2  UNL     1      -2.221   1.288  -0.207  1.00  0.00     0.243 C 
BRANCH  26  27
HETATM   27  C1  UNL     1      -3.706   1.286  -0.279  1.00  0.00     0.267 C 
HETATM   28  N2  UNL     1      -4.532   1.401   0.854  1.00  0.00    -0.274 N 
ATOM     29  H2  UNL     1      -4.111   1.491   1.779  1.00  0.00     0.189 HD
HETATM   30  O1  UNL     1      -4.275   1.175  -1.412  1.00  0.00    -0.269 OA
BRANCH  28  31
HETATM   31  N1  UNL     1      -5.908   1.393   0.726  1.00  0.00    -0.343 N 
ATOM     32  H12 UNL     1      -6.313   1.302  -0.206  1.00  0.00     0.176 HD
ATOM     33  H11 UNL     1      -6.507   1.476   1.547  1.00  0.00     0.176 HD
ENDBRANCH  28  31
ENDBRANCH  26  27
BRANCH  26  34
HETATM   34  O2  UNL     1      -1.708   1.160  -1.479  1.00  0.00    -0.383 OA
ATOM     35  H2  UNL     1      -0.759   1.161  -1.433  1.00  0.00     0.210 HD
ENDBRANCH  26  34
ENDBRANCH   1  26
BRANCH   5  36
HETATM   36  O7  UNL     1      -2.566  -1.141  -1.140  1.00  0.00    -0.390 OA
ATOM     37  H7  UNL     1      -2.811  -1.999  -1.466  1.00  0.00     0.210 HD
ENDBRANCH   5  36
TORSDOF 10
