REMARK  9 active torsions:
REMARK  status: ('A' for Active; 'I' for Inactive)
REMARK    1  A    between atoms: O1_2  and  N1_3 
REMARK       I    between atoms: N1_3  and  C2_5 
REMARK    2  A    between atoms: C2_5  and  C3_7 
REMARK    3  A    between atoms: N2_9  and  C5_10 
REMARK    4  A    between atoms: C6_12  and  C7_13 
REMARK    5  A    between atoms: C7_13  and  O4_14 
REMARK    6  A    between atoms: C8_19  and  O5_20 
REMARK    7  A    between atoms: C9_22  and  O6_23 
REMARK    8  A    between atoms: C9_22  and  O7_25 
REMARK    9  A    between atoms: C11_31  and  N5_32 
ROOT
HETATM    1  C3  UNL     1       2.312  -0.763  -0.103  1.00  0.00     0.093 A 
HETATM    2  C4  UNL     1       0.999  -0.360  -0.166  1.00  0.00     0.119 A 
HETATM    3  N2  UNL     1      -0.026  -1.056   0.314  1.00  0.00    -0.276 N 
HETATM    4  C10 UNL     1       0.266  -2.240   0.896  1.00  0.00     0.330 A 
HETATM    5  O8  UNL     1      -0.617  -2.989   1.382  1.00  0.00    -0.246 OA
HETATM    6  N4  UNL     1       1.534  -2.672   0.977  1.00  0.00    -0.294 N 
ATOM      7  H4  UNL     1       1.709  -3.572   1.424  1.00  0.00     0.172 HD
HETATM    8  C11 UNL     1       2.591  -1.981   0.500  1.00  0.00     0.120 A 
ENDROOT
BRANCH   3   9
HETATM    9  C5  UNL     1      -1.386  -0.573   0.314  1.00  0.00     0.301 C 
HETATM   10  O3  UNL     1      -1.326   0.802   0.049  1.00  0.00    -0.326 OA
HETATM   11  C6  UNL     1      -2.537   1.417   0.269  1.00  0.00     0.349 C 
HETATM   12  N3  UNL     1      -3.638   0.555  -0.053  1.00  0.00    -0.015 N 
HETATM   13  C8  UNL     1      -3.268  -0.263  -1.188  1.00  0.00     0.389 C 
ATOM     14  H32 UNL     1      -3.946  -0.001   0.745  1.00  0.00     0.283 HD
ATOM     15  H31 UNL     1      -4.505   1.070  -0.208  1.00  0.00     0.283 HD
HETATM   16  C9  UNL     1      -2.274  -1.303  -0.649  1.00  0.00     0.258 C 
BRANCH  11  17
HETATM   17  C7  UNL     1      -2.577   2.701  -0.528  1.00  0.00     0.225 C 
BRANCH  17  18
HETATM   18  O4  UNL     1      -3.734   3.444  -0.310  1.00  0.00    -0.397 OA
ATOM     19  H4  UNL     1      -3.759   4.251  -0.811  1.00  0.00     0.209 HD
ENDBRANCH  17  18
ENDBRANCH  11  17
BRANCH  13  20
HETATM   20  O5  UNL     1      -4.437  -0.879  -1.659  1.00  0.00    -0.365 OA
ATOM     21  H5  UNL     1      -4.194  -1.416  -2.404  1.00  0.00     0.212 HD
ENDBRANCH  13  20
BRANCH  16  22
HETATM   22  O6  UNL     1      -1.623  -1.977  -1.649  1.00  0.00    -0.359 OA
ATOM     23  H6  UNL     1      -2.186  -2.439  -2.259  1.00  0.00     0.213 HD
ENDBRANCH  16  22
BRANCH  16  24
HETATM   24  O7  UNL     1      -3.077  -2.173   0.128  1.00  0.00    -0.359 OA
ATOM     25  H7  UNL     1      -3.640  -2.635  -0.482  1.00  0.00     0.213 HD
ENDBRANCH  16  24
ENDBRANCH   3   9
BRANCH   1  26
HETATM   26  C2  UNL     1       3.387   0.085  -0.582  1.00  0.00     0.280 C 
HETATM   27  N1  UNL     1       4.548   0.283   0.170  1.00  0.00    -0.231 N 
ATOM     28  H1  UNL     1       4.610  -0.190   1.071  1.00  0.00     0.197 HD
HETATM   29  O2  UNL     1       3.237   0.643  -1.692  1.00  0.00    -0.265 OA
BRANCH  27  30
HETATM   30  O1  UNL     1       5.601   1.056  -0.204  1.00  0.00    -0.282 OA
HETATM   31  C1  UNL     1       5.156   2.372  -0.201  1.00  0.00     0.237 C 
ENDBRANCH  27  30
ENDBRANCH   1  26
BRANCH   8  32
HETATM   32  N5  UNL     1       3.786  -2.409   0.578  1.00  0.00    -0.385 N 
ATOM     33  H52 UNL     1       4.585  -1.887   0.218  1.00  0.00     0.157 HD
ATOM     34  H51 UNL     1       3.991  -3.304   1.021  1.00  0.00     0.157 HD
ENDBRANCH   8  32
TORSDOF 9
