REMARK  17 active torsions:
REMARK  status: ('A' for Active; 'I' for Inactive)
REMARK    1  A    between atoms: C4_4  and  N1_5 
REMARK    2  A    between atoms: N1_5  and  C5_7 
REMARK    3  A    between atoms: C5_7  and  C6_8 
REMARK    4  A    between atoms: C6_8  and  C7_9 
REMARK    5  A    between atoms: C7_9  and  N2_10 
REMARK    6  A    between atoms: N2_10  and  C8_13 
REMARK    7  A    between atoms: C8_13  and  C9_14 
REMARK    8  A    between atoms: C9_14  and  C10_15 
REMARK    9  A    between atoms: C10_15  and  N3_16 
REMARK   10  A    between atoms: N3_16  and  C11_19 
REMARK   11  A    between atoms: C11_19  and  C12_20 
REMARK   12  A    between atoms: C12_20  and  N4_21 
REMARK   13  A    between atoms: N4_21  and  C13_24 
REMARK   14  A    between atoms: C13_24  and  C14_25 
REMARK   15  A    between atoms: C14_25  and  C15_26 
REMARK   16  A    between atoms: C15_26  and  N5_27 
REMARK   17  A    between atoms: N5_27  and  C16_29 
ROOT
HETATM    1  N3  UNL     1      -0.310   1.585   2.003  1.00  0.00    -0.073 N 
ATOM      2  H31 UNL     1      -0.670   2.539   2.006  1.00  0.00     0.277 HD
ATOM      3  H32 UNL     1       0.345   1.674   2.780  1.00  0.00     0.277 HD
ENDROOT
BRANCH   1   4
HETATM    4  C10 UNL     1       0.369   1.249   0.737  1.00  0.00     0.234 C 
BRANCH   4   5
HETATM    5  C9  UNL     1       1.255   0.076   1.064  1.00  0.00     0.055 C 
BRANCH   5   6
HETATM    6  C8  UNL     1       2.049  -0.363  -0.129  1.00  0.00     0.233 C 
BRANCH   6   7
HETATM    7  N2  UNL     1       2.840   0.711  -0.670  1.00  0.00    -0.075 N 
ATOM      8  H22 UNL     1       3.288   1.245   0.075  1.00  0.00     0.277 HD
ATOM      9  H21 UNL     1       2.245   1.441  -1.062  1.00  0.00     0.277 HD
BRANCH   7  10
HETATM   10  C7  UNL     1       3.814   0.259  -1.642  1.00  0.00     0.234 C 
BRANCH  10  11
HETATM   11  C6  UNL     1       4.955  -0.474  -0.972  1.00  0.00     0.047 C 
BRANCH  11  12
HETATM   12  C5  UNL     1       5.925  -0.924  -2.035  1.00  0.00     0.121 C 
BRANCH  12  13
HETATM   13  N1  UNL     1       7.070  -1.565  -1.404  1.00  0.00    -0.390 N 
ATOM     14  H1  UNL     1       7.221  -2.571  -1.483  1.00  0.00     0.159 HD
BRANCH  13  15
HETATM   15  C4  UNL     1       7.986  -0.728  -0.662  1.00  0.00     0.027 A 
HETATM   16  C3  UNL     1       8.924  -1.293   0.166  1.00  0.00     0.029 A 
HETATM   17  C2  UNL     1       9.815  -0.471   0.864  1.00  0.00     0.002 A 
HETATM   18  C1  UNL     1       9.799   0.882   0.764  1.00  0.00     0.000 A 
HETATM   19  C22 UNL     1       8.850   1.456  -0.074  1.00  0.00     0.002 A 
HETATM   20  C21 UNL     1       7.964   0.626  -0.768  1.00  0.00     0.029 A 
ENDBRANCH  13  15
ENDBRANCH  12  13
ENDBRANCH  11  12
ENDBRANCH  10  11
ENDBRANCH   7  10
ENDBRANCH   6   7
ENDBRANCH   5   6
ENDBRANCH   4   5
ENDBRANCH   1   4
BRANCH   1  21
HETATM   21  C11 UNL     1      -1.323   0.628   2.262  1.00  0.00     0.259 C 
BRANCH  21  22
HETATM   22  C12 UNL     1      -2.538   0.872   1.386  1.00  0.00     0.259 C 
BRANCH  22  23
HETATM   23  N4  UNL     1      -3.559  -0.136   1.565  1.00  0.00    -0.073 N 
ATOM     24  H42 UNL     1      -3.777  -0.265   2.553  1.00  0.00     0.277 HD
ATOM     25  H41 UNL     1      -4.466   0.199   1.239  1.00  0.00     0.277 HD
BRANCH  23  26
HETATM   26  C13 UNL     1      -3.218  -1.377   0.948  1.00  0.00     0.234 C 
BRANCH  26  27
HETATM   27  C14 UNL     1      -3.337  -1.260  -0.564  1.00  0.00     0.046 C 
BRANCH  27  28
HETATM   28  C15 UNL     1      -4.803  -0.971  -0.886  1.00  0.00     0.115 C 
BRANCH  28  29
HETATM   29  N5  UNL     1      -5.187   0.270  -0.305  1.00  0.00    -0.417 N 
ATOM     30  H5  UNL     1      -4.503   0.908   0.102  1.00  0.00     0.153 HD
BRANCH  29  31
HETATM   31  C16 UNL     1      -6.579   0.573  -0.323  1.00  0.00     0.076 C 
HETATM   32  C17 UNL     1      -7.201   0.708  -1.694  1.00  0.00     0.024 C 
HETATM   33  C18 UNL     1      -8.665   0.951  -1.280  1.00  0.00     0.002 C 
HETATM   34  C19 UNL     1      -8.876  -0.124  -0.229  1.00  0.00     0.002 C 
HETATM   35  C20 UNL     1      -7.475  -0.458   0.294  1.00  0.00     0.024 C 
ENDBRANCH  29  31
ENDBRANCH  28  29
ENDBRANCH  27  28
ENDBRANCH  26  27
ENDBRANCH  23  26
ENDBRANCH  22  23
ENDBRANCH  21  22
ENDBRANCH   1  21
TORSDOF 17
