REMARK  18 active torsions:
REMARK  status: ('A' for Active; 'I' for Inactive)
REMARK    1  A    between atoms: C4_4  and  N1_5 
REMARK    2  A    between atoms: N1_5  and  C5_7 
REMARK    3  A    between atoms: C5_7  and  C6_8 
REMARK    4  A    between atoms: C6_8  and  C7_9 
REMARK    5  A    between atoms: C7_9  and  N2_10 
REMARK    6  A    between atoms: N2_10  and  C8_12 
REMARK    7  A    between atoms: C8_12  and  C9_13 
REMARK    8  A    between atoms: C9_13  and  C10_14 
REMARK    9  A    between atoms: C10_14  and  N3_15 
REMARK   10  A    between atoms: N3_15  and  C11_18 
REMARK   11  A    between atoms: C11_18  and  C12_19 
REMARK   12  A    between atoms: C12_19  and  C13_20 
REMARK   13  A    between atoms: C13_20  and  N4_21 
REMARK   14  A    between atoms: N4_21  and  C14_24 
REMARK   15  A    between atoms: C14_24  and  C15_25 
REMARK   16  A    between atoms: C15_25  and  C16_26 
REMARK   17  A    between atoms: C16_26  and  N5_27 
REMARK   18  A    between atoms: N5_27  and  C17_30 
ROOT
HETATM    1  N3  UNL     1       0.405  -0.573  -1.165  1.00  0.00    -0.072 N 
ATOM      2  H31 UNL     1      -0.073  -1.143  -1.863  1.00  0.00     0.277 HD
ATOM      3  H32 UNL     1      -0.290  -0.643  -0.422  1.00  0.00     0.277 HD
ENDROOT
BRANCH   1   4
HETATM    4  C10 UNL     1       0.599   0.777  -1.605  1.00  0.00     0.261 C 
BRANCH   4   5
HETATM    5  C9  UNL     1       0.186   1.832  -0.673  1.00  0.00     0.017 C 
BRANCH   5   6
HETATM    6  C8  UNL     1      -1.201   2.245  -0.499  1.00  0.00     0.080 C 
BRANCH   6   7
HETATM    7  N2  UNL     1      -2.309   1.471  -0.174  1.00  0.00    -0.399 N 
ATOM      8  H2  UNL     1      -2.734   1.537   0.751  1.00  0.00     0.158 HD
BRANCH   7   9
HETATM    9  C7  UNL     1      -2.842   0.584  -1.153  1.00  0.00     0.124 C 
BRANCH   9  10
HETATM   10  C6  UNL     1      -4.363   0.441  -0.874  1.00  0.00     0.063 C 
BRANCH  10  11
HETATM   11  C5  UNL     1      -4.597  -0.137   0.472  1.00  0.00     0.057 C 
BRANCH  11  12
HETATM   12  N1  UNL     1      -5.889  -0.238   0.956  1.00  0.00    -0.398 N 
ATOM     13  H1  UNL     1      -6.109   0.332   1.773  1.00  0.00     0.159 HD
BRANCH  12  14
HETATM   14  C4  UNL     1      -6.924  -1.026   0.460  1.00  0.00     0.080 C 
HETATM   15  C3  UNL     1      -7.435  -0.560  -0.875  1.00  0.00     0.025 C 
HETATM   16  C2  UNL     1      -8.508   0.516  -0.669  1.00  0.00     0.002 C 
HETATM   17  C1  UNL     1      -9.747  -0.205  -0.194  1.00  0.00     0.000 C 
HETATM   18  C22 UNL     1      -9.396  -1.222   0.866  1.00  0.00     0.002 C 
HETATM   19  C21 UNL     1      -8.051  -1.019   1.496  1.00  0.00     0.025 C 
ENDBRANCH  12  14
ENDBRANCH  11  12
ENDBRANCH  10  11
ENDBRANCH   9  10
ENDBRANCH   7   9
ENDBRANCH   6   7
ENDBRANCH   5   6
ENDBRANCH   4   5
ENDBRANCH   1   4
BRANCH   1  20
HETATM   20  C11 UNL     1       1.704  -1.142  -0.771  1.00  0.00     0.234 C 
BRANCH  20  21
HETATM   21  C12 UNL     1       2.293  -0.417   0.409  1.00  0.00     0.055 C 
BRANCH  21  22
HETATM   22  C13 UNL     1       3.639  -1.020   0.802  1.00  0.00     0.233 C 
BRANCH  22  23
HETATM   23  N4  UNL     1       4.171  -0.286   1.937  1.00  0.00    -0.075 N 
ATOM     24  H42 UNL     1       3.521  -0.326   2.722  1.00  0.00     0.277 HD
ATOM     25  H41 UNL     1       4.965  -0.783   2.341  1.00  0.00     0.277 HD
BRANCH  23  26
HETATM   26  C14 UNL     1       4.525   1.072   1.651  1.00  0.00     0.233 C 
BRANCH  26  27
HETATM   27  C15 UNL     1       5.744   1.181   0.756  1.00  0.00     0.055 C 
BRANCH  27  28
HETATM   28  C16 UNL     1       6.975   0.622   1.448  1.00  0.00     0.234 C 
BRANCH  28  29
HETATM   29  N5  UNL     1       8.150   0.702   0.629  1.00  0.00    -0.071 N 
ATOM     30  H52 UNL     1       8.314   1.663   0.330  1.00  0.00     0.277 HD
ATOM     31  H51 UNL     1       8.989   0.551   1.189  1.00  0.00     0.277 HD
BRANCH  29  32
HETATM   32  C17 UNL     1       8.132  -0.196  -0.518  1.00  0.00     0.185 A 
HETATM   33  C18 UNL     1       8.082  -1.671  -0.138  1.00  0.00     0.033 A 
HETATM   34  C19 UNL     1       9.451  -1.914  -0.722  1.00  0.00     0.004 A 
HETATM   35  C20 UNL     1       9.525  -0.448  -1.058  1.00  0.00     0.033 A 
ENDBRANCH  29  32
ENDBRANCH  28  29
ENDBRANCH  27  28
ENDBRANCH  26  27
ENDBRANCH  23  26
ENDBRANCH  22  23
ENDBRANCH  21  22
ENDBRANCH  20  21
ENDBRANCH   1  20
TORSDOF 18
