REMARK  17 active torsions:
REMARK  status: ('A' for Active; 'I' for Inactive)
REMARK    1  A    between atoms: N1_1  and  C1_4 
REMARK    2  A    between atoms: C2_7  and  N3_8 
REMARK    3  A    between atoms: C4_14  and  C5_15 
REMARK    4  A    between atoms: C5_15  and  N5_16 
REMARK       I    between atoms: N5_16  and  C6_18 
REMARK    5  A    between atoms: C6_18  and  C7_20 
REMARK    6  A    between atoms: C8_22  and  C9_23 
REMARK    7  A    between atoms: C11_27  and  C12_28 
REMARK    8  A    between atoms: C12_28  and  O4_29 
REMARK    9  A    between atoms: C12_28  and  N7_31 
REMARK   10  A    between atoms: N7_31  and  C13_33 
REMARK   11  A    between atoms: C13_33  and  C14_34 
REMARK   12  A    between atoms: C13_33  and  C18_42 
REMARK   13  A    between atoms: C14_34  and  C15_35 
REMARK   14  A    between atoms: C15_35  and  C16_36 
REMARK   15  A    between atoms: C16_36  and  N8_37 
REMARK       I    between atoms: C18_42  and  N11_44 
REMARK   16  A    between atoms: N11_44  and  N12_46 
REMARK   17  A    between atoms: C23_55  and  N15_56 
ROOT
HETATM    1  C7  UNL     1       2.347  -1.598  -1.291  1.00  0.00     0.158 A 
HETATM    2  O2  UNL     1       3.091  -2.574  -1.841  1.00  0.00    -0.299 OA
HETATM    3  C8  UNL     1       2.352  -3.489  -2.380  1.00  0.00     0.142 A 
HETATM    4  C10 UNL     1       1.048  -3.125  -2.192  1.00  0.00     0.061 A 
HETATM    5  C11 UNL     1       1.047  -1.897  -1.484  1.00  0.00     0.057 A 
ENDROOT
BRANCH   5   6
HETATM    6  C12 UNL     1      -0.153  -1.193  -1.083  1.00  0.00     0.150 C 
BRANCH   6   7
HETATM    7  O4  UNL     1      -1.093  -1.091  -1.993  1.00  0.00    -0.346 OA
ATOM      8  H4  UNL     1      -1.880  -0.629  -1.730  1.00  0.00     0.219 HD
ENDBRANCH   6   7
BRANCH   6   9
HETATM    9  N7  UNL     1      -0.488  -0.601   0.126  1.00  0.00    -0.357 N 
ATOM     10  H7  UNL     1       0.172  -0.657   0.902  1.00  0.00     0.162 HD
BRANCH   9  11
HETATM   11  C13 UNL     1      -1.767   0.108   0.329  1.00  0.00     0.177 C 
BRANCH  11  12
HETATM   12  C14 UNL     1      -1.634   1.139   1.393  1.00  0.00     0.036 C 
BRANCH  12  13
HETATM   13  C15 UNL     1      -2.898   1.903   1.623  1.00  0.00     0.022 C 
BRANCH  13  14
HETATM   14  C16 UNL     1      -3.249   2.693   0.379  1.00  0.00     0.122 C 
BRANCH  14  15
HETATM   15  N8  UNL     1      -4.469   3.378   0.630  1.00  0.00    -0.367 N 
HETATM   16  C17 UNL     1      -4.590   4.638   0.675  1.00  0.00     0.196 C 
HETATM   17  N9  UNL     1      -3.490   5.498   0.474  1.00  0.00    -0.067 NA
HETATM   18  N10 UNL     1      -5.867   5.192   0.929  1.00  0.00    -0.067 NA
ATOM     19  H8  UNL     1      -5.306   2.815   0.785  1.00  0.00     0.161 HD
ENDBRANCH  14  15
ENDBRANCH  13  14
ENDBRANCH  12  13
ENDBRANCH  11  12
BRANCH  11  20
HETATM   20  C18 UNL     1      -2.769  -0.914   0.818  1.00  0.00     0.259 C 
HETATM   21  O5  UNL     1      -2.380  -1.750   1.626  1.00  0.00    -0.269 OA
HETATM   22  N11 UNL     1      -4.074  -0.856   0.327  1.00  0.00    -0.261 N 
ATOM     23  H11 UNL     1      -4.283  -0.120  -0.348  1.00  0.00     0.190 HD
BRANCH  22  24
HETATM   24  N12 UNL     1      -5.133  -1.724   0.679  1.00  0.00    -0.259 N 
HETATM   25  C19 UNL     1      -5.062  -2.734   1.568  1.00  0.00     0.119 A 
HETATM   26  C20 UNL     1      -6.299  -3.386   1.655  1.00  0.00     0.051 A 
HETATM   27  C21 UNL     1      -7.115  -2.725   0.781  1.00  0.00     0.067 A 
HETATM   28  N13 UNL     1      -8.416  -2.970   0.489  1.00  0.00    -0.350 N 
HETATM   29  C24 UNL     1      -6.391  -1.720   0.199  1.00  0.00     0.126 A 
HETATM   30  C22 UNL     1      -9.014  -2.183  -0.415  1.00  0.00     0.182 A 
ATOM     31  H13 UNL     1      -8.923  -3.729   0.943  1.00  0.00     0.166 HD
HETATM   32  N14 UNL     1      -8.345  -1.206  -0.994  1.00  0.00    -0.337 N 
HETATM   33  C23 UNL     1      -7.015  -0.908  -0.737  1.00  0.00     0.131 A 
ATOM     34  H14 UNL     1      -8.838  -0.631  -1.677  1.00  0.00     0.168 HD
BRANCH  33  35
HETATM   35  N15 UNL     1      -6.500   0.012  -1.333  1.00  0.00    -0.383 N 
ATOM     36 2H15 UNL     1      -6.959   0.609  -2.021  1.00  0.00     0.157 HD
ATOM     37 1H15 UNL     1      -5.522   0.231  -1.144  1.00  0.00     0.157 HD
ENDBRANCH  33  35
ENDBRANCH  22  24
ENDBRANCH  11  20
ENDBRANCH   9  11
ENDBRANCH   6   9
ENDBRANCH   5   6
BRANCH   1  38
HETATM   38  C6  UNL     1       3.000  -0.472  -0.646  1.00  0.00     0.276 C 
HETATM   39  N5  UNL     1       2.968  -0.074   0.684  1.00  0.00    -0.350 N 
ATOM     40  H5  UNL     1       2.424  -0.626   1.347  1.00  0.00     0.163 HD
HETATM   41  O1  UNL     1       3.723   0.264  -1.430  1.00  0.00    -0.265 OA
BRANCH  39  42
HETATM   42  C5  UNL     1       3.671   1.087   1.165  1.00  0.00     0.181 C 
BRANCH  42  43
HETATM   43  C4  UNL     1       5.124   0.949   1.271  1.00  0.00     0.043 A 
HETATM   44  N4  UNL     1       5.916   1.279   0.241  1.00  0.00    -0.351 N 
HETATM   45  C3  UNL     1       7.243   1.162   0.338  1.00  0.00     0.122 A 
ATOM     46  H4  UNL     1       5.501   1.623  -0.625  1.00  0.00     0.166 HD
HETATM   47  C2  UNL     1       8.052   1.507  -0.740  1.00  0.00     0.145 A 
HETATM   48  C26 UNL     1       7.864   0.705   1.477  1.00  0.00     0.151 A 
HETATM   49  N2  UNL     1       9.399   1.386  -0.639  1.00  0.00    -0.175 N 
HETATM   50  C1  UNL     1       9.985   0.938   0.482  1.00  0.00     0.679 A 
ATOM     51  H2  UNL     1       9.982   1.642  -1.436  1.00  0.00     0.186 HD
HETATM   52  N17 UNL     1       9.219   0.600   1.534  1.00  0.00    -0.174 N 
ATOM     53  H17 UNL     1       9.661   0.260   2.388  1.00  0.00     0.186 HD
HETATM   54  N16 UNL     1       7.073   0.368   2.522  1.00  0.00    -0.348 N 
HETATM   55  C25 UNL     1       5.719   0.491   2.413  1.00  0.00     0.116 A 
ATOM     56  H16 UNL     1       7.488   0.023   3.388  1.00  0.00     0.167 HD
BRANCH  47  57
HETATM   57  N3  UNL     1       7.448   1.929  -1.789  1.00  0.00    -0.383 N 
ATOM     58  H32 UNL     1       8.041   2.182  -2.579  1.00  0.00     0.157 HD
ATOM     59  H31 UNL     1       6.435   2.020  -1.865  1.00  0.00     0.157 HD
ENDBRANCH  47  57
BRANCH  50  60
HETATM   60  N1  UNL     1      11.268   0.833   0.554  1.00  0.00    -0.234 N 
ATOM     61  H12 UNL     1      11.849   1.089  -0.244  1.00  0.00     0.174 HD
ATOM     62  H11 UNL     1      11.713   0.492   1.406  1.00  0.00     0.174 HD
ENDBRANCH  50  60
ENDBRANCH  42  43
ENDBRANCH  39  42
ENDBRANCH   1  38
BRANCH   3  63
HETATM   63  C9  UNL     1       2.849  -4.697  -3.068  1.00  0.00     0.288 C 
HETATM   64  N6  UNL     1       1.952  -5.651  -3.574  1.00  0.00    -0.055 NA
HETATM   65  O3  UNL     1       4.076  -4.866  -3.197  1.00  0.00    -0.269 OA
ENDBRANCH   3  63
TORSDOF 17
