REMARK  19 active torsions:
REMARK  status: ('A' for Active; 'I' for Inactive)
REMARK    1  A    between atoms: N1_1  and  C1_4 
REMARK    2  A    between atoms: C2_7  and  N3_8 
REMARK    3  A    between atoms: C3_13  and  N5_14 
REMARK    4  A    between atoms: N5_14  and  C4_16 
REMARK    5  A    between atoms: C4_16  and  C5_17 
REMARK       I    between atoms: C5_17  and  N6_19 
REMARK    6  A    between atoms: N6_19  and  C6_21 
REMARK    7  A    between atoms: C6_21  and  C7_22 
REMARK    8  A    between atoms: C7_22  and  N7_23 
REMARK    9  A    between atoms: C7_22  and  C11_34 
REMARK       I    between atoms: N7_23  and  C8_25 
REMARK   10  A    between atoms: C8_25  and  C9_27 
REMARK   11  A    between atoms: C9_27  and  N8_28 
REMARK   12  A    between atoms: C9_27  and  C10_32 
REMARK       I    between atoms: C11_34  and  N9_36 
REMARK   13  A    between atoms: N9_36  and  C12_38 
REMARK   14  A    between atoms: C12_38  and  C13_39 
REMARK   15  A    between atoms: C14_40  and  C15_41 
REMARK   16  A    between atoms: C15_41  and  O5_43 
REMARK   17  A    between atoms: O5_43  and  N10_44 
REMARK   18  A    between atoms: N12_50  and  C17_51 
REMARK   19  A    between atoms: C17_51  and  C18_52 
ROOT
HETATM    1  C7  UNL     1       1.149  -2.562  -1.044  1.00  0.00     0.194 C 
ENDROOT
BRANCH   1   2
HETATM    2  C6  UNL     1       1.496  -1.154  -1.395  1.00  0.00     0.157 C 
BRANCH   2   3
HETATM    3  N6  UNL     1       1.521  -0.216  -0.319  1.00  0.00    -0.357 N 
HETATM    4  C5  UNL     1       1.822   1.128  -0.606  1.00  0.00     0.235 C 
HETATM    5  O1  UNL     1       2.060   1.503  -1.760  1.00  0.00    -0.272 OA
ATOM      6  H6  UNL     1       1.325  -0.514   0.637  1.00  0.00     0.162 HD
BRANCH   4   7
HETATM    7  C4  UNL     1       1.853   2.131   0.519  1.00  0.00     0.240 C 
BRANCH   7   8
HETATM    8  N5  UNL     1       2.131   3.436   0.043  1.00  0.00    -0.216 N 
ATOM      9  H5  UNL     1       1.595   3.726  -0.775  1.00  0.00     0.178 HD
BRANCH   8  10
HETATM   10  C3  UNL     1       2.948   4.293   0.486  1.00  0.00     0.707 A 
HETATM   11  N4  UNL     1       3.075   5.507  -0.114  1.00  0.00    -0.022 N 
HETATM   12  C2  UNL     1       3.932   6.428   0.332  1.00  0.00     0.705 A 
ATOM     13  H4  UNL     1       2.499   5.720  -0.928  1.00  0.00     0.203 HD
HETATM   14  N2  UNL     1       4.722   6.195   1.414  1.00  0.00    -0.022 N 
HETATM   15  C1  UNL     1       4.588   5.010   1.989  1.00  0.00     0.705 A 
ATOM     16  H2  UNL     1       5.380   6.893   1.762  1.00  0.00     0.203 HD
HETATM   17  N14 UNL     1       3.722   4.069   1.543  1.00  0.00    -0.022 N 
ATOM     18  H14 UNL     1       3.663   3.173   2.027  1.00  0.00     0.203 HD
BRANCH  12  19
HETATM   19  N3  UNL     1       4.029   7.572  -0.259  1.00  0.00    -0.234 N 
ATOM     20  H32 UNL     1       4.684   8.276   0.082  1.00  0.00     0.174 HD
ATOM     21  H31 UNL     1       3.436   7.747  -1.071  1.00  0.00     0.174 HD
ENDBRANCH  12  19
BRANCH  15  22
HETATM   22  N1  UNL     1       5.328   4.772   3.021  1.00  0.00    -0.234 N 
ATOM     23  H12 UNL     1       5.980   5.481   3.357  1.00  0.00     0.174 HD
ATOM     24  H11 UNL     1       5.225   3.859   3.464  1.00  0.00     0.174 HD
ENDBRANCH  15  22
ENDBRANCH   8  10
ENDBRANCH   7   8
ENDBRANCH   4   7
ENDBRANCH   2   3
ENDBRANCH   1   2
BRANCH   1  25
HETATM   25  N7  UNL     1       2.020  -3.190  -0.087  1.00  0.00    -0.344 N 
HETATM   26  C8  UNL     1       2.983  -4.187  -0.364  1.00  0.00     0.249 C 
HETATM   27  O2  UNL     1       3.140  -4.587  -1.535  1.00  0.00    -0.271 OA
ATOM     28  H7  UNL     1       1.935  -2.887   0.883  1.00  0.00     0.163 HD
BRANCH  26  29
HETATM   29  C9  UNL     1       3.824  -4.781   0.710  1.00  0.00     0.284 C 
BRANCH  29  30
HETATM   30  N8  UNL     1       4.818  -5.684   0.220  1.00  0.00    -0.066 N 
ATOM     31  H83 UNL     1       4.393  -6.414  -0.352  1.00  0.00     0.275 HD
ATOM     32  H82 UNL     1       5.399  -5.233  -0.486  1.00  0.00     0.275 HD
ATOM     33  H81 UNL     1       5.395  -6.091   0.956  1.00  0.00     0.275 HD
ENDBRANCH  29  30
BRANCH  29  34
HETATM   34  C10 UNL     1       2.903  -5.607   1.627  1.00  0.00     0.128 C 
HETATM   35  S1  UNL     1       3.825  -6.374   2.965  1.00  0.00    -0.095 SA
ENDBRANCH  29  34
ENDBRANCH  26  29
ENDBRANCH   1  25
BRANCH   1  36
HETATM   36  C11 UNL     1      -0.254  -2.849  -0.772  1.00  0.00     0.246 C 
HETATM   37  O3  UNL     1      -0.575  -3.634   0.176  1.00  0.00    -0.271 OA
HETATM   38  N9  UNL     1      -1.341  -2.300  -1.522  1.00  0.00    -0.333 N 
ATOM     39  H9  UNL     1      -1.124  -1.651  -2.279  1.00  0.00     0.168 HD
BRANCH  38  40
HETATM   40  C12 UNL     1      -2.686  -2.603  -1.276  1.00  0.00     0.123 C 
BRANCH  40  41
HETATM   41  C13 UNL     1      -3.463  -2.136  -0.129  1.00  0.00     0.084 A 
HETATM   42  C14 UNL     1      -4.799  -2.641   0.031  1.00  0.00     0.139 A 
HETATM   43  N11 UNL     1      -5.253  -2.039   1.125  1.00  0.00    -0.345 N 
HETATM   44  C16 UNL     1      -4.370  -1.233   1.648  1.00  0.00     0.184 A 
ATOM     45  H11 UNL     1      -6.185  -2.190   1.512  1.00  0.00     0.167 HD
HETATM   46  N12 UNL     1      -3.235  -1.284   0.862  1.00  0.00    -0.334 N 
BRANCH  42  47
HETATM   47  C15 UNL     1      -5.480  -3.580  -0.844  1.00  0.00     0.333 C 
HETATM   48  O4  UNL     1      -4.999  -4.082  -1.873  1.00  0.00    -0.256 OA
BRANCH  47  49
HETATM   49  O5  UNL     1      -6.796  -3.986  -0.547  1.00  0.00    -0.201 OA
BRANCH  49  50
HETATM   50  N10 UNL     1      -7.421  -4.869  -1.385  1.00  0.00    -0.302 N 
ATOM     51 2H10 UNL     1      -6.928  -5.218  -2.207  1.00  0.00     0.184 HD
ATOM     52 1H10 UNL     1      -8.374  -5.163  -1.170  1.00  0.00     0.184 HD
ENDBRANCH  49  50
ENDBRANCH  47  49
ENDBRANCH  42  47
BRANCH  46  53
HETATM   53  C17 UNL     1      -2.097  -0.425   1.119  1.00  0.00     0.187 C 
BRANCH  53  54
HETATM   54  C18 UNL     1      -2.328   0.932   0.502  1.00  0.00     0.028 A 
HETATM   55  C19 UNL     1      -2.949   1.923   1.265  1.00  0.00     0.027 A 
HETATM   56  C20 UNL     1      -3.207   3.183   0.778  1.00  0.00     0.015 A 
HETATM   57  C21 UNL     1      -2.843   3.495  -0.514  1.00  0.00    -0.009 A 
HETATM   58  C22 UNL     1      -3.078   4.742  -1.060  1.00  0.00     0.013 A 
HETATM   59  C26 UNL     1      -2.226   2.494  -1.257  1.00  0.00     0.042 A 
HETATM   60  C23 UNL     1      -2.720   5.060  -2.352  1.00  0.00     0.001 A 
HETATM   61  C24 UNL     1      -2.107   4.077  -3.101  1.00  0.00     0.002 A 
HETATM   62  C25 UNL     1      -1.870   2.825  -2.556  1.00  0.00     0.030 A 
HETATM   63  N13 UNL     1      -1.985   1.258  -0.743  1.00  0.00    -0.358 N 
ATOM     64  H13 UNL     1      -1.528   0.559  -1.329  1.00  0.00     0.166 HD
ENDBRANCH  53  54
ENDBRANCH  46  53
ENDBRANCH  40  41
ENDBRANCH  38  40
ENDBRANCH   1  36
TORSDOF 19
