REMARK  15 active torsions:
REMARK  status: ('A' for Active; 'I' for Inactive)
REMARK       I    between atoms: N1_2  and  C2_4 
REMARK    1  A    between atoms: C2_4  and  C3_6 
REMARK    2  A    between atoms: C7_15  and  N4_16 
REMARK    3  A    between atoms: N4_16  and  C8_18 
REMARK    4  A    between atoms: C8_18  and  C9_19 
REMARK    5  A    between atoms: C8_18  and  C10_26 
REMARK       I    between atoms: C9_19  and  N5_21 
REMARK    6  A    between atoms: N5_21  and  N6_23 
REMARK    7  A    between atoms: C10_26  and  C11_28 
REMARK    8  A    between atoms: C11_28  and  C12_29 
REMARK    9  A    between atoms: C11_28  and  N11_49 
REMARK   10  A    between atoms: C12_29  and  C13_30 
REMARK   11  A    between atoms: N7_32  and  C15_33 
REMARK   12  A    between atoms: C15_33  and  C16_34 
REMARK   13  A    between atoms: C16_34  and  O4_35 
REMARK   14  A    between atoms: C18_40  and  N9_41 
REMARK       I    between atoms: N11_49  and  C21_51 
REMARK   15  A    between atoms: C21_51  and  C22_53 
ROOT
HETATM    1  C11 UNL     1      -0.201   0.202  -1.334  1.00  0.00     0.161 C 
ENDROOT
BRANCH   1   2
HETATM    2  C10 UNL     1       0.677  -0.562  -0.524  1.00  0.00     0.181 C 
HETATM    3  O3  UNL     1       0.874  -1.729  -0.527  1.00  0.00    -0.293 OA
BRANCH   2   4
HETATM    4  C8  UNL     1       1.542   0.132   0.570  1.00  0.00     0.248 C 
BRANCH   4   5
HETATM    5  N4  UNL     1       2.929  -0.172   0.409  1.00  0.00    -0.370 N 
ATOM      6  H4  UNL     1       3.175  -0.704  -0.426  1.00  0.00     0.161 HD
BRANCH   5   7
HETATM    7  C7  UNL     1       4.009   0.173   1.266  1.00  0.00     0.049 A 
HETATM    8  C3  UNL     1       5.304   0.222   0.753  1.00  0.00     0.073 A 
HETATM    9  C4  UNL     1       6.359   0.484   1.652  1.00  0.00     0.109 A 
HETATM   10  N2  UNL     1       6.160   0.677   2.939  1.00  0.00    -0.352 N 
HETATM   11  C5  UNL     1       4.918   0.638   3.461  1.00  0.00     0.100 A 
ATOM     12  H2  UNL     1       6.957   0.859   3.549  1.00  0.00     0.166 HD
HETATM   13  N3  UNL     1       4.722   0.801   4.671  1.00  0.00    -0.385 N 
HETATM   14  C6  UNL     1       3.838   0.383   2.601  1.00  0.00     0.078 A 
ATOM     15  H32 UNL     1       5.507   0.986   5.296  1.00  0.00     0.157 HD
ATOM     16  H31 UNL     1       3.782   0.771   5.066  1.00  0.00     0.157 HD
BRANCH   8  17
HETATM   17  C2  UNL     1       5.654   0.176  -0.643  1.00  0.00     0.254 C 
HETATM   18  N1  UNL     1       7.003   0.135  -1.071  1.00  0.00    -0.361 N 
HETATM   19  C1  UNL     1       7.267   0.096  -2.518  1.00  0.00     0.149 C 
ATOM     20  H1  UNL     1       7.768   0.133  -0.397  1.00  0.00     0.162 HD
HETATM   21  O1  UNL     1       4.739   0.178  -1.533  1.00  0.00    -0.268 OA
ENDBRANCH   8  17
ENDBRANCH   5   7
ENDBRANCH   4   5
BRANCH   4  22
HETATM   22  C9  UNL     1       1.011  -0.592   1.794  1.00  0.00     0.265 C 
HETATM   23  O2  UNL     1       1.501  -1.681   2.100  1.00  0.00    -0.269 OA
HETATM   24  N5  UNL     1      -0.025  -0.019   2.556  1.00  0.00    -0.275 N 
ATOM     25  H5  UNL     1      -0.434   0.882   2.308  1.00  0.00     0.189 HD
BRANCH  24  26
HETATM   26  N6  UNL     1      -0.473  -0.751   3.682  1.00  0.00    -0.343 N 
ATOM     27  H62 UNL     1      -0.054  -1.651   3.917  1.00  0.00     0.176 HD
ATOM     28  H61 UNL     1      -1.224  -0.336   4.234  1.00  0.00     0.176 HD
ENDBRANCH  24  26
ENDBRANCH   4  22
ENDBRANCH   2   4
ENDBRANCH   1   2
BRANCH   1  29
HETATM   29  C12 UNL     1      -0.976  -0.557  -2.405  1.00  0.00     0.074 C 
BRANCH  29  30
HETATM   30  C13 UNL     1      -1.821  -1.643  -1.958  1.00  0.00    -0.021 A 
HETATM   31  C14 UNL     1      -2.996  -1.553  -1.202  1.00  0.00     0.101 A 
HETATM   32  N7  UNL     1      -3.422  -2.779  -0.847  1.00  0.00    -0.339 N 
HETATM   33  C17 UNL     1      -2.573  -3.690  -1.342  1.00  0.00     0.139 A 
HETATM   34  N8  UNL     1      -2.560  -5.061  -1.302  1.00  0.00    -0.176 N 
HETATM   35  C20 UNL     1      -1.582  -3.002  -2.033  1.00  0.00     0.085 A 
HETATM   36  C18 UNL     1      -1.616  -5.751  -1.917  1.00  0.00     0.680 A 
ATOM     37  H8  UNL     1      -3.290  -5.555  -0.790  1.00  0.00     0.186 HD
HETATM   38  N10 UNL     1      -0.659  -5.122  -2.591  1.00  0.00    -0.155 N 
HETATM   39  C19 UNL     1      -0.646  -3.794  -2.647  1.00  0.00     0.274 A 
ATOM     40  H10 UNL     1       0.067  -5.659  -3.066  1.00  0.00     0.187 HD
HETATM   41  O5  UNL     1       0.285  -3.262  -3.317  1.00  0.00    -0.267 OA
BRANCH  32  42
HETATM   42  C15 UNL     1      -4.587  -3.069  -0.038  1.00  0.00     0.156 C 
BRANCH  42  43
HETATM   43  C16 UNL     1      -5.847  -3.331  -0.836  1.00  0.00     0.184 C 
BRANCH  43  44
HETATM   44  O4  UNL     1      -6.237  -2.291  -1.640  1.00  0.00    -0.399 OA
ATOM     45  H4  UNL     1      -7.027  -2.455  -2.141  1.00  0.00     0.209 HD
ENDBRANCH  43  44
ENDBRANCH  42  43
ENDBRANCH  32  42
BRANCH  36  46
HETATM   46  N9  UNL     1      -1.582  -7.035  -1.882  1.00  0.00    -0.234 N 
ATOM     47  H92 UNL     1      -2.317  -7.518  -1.365  1.00  0.00     0.174 HD
ATOM     48  H91 UNL     1      -0.853  -7.568  -2.357  1.00  0.00     0.174 HD
ENDBRANCH  36  46
ENDBRANCH  29  30
ENDBRANCH   1  29
BRANCH   1  49
HETATM   49  N11 UNL     1      -1.159   1.071  -0.626  1.00  0.00    -0.343 N 
HETATM   50  C21 UNL     1      -0.956   2.450  -0.810  1.00  0.00     0.276 C 
HETATM   51  O6  UNL     1       0.028   2.819  -1.544  1.00  0.00    -0.265 OA
ATOM     52  H11 UNL     1      -1.912   0.700  -0.047  1.00  0.00     0.163 HD
BRANCH  50  53
HETATM   53  C22 UNL     1      -1.779   3.472  -0.224  1.00  0.00     0.146 A 
HETATM   54  C23 UNL     1      -1.443   4.858  -0.282  1.00  0.00     0.059 A 
HETATM   55  C24 UNL     1      -2.430   5.551   0.361  1.00  0.00     0.018 A 
HETATM   56  C25 UNL     1      -2.638   6.891   0.617  1.00  0.00     0.021 A 
HETATM   57  C28 UNL     1      -3.329   4.606   0.791  1.00  0.00     0.161 A 
HETATM   58  C26 UNL     1      -3.770   7.298   1.313  1.00  0.00     0.075 A 
HETATM   59  C27 UNL     1      -4.657   6.324   1.730  1.00  0.00     0.247 A 
HETATM   60  O7  UNL     1      -5.678   6.692   2.352  1.00  0.00    -0.268 OA
HETATM   61  N12 UNL     1      -4.416   5.021   1.462  1.00  0.00    -0.303 N 
ATOM     62  H12 UNL     1      -5.088   4.324   1.783  1.00  0.00     0.171 HD
HETATM   63  O8  UNL     1      -2.906   3.405   0.427  1.00  0.00    -0.287 OA
ENDBRANCH  50  53
ENDBRANCH   1  49
TORSDOF 15
