REMARK  18 active torsions:
REMARK  status: ('A' for Active; 'I' for Inactive)
REMARK    1  A    between atoms: N1_1  and  C1_4 
REMARK    2  A    between atoms: N3_9  and  C3_10 
REMARK    3  A    between atoms: C3_10  and  C4_11 
REMARK       I    between atoms: C4_11  and  N4_13 
REMARK    4  A    between atoms: N4_13  and  C5_15 
REMARK    5  A    between atoms: C5_15  and  C6_16 
REMARK    6  A    between atoms: C5_15  and  C7_19 
REMARK       I    between atoms: C7_19  and  N5_21 
REMARK    7  A    between atoms: N5_21  and  C8_23 
REMARK    8  A    between atoms: C8_23  and  C9_24 
REMARK    9  A    between atoms: C8_23  and  C12_31 
REMARK   10  A    between atoms: C9_24  and  C10_25 
REMARK   11  A    between atoms: C10_25  and  C11_26 
REMARK   12  A    between atoms: C11_26  and  N6_27 
REMARK   13  A    between atoms: C12_31  and  N7_32 
REMARK   14  A    between atoms: C12_31  and  N8_36 
REMARK       I    between atoms: N8_36  and  C13_38 
REMARK   15  A    between atoms: C13_38  and  C14_40 
REMARK   16  A    between atoms: C16_42  and  N9_43 
REMARK   17  A    between atoms: N9_43  and  C17_45 
REMARK   18  A    between atoms: C17_45  and  N10_47 
REMARK       I    between atoms: N10_47  and  C18_49 
ROOT
HETATM    1  C8  UNL     1      -0.419   0.201   0.006  1.00  0.00     0.134 C 
ENDROOT
BRANCH   1   2
HETATM    2  N5  UNL     1      -1.477   1.179  -0.023  1.00  0.00    -0.350 N 
HETATM    3  C7  UNL     1      -2.845   0.853   0.121  1.00  0.00     0.251 C 
HETATM    4  O5  UNL     1      -3.149  -0.354   0.284  1.00  0.00    -0.271 OA
ATOM      5  H5  UNL     1      -1.225   2.159  -0.154  1.00  0.00     0.163 HD
BRANCH   3   6
HETATM    6  C5  UNL     1      -3.940   1.849   0.091  1.00  0.00     0.278 C 
BRANCH   6   7
HETATM    7  N4  UNL     1      -5.203   1.197   0.314  1.00  0.00    -0.338 N 
HETATM    8  C4  UNL     1      -6.039   1.590   1.373  1.00  0.00     0.237 C 
HETATM    9  O2  UNL     1      -5.675   2.521   2.131  1.00  0.00    -0.272 OA
ATOM     10  H4  UNL     1      -5.495   0.440  -0.304  1.00  0.00     0.163 HD
BRANCH   8  11
HETATM   11  C3  UNL     1      -7.340   0.930   1.616  1.00  0.00     0.245 C 
BRANCH  11  12
HETATM   12  N3  UNL     1      -7.511  -0.130   0.604  1.00  0.00    -0.258 N 
HETATM   13  C2  UNL     1      -7.142  -1.410   0.696  1.00  0.00     0.335 A 
HETATM   14  N2  UNL     1      -7.381  -2.196  -0.312  1.00  0.00    -0.287 N 
HETATM   15  O1  UNL     1      -6.563  -1.813   1.779  1.00  0.00    -0.246 OA
HETATM   16  C1  UNL     1      -7.985  -1.680  -1.385  1.00  0.00     0.163 A 
ATOM     17  H2  UNL     1      -7.114  -3.180  -0.284  1.00  0.00     0.172 HD
HETATM   18  S3  UNL     1      -8.205  -0.050  -0.930  1.00  0.00     0.029 SA
BRANCH  16  19
HETATM   19  N1  UNL     1      -8.313  -2.301  -2.498  1.00  0.00    -0.378 N 
ATOM     20  H12 UNL     1      -8.182  -3.275  -2.770  1.00  0.00     0.158 HD
ATOM     21  H11 UNL     1      -8.774  -1.907  -3.318  1.00  0.00     0.158 HD
ENDBRANCH  16  19
ENDBRANCH  11  12
ENDBRANCH   8  11
ENDBRANCH   6   7
BRANCH   6  22
HETATM   22  C6  UNL     1      -3.943   2.508  -1.238  1.00  0.00     0.206 C 
HETATM   23  O3  UNL     1      -4.960   2.423  -1.962  1.00  0.00    -0.646 OA
HETATM   24  O4  UNL     1      -2.840   3.199  -1.653  1.00  0.00    -0.646 OA
ENDBRANCH   6  22
ENDBRANCH   3   6
ENDBRANCH   1   2
BRANCH   1  25
HETATM   25  C9  UNL     1       0.535   0.422   1.159  1.00  0.00     0.030 C 
BRANCH  25  26
HETATM   26  C10 UNL     1      -0.201   0.337   2.457  1.00  0.00     0.029 C 
BRANCH  26  27
HETATM   27  C11 UNL     1       0.704   0.550   3.651  1.00  0.00     0.230 C 
BRANCH  27  28
HETATM   28  N6  UNL     1       1.345   1.826   3.642  1.00  0.00    -0.079 N 
ATOM     29  H63 UNL     1       1.852   1.973   2.769  1.00  0.00     0.274 HD
ATOM     30  H62 UNL     1       0.660   2.578   3.565  1.00  0.00     0.274 HD
ATOM     31  H61 UNL     1       1.955   1.970   4.447  1.00  0.00     0.274 HD
ENDBRANCH  27  28
ENDBRANCH  26  27
ENDBRANCH  25  26
ENDBRANCH   1  25
BRANCH   1  32
HETATM   32  C12 UNL     1       0.316   0.239  -1.325  1.00  0.00     0.307 C 
BRANCH  32  33
HETATM   33  N7  UNL     1      -0.589  -0.062  -2.413  1.00  0.00    -0.056 N 
ATOM     34  H73 UNL     1      -1.070  -0.950  -2.271  1.00  0.00     0.276 HD
ATOM     35  H72 UNL     1      -1.402   0.554  -2.411  1.00  0.00     0.276 HD
ATOM     36  H71 UNL     1      -0.096  -0.037  -3.306  1.00  0.00     0.276 HD
ENDBRANCH  32  33
BRANCH  32  37
HETATM   37  N8  UNL     1       1.373  -0.757  -1.356  1.00  0.00    -0.326 N 
HETATM   38  C13 UNL     1       2.726  -0.374  -1.500  1.00  0.00     0.270 C 
HETATM   39  O6  UNL     1       2.986   0.869  -1.600  1.00  0.00    -0.266 OA
ATOM     40  H8  UNL     1       1.136  -1.746  -1.273  1.00  0.00     0.165 HD
BRANCH  38  41
HETATM   41  C14 UNL     1       3.831  -1.319  -1.539  1.00  0.00     0.106 A 
HETATM   42  C15 UNL     1       5.149  -0.865  -1.650  1.00  0.00     0.084 A 
HETATM   43  C16 UNL     1       6.198  -1.756  -1.689  1.00  0.00     0.111 A 
HETATM   44  N12 UNL     1       5.992  -3.083  -1.622  1.00  0.00    -0.319 N 
HETATM   45  C19 UNL     1       4.730  -3.519  -1.516  1.00  0.00     0.178 A 
ATOM     46  H12 UNL     1       6.773  -3.738  -1.651  1.00  0.00     0.169 HD
HETATM   47  S2  UNL     1       4.488  -5.127  -1.436  1.00  0.00    -0.040 SA
HETATM   48  N13 UNL     1       3.679  -2.647  -1.477  1.00  0.00    -0.328 N 
ATOM     49  H13 UNL     1       2.735  -3.026  -1.397  1.00  0.00     0.168 HD
BRANCH  43  50
HETATM   50  N9  UNL     1       7.420  -1.345  -1.788  1.00  0.00    -0.319 N 
ATOM     51  H9  UNL     1       8.193  -2.009  -1.815  1.00  0.00     0.169 HD
BRANCH  50  52
HETATM   52  C17 UNL     1       7.659   0.044  -1.858  1.00  0.00     0.181 C 
HETATM   53  S1  UNL     1       7.423   0.869  -3.220  1.00  0.00    -0.040 SA
BRANCH  52  54
HETATM   54  N10 UNL     1       8.117   0.719  -0.691  1.00  0.00    -0.288 N 
HETATM   55  C18 UNL     1       8.346   0.063   0.536  1.00  0.00     0.334 C 
HETATM   56  N11 UNL     1       8.799   0.780   1.662  1.00  0.00    -0.040 NA
HETATM   57  O7  UNL     1       8.147  -1.166   0.624  1.00  0.00    -0.251 OA
ATOM     58  H10 UNL     1       8.287   1.723  -0.745  1.00  0.00     0.172 HD
ENDBRANCH  52  54
ENDBRANCH  50  52
ENDBRANCH  43  50
ENDBRANCH  38  41
ENDBRANCH  32  37
ENDBRANCH   1  32
TORSDOF 18
