REMARK  19 active torsions:
REMARK  status: ('A' for Active; 'I' for Inactive)
REMARK    1  A    between atoms: N1_1  and  N2_4 
REMARK    2  A    between atoms: N2_4  and  N3_6 
REMARK    3  A    between atoms: C1_8  and  N4_9 
REMARK    4  A    between atoms: C1_8  and  C17_52 
REMARK    5  A    between atoms: N4_9  and  C2_11 
REMARK    6  A    between atoms: C2_11  and  C3_12 
REMARK    7  A    between atoms: C3_12  and  C4_13 
REMARK    8  A    between atoms: C4_13  and  N5_14 
REMARK    9  A    between atoms: N5_14  and  C5_17 
REMARK   10  A    between atoms: C5_17  and  C6_18 
REMARK   11  A    between atoms: C5_17  and  C7_25 
REMARK       I    between atoms: C6_18  and  N6_20 
REMARK   12  A    between atoms: N6_20  and  N7_22 
REMARK       I    between atoms: C7_25  and  N8_27 
REMARK   13  A    between atoms: N8_27  and  N9_29 
REMARK       I    between atoms: N9_29  and  C8_31 
REMARK   14  A    between atoms: C8_31  and  C9_33 
REMARK   15  A    between atoms: C10_37  and  N11_38 
REMARK   16  A    between atoms: N11_38  and  S2_40 
REMARK   17  A    between atoms: S2_40  and  C11_43 
REMARK   18  A    between atoms: C17_52  and  N14_53 
REMARK   19  A    between atoms: C17_52  and  C18_57 
ROOT
HETATM    1  C5  UNL     1      -0.704  -0.653   1.000  1.00  0.00     0.371 C 
ENDROOT
BRANCH   1   2
HETATM    2  N5  UNL     1      -1.819   0.180   0.685  1.00  0.00    -0.053 N 
ATOM      3  H52 UNL     1      -2.208  -0.074  -0.223  1.00  0.00     0.278 HD
ATOM      4  H51 UNL     1      -1.507   1.130   0.482  1.00  0.00     0.278 HD
BRANCH   2   5
HETATM    5  C4  UNL     1      -2.832   0.194   1.667  1.00  0.00     0.235 C 
BRANCH   5   6
HETATM    6  C3  UNL     1      -3.982   1.147   1.297  1.00  0.00     0.047 C 
BRANCH   6   7
HETATM    7  C2  UNL     1      -4.664   0.745   0.028  1.00  0.00     0.122 C 
BRANCH   7   8
HETATM    8  N4  UNL     1      -5.737   1.657  -0.272  1.00  0.00    -0.377 N 
ATOM      9  H4  UNL     1      -5.639   2.260  -1.089  1.00  0.00     0.160 HD
BRANCH   8  10
HETATM   10  C1  UNL     1      -6.918   1.767   0.498  1.00  0.00     0.128 C 
HETATM   11  N3  UNL     1      -7.446   2.968   0.584  1.00  0.00    -0.273 N 
ATOM     12  H3  UNL     1      -8.299   3.096   1.129  1.00  0.00     0.190 HD
BRANCH  11  13
HETATM   13  N2  UNL     1      -6.876   4.068  -0.046  1.00  0.00    -0.248 N 
ATOM     14  H2  UNL     1      -6.163   4.614   0.437  1.00  0.00     0.207 HD
BRANCH  13  15
HETATM   15  N1  UNL     1      -7.266   4.427  -1.318  1.00  0.00    -0.331 N 
ATOM     16  H12 UNL     1      -7.980   3.870  -1.787  1.00  0.00     0.178 HD
ATOM     17  H11 UNL     1      -6.848   5.234  -1.780  1.00  0.00     0.178 HD
ENDBRANCH  13  15
ENDBRANCH  11  13
BRANCH  10  18
HETATM   18  C17 UNL     1      -7.601   0.687   1.208  1.00  0.00     0.284 C 
BRANCH  18  19
HETATM   19  N14 UNL     1      -8.671   1.200   2.052  1.00  0.00    -0.064 N 
ATOM     20 3H14 UNL     1      -8.330   1.914   2.696  1.00  0.00     0.275 HD
ATOM     21 2H14 UNL     1      -9.327   1.770   1.519  1.00  0.00     0.275 HD
ATOM     22 1H14 UNL     1      -9.148   0.446   2.547  1.00  0.00     0.275 HD
ENDBRANCH  18  19
BRANCH  18  23
HETATM   23  C18 UNL     1      -8.082  -0.430   0.378  1.00  0.00    -0.021 A 
HETATM   24  C19 UNL     1      -8.727  -1.469   1.003  1.00  0.00     0.010 A 
HETATM   25  C20 UNL     1      -9.223  -2.559   0.291  1.00  0.00     0.001 A 
HETATM   26  C21 UNL     1      -9.066  -2.600  -1.074  1.00  0.00     0.000 A 
HETATM   27  C22 UNL     1      -8.418  -1.562  -1.729  1.00  0.00     0.001 A 
HETATM   28  C23 UNL     1      -7.932  -0.481  -0.981  1.00  0.00     0.010 A 
ENDBRANCH  18  23
ENDBRANCH  10  18
ENDBRANCH   8  10
ENDBRANCH   7   8
ENDBRANCH   6   7
ENDBRANCH   5   6
ENDBRANCH   2   5
ENDBRANCH   1   2
BRANCH   1  29
HETATM   29  C6  UNL     1      -1.058  -2.066   0.958  1.00  0.00     0.276 C 
HETATM   30  O1  UNL     1      -2.107  -2.531   1.504  1.00  0.00    -0.269 OA
HETATM   31  N6  UNL     1      -0.211  -3.008   0.274  1.00  0.00    -0.274 N 
ATOM     32  H6  UNL     1       0.639  -2.693  -0.193  1.00  0.00     0.189 HD
BRANCH  31  33
HETATM   33  N7  UNL     1      -0.574  -4.382   0.258  1.00  0.00    -0.343 N 
ATOM     34  H72 UNL     1      -1.427  -4.681   0.730  1.00  0.00     0.176 HD
ATOM     35  H71 UNL     1       0.026  -5.049  -0.227  1.00  0.00     0.176 HD
ENDBRANCH  31  33
ENDBRANCH   1  29
BRANCH   1  36
HETATM   36  C7  UNL     1       0.525  -0.292   0.303  1.00  0.00     0.276 C 
HETATM   37  O2  UNL     1       0.496   0.544  -0.642  1.00  0.00    -0.269 OA
HETATM   38  N8  UNL     1       1.770  -0.847   0.663  1.00  0.00    -0.265 N 
ATOM     39  H8  UNL     1       1.789  -1.530   1.420  1.00  0.00     0.190 HD
BRANCH  38  40
HETATM   40  N9  UNL     1       2.977  -0.519   0.048  1.00  0.00    -0.261 N 
HETATM   41  C8  UNL     1       3.797  -1.510  -0.478  1.00  0.00     0.304 C 
HETATM   42  O3  UNL     1       3.463  -2.707  -0.418  1.00  0.00    -0.263 OA
ATOM     43  H9  UNL     1       3.261   0.458  -0.017  1.00  0.00     0.190 HD
BRANCH  41  44
HETATM   44  C9  UNL     1       5.098  -1.155  -1.125  1.00  0.00     0.184 A 
HETATM   45  N10 UNL     1       5.840  -2.105  -1.722  1.00  0.00    -0.305 N 
HETATM   46  S1  UNL     1       7.195  -1.284  -2.259  1.00  0.00     0.025 SA
ATOM     47  H10 UNL     1       5.626  -3.097  -1.824  1.00  0.00     0.176 HD
HETATM   48  C10 UNL     1       6.781   0.265  -1.703  1.00  0.00     0.176 A 
HETATM   49  N13 UNL     1       5.596   0.065  -1.122  1.00  0.00    -0.316 N 
ATOM     50  H13 UNL     1       5.089   0.836  -0.687  1.00  0.00     0.169 HD
BRANCH  48  51
HETATM   51  N11 UNL     1       7.406   1.420  -1.767  1.00  0.00    -0.259 N 
ATOM     52  H11 UNL     1       6.999   2.268  -1.372  1.00  0.00     0.181 HD
BRANCH  51  53
HETATM   53  S2  UNL     1       8.939   1.440  -2.545  1.00  0.00     0.264 S 
HETATM   54  O4  UNL     1       8.891   0.420  -3.666  1.00  0.00    -0.200 OA
HETATM   55  O5  UNL     1       9.212   2.798  -3.148  1.00  0.00    -0.200 OA
BRANCH  53  56
HETATM   56  C11 UNL     1      10.244   0.983  -1.456  1.00  0.00     0.080 A 
HETATM   57  C12 UNL     1      10.758  -0.294  -1.390  1.00  0.00     0.027 A 
HETATM   58  C13 UNL     1      11.791  -0.629  -0.503  1.00  0.00     0.028 A 
HETATM   59  C14 UNL     1      12.329   0.322   0.339  1.00  0.00     0.046 A 
HETATM   60  N12 UNL     1      13.370  -0.061   1.219  1.00  0.00    -0.102 NA
HETATM   61  C15 UNL     1      11.811   1.595   0.268  1.00  0.00     0.028 A 
HETATM   62  C16 UNL     1      10.798   1.929  -0.600  1.00  0.00     0.027 A 
ENDBRANCH  53  56
ENDBRANCH  51  53
ENDBRANCH  48  51
ENDBRANCH  41  44
ENDBRANCH  38  40
ENDBRANCH   1  36
TORSDOF 19
