REMARK  4 active torsions:
REMARK  status: ('A' for Active; 'I' for Inactive)
REMARK    1  A    between atoms: S1_2  and  C2_3 
REMARK    2  A    between atoms: C5_9  and  C6_10 
REMARK       I    between atoms: C6_10  and  N2_12 
REMARK    3  A    between atoms: N2_12  and  C7_14 
REMARK    4  A    between atoms: C10_17  and  C11_18 
ROOT
HETATM    1  C6  UNL     1       2.169  -0.137   1.531  1.00  0.00     0.270 C 
HETATM    2  O1  UNL     1       1.774  -0.079   2.730  1.00  0.00    -0.266 OA
HETATM    3  N2  UNL     1       1.222  -0.403   0.502  1.00  0.00    -0.351 N 
ATOM      4  H2  UNL     1       1.534  -0.452  -0.468  1.00  0.00     0.163 HD
ENDROOT
BRANCH   1   5
HETATM    5  C5  UNL     1       3.586   0.068   1.223  1.00  0.00     0.126 A 
HETATM    6  C4  UNL     1       4.465   0.323   2.254  1.00  0.00     0.081 A 
HETATM    7  C3  UNL     1       5.791   0.511   1.927  1.00  0.00     0.116 A 
HETATM    8 CL1  UNL     1       3.912   0.404   3.920  1.00  0.00    -0.080 Cl
HETATM    9  N1  UNL     1       6.175   0.440   0.624  1.00  0.00    -0.345 N 
HETATM   10  C2  UNL     1       5.299   0.191  -0.359  1.00  0.00     0.144 A 
ATOM     11  H1  UNL     1       7.157   0.580   0.389  1.00  0.00     0.167 HD
HETATM   12  N3  UNL     1       4.005   0.006  -0.053  1.00  0.00    -0.331 N 
ATOM     13  H3  UNL     1       3.333  -0.184  -0.796  1.00  0.00     0.168 HD
BRANCH  10  14
HETATM   14  S1  UNL     1       5.772   0.091  -2.079  1.00  0.00    -0.098 SA
HETATM   15  C1  UNL     1       7.563   0.372  -2.258  1.00  0.00     0.099 C 
ENDBRANCH  10  14
ENDBRANCH   1   5
BRANCH   3  16
HETATM   16  C7  UNL     1      -0.153  -0.602   0.807  1.00  0.00     0.089 C 
HETATM   17  C8  UNL     1      -0.653  -1.977   0.417  1.00  0.00     0.026 C 
HETATM   18  C9  UNL     1      -2.168  -1.796   0.487  1.00  0.00     0.012 C 
HETATM   19  C10 UNL     1      -2.306  -0.416  -0.112  1.00  0.00    -0.031 A 
HETATM   20  C16 UNL     1      -2.282   0.763   0.883  1.00  0.00     0.017 A 
HETATM   21  C17 UNL     1      -1.079   0.332   0.050  1.00  0.00     0.018 A 
BRANCH  19  22
HETATM   22  C11 UNL     1      -3.331  -0.270  -1.175  1.00  0.00    -0.006 C 
HETATM   23  C12 UNL     1      -3.469   1.057  -1.811  1.00  0.00     0.005 C 
HETATM   24  C13 UNL     1      -4.940   1.378  -1.722  1.00  0.00     0.000 C 
HETATM   25  C14 UNL     1      -5.412   0.709  -0.465  1.00  0.00     0.000 C 
HETATM   26  C15 UNL     1      -4.678  -0.616  -0.520  1.00  0.00     0.005 C 
ENDBRANCH  19  22
ENDBRANCH   3  16
TORSDOF 4
