REMARK  5 active torsions:
REMARK  status: ('A' for Active; 'I' for Inactive)
REMARK    1  A    between atoms: C2_2  and  C4_4 
REMARK    2  A    between atoms: C2_2  and  O1_12 
REMARK    3  A    between atoms: C4_4  and  N1_5 
REMARK    4  A    between atoms: O1_12  and  C8_13 
REMARK       I    between atoms: C8_13  and  N3_15 
REMARK    5  A    between atoms: N3_15  and  C9_17 
ROOT
HETATM    1  C8  UNL     1       0.446  -0.305  -0.287  1.00  0.00     0.362 C 
HETATM    2  O2  UNL     1       0.485  -0.151   0.960  1.00  0.00    -0.238 OA
HETATM    3  N3  UNL     1      -0.769  -0.274  -1.019  1.00  0.00    -0.328 N 
ATOM      4  H3  UNL     1      -0.707  -0.407  -2.028  1.00  0.00     0.165 HD
ENDROOT
BRANCH   1   5
HETATM    5  O1  UNL     1       1.666  -0.510  -0.913  1.00  0.00    -0.292 OA
BRANCH   5   6
HETATM    6  C2  UNL     1       2.879  -0.545  -0.231  1.00  0.00     0.083 C 
HETATM    7  C1  UNL     1       2.917  -1.625   0.799  1.00  0.00     0.048 C 
HETATM    8  C3  UNL     1       3.944  -0.915  -1.274  1.00  0.00     0.048 C 
BRANCH   6   9
HETATM    9  C4  UNL     1       3.217   0.828   0.287  1.00  0.00     0.186 C 
BRANCH   9  10
HETATM   10  N1  UNL     1       4.539   0.896   0.850  1.00  0.00    -0.299 N 
HETATM   11  C5  UNL     1       5.649   1.204   0.159  1.00  0.00     0.135 A 
HETATM   12  C6  UNL     1       6.713   1.174   1.003  1.00  0.00     0.068 A 
HETATM   13 CL1  UNL     1       8.417   1.487   0.683  1.00  0.00    -0.081 Cl
HETATM   14  C7  UNL     1       6.226   0.837   2.244  1.00  0.00     0.132 A 
HETATM   15  N2  UNL     1       4.911   0.679   2.102  1.00  0.00    -0.308 N 
ATOM     16  H2  UNL     1       4.275   0.425   2.858  1.00  0.00     0.186 HD
ENDBRANCH   9  10
ENDBRANCH   6   9
ENDBRANCH   5   6
ENDBRANCH   1   5
BRANCH   3  17
HETATM   17  C9  UNL     1      -2.067  -0.073  -0.469  1.00  0.00     0.036 C 
HETATM   18  C10 UNL     1      -2.208   1.241   0.262  1.00  0.00     0.035 C 
HETATM   19  C11 UNL     1      -3.605   1.351   0.806  1.00  0.00    -0.012 C 
HETATM   20  C12 UNL     1      -4.644   1.332  -0.292  1.00  0.00     0.009 C 
HETATM   21  C16 UNL     1      -3.931   0.219   1.749  1.00  0.00     0.009 C 
HETATM   22  C13 UNL     1      -4.505   0.031  -1.030  1.00  0.00    -0.012 C 
HETATM   23  C14 UNL     1      -4.747  -1.167  -0.131  1.00  0.00     0.009 C 
HETATM   24  C18 UNL     1      -3.111  -0.073  -1.567  1.00  0.00     0.035 C 
HETATM   25  C15 UNL     1      -3.807  -1.106   1.024  1.00  0.00    -0.012 C 
HETATM   26  C17 UNL     1      -2.385  -1.183   0.499  1.00  0.00     0.035 C 
ENDBRANCH   3  17
TORSDOF 5
