REMARK  3 active torsions:
REMARK  status: ('A' for Active; 'I' for Inactive)
REMARK    1  A    between atoms: C2_2  and  C4_4 
REMARK    2  A    between atoms: C4_4  and  C5_5 
REMARK    3  A    between atoms: C17_22  and  C19_24 
ROOT
HETATM    1  C5  UNL     1       2.386  -0.272   0.184  1.00  0.00     0.038 A 
HETATM    2  N1  UNL     1       2.734   0.994   0.451  1.00  0.00    -0.310 N 
ATOM      3  H1  UNL     1       3.706   1.219   0.665  1.00  0.00     0.170 HD
HETATM    4  C6  UNL     1       1.810   1.969   0.438  1.00  0.00     0.328 A 
HETATM    5  O1  UNL     1       2.172   3.152   0.693  1.00  0.00    -0.246 OA
HETATM    6  N2  UNL     1       0.538   1.638   0.151  1.00  0.00    -0.279 N 
HETATM    7  C7  UNL     1       0.108   0.378  -0.126  1.00  0.00     0.070 A 
HETATM    8  C8  UNL     1       1.083  -0.613  -0.109  1.00  0.00     0.084 A 
HETATM    9 CL1  UNL     1       0.685  -2.271  -0.480  1.00  0.00    -0.080 Cl
HETATM   10  C9  UNL     1      -1.290   0.460  -0.316  1.00  0.00    -0.024 C 
HETATM   11  C10 UNL     1      -2.343  -0.469  -0.495  1.00  0.00    -0.071 C 
HETATM   12  C11 UNL     1      -2.593  -1.370   0.700  1.00  0.00     0.034 C 
HETATM   13  C12 UNL     1      -3.042  -2.747   0.362  1.00  0.00     0.004 C 
HETATM   14  C13 UNL     1      -4.268  -2.683  -0.475  1.00  0.00     0.001 C 
HETATM   15  C14 UNL     1      -4.084  -1.729  -1.598  1.00  0.00     0.004 C 
HETATM   16  C15 UNL     1      -2.597  -1.277  -1.711  1.00  0.00     0.034 C 
HETATM   17  C16 UNL     1      -1.445   1.832  -0.983  1.00  0.00     0.082 C 
HETATM   18  C17 UNL     1      -0.572   2.606   0.016  1.00  0.00     0.121 C 
HETATM   19  C18 UNL     1      -0.077   3.906  -0.595  1.00  0.00     0.049 C 
ENDROOT
BRANCH  18  20
HETATM   20  C19 UNL     1      -1.235   2.880   1.277  1.00  0.00     0.260 C 
HETATM   21  N3  UNL     1      -2.428   3.658   1.275  1.00  0.00    -0.060 NA
HETATM   22  O2  UNL     1      -0.810   2.464   2.406  1.00  0.00    -0.274 OA
ENDBRANCH  18  20
BRANCH   1  23
HETATM   23  C4  UNL     1       3.368  -1.386   0.182  1.00  0.00     0.063 C 
BRANCH  23  24
HETATM   24  C2  UNL     1       4.624  -1.130   0.928  1.00  0.00    -0.017 C 
HETATM   25  C1  UNL     1       5.470  -2.410   0.798  1.00  0.00     0.010 C 
HETATM   26  C3  UNL     1       5.377   0.001   0.265  1.00  0.00     0.010 C 
ENDBRANCH  23  24
ENDBRANCH   1  23
TORSDOF 3
