REMARK  8 active torsions:
REMARK  status: ('A' for Active; 'I' for Inactive)
REMARK    1  A    between atoms: C2_2  and  C3_3 
REMARK    2  A    between atoms: C3_3  and  N1_4 
REMARK    3  A    between atoms: C6_7  and  C7_8 
REMARK    4  A    between atoms: C7_8  and  C8_9 
REMARK    5  A    between atoms: C8_9  and  N2_10 
REMARK    6  A    between atoms: N2_10  and  C9_12 
REMARK    7  A    between atoms: C9_12  and  C10_13 
REMARK    8  A    between atoms: C10_13  and  C11_14 
ROOT
HETATM    1  N1  UNL     1      -2.347   0.475  -0.373  1.00  0.00     0.092 N 
HETATM    2  C4  UNL     1      -2.064  -0.871  -0.001  1.00  0.00     0.273 C 
HETATM    3  C5  UNL     1      -1.208  -0.753   1.230  1.00  0.00     0.036 C 
HETATM    4  C6  UNL     1      -0.435   0.522   1.017  1.00  0.00     0.017 C 
HETATM    5  C12 UNL     1      -1.213   1.263   0.036  1.00  0.00     0.277 C 
ENDROOT
BRANCH   4   6
HETATM    6  C7  UNL     1       0.991   0.226   0.732  1.00  0.00     0.026 C 
BRANCH   6   7
HETATM    7  C8  UNL     1       1.291  -0.600  -0.448  1.00  0.00     0.119 C 
BRANCH   7   8
HETATM    8  N2  UNL     1       2.689  -0.814  -0.603  1.00  0.00    -0.402 N 
ATOM      9  H2  UNL     1       3.124  -1.724  -0.449  1.00  0.00     0.158 HD
BRANCH   8  10
HETATM   10  C9  UNL     1       3.426   0.321  -0.984  1.00  0.00     0.062 C 
BRANCH  10  11
HETATM   11  C10 UNL     1       4.913   0.086  -1.095  1.00  0.00     0.113 C 
BRANCH  11  12
HETATM   12  C11 UNL     1       5.446  -0.299   0.221  1.00  0.00     0.236 C 
HETATM   13  O1  UNL     1       4.765  -0.332   1.206  1.00  0.00    -0.307 OA
ENDBRANCH  11  12
ENDBRANCH  10  11
ENDBRANCH   8  10
ENDBRANCH   7   8
ENDBRANCH   6   7
ENDBRANCH   4   6
BRANCH   1  14
HETATM   14  C3  UNL     1      -3.601   0.981   0.098  1.00  0.00     0.299 C 
BRANCH  14  15
HETATM   15  C2  UNL     1      -4.690   0.234  -0.631  1.00  0.00    -0.007 C 
HETATM   16  C1  UNL     1      -5.571  -0.480   0.061  1.00  0.00     0.008 C 
ENDBRANCH  14  15
ENDBRANCH   1  14
TORSDOF 8
