REMARK  7 active torsions:
REMARK  status: ('A' for Active; 'I' for Inactive)
REMARK    1  A    between atoms: C2_2  and  C3_3 
REMARK    2  A    between atoms: C3_3  and  N1_4 
REMARK    3  A    between atoms: N1_4  and  N2_5 
REMARK    4  A    between atoms: N2_5  and  C5_7 
REMARK    5  A    between atoms: C5_7  and  C6_8 
REMARK    6  A    between atoms: C6_8  and  O1_9 
REMARK    7  A    between atoms: O1_9  and  C7_10 
ROOT
HETATM    1  C6  UNL     1       0.536  -0.696  -0.015  1.00  0.00     0.191 C 
ENDROOT
BRANCH   1   2
HETATM    2  C5  UNL     1      -0.409  -1.686   0.637  1.00  0.00     0.135 C 
BRANCH   2   3
HETATM    3  N2  UNL     1      -1.796  -1.452   0.297  1.00  0.00    -0.237 NA
HETATM    4  C4  UNL     1      -1.961  -1.755  -1.105  1.00  0.00     0.132 C 
BRANCH   3   5
HETATM    5  N1  UNL     1      -2.128  -0.169   0.660  1.00  0.00    -0.162 NA
BRANCH   5   6
HETATM    6  C3  UNL     1      -3.560   0.064   0.699  1.00  0.00     0.155 C 
BRANCH   6   7
HETATM    7  C2  UNL     1      -3.901   1.452   1.085  1.00  0.00    -0.020 C 
HETATM    8  C1  UNL     1      -4.628   1.676   2.165  1.00  0.00     0.008 C 
ENDBRANCH   6   7
ENDBRANCH   5   6
ENDBRANCH   3   5
ENDBRANCH   2   3
ENDBRANCH   1   2
BRANCH   1   9
HETATM    9  O1  UNL     1       1.866  -0.972   0.344  1.00  0.00    -0.350 OA
BRANCH   9  10
HETATM   10  C7  UNL     1       2.896  -0.187  -0.140  1.00  0.00     0.068 A 
HETATM   11  C8  UNL     1       2.610   0.873  -0.975  1.00  0.00     0.037 A 
HETATM   12  C9  UNL     1       3.630   1.683  -1.480  1.00  0.00     0.003 A 
HETATM   13  C10 UNL     1       4.919   1.418  -1.140  1.00  0.00     0.000 A 
HETATM   14  C11 UNL     1       5.243   0.363  -0.304  1.00  0.00     0.003 A 
HETATM   15  C12 UNL     1       4.212  -0.420   0.179  1.00  0.00     0.037 A 
ENDBRANCH   9  10
ENDBRANCH   1   9
TORSDOF 7
