REMARK  9 active torsions:
REMARK  status: ('A' for Active; 'I' for Inactive)
REMARK    1  A    between atoms: C2_2  and  C3_3 
REMARK    2  A    between atoms: C3_3  and  O1_4 
REMARK    3  A    between atoms: O1_4  and  C4_5 
REMARK    4  A    between atoms: C4_5  and  C5_7 
REMARK    5  A    between atoms: C5_7  and  C6_8 
REMARK    6  A    between atoms: C5_7  and  N1_10 
REMARK    7  A    between atoms: N1_10  and  C8_13 
REMARK    8  A    between atoms: C8_13  and  C9_14 
REMARK    9  A    between atoms: C9_14  and  C10_15 
ROOT
HETATM    1  C5  UNL     1      -0.428  -0.002   0.179  1.00  0.00     0.306 C 
ENDROOT
BRANCH   1   2
HETATM    2  C4  UNL     1      -1.802   0.136   0.720  1.00  0.00     0.293 C 
HETATM    3  O2  UNL     1      -2.008   0.127   1.937  1.00  0.00    -0.263 OA
BRANCH   2   4
HETATM    4  O1  UNL     1      -2.831   0.274  -0.185  1.00  0.00    -0.316 OA
BRANCH   4   5
HETATM    5  C3  UNL     1      -4.187   0.413   0.199  1.00  0.00     0.205 C 
BRANCH   5   6
HETATM    6  C2  UNL     1      -4.981   0.536  -1.060  1.00  0.00    -0.011 C 
HETATM    7  C1  UNL     1      -5.714   1.613  -1.305  1.00  0.00     0.009 C 
ENDBRANCH   5   6
ENDBRANCH   4   5
ENDBRANCH   2   4
ENDBRANCH   1   2
BRANCH   1   8
HETATM    8  C6  UNL     1      -0.369  -1.163  -0.776  1.00  0.00     0.006 C 
HETATM    9  C7  UNL     1      -0.856  -2.318  -0.345  1.00  0.00     0.009 C 
ENDBRANCH   1   8
BRANCH   1  10
HETATM   10  N1  UNL     1       0.489  -0.131   1.262  1.00  0.00    -0.059 N 
ATOM     11  H12 UNL     1       0.510   0.704   1.848  1.00  0.00     0.278 HD
ATOM     12  H11 UNL     1       0.163  -0.796   1.963  1.00  0.00     0.278 HD
BRANCH  10  13
HETATM   13  C8  UNL     1       1.788  -0.470   0.763  1.00  0.00     0.234 C 
BRANCH  13  14
HETATM   14  C9  UNL     1       2.441   0.642  -0.023  1.00  0.00     0.032 C 
BRANCH  14  15
HETATM   15  C10 UNL     1       3.800   0.154  -0.486  1.00  0.00    -0.013 A 
HETATM   16  C11 UNL     1       4.731  -0.228   0.633  1.00  0.00     0.005 A 
HETATM   17  C12 UNL     1       5.024   0.946  -0.229  1.00  0.00     0.005 A 
ENDBRANCH  14  15
ENDBRANCH  13  14
ENDBRANCH  10  13
ENDBRANCH   1  10
TORSDOF 9
