REMARK  13 active torsions:
REMARK  status: ('A' for Active; 'I' for Inactive)
REMARK    1  A    between atoms: C2_2  and  C3_3 
REMARK    2  A    between atoms: C3_3  and  C4_4 
REMARK    3  A    between atoms: C4_4  and  C5_5 
REMARK    4  A    between atoms: C7_9  and  C8_10 
REMARK    5  A    between atoms: C8_10  and  C9_11 
REMARK    6  A    between atoms: C9_11  and  N2_12 
REMARK    7  A    between atoms: N2_12  and  C11_14 
REMARK    8  A    between atoms: C11_14  and  C12_15 
REMARK    9  A    between atoms: C12_15  and  O1_16 
REMARK   10  A    between atoms: C12_15  and  C13_18 
REMARK   11  A    between atoms: C13_18  and  N3_19 
REMARK   12  A    between atoms: N3_19  and  O2_20 
REMARK   13  A    between atoms: N3_19  and  C14_22 
ROOT
HETATM    1  C9  UNL     1       0.926  -0.125  -0.378  1.00  0.00     0.278 C 
ENDROOT
BRANCH   1   2
HETATM    2  C8  UNL     1       0.233   0.723   0.665  1.00  0.00     0.089 C 
BRANCH   2   3
HETATM    3  C7  UNL     1      -1.083   0.150   1.080  1.00  0.00     0.029 A 
HETATM    4  C6  UNL     1      -1.336  -0.750   2.096  1.00  0.00     0.114 A 
HETATM    5  N1  UNL     1      -2.680  -0.980   2.106  1.00  0.00    -0.354 N 
HETATM    6  C5  UNL     1      -3.268  -0.258   1.135  1.00  0.00     0.083 A 
ATOM      7  H1  UNL     1      -3.165  -1.604   2.751  1.00  0.00     0.166 HD
HETATM    8  N4  UNL     1      -2.264   0.426   0.522  1.00  0.00    -0.343 N 
HETATM    9  C15 UNL     1      -2.469   1.326  -0.579  1.00  0.00     0.157 C 
BRANCH   6  10
HETATM   10  C4  UNL     1      -4.717  -0.192   0.771  1.00  0.00     0.080 C 
BRANCH  10  11
HETATM   11  C3  UNL     1      -5.075  -1.223  -0.258  1.00  0.00     0.033 C 
BRANCH  11  12
HETATM   12  C2  UNL     1      -6.523  -1.092  -0.564  1.00  0.00    -0.037 C 
HETATM   13  C1  UNL     1      -7.284  -0.183   0.033  1.00  0.00     0.007 C 
ENDBRANCH  11  12
ENDBRANCH  10  11
ENDBRANCH   6  10
ENDBRANCH   2   3
ENDBRANCH   1   2
BRANCH   1  14
HETATM   14  N2  UNL     1       2.160   0.464  -0.744  1.00  0.00     0.087 N 
HETATM   15  C10 UNL     1       1.866   1.697  -1.483  1.00  0.00     0.310 C 
BRANCH  14  16
HETATM   16  C11 UNL     1       3.157   0.659   0.236  1.00  0.00     0.305 C 
BRANCH  16  17
HETATM   17  C12 UNL     1       3.779  -0.591   0.749  1.00  0.00     0.166 C 
BRANCH  17  18
HETATM   18  O1  UNL     1       2.734  -1.393   1.270  1.00  0.00    -0.392 OA
ATOM     19  H1  UNL     1       3.131  -2.191   1.598  1.00  0.00     0.210 HD
ENDBRANCH  17  18
BRANCH  17  20
HETATM   20  C13 UNL     1       4.643  -1.380  -0.155  1.00  0.00     0.192 C 
BRANCH  20  21
HETATM   21  N3  UNL     1       5.779  -0.733  -0.702  1.00  0.00    -0.234 N 
BRANCH  21  22
HETATM   22  O2  UNL     1       6.940  -0.773   0.068  1.00  0.00    -0.285 OA
ATOM     23  H2  UNL     1       7.702  -0.339  -0.299  1.00  0.00     0.245 HD
ENDBRANCH  21  22
BRANCH  21  24
HETATM   24  C14 UNL     1       5.818  -0.071  -1.927  1.00  0.00     0.376 C 
HETATM   25  O3  UNL     1       4.838  -0.007  -2.717  1.00  0.00    -0.281 OA
ENDBRANCH  21  24
ENDBRANCH  20  21
ENDBRANCH  17  20
ENDBRANCH  16  17
ENDBRANCH  14  16
ENDBRANCH   1  14
TORSDOF 13
