REMARK  12 active torsions:
REMARK  status: ('A' for Active; 'I' for Inactive)
REMARK    1  A    between atoms: C2_2  and  C3_3 
REMARK    2  A    between atoms: C3_3  and  N1_4 
REMARK    3  A    between atoms: N1_4  and  C4_7 
REMARK    4  A    between atoms: C4_7  and  C5_8 
REMARK    5  A    between atoms: C5_8  and  O1_9 
REMARK    6  A    between atoms: O1_9  and  C6_10 
REMARK    7  A    between atoms: C6_10  and  C7_12 
REMARK    8  A    between atoms: C7_12  and  O3_13 
REMARK    9  A    between atoms: O3_13  and  C8_14 
REMARK   10  A    between atoms: C9_15  and  O4_16 
REMARK   11  A    between atoms: C12_19  and  C13_20 
REMARK   12  A    between atoms: N2_21  and  O5_23 
ROOT
HETATM    1  C8  UNL     1      -2.562  -0.925   0.072  1.00  0.00     0.178 A 
HETATM    2  C9  UNL     1      -2.266   0.212  -0.645  1.00  0.00     0.120 A 
HETATM    3  C11 UNL     1      -3.268   1.148  -0.940  1.00  0.00     0.055 A 
HETATM    4  C12 UNL     1      -4.543   0.893  -0.493  1.00  0.00    -0.000 A 
HETATM    5  C14 UNL     1      -4.790  -0.265   0.223  1.00  0.00     0.105 A 
HETATM    6  N3  UNL     1      -3.844  -1.161   0.508  1.00  0.00    -0.339 N 
HETATM    7  C15 UNL     1      -4.098  -2.374   1.257  1.00  0.00     0.158 C 
ENDROOT
BRANCH   1   8
HETATM    8  O3  UNL     1      -1.630  -1.840   0.379  1.00  0.00    -0.324 OA
BRANCH   8   9
HETATM    9  C7  UNL     1      -0.294  -2.008   0.276  1.00  0.00     0.288 C 
BRANCH   9  10
HETATM   10  C6  UNL     1       0.593  -1.108   1.039  1.00  0.00     0.283 C 
HETATM   11  O2  UNL     1       0.108  -0.307   1.876  1.00  0.00    -0.263 OA
BRANCH  10  12
HETATM   12  O1  UNL     1       1.966  -1.085   0.892  1.00  0.00    -0.318 OA
BRANCH  12  13
HETATM   13  C5  UNL     1       2.831  -0.243   1.601  1.00  0.00     0.206 C 
BRANCH  13  14
HETATM   14  C4  UNL     1       4.243  -0.568   1.090  1.00  0.00     0.259 C 
BRANCH  14  15
HETATM   15  N1  UNL     1       4.320  -0.315  -0.337  1.00  0.00    -0.070 N 
ATOM     16  H12 UNL     1       4.032   0.636  -0.565  1.00  0.00     0.277 HD
ATOM     17  H11 UNL     1       3.598  -0.824  -0.847  1.00  0.00     0.277 HD
BRANCH  15  18
HETATM   18  C3  UNL     1       5.635  -0.607  -0.848  1.00  0.00     0.259 C 
BRANCH  18  19
HETATM   19  C2  UNL     1       6.594   0.382  -0.310  1.00  0.00    -0.010 C 
HETATM   20  C1  UNL     1       7.303   1.189  -1.116  1.00  0.00     0.008 C 
ENDBRANCH  18  19
ENDBRANCH  15  18
ENDBRANCH  14  15
ENDBRANCH  13  14
ENDBRANCH  12  13
ENDBRANCH  10  12
ENDBRANCH   9  10
ENDBRANCH   8   9
ENDBRANCH   1   8
BRANCH   2  21
HETATM   21  O4  UNL     1      -0.967   0.454  -1.097  1.00  0.00    -0.352 OA
HETATM   22  C10 UNL     1      -0.710   1.632  -1.834  1.00  0.00     0.210 C 
ENDBRANCH   2  21
BRANCH   4  23
HETATM   23  C13 UNL     1      -5.627   1.824  -0.766  1.00  0.00     0.126 C 
HETATM   24  N2  UNL     1      -6.822   1.584  -0.347  1.00  0.00    -0.280 N 
ATOM     25  H2  UNL     1      -6.996   0.729   0.181  1.00  0.00     0.193 HD
BRANCH  24  26
HETATM   26  O5  UNL     1      -7.862   2.435  -0.586  1.00  0.00    -0.290 OA
ATOM     27  H5  UNL     1      -8.743   2.258  -0.277  1.00  0.00     0.244 HD
ENDBRANCH  24  26
ENDBRANCH   4  23
TORSDOF 12
