REMARK  13 active torsions:
REMARK  status: ('A' for Active; 'I' for Inactive)
REMARK    1  A    between atoms: O1_2  and  C2_3 
REMARK    2  A    between atoms: C2_3  and  O2_4 
REMARK    3  A    between atoms: C2_3  and  C3_6 
REMARK    4  A    between atoms: C3_6  and  O3_7 
REMARK    5  A    between atoms: C3_6  and  C4_9 
REMARK    6  A    between atoms: C4_9  and  N1_10 
REMARK    7  A    between atoms: N1_10  and  C5_11 
REMARK    8  A    between atoms: N1_10  and  C12_20 
REMARK    9  A    between atoms: C5_11  and  C6_12 
REMARK   10  A    between atoms: C6_12  and  N2_13 
REMARK   11  A    between atoms: N2_13  and  C8_15 
REMARK   12  A    between atoms: C8_15  and  C9_16 
REMARK   13  A    between atoms: C12_20  and  C13_21 
ROOT
HETATM    1  C9  UNL     1      -4.219   1.261   0.058  1.00  0.00     0.127 C 
HETATM    2  C10 UNL     1      -5.668   1.582   0.504  1.00  0.00     0.031 C 
HETATM    3  C11 UNL     1      -3.420   1.504   1.242  1.00  0.00     0.069 C 
HETATM    4  N3  UNL     1      -2.780   1.731   2.202  1.00  0.00    -0.197 NA
ENDROOT
BRANCH   1   5
HETATM    5  C8  UNL     1      -4.141  -0.134  -0.435  1.00  0.00     0.081 C 
BRANCH   5   6
HETATM    6  N2  UNL     1      -2.961  -0.669  -0.914  1.00  0.00    -0.375 N 
HETATM    7  C7  UNL     1      -2.962  -0.937  -2.297  1.00  0.00     0.154 C 
BRANCH   6   8
HETATM    8  C6  UNL     1      -1.852  -0.994  -0.137  1.00  0.00     0.092 C 
BRANCH   8   9
HETATM    9  C5  UNL     1      -0.675  -0.153  -0.466  1.00  0.00     0.317 C 
BRANCH   9  10
HETATM   10  N1  UNL     1       0.531  -0.449   0.360  1.00  0.00     0.096 N 
BRANCH  10  11
HETATM   11  C4  UNL     1       1.420   0.627   0.047  1.00  0.00     0.309 C 
BRANCH  11  12
HETATM   12  C3  UNL     1       2.493   1.075   0.913  1.00  0.00     0.201 C 
BRANCH  12  13
HETATM   13  C2  UNL     1       3.172   2.256   0.120  1.00  0.00     0.286 C 
BRANCH  13  14
HETATM   14  O1  UNL     1       4.001   2.898   1.001  1.00  0.00    -0.364 OA
HETATM   15  C1  UNL     1       5.345   2.768   0.591  1.00  0.00     0.204 C 
ENDBRANCH  13  14
BRANCH  13  16
HETATM   16  O2  UNL     1       2.241   3.095  -0.418  1.00  0.00    -0.369 OA
ATOM     17  H2  UNL     1       1.666   2.650  -1.029  1.00  0.00     0.212 HD
ENDBRANCH  13  16
ENDBRANCH  12  13
BRANCH  12  18
HETATM   18  O3  UNL     1       3.521   0.310   1.307  1.00  0.00    -0.389 OA
ATOM     19  H3  UNL     1       3.112  -0.402   1.785  1.00  0.00     0.210 HD
ENDBRANCH  12  18
ENDBRANCH  11  12
ENDBRANCH  10  11
BRANCH  10  20
HETATM   20  C12 UNL     1       1.014  -1.683  -0.179  1.00  0.00     0.277 C 
BRANCH  20  21
HETATM   21  C13 UNL     1       2.080  -2.459   0.479  1.00  0.00     0.014 A 
HETATM   22  C14 UNL     1       2.526  -3.770  -0.262  1.00  0.00     0.007 A 
HETATM   23  C15 UNL     1       1.601  -3.885   0.873  1.00  0.00     0.007 A 
ENDBRANCH  20  21
ENDBRANCH  10  20
ENDBRANCH   9  10
ENDBRANCH   8   9
ENDBRANCH   6   8
ENDBRANCH   5   6
ENDBRANCH   1   5
TORSDOF 13
