REMARK  14 active torsions:
REMARK  status: ('A' for Active; 'I' for Inactive)
REMARK    1  A    between atoms: C2_2  and  C3_3 
REMARK    2  A    between atoms: C3_3  and  C4_4 
REMARK    3  A    between atoms: C4_4  and  N1_5 
REMARK    4  A    between atoms: C5_7  and  N2_8 
REMARK    5  A    between atoms: N2_8  and  C6_9 
REMARK    6  A    between atoms: N2_8  and  C13_26 
REMARK    7  A    between atoms: C6_9  and  C7_10 
REMARK    8  A    between atoms: C7_10  and  O1_11 
REMARK    9  A    between atoms: C7_10  and  C8_13 
REMARK   10  A    between atoms: C8_13  and  N3_14 
REMARK   11  A    between atoms: N3_14  and  C9_17 
REMARK   12  A    between atoms: C9_17  and  C10_18 
REMARK   13  A    between atoms: C10_18  and  N4_19 
REMARK   14  A    between atoms: C13_26  and  C14_27 
ROOT
HETATM    1  C7  UNL     1       0.596  -0.929  -1.608  1.00  0.00     0.161 C 
ENDROOT
BRANCH   1   2
HETATM    2  C6  UNL     1       0.325  -0.615  -0.197  1.00  0.00     0.157 C 
BRANCH   2   3
HETATM    3  N2  UNL     1      -1.034  -0.699   0.241  1.00  0.00    -0.374 N 
BRANCH   3   4
HETATM    4  C5  UNL     1      -1.647   0.503   0.652  1.00  0.00     0.173 C 
HETATM    5  N1  UNL     1      -1.163   1.629   0.288  1.00  0.00    -0.386 N 
ATOM      6  H1  UNL     1      -0.332   1.642  -0.303  1.00  0.00     0.160 HD
BRANCH   5   7
HETATM    7  C4  UNL     1      -1.757   2.881   0.688  1.00  0.00     0.120 C 
BRANCH   7   8
HETATM    8  C3  UNL     1      -2.916   3.328  -0.125  1.00  0.00     0.019 C 
BRANCH   8   9
HETATM    9  C2  UNL     1      -4.066   2.349  -0.128  1.00  0.00    -0.003 C 
HETATM   10  C1  UNL     1      -5.180   2.964  -0.991  1.00  0.00     0.005 C 
ENDBRANCH   8   9
ENDBRANCH   7   8
ENDBRANCH   5   7
ENDBRANCH   3   4
BRANCH   3  11
HETATM   11  C13 UNL     1      -1.808  -1.908   0.329  1.00  0.00     0.128 C 
BRANCH  11  12
HETATM   12  C14 UNL     1      -1.367  -2.853   1.404  1.00  0.00     0.004 A 
HETATM   13  C15 UNL     1      -2.195  -4.125   1.487  1.00  0.00     0.007 A 
HETATM   14  C16 UNL     1      -2.312  -3.100   2.580  1.00  0.00     0.007 A 
ENDBRANCH  11  12
ENDBRANCH   3  11
ENDBRANCH   2   3
ENDBRANCH   1   2
BRANCH   1  15
HETATM   15  O1  UNL     1      -0.043  -0.159  -2.561  1.00  0.00    -0.392 OA
ATOM     16  H1  UNL     1       0.132  -0.362  -3.472  1.00  0.00     0.210 HD
ENDBRANCH   1  15
BRANCH   1  17
HETATM   17  C8  UNL     1       2.074  -0.789  -1.912  1.00  0.00     0.265 C 
BRANCH  17  18
HETATM   18  N3  UNL     1       2.869  -1.518  -0.971  1.00  0.00    -0.071 N 
ATOM     19  H32 UNL     1       2.704  -1.189  -0.020  1.00  0.00     0.277 HD
ATOM     20  H31 UNL     1       2.535  -2.477  -0.874  1.00  0.00     0.277 HD
BRANCH  18  21
HETATM   21  C9  UNL     1       4.281  -1.490  -1.293  1.00  0.00     0.254 C 
BRANCH  21  22
HETATM   22  C10 UNL     1       4.879  -0.127  -1.151  1.00  0.00     0.177 C 
BRANCH  22  23
HETATM   23  N4  UNL     1       4.777   0.445   0.161  1.00  0.00    -0.285 N 
HETATM   24  C11 UNL     1       3.788   1.240   0.671  1.00  0.00     0.201 A 
HETATM   25  N5  UNL     1       4.116   1.527   1.936  1.00  0.00    -0.346 N 
HETATM   26  C12 UNL     1       5.280   0.924   2.204  1.00  0.00     0.198 A 
ATOM     27  H5  UNL     1       3.575   2.103   2.581  1.00  0.00     0.167 HD
HETATM   28  N6  UNL     1       5.697   0.251   1.108  1.00  0.00    -0.293 N 
ATOM     29  H6  UNL     1       6.551  -0.300   1.022  1.00  0.00     0.188 HD
ENDBRANCH  22  23
ENDBRANCH  21  22
ENDBRANCH  18  21
ENDBRANCH  17  18
ENDBRANCH   1  17
TORSDOF 14
