REMARK  15 active torsions:
REMARK  status: ('A' for Active; 'I' for Inactive)
REMARK    1  A    between atoms: C2_2  and  N1_3 
REMARK    2  A    between atoms: N1_3  and  C3_4 
REMARK    3  A    between atoms: N1_3  and  C11_17 
REMARK    4  A    between atoms: C4_5  and  C5_6 
REMARK    5  A    between atoms: C5_6  and  C6_7 
REMARK    6  A    between atoms: C6_7  and  N2_8 
REMARK    7  A    between atoms: N2_8  and  C7_10 
REMARK    8  A    between atoms: C7_10  and  C8_11 
REMARK    9  A    between atoms: C8_11  and  O2_13 
REMARK   10  A    between atoms: O2_13  and  C9_14 
REMARK   11  A    between atoms: C11_17  and  C12_18 
REMARK   12  A    between atoms: C12_18  and  O3_19 
REMARK   13  A    between atoms: C12_18  and  C13_21 
REMARK   14  A    between atoms: C13_21  and  N4_22 
REMARK   15  A    between atoms: N4_22  and  C15_24 
ROOT
HETATM    1  C9  UNL     1       7.165   0.520  -1.184  1.00  0.00     0.302 C 
HETATM    2  C10 UNL     1       6.291   1.078  -2.212  1.00  0.00     0.085 C 
HETATM    3  N3  UNL     1       5.581   1.525  -3.017  1.00  0.00    -0.195 NA
ENDROOT
BRANCH   1   4
HETATM    4  O2  UNL     1       6.502  -0.498  -0.422  1.00  0.00    -0.306 OA
BRANCH   4   5
HETATM    5  C8  UNL     1       5.343  -0.195   0.293  1.00  0.00     0.277 C 
HETATM    6  O1  UNL     1       4.926   0.988   0.232  1.00  0.00    -0.263 OA
BRANCH   5   7
HETATM    7  C7  UNL     1       4.635  -1.249   1.097  1.00  0.00     0.225 C 
BRANCH   7   8
HETATM    8  N2  UNL     1       3.495  -0.646   1.708  1.00  0.00    -0.412 N 
ATOM      9  H2  UNL     1       3.267   0.340   1.578  1.00  0.00     0.153 HD
BRANCH   8  10
HETATM   10  C6  UNL     1       2.694  -1.513   2.513  1.00  0.00     0.118 C 
BRANCH  10  11
HETATM   11  C5  UNL     1       1.963  -2.568   1.761  1.00  0.00     0.047 C 
BRANCH  11  12
HETATM   12  C4  UNL     1       1.003  -2.111   0.765  1.00  0.00    -0.008 C 
HETATM   13  C3  UNL     1       0.669  -0.872   0.481  1.00  0.00     0.081 C 
BRANCH  13  14
HETATM   14  N1  UNL     1      -0.312  -0.559  -0.547  1.00  0.00    -0.388 N 
BRANCH  14  15
HETATM   15  C2  UNL     1       0.192  -0.645  -1.892  1.00  0.00     0.118 C 
HETATM   16  C1  UNL     1       0.347   0.659  -2.574  1.00  0.00     0.026 C 
ENDBRANCH  14  15
BRANCH  14  17
HETATM   17  C11 UNL     1      -1.656  -0.197  -0.161  1.00  0.00     0.155 C 
BRANCH  17  18
HETATM   18  C12 UNL     1      -2.027   1.208  -0.373  1.00  0.00     0.164 C 
BRANCH  18  19
HETATM   19  O3  UNL     1      -1.158   1.994   0.431  1.00  0.00    -0.392 OA
ATOM     20  H3  UNL     1      -1.398   2.903   0.294  1.00  0.00     0.210 HD
ENDBRANCH  18  19
BRANCH  18  21
HETATM   21  C13 UNL     1      -3.416   1.651  -0.039  1.00  0.00     0.305 C 
BRANCH  21  22
HETATM   22  N4  UNL     1      -4.457   0.953  -0.771  1.00  0.00     0.091 N 
HETATM   23  C14 UNL     1      -5.607   1.941  -0.865  1.00  0.00     0.310 C 
BRANCH  22  24
HETATM   24  C15 UNL     1      -5.052  -0.159  -0.011  1.00  0.00     0.222 A 
HETATM   25  C16 UNL     1      -5.886   0.296   1.211  1.00  0.00     0.038 A 
HETATM   26  C17 UNL     1      -4.679  -0.532   1.343  1.00  0.00     0.038 A 
ENDBRANCH  22  24
ENDBRANCH  21  22
ENDBRANCH  18  21
ENDBRANCH  17  18
ENDBRANCH  14  17
ENDBRANCH  13  14
ENDBRANCH  11  12
ENDBRANCH  10  11
ENDBRANCH   8  10
ENDBRANCH   7   8
ENDBRANCH   5   7
ENDBRANCH   4   5
ENDBRANCH   1   4
TORSDOF 15
