REMARK  13 active torsions:
REMARK  status: ('A' for Active; 'I' for Inactive)
REMARK    1  A    between atoms: N1_2  and  C3_4 
REMARK    2  A    between atoms: C3_4  and  C4_5 
REMARK    3  A    between atoms: C4_5  and  N2_6 
REMARK    4  A    between atoms: N2_6  and  C5_9 
REMARK    5  A    between atoms: C5_9  and  C6_10 
REMARK    6  A    between atoms: C6_10  and  N3_11 
REMARK    7  A    between atoms: N3_11  and  C7_12 
REMARK    8  A    between atoms: N3_11  and  C15_25 
REMARK    9  A    between atoms: C7_12  and  C8_13 
REMARK   10  A    between atoms: C8_13  and  N4_14 
REMARK   11  A    between atoms: N4_14  and  C9_17 
REMARK   12  A    between atoms: C9_17  and  C10_18 
REMARK   13  A    between atoms: C15_25  and  C16_26 
ROOT
HETATM    1  N3  UNL     1       0.165  -0.946  -0.191  1.00  0.00    -0.368 N 
ENDROOT
BRANCH   1   2
HETATM    2  C6  UNL     1       1.048  -2.043   0.165  1.00  0.00     0.154 C 
BRANCH   2   3
HETATM    3  C5  UNL     1       2.476  -1.498   0.363  1.00  0.00     0.252 C 
BRANCH   3   4
HETATM    4  N2  UNL     1       2.922  -0.852  -0.827  1.00  0.00    -0.072 N 
ATOM      5  H22 UNL     1       2.248  -0.164  -1.163  1.00  0.00     0.277 HD
ATOM      6  H21 UNL     1       2.908  -1.481  -1.630  1.00  0.00     0.277 HD
BRANCH   4   7
HETATM    7  C4  UNL     1       4.232  -0.269  -0.620  1.00  0.00     0.262 C 
BRANCH   7   8
HETATM    8  C3  UNL     1       4.184   0.898   0.327  1.00  0.00     0.298 C 
BRANCH   8   9
HETATM    9  N1  UNL     1       5.519   1.435   0.482  1.00  0.00     0.081 N 
HETATM   10  C1  UNL     1       5.535   2.502   1.480  1.00  0.00     0.309 C 
HETATM   11  C2  UNL     1       6.002   1.962  -0.792  1.00  0.00     0.309 C 
ENDBRANCH   8   9
ENDBRANCH   7   8
ENDBRANCH   4   7
ENDBRANCH   3   4
ENDBRANCH   2   3
ENDBRANCH   1   2
BRANCH   1  12
HETATM   12  C7  UNL     1      -0.035  -0.006   0.806  1.00  0.00     0.090 C 
BRANCH  12  13
HETATM   13  C8  UNL     1      -0.620   1.306   0.498  1.00  0.00     0.277 C 
BRANCH  13  14
HETATM   14  N4  UNL     1      -1.961   1.318   0.045  1.00  0.00    -0.066 N 
ATOM     15  H42 UNL     1      -2.192   2.193  -0.425  1.00  0.00     0.277 HD
ATOM     16  H41 UNL     1      -2.099   0.680  -0.739  1.00  0.00     0.277 HD
BRANCH  14  17
HETATM   17  C9  UNL     1      -2.894   1.032   1.151  1.00  0.00     0.289 C 
BRANCH  17  18
HETATM   18  C10 UNL     1      -4.268   1.107   0.534  1.00  0.00     0.034 A 
HETATM   19  C11 UNL     1      -5.295   1.469   1.369  1.00  0.00     0.027 A 
HETATM   20  C12 UNL     1      -6.570   1.569   0.811  1.00  0.00     0.003 A 
HETATM   21  C13 UNL     1      -6.706   1.297  -0.530  1.00  0.00     0.017 A 
HETATM   22  C14 UNL     1      -5.663   0.934  -1.352  1.00  0.00     0.088 A 
HETATM   23  N5  UNL     1      -4.432   0.847  -0.773  1.00  0.00    -0.368 N 
ATOM     24  H5  UNL     1      -3.626   0.581  -1.339  1.00  0.00     0.165 HD
ENDBRANCH  17  18
ENDBRANCH  14  17
ENDBRANCH  13  14
ENDBRANCH  12  13
ENDBRANCH   1  12
BRANCH   1  25
HETATM   25  C15 UNL     1      -0.632  -1.168  -1.294  1.00  0.00     0.095 C 
BRANCH  25  26
HETATM   26  C16 UNL     1      -1.698  -2.212  -1.257  1.00  0.00     0.161 C 
HETATM   27  C17 UNL     1      -1.395  -3.598  -0.852  1.00  0.00     0.063 C 
HETATM   28  C18 UNL     1      -2.902  -3.527  -0.518  1.00  0.00     0.171 C 
HETATM   29  O1  UNL     1      -2.679  -2.150  -0.320  1.00  0.00    -0.381 OA
ENDBRANCH  25  26
ENDBRANCH   1  25
TORSDOF 13
