REMARK  10 active torsions:
REMARK  status: ('A' for Active; 'I' for Inactive)
REMARK    1  A    between atoms: C1_1  and  C2_2 
REMARK    2  A    between atoms: C1_1  and  C7_10 
REMARK    3  A    between atoms: C2_2  and  N1_3 
REMARK    4  A    between atoms: N1_3  and  C3_6 
REMARK    5  A    between atoms: C3_6  and  C4_7 
REMARK    6  A    between atoms: C7_10  and  O1_11 
REMARK    7  A    between atoms: O1_11  and  C8_12 
REMARK    8  A    between atoms: C8_12  and  C9_13 
REMARK    9  A    between atoms: C9_13  and  O2_14 
REMARK   10  A    between atoms: O2_14  and  C10_15 
ROOT
HETATM    1  C7  UNL     1       0.571   0.813   0.446  1.00  0.00     0.169 C 
ENDROOT
BRANCH   1   2
HETATM    2  C1  UNL     1       0.804   0.604  -1.053  1.00  0.00     0.054 C 
BRANCH   2   3
HETATM    3  C2  UNL     1       1.931   1.462  -1.552  1.00  0.00     0.234 C 
BRANCH   3   4
HETATM    4  N1  UNL     1       3.174   1.152  -0.869  1.00  0.00    -0.075 N 
ATOM      5  H12 UNL     1       3.881   1.867  -1.041  1.00  0.00     0.277 HD
ATOM      6  H11 UNL     1       3.080   1.260   0.141  1.00  0.00     0.277 HD
BRANCH   4   7
HETATM    7  C3  UNL     1       3.660  -0.158  -1.213  1.00  0.00     0.237 C 
BRANCH   7   8
HETATM    8  C4  UNL     1       4.950  -0.436  -0.484  1.00  0.00     0.011 A 
HETATM    9  C5  UNL     1       4.965  -0.425   1.008  1.00  0.00     0.007 A 
HETATM   10  C6  UNL     1       5.565   0.703   0.238  1.00  0.00     0.007 A 
ENDBRANCH   7   8
ENDBRANCH   4   7
ENDBRANCH   3   4
ENDBRANCH   2   3
ENDBRANCH   1   2
BRANCH   1  11
HETATM   11  O1  UNL     1      -0.471  -0.007   0.812  1.00  0.00    -0.389 OA
BRANCH  11  12
HETATM   12  C8  UNL     1      -0.813   0.054   2.126  1.00  0.00     0.193 C 
BRANCH  12  13
HETATM   13  C9  UNL     1      -1.954  -0.874   2.423  1.00  0.00     0.194 C 
BRANCH  13  14
HETATM   14  O2  UNL     1      -3.066  -0.606   1.746  1.00  0.00    -0.384 OA
BRANCH  14  15
HETATM   15  C10 UNL     1      -3.201  -0.668   0.419  1.00  0.00     0.121 C 
HETATM   16  C11 UNL     1      -4.418  -1.475  -0.033  1.00  0.00     0.032 C 
HETATM   17  C12 UNL     1      -5.032  -0.726  -1.194  1.00  0.00     0.002 C 
HETATM   18  C13 UNL     1      -4.024   0.386  -1.502  1.00  0.00     0.002 C 
HETATM   19  C14 UNL     1      -3.597   0.733  -0.078  1.00  0.00     0.032 C 
ENDBRANCH  14  15
ENDBRANCH  13  14
ENDBRANCH  12  13
ENDBRANCH  11  12
ENDBRANCH   1  11
TORSDOF 10
