REMARK  9 active torsions:
REMARK  status: ('A' for Active; 'I' for Inactive)
REMARK    1  A    between atoms: O1_2  and  N1_3 
REMARK    2  A    between atoms: N1_3  and  C2_4 
REMARK    3  A    between atoms: N1_3  and  C8_10 
REMARK    4  A    between atoms: C2_4  and  C3_5 
REMARK    5  A    between atoms: C3_5  and  C4_6 
REMARK    6  A    between atoms: C4_6  and  C5_7 
REMARK    7  A    between atoms: C8_10  and  C10_12 
REMARK    8  A    between atoms: C10_12  and  C11_13 
REMARK    9  A    between atoms: C11_13  and  C12_14 
ROOT
HETATM    1  N1  UNL     1      -0.619  -0.917   0.411  1.00  0.00    -0.270 N 
ENDROOT
BRANCH   1   2
HETATM    2  O1  UNL     1      -0.568  -1.509  -0.746  1.00  0.00    -0.283 OA
HETATM    3  C1  UNL     1      -1.313  -2.632  -0.962  1.00  0.00     0.237 C 
ENDBRANCH   1   2
BRANCH   1   4
HETATM    4  C2  UNL     1       0.525  -0.818   1.213  1.00  0.00     0.090 C 
BRANCH   4   5
HETATM    5  C3  UNL     1       1.797  -1.352   0.637  1.00  0.00     0.047 C 
BRANCH   5   6
HETATM    6  C4  UNL     1       2.277  -0.706  -0.614  1.00  0.00     0.010 C 
BRANCH   6   7
HETATM    7  C5  UNL     1       2.548   0.779  -0.412  1.00  0.00    -0.014 A 
HETATM    8  C6  UNL     1       3.033   1.471  -1.645  1.00  0.00     0.005 A 
HETATM    9  C7  UNL     1       3.928   1.298  -0.435  1.00  0.00     0.005 A 
ENDBRANCH   6   7
ENDBRANCH   5   6
ENDBRANCH   4   5
ENDBRANCH   1   4
BRANCH   1  10
HETATM   10  C8  UNL     1      -1.838  -0.429   0.907  1.00  0.00     0.110 C 
HETATM   11  C9  UNL     1      -2.332  -1.114   2.166  1.00  0.00     0.035 C 
BRANCH  10  12
HETATM   12  C10 UNL     1      -1.780   1.051   1.130  1.00  0.00     0.038 C 
BRANCH  12  13
HETATM   13  C11 UNL     1      -1.489   1.842  -0.113  1.00  0.00     0.115 C 
BRANCH  13  14
HETATM   14  C12 UNL     1      -2.473   1.741  -1.187  1.00  0.00     0.172 C 
HETATM   15  O2  UNL     1      -3.543   1.122  -1.143  1.00  0.00    -0.648 OA
HETATM   16  O3  UNL     1      -2.162   2.421  -2.384  1.00  0.00    -0.648 OA
ENDBRANCH  13  14
ENDBRANCH  12  13
ENDBRANCH  10  12
ENDBRANCH   1  10
TORSDOF 9
