REMARK  10 active torsions:
REMARK  status: ('A' for Active; 'I' for Inactive)
REMARK    1  A    between atoms: C2_2  and  C3_3 
REMARK    2  A    between atoms: C3_3  and  C4_4 
REMARK    3  A    between atoms: C4_4  and  C5_5 
REMARK    4  A    between atoms: C5_5  and  O1_6 
REMARK    5  A    between atoms: O1_6  and  C6_7 
REMARK    6  A    between atoms: C6_7  and  C7_8 
REMARK    7  A    between atoms: C7_8  and  O2_9 
REMARK    8  A    between atoms: C7_8  and  C8_11 
REMARK    9  A    between atoms: C8_11  and  O3_12 
REMARK   10  A    between atoms: O3_12  and  C9_13 
ROOT
HETATM    1  C7  UNL     1      -0.059   0.820  -1.100  1.00  0.00     0.166 C 
ENDROOT
BRANCH   1   2
HETATM    2  C6  UNL     1       0.674   0.811   0.204  1.00  0.00     0.201 C 
BRANCH   2   3
HETATM    3  O1  UNL     1       1.795   1.602   0.101  1.00  0.00    -0.389 OA
BRANCH   3   4
HETATM    4  C5  UNL     1       2.715   1.254  -0.843  1.00  0.00     0.168 C 
BRANCH   4   5
HETATM    5  C4  UNL     1       3.263  -0.141  -0.624  1.00  0.00     0.030 C 
BRANCH   5   6
HETATM    6  C3  UNL     1       3.912  -0.132   0.760  1.00  0.00     0.028 C 
BRANCH   6   7
HETATM    7  C2  UNL     1       4.491  -1.427   1.111  1.00  0.00    -0.037 C 
HETATM    8  C1  UNL     1       5.782  -1.536   1.370  1.00  0.00     0.007 C 
ENDBRANCH   6   7
ENDBRANCH   5   6
ENDBRANCH   4   5
ENDBRANCH   3   4
ENDBRANCH   2   3
ENDBRANCH   1   2
BRANCH   1   9
HETATM    9  O2  UNL     1      -0.406   2.140  -1.377  1.00  0.00    -0.391 OA
ATOM     10  H2  UNL     1      -0.871   2.146  -2.205  1.00  0.00     0.210 HD
ENDBRANCH   1   9
BRANCH   1  11
HETATM   11  C8  UNL     1      -1.334  -0.005  -1.047  1.00  0.00     0.209 C 
BRANCH  11  12
HETATM   12  O3  UNL     1      -2.206   0.476  -0.036  1.00  0.00    -0.349 OA
BRANCH  12  13
HETATM   13  C9  UNL     1      -3.414  -0.182   0.129  1.00  0.00     0.068 A 
HETATM   14  C10 UNL     1      -4.286   0.259   1.103  1.00  0.00     0.037 A 
HETATM   15  C11 UNL     1      -5.498  -0.392   1.277  1.00  0.00     0.003 A 
HETATM   16  C12 UNL     1      -5.857  -1.471   0.501  1.00  0.00     0.000 A 
HETATM   17  C13 UNL     1      -4.987  -1.921  -0.480  1.00  0.00     0.003 A 
HETATM   18  C14 UNL     1      -3.785  -1.263  -0.641  1.00  0.00     0.037 A 
ENDBRANCH  12  13
ENDBRANCH  11  12
ENDBRANCH   1  11
TORSDOF 10
