REMARK  11 active torsions:
REMARK  status: ('A' for Active; 'I' for Inactive)
REMARK    1  A    between atoms: C6_10  and  S2_11 
REMARK    2  A    between atoms: S2_11  and  S3_12 
REMARK    3  A    between atoms: S3_12  and  C7_13 
REMARK    4  A    between atoms: C8_14  and  C9_15 
REMARK    5  A    between atoms: C9_15  and  C10_16 
REMARK    6  A    between atoms: C10_16  and  O1_17 
REMARK    7  A    between atoms: C10_16  and  N2_19 
REMARK    8  A    between atoms: N2_19  and  C11_21 
REMARK    9  A    between atoms: C12_26  and  S4_27 
REMARK   10  A    between atoms: S4_27  and  C13_28 
REMARK   11  A    between atoms: N10_45  and  N11_46 
ROOT
HETATM    1  C7  UNL     1      -0.775  -1.235   0.286  1.00  0.00     0.098 A 
HETATM    2  C8  UNL     1       0.406  -0.797   0.900  1.00  0.00     0.049 A 
HETATM    3  C15 UNL     1       0.953  -1.461   1.985  1.00  0.00     0.258 A 
HETATM    4  O2  UNL     1       2.016  -1.061   2.534  1.00  0.00    -0.267 OA
HETATM    5  N8  UNL     1       0.322  -2.555   2.449  1.00  0.00    -0.275 N 
ATOM      6  H8  UNL     1       0.695  -3.070   3.246  1.00  0.00     0.173 HD
HETATM    7  C16 UNL     1      -0.795  -2.952   1.850  1.00  0.00     0.329 A 
HETATM    8  O3  UNL     1      -1.401  -3.970   2.265  1.00  0.00    -0.246 OA
HETATM    9  N9  UNL     1      -1.357  -2.313   0.774  1.00  0.00    -0.297 N 
HETATM   10  C17 UNL     1      -2.567  -2.867   0.189  1.00  0.00     0.162 C 
ENDROOT
BRANCH   2  11
HETATM   11  C9  UNL     1       1.186   0.371   0.385  1.00  0.00     0.101 C 
BRANCH  11  12
HETATM   12  C10 UNL     1       2.114  -0.007  -0.716  1.00  0.00     0.224 C 
BRANCH  12  13
HETATM   13  O1  UNL     1       1.535  -0.563  -1.825  1.00  0.00    -0.377 OA
ATOM     14  H1  UNL     1       2.127  -0.804  -2.528  1.00  0.00     0.212 HD
ENDBRANCH  12  13
BRANCH  12  15
HETATM   15  N2  UNL     1       2.786   1.210  -1.158  1.00  0.00    -0.343 N 
ATOM     16  H2  UNL     1       2.350   1.821  -1.849  1.00  0.00     0.164 HD
BRANCH  15  17
HETATM   17  C11 UNL     1       3.962   1.507  -0.651  1.00  0.00     0.163 A 
HETATM   18  N3  UNL     1       4.720   2.571  -0.935  1.00  0.00    -0.278 N 
HETATM   19  N4  UNL     1       5.837   2.692  -0.345  1.00  0.00    -0.286 N 
ATOM     20  H3  UNL     1       4.408   3.269  -1.610  1.00  0.00     0.189 HD
HETATM   21  C12 UNL     1       6.234   1.782   0.531  1.00  0.00     0.137 A 
ATOM     22  H4  UNL     1       6.433   3.495  -0.547  1.00  0.00     0.188 HD
HETATM   23  S5  UNL     1       4.922   0.687   0.502  1.00  0.00    -0.026 SA
BRANCH  21  24
HETATM   24  S4  UNL     1       7.780   1.725   1.475  1.00  0.00    -0.026 SA
BRANCH  24  25
HETATM   25  C13 UNL     1       8.930   0.792   0.459  1.00  0.00     0.166 A 
HETATM   26  N5  UNL     1       9.749   1.310  -0.466  1.00  0.00    -0.331 N 
HETATM   27  C14 UNL     1      10.445   0.291  -1.011  1.00  0.00     0.199 A 
ATOM     28  H5  UNL     1       9.831   2.296  -0.713  1.00  0.00     0.168 HD
HETATM   29  N6  UNL     1      10.065  -0.859  -0.430  1.00  0.00    -0.294 N 
HETATM   30  N7  UNL     1       9.129  -0.551   0.478  1.00  0.00    -0.279 N 
ATOM     31  H6  UNL     1      10.422  -1.791  -0.640  1.00  0.00     0.187 HD
ATOM     32  H7  UNL     1       8.646  -1.215   1.083  1.00  0.00     0.189 HD
ENDBRANCH  24  25
ENDBRANCH  21  24
ENDBRANCH  15  17
ENDBRANCH  12  15
ENDBRANCH  11  12
ENDBRANCH   2  11
BRANCH   1  33
HETATM   33  S3  UNL     1      -1.347  -0.217  -1.054  1.00  0.00    -0.030 SA
BRANCH  33  34
HETATM   34  S2  UNL     1      -2.560   1.316  -0.274  1.00  0.00    -0.013 SA
BRANCH  34  35
HETATM   35  C6  UNL     1      -4.273   0.908  -0.397  1.00  0.00     0.178 A 
HETATM   36  N1  UNL     1      -5.207   1.627   0.301  1.00  0.00    -0.332 N 
HETATM   37  C5  UNL     1      -6.466   1.194  -0.021  1.00  0.00     0.078 A 
ATOM     38  H1  UNL     1      -4.996   2.374   0.963  1.00  0.00     0.168 HD
HETATM   39  C2  UNL     1      -7.747   1.490   0.317  1.00  0.00    -0.004 A 
HETATM   40  C4  UNL     1      -6.276   0.199  -0.929  1.00  0.00     0.128 A 
HETATM   41  C1  UNL     1      -8.151   2.570   1.316  1.00  0.00     0.053 C 
HETATM   42  C3  UNL     1      -8.735   0.761  -0.287  1.00  0.00     0.085 A 
HETATM   43 CL1  UNL     1     -10.487   0.902  -0.064  1.00  0.00    -0.076 Cl
HETATM   44  S1  UNL     1      -7.860  -0.301  -1.294  1.00  0.00    -0.055 SA
HETATM   45  N10 UNL     1      -4.937   0.030  -1.155  1.00  0.00    -0.231 N 
BRANCH  45  46
HETATM   46  N11 UNL     1      -4.428  -0.870  -2.079  1.00  0.00    -0.336 N 
ATOM     47 2H11 UNL     1      -4.935  -1.540  -2.657  1.00  0.00     0.177 HD
ATOM     48 1H11 UNL     1      -3.430  -0.996  -2.247  1.00  0.00     0.177 HD
ENDBRANCH  45  46
ENDBRANCH  34  35
ENDBRANCH  33  34
ENDBRANCH   1  33
TORSDOF 11
