REMARK  15 active torsions:
REMARK  status: ('A' for Active; 'I' for Inactive)
REMARK    1  A    between atoms: O1_2  and  C2_3 
REMARK    2  A    between atoms: C2_3  and  C3_5 
REMARK    3  A    between atoms: C5_8  and  C6_9 
REMARK    4  A    between atoms: C6_9  and  O4_14 
REMARK    5  A    between atoms: N1_10  and  O3_12 
REMARK    6  A    between atoms: O4_14  and  C7_15 
REMARK    7  A    between atoms: C10_20  and  C11_21 
REMARK    8  A    between atoms: C12_22  and  C13_23 
REMARK    9  A    between atoms: C14_24  and  O7_25 
REMARK   10  A    between atoms: C16_28  and  O8_29 
REMARK   11  A    between atoms: N2_31  and  O9_32 
REMARK   12  A    between atoms: C17_34  and  O10_35 
REMARK   13  A    between atoms: C20_40  and  O11_41 
REMARK   14  A    between atoms: C23_45  and  C24_46 
REMARK   15  A    between atoms: C24_46  and  C25_47 
ROOT
HETATM    1  O11 UNL     1      -0.382   2.104  -0.418  1.00  0.00    -0.270 OA
HETATM    2  C21 UNL     1       0.563   2.584  -1.200  1.00  0.00     0.229 C 
HETATM    3  N4  UNL     1       1.368   3.029  -1.872  1.00  0.00    -0.164 NA
ENDROOT
BRANCH   1   4
HETATM    4  C20 UNL     1      -0.910   0.884  -0.098  1.00  0.00     0.101 C 
HETATM    5  C4  UNL     1      -1.469   0.157  -1.265  1.00  0.00     0.097 C 
HETATM    6  S1  UNL     1      -3.275   0.124  -1.270  1.00  0.00    -0.145 SA
HETATM    7  C5  UNL     1      -0.767  -1.114  -0.866  1.00  0.00     0.089 C 
HETATM    8  C3  UNL     1      -3.673   1.636  -0.378  1.00  0.00     0.151 C 
HETATM    9  C23 UNL     1      -3.110   1.560   1.000  1.00  0.00     0.013 C 
HETATM   10  C22 UNL     1      -1.783   0.928   1.124  1.00  0.00     0.048 C 
HETATM   11  C10 UNL     1       0.087  -0.233   0.028  1.00  0.00     0.058 C 
BRANCH   8  12
HETATM   12  C2  UNL     1      -5.054   2.065  -0.461  1.00  0.00     0.272 C 
HETATM   13  O2  UNL     1      -5.892   1.470  -1.172  1.00  0.00    -0.264 OA
BRANCH  12  14
HETATM   14  O1  UNL     1      -5.468   3.165   0.263  1.00  0.00    -0.326 OA
HETATM   15  C1  UNL     1      -6.791   3.635   0.227  1.00  0.00     0.213 C 
ENDBRANCH  12  14
ENDBRANCH   8  12
BRANCH   9  16
HETATM   16  C24 UNL     1      -4.111   0.968   1.958  1.00  0.00     0.021 C 
BRANCH  16  17
HETATM   17  C25 UNL     1      -4.573  -0.405   1.684  1.00  0.00     0.115 C 
HETATM   18 CL1  UNL     1      -5.768  -0.919   2.934  1.00  0.00    -0.130 Cl
ENDBRANCH  16  17
ENDBRANCH   9  16
BRANCH   7  19
HETATM   19  C6  UNL     1      -1.558  -2.166  -0.299  1.00  0.00     0.144 C 
HETATM   20  N1  UNL     1      -1.232  -2.914   0.646  1.00  0.00    -0.251 N 
ATOM     21  H1  UNL     1      -1.921  -3.612   0.927  1.00  0.00     0.196 HD
BRANCH  20  22
HETATM   22  O3  UNL     1      -0.078  -2.906   1.337  1.00  0.00    -0.288 OA
ATOM     23  H3  UNL     1       0.170  -3.475   2.056  1.00  0.00     0.244 HD
ENDBRANCH  20  22
BRANCH  19  24
HETATM   24  O4  UNL     1      -2.833  -2.386  -0.865  1.00  0.00    -0.320 OA
BRANCH  24  25
HETATM   25  C7  UNL     1      -3.508  -3.609  -0.812  1.00  0.00     0.254 A 
HETATM   26  C8  UNL     1      -2.693  -4.706  -1.496  1.00  0.00     0.221 A 
HETATM   27  O5  UNL     1      -2.787  -5.377  -0.233  1.00  0.00    -0.316 OA
HETATM   28  C9  UNL     1      -3.448  -4.364   0.434  1.00  0.00     0.290 A 
HETATM   29  O6  UNL     1      -3.821  -4.199   1.608  1.00  0.00    -0.262 OA
ENDBRANCH  24  25
ENDBRANCH  19  24
ENDBRANCH   7  19
BRANCH  11  30
HETATM   30  C11 UNL     1       1.446  -0.004  -0.555  1.00  0.00    -0.016 C 
HETATM   31  C12 UNL     1       2.472  -0.001   0.206  1.00  0.00     0.029 C 
BRANCH  31  32
HETATM   32  C13 UNL     1       3.857   0.202  -0.171  1.00  0.00     0.069 A 
HETATM   33  C14 UNL     1       4.440   0.425  -1.406  1.00  0.00     0.109 A 
HETATM   34  C15 UNL     1       5.834   0.560  -1.196  1.00  0.00     0.084 A 
HETATM   35  C16 UNL     1       7.061   0.776  -1.770  1.00  0.00     0.185 A 
HETATM   36  C18 UNL     1       6.065   0.419   0.140  1.00  0.00     0.106 A 
HETATM   37  N2  UNL     1       8.018   0.768  -0.818  1.00  0.00    -0.176 N 
HETATM   38  C17 UNL     1       7.432   0.552   0.358  1.00  0.00     0.198 A 
HETATM   39  N3  UNL     1       4.897   0.210   0.724  1.00  0.00    -0.345 N 
HETATM   40  C19 UNL     1       4.712   0.007   2.168  1.00  0.00     0.156 C 
BRANCH  33  41
HETATM   41  O7  UNL     1       3.894   0.515  -2.629  1.00  0.00    -0.357 OA
ATOM     42  H7  UNL     1       4.294   0.668  -3.477  1.00  0.00     0.217 HD
ENDBRANCH  33  41
BRANCH  35  43
HETATM   43  O8  UNL     1       7.303   0.974  -3.115  1.00  0.00    -0.344 OA
ATOM     44  H8  UNL     1       8.153   1.124  -3.513  1.00  0.00     0.219 HD
ENDBRANCH  35  43
BRANCH  37  45
HETATM   45  O9  UNL     1       9.381   0.956  -1.030  1.00  0.00    -0.279 OA
ATOM     46  H9  UNL     1      10.054   0.950  -0.360  1.00  0.00     0.245 HD
ENDBRANCH  37  45
BRANCH  38  47
HETATM   47  O10 UNL     1       8.029   0.466   1.596  1.00  0.00    -0.343 OA
ATOM     48  H10 UNL     1       7.611   0.312   2.435  1.00  0.00     0.219 HD
ENDBRANCH  38  47
ENDBRANCH  31  32
ENDBRANCH  11  30
ENDBRANCH   1   4
TORSDOF 15
