REMARK  14 active torsions:
REMARK  status: ('A' for Active; 'I' for Inactive)
REMARK       I    between atoms: C1_2  and  N1_3 
REMARK    1  A    between atoms: C1_2  and  C9_32 
REMARK    2  A    between atoms: N1_3  and  O2_5 
REMARK    3  A    between atoms: O2_5  and  S1_6 
REMARK    4  A    between atoms: S1_6  and  C2_9 
REMARK    5  A    between atoms: N3_12  and  C3_13 
REMARK    6  A    between atoms: C3_13  and  O5_14 
REMARK    7  A    between atoms: C3_13  and  O6_16 
REMARK    8  A    between atoms: C4_18  and  N4_19 
REMARK    9  A    between atoms: N4_19  and  N5_21 
REMARK   10  A    between atoms: N5_21  and  C5_23 
REMARK   11  A    between atoms: C5_23  and  S3_25 
REMARK   12  A    between atoms: S3_25  and  S4_26 
REMARK   13  A    between atoms: S4_26  and  C6_27 
REMARK   14  A    between atoms: C13_37  and  N6_38 
ROOT
HETATM    1  C2  UNL     1       0.116  -1.130  -0.470  1.00  0.00     0.218 A 
HETATM    2  N2  UNL     1       0.548   0.095  -0.514  1.00  0.00    -0.274 N 
ATOM      3  H2  UNL     1      -0.074   0.831  -0.850  1.00  0.00     0.189 HD
HETATM    4  N3  UNL     1       1.740   0.401  -0.144  1.00  0.00    -0.214 N 
HETATM    5  C4  UNL     1       2.525  -0.575   0.286  1.00  0.00     0.187 A 
HETATM    6  S6  UNL     1       1.485  -1.949   0.140  1.00  0.00    -0.017 SA
ENDROOT
BRANCH   1   7
HETATM    7  S1  UNL     1      -1.475  -1.796  -0.905  1.00  0.00     0.342 S 
HETATM    8  O3  UNL     1      -2.054  -1.042  -2.046  1.00  0.00    -0.189 OA
HETATM    9  O4  UNL     1      -1.217  -3.214  -1.324  1.00  0.00    -0.189 OA
BRANCH   7  10
HETATM   10  O2  UNL     1      -2.420  -1.807   0.454  1.00  0.00    -0.143 OA
BRANCH  10  11
HETATM   11  N1  UNL     1      -3.722  -1.547   0.230  1.00  0.00    -0.213 N 
HETATM   12  C1  UNL     1      -4.244  -0.335   0.745  1.00  0.00     0.276 C 
HETATM   13  O1  UNL     1      -3.469   0.455   1.390  1.00  0.00    -0.265 OA
ATOM     14  H1  UNL     1      -4.310  -2.198  -0.291  1.00  0.00     0.199 HD
BRANCH  12  15
HETATM   15  C9  UNL     1      -5.636   0.069   0.578  1.00  0.00     0.038 A 
HETATM   16  C10 UNL     1      -6.054   1.321   1.031  1.00  0.00     0.041 A 
HETATM   17  C11 UNL     1      -7.370   1.688   0.871  1.00  0.00     0.037 A 
HETATM   18 CL1  UNL     1      -7.891   3.259   1.439  1.00  0.00    -0.084 Cl
HETATM   19  C12 UNL     1      -8.289   0.838   0.268  1.00  0.00     0.059 A 
HETATM   20  C13 UNL     1      -7.898  -0.397  -0.183  1.00  0.00     0.105 A 
HETATM   21  C14 UNL     1      -6.566  -0.745  -0.011  1.00  0.00     0.053 A 
BRANCH  20  22
HETATM   22  N6  UNL     1      -8.834  -1.259  -0.799  1.00  0.00    -0.116 N 
HETATM   23  O7  UNL     1      -8.467  -2.363  -1.215  1.00  0.00    -0.532 OA
HETATM   24  O8  UNL     1     -10.145  -0.899  -0.951  1.00  0.00    -0.532 OA
ENDBRANCH  20  22
ENDBRANCH  12  15
ENDBRANCH  10  11
ENDBRANCH   7  10
ENDBRANCH   1   7
BRANCH   4  25
HETATM   25  C3  UNL     1       2.171   1.823  -0.179  1.00  0.00     0.390 C 
BRANCH  25  26
HETATM   26  O5  UNL     1       3.273   1.997  -0.950  1.00  0.00    -0.353 OA
ATOM     27  H5  UNL     1       3.548   2.906  -0.972  1.00  0.00     0.214 HD
ENDBRANCH  25  26
BRANCH  25  28
HETATM   28  O6  UNL     1       2.423   2.168   1.168  1.00  0.00    -0.353 OA
ATOM     29  H6  UNL     1       2.698   3.077   1.146  1.00  0.00     0.214 HD
ENDBRANCH  25  28
ENDBRANCH   4  25
BRANCH   5  30
HETATM   30  N4  UNL     1       3.773  -0.578   0.697  1.00  0.00    -0.277 N 
ATOM     31  H4  UNL     1       4.333   0.274   0.726  1.00  0.00     0.189 HD
BRANCH  30  32
HETATM   32  N5  UNL     1       4.292  -1.823   1.094  1.00  0.00    -0.282 N 
ATOM     33  H5  UNL     1       3.951  -2.168   1.991  1.00  0.00     0.188 HD
BRANCH  32  34
HETATM   34  C5  UNL     1       5.200  -2.654   0.448  1.00  0.00     0.163 C 
HETATM   35  S2  UNL     1       5.601  -4.114   1.189  1.00  0.00    -0.050 SA
BRANCH  34  36
HETATM   36  S3  UNL     1       6.029  -2.394  -1.096  1.00  0.00    -0.026 SA
BRANCH  36  37
HETATM   37  S4  UNL     1       5.824  -0.396  -1.737  1.00  0.00    -0.084 SA
BRANCH  37  38
HETATM   38  C6  UNL     1       7.215   0.606  -1.115  1.00  0.00     0.077 C 
HETATM   39  C7  UNL     1       7.295   0.768   0.368  1.00  0.00     0.090 C 
HETATM   40  S5  UNL     1       6.692   2.455   0.348  1.00  0.00    -0.167 SA
HETATM   41  C8  UNL     1       7.061   2.074  -1.393  1.00  0.00     0.090 C 
ENDBRANCH  37  38
ENDBRANCH  36  37
ENDBRANCH  34  36
ENDBRANCH  32  34
ENDBRANCH  30  32
ENDBRANCH   5  30
TORSDOF 14
