REMARK  13 active torsions:
REMARK  status: ('A' for Active; 'I' for Inactive)
REMARK    1  A    between atoms: C2_2  and  C3_3 
REMARK    2  A    between atoms: C8_10  and  C9_11 
REMARK    3  A    between atoms: C9_11  and  O3_12 
REMARK    4  A    between atoms: C10_14  and  O4_15 
REMARK    5  A    between atoms: C10_14  and  C11_17 
REMARK    6  A    between atoms: C11_17  and  C12_18 
REMARK    7  A    between atoms: C12_18  and  O6_20 
REMARK    8  A    between atoms: C15_24  and  C16_25 
REMARK    9  A    between atoms: C21_33  and  N1_34 
REMARK   10  A    between atoms: C22_38  and  O13_39 
REMARK   11  A    between atoms: C24_42  and  C25_43 
REMARK   12  A    between atoms: C25_43  and  O14_44 
REMARK   13  A    between atoms: N2_46  and  O15_48 
ROOT
HETATM    1  C3  UNL     1      -0.942   2.376  -2.245  1.00  0.00    -0.008 C 
HETATM    2  C4  UNL     1       0.135   2.743  -1.576  1.00  0.00     0.022 C 
HETATM    3  C5  UNL     1       0.290   4.187  -1.417  1.00  0.00     0.225 C 
HETATM    4  O1  UNL     1       0.208   4.864  -2.371  1.00  0.00    -0.284 OA
HETATM    5  C6  UNL     1       0.515   4.352   0.075  1.00  0.00     0.203 C 
HETATM    6  O2  UNL     1       1.073   5.250   0.565  1.00  0.00    -0.289 OA
HETATM    7  C7  UNL     1      -0.095   3.175   0.842  1.00  0.00     0.134 C 
HETATM    8  C8  UNL     1       0.412   1.771   0.462  1.00  0.00     0.140 C 
HETATM    9  O7  UNL     1      -0.708   0.835   0.288  1.00  0.00    -0.328 OA
HETATM   10  C14 UNL     1      -1.332   0.315  -0.877  1.00  0.00     0.123 A 
HETATM   11  C15 UNL     1      -1.958  -0.841  -1.081  1.00  0.00     0.149 A 
HETATM   12  O12 UNL     1      -2.345  -0.854  -2.412  1.00  0.00    -0.281 OA
HETATM   13  C22 UNL     1      -1.999   0.229  -3.030  1.00  0.00     0.198 A 
HETATM   14  C23 UNL     1      -1.383   0.982  -2.132  1.00  0.00     0.069 A 
HETATM   15  C24 UNL     1       1.130   1.848  -0.845  1.00  0.00     0.142 C 
ENDROOT
BRANCH  11  16
HETATM   16  C16 UNL     1      -2.290  -1.961  -0.226  1.00  0.00     0.149 A 
HETATM   17  O8  UNL     1      -2.057  -3.195  -0.753  1.00  0.00    -0.308 OA
HETATM   18  C17 UNL     1      -2.312  -4.294  -0.120  1.00  0.00     0.075 A 
HETATM   19  C18 UNL     1      -2.035  -5.637  -0.747  1.00  0.00     0.078 C 
HETATM   20  C19 UNL     1      -2.847  -4.335   1.150  1.00  0.00     0.116 A 
HETATM   21 CL1  UNL     1      -3.166  -5.852   1.948  1.00  0.00    -0.077 Cl
HETATM   22  C20 UNL     1      -3.107  -3.143   1.740  1.00  0.00     0.231 A 
HETATM   23  O9  UNL     1      -3.592  -3.098   2.891  1.00  0.00    -0.284 OA
HETATM   24  C21 UNL     1      -2.816  -1.964   1.018  1.00  0.00     0.191 A 
BRANCH  24  25
HETATM   25  N1  UNL     1      -3.245  -0.797   1.674  1.00  0.00    -0.108 N 
HETATM   26  O10 UNL     1      -2.654  -0.105   2.498  1.00  0.00    -0.532 OA
HETATM   27  O11 UNL     1      -4.569  -0.397   1.417  1.00  0.00    -0.532 OA
ENDBRANCH  24  25
ENDBRANCH  11  16
BRANCH  13  28
HETATM   28  O13 UNL     1      -2.117   0.725  -4.332  1.00  0.00    -0.340 OA
ATOM     29  H13 UNL     1      -1.863   1.520  -4.786  1.00  0.00     0.220 HD
ENDBRANCH  13  28
BRANCH   8  30
HETATM   30  C9  UNL     1       1.102   1.286   1.666  1.00  0.00     0.109 C 
HETATM   31  C10 UNL     1       1.370  -0.088   2.027  1.00  0.00     0.084 C 
BRANCH  30  32
HETATM   32  O3  UNL     1       2.220   2.095   2.014  1.00  0.00    -0.359 OA
ATOM     33  H3  UNL     1       2.666   1.782   2.792  1.00  0.00     0.217 HD
ENDBRANCH  30  32
BRANCH  31  34
HETATM   34  O4  UNL     1       0.472  -1.072   1.772  1.00  0.00    -0.362 OA
ATOM     35  H4  UNL     1       0.648  -1.975   2.009  1.00  0.00     0.217 HD
ENDBRANCH  31  34
BRANCH  31  36
HETATM   36  C11 UNL     1       2.753  -0.661   1.717  1.00  0.00     0.178 C 
BRANCH  36  37
HETATM   37  C12 UNL     1       2.842  -2.081   2.171  1.00  0.00     0.264 C 
HETATM   38  O5  UNL     1       1.886  -2.680   2.750  1.00  0.00    -0.265 OA
BRANCH  37  39
HETATM   39  O6  UNL     1       3.998  -2.833   1.980  1.00  0.00    -0.326 OA
HETATM   40  C13 UNL     1       4.060  -4.178   2.419  1.00  0.00     0.213 C 
ENDBRANCH  37  39
ENDBRANCH  36  37
ENDBRANCH  31  36
ENDBRANCH   8  30
BRANCH   1  41
HETATM   41  C2  UNL     1      -1.769   3.399  -2.747  1.00  0.00     0.003 C 
HETATM   42  C1  UNL     1      -2.881   3.348  -3.396  1.00  0.00     0.012 C 
ENDBRANCH   1  41
BRANCH  15  43
HETATM   43  C25 UNL     1       2.425   2.343  -1.081  1.00  0.00     0.147 C 
HETATM   44  N2  UNL     1       2.774   3.334  -1.865  1.00  0.00    -0.250 N 
ATOM     45  H2  UNL     1       2.022   3.806  -2.367  1.00  0.00     0.196 HD
BRANCH  43  46
HETATM   46  O14 UNL     1       3.558   1.823  -0.489  1.00  0.00    -0.347 OA
ATOM     47  H14 UNL     1       4.433   2.157  -0.648  1.00  0.00     0.219 HD
ENDBRANCH  43  46
BRANCH  44  48
HETATM   48  O15 UNL     1       4.018   3.791  -2.075  1.00  0.00    -0.288 OA
ATOM     49  H15 UNL     1       4.271   4.509  -2.643  1.00  0.00     0.244 HD
ENDBRANCH  44  48
ENDBRANCH  15  43
TORSDOF 13
