REMARK  4 active torsions:
REMARK  status: ('A' for Active; 'I' for Inactive)
REMARK    1  A    between atoms: C1_2  and  C2_3 
REMARK       I    between atoms: C1_2  and  N2_10 
REMARK    2  A    between atoms: C2_3  and  N1_4 
REMARK    3  A    between atoms: N2_10  and  C8_12 
REMARK    4  A    between atoms: C10_16  and  N4_17 
ROOT
HETATM    1  O1  UNL     1       0.160  -1.057  -1.381  1.00  0.00    -0.271 OA
HETATM    2  C1  UNL     1      -0.004  -1.194  -0.125  1.00  0.00     0.241 C 
HETATM    3  N2  UNL     1       0.954  -0.898   0.814  1.00  0.00    -0.306 N 
ATOM      4  H2  UNL     1       0.732  -1.134   1.781  1.00  0.00     0.171 HD
ENDROOT
BRANCH   3   5
HETATM    5  C8  UNL     1       2.124  -0.344   0.600  1.00  0.00     0.153 A 
HETATM    6  N3  UNL     1       2.701   0.072  -0.515  1.00  0.00    -0.344 N 
HETATM    7  C9  UNL     1       3.926   0.560  -0.458  1.00  0.00     0.134 A 
ATOM      8  H3  UNL     1       2.207   0.017  -1.406  1.00  0.00     0.167 HD
HETATM    9  C10 UNL     1       4.529   0.610   0.761  1.00  0.00     0.162 A 
HETATM   10  S1  UNL     1       3.343  -0.036   1.793  1.00  0.00    -0.028 SA
BRANCH   9  11
HETATM   11  N4  UNL     1       5.856   1.088   1.082  1.00  0.00    -0.107 N 
HETATM   12  O2  UNL     1       6.203   1.031   2.283  1.00  0.00    -0.531 OA
HETATM   13  O3  UNL     1       6.630   1.560   0.081  1.00  0.00    -0.531 OA
ENDBRANCH   9  11
ENDBRANCH   3   5
BRANCH   2  14
HETATM   14  C2  UNL     1      -1.346  -1.723   0.302  1.00  0.00     0.230 C 
BRANCH  14  15
HETATM   15  N1  UNL     1      -2.381  -0.725   0.142  1.00  0.00    -0.358 N 
HETATM   16  C3  UNL     1      -3.047  -0.605  -1.025  1.00  0.00     0.091 A 
HETATM   17  C4  UNL     1      -4.045   0.311  -1.233  1.00  0.00     0.017 A 
HETATM   18  C5  UNL     1      -4.355   1.131  -0.169  1.00  0.00     0.003 A 
HETATM   19  C6  UNL     1      -3.686   1.025   1.036  1.00  0.00     0.017 A 
HETATM   20  C7  UNL     1      -2.692   0.078   1.165  1.00  0.00     0.091 A 
ENDBRANCH  14  15
ENDBRANCH   2  14
TORSDOF 4
