REMARK  3 active torsions:
REMARK  status: ('A' for Active; 'I' for Inactive)
REMARK       I    between atoms: C1_2  and  N1_3 
REMARK    1  A    between atoms: C1_2  and  C8_12 
REMARK    2  A    between atoms: N1_3  and  C2_5 
REMARK    3  A    between atoms: C2_5  and  C3_6 
ROOT
HETATM    1  O1  UNL     1       0.308   1.489   0.167  1.00  0.00    -0.273 OA
HETATM    2  C1  UNL     1       0.643   0.534  -0.551  1.00  0.00     0.221 C 
HETATM    3  N1  UNL     1      -0.248  -0.241  -1.280  1.00  0.00    -0.360 N 
ATOM      4  H1  UNL     1       0.180  -0.980  -1.838  1.00  0.00     0.162 HD
ENDROOT
BRANCH   2   5
HETATM    5  C8  UNL     1       2.132   0.251  -0.589  1.00  0.00     0.079 C 
HETATM    6  C9  UNL     1       2.823   1.292   0.209  1.00  0.00     0.029 C 
HETATM    7  C10 UNL     1       3.946   0.739   1.095  1.00  0.00     0.141 C 
HETATM    8  S1  UNL     1       4.849  -0.384   0.020  1.00  0.00     0.144 S 
HETATM    9  O3  UNL     1       5.113   0.332  -1.253  1.00  0.00    -0.228 OA
HETATM   10  O4  UNL     1       6.072  -0.904   0.689  1.00  0.00    -0.228 OA
HETATM   11  C11 UNL     1       3.681  -1.707  -0.323  1.00  0.00     0.141 C 
HETATM   12  C12 UNL     1       2.305  -1.146  -0.046  1.00  0.00     0.029 C 
ENDBRANCH   2   5
BRANCH   3  13
HETATM   13  C2  UNL     1      -1.654  -0.164  -1.369  1.00  0.00     0.127 C 
BRANCH  13  14
HETATM   14  C3  UNL     1      -2.496  -0.455  -0.195  1.00  0.00     0.007 C 
HETATM   15  C4  UNL     1      -3.962  -0.307  -0.671  1.00  0.00     0.032 C 
HETATM   16  C5  UNL     1      -4.574   0.935  -0.098  1.00  0.00     0.168 C 
HETATM   17  O2  UNL     1      -4.747   0.763   1.281  1.00  0.00    -0.391 OA
HETATM   18  C6  UNL     1      -3.666   0.093   1.847  1.00  0.00     0.168 C 
HETATM   19  C7  UNL     1      -2.385   0.386   1.020  1.00  0.00     0.032 C 
ENDBRANCH  13  14
ENDBRANCH   3  13
TORSDOF 3
