REMARK  3 active torsions:
REMARK  status: ('A' for Active; 'I' for Inactive)
REMARK       I    between atoms: C1_2  and  N1_3 
REMARK    1  A    between atoms: C1_2  and  C7_11 
REMARK    2  A    between atoms: N1_3  and  C2_5 
REMARK    3  A    between atoms: C10_15  and  N2_16 
ROOT
HETATM    1  C7  UNL     1      -0.801  -1.085   0.067  1.00  0.00     0.137 C 
HETATM    2  C8  UNL     1      -0.619  -2.041   1.239  1.00  0.00     0.184 C 
HETATM    3  O3  UNL     1      -1.565  -1.705   2.178  1.00  0.00    -0.388 OA
HETATM    4  C9  UNL     1      -2.700  -1.446   1.410  1.00  0.00     0.204 C 
HETATM    5  C10 UNL     1      -2.173  -0.523   0.333  1.00  0.00     0.261 C 
ENDROOT
BRANCH   1   6
HETATM    6  C1  UNL     1       0.266  -0.065   0.126  1.00  0.00     0.226 C 
HETATM    7  O1  UNL     1      -0.031   1.146   0.227  1.00  0.00    -0.273 OA
HETATM    8  N1  UNL     1       1.613  -0.447   0.069  1.00  0.00    -0.356 N 
ATOM      9  H1  UNL     1       1.827  -1.441  -0.014  1.00  0.00     0.162 HD
BRANCH   8  10
HETATM   10  C2  UNL     1       2.723   0.491   0.121  1.00  0.00     0.088 C 
HETATM   11  C3  UNL     1       3.538   0.270  -1.138  1.00  0.00     0.051 C 
HETATM   12  C4  UNL     1       4.895   0.921  -0.979  1.00  0.00     0.169 C 
HETATM   13  O2  UNL     1       5.550   0.275   0.058  1.00  0.00    -0.391 OA
HETATM   14  C5  UNL     1       4.955   0.610   1.257  1.00  0.00     0.169 C 
HETATM   15  C6  UNL     1       3.528   0.134   1.350  1.00  0.00     0.051 C 
ENDBRANCH   8  10
ENDBRANCH   1   6
BRANCH   5  16
HETATM   16  N2  UNL     1      -3.047  -0.607  -0.803  1.00  0.00     0.096 N 
HETATM   17  C11 UNL     1      -2.577   0.159  -1.936  1.00  0.00     0.273 C 
HETATM   18  C12 UNL     1      -3.152   1.552  -1.704  1.00  0.00     0.032 C 
HETATM   19  C13 UNL     1      -4.540   1.216  -1.203  1.00  0.00     0.032 C 
HETATM   20  C14 UNL     1      -4.328  -0.049  -0.436  1.00  0.00     0.273 C 
ENDBRANCH   5  16
TORSDOF 3
