REMARK  6 active torsions:
REMARK  status: ('A' for Active; 'I' for Inactive)
REMARK    1  A    between atoms: N1_1  and  C1_4 
REMARK    2  A    between atoms: C2_7  and  N3_8 
REMARK    3  A    between atoms: C3_10  and  C4_11 
REMARK    4  A    between atoms: C4_11  and  N4_12 
REMARK    5  A    between atoms: C4_11  and  C6_17 
REMARK    6  A    between atoms: C7_20  and  N7_21 
ROOT
HETATM    1  C1  UNL     1      -3.722   0.423  -1.025  1.00  0.00     0.680 A 
HETATM    2  N2  UNL     1      -2.549   0.865  -0.524  1.00  0.00    -0.174 N 
ATOM      3  H2  UNL     1      -2.249   1.820  -0.721  1.00  0.00     0.186 HD
HETATM    4  C2  UNL     1      -1.766   0.068   0.232  1.00  0.00     0.159 A 
HETATM    5  C7  UNL     1      -2.205  -1.221   0.477  1.00  0.00     0.215 A 
HETATM    6  C8  UNL     1      -3.389  -1.665  -0.029  1.00  0.00     0.296 A 
HETATM    7  O5  UNL     1      -3.767  -2.844   0.208  1.00  0.00    -0.265 OA
HETATM    8  N8  UNL     1      -4.147  -0.836  -0.783  1.00  0.00    -0.154 N 
ATOM      9  H8  UNL     1      -5.035  -1.160  -1.167  1.00  0.00     0.187 HD
ENDROOT
BRANCH   4  10
HETATM   10  N3  UNL     1      -0.557   0.562   0.734  1.00  0.00    -0.351 N 
HETATM   11  C3  UNL     1       0.573   0.564   0.165  1.00  0.00     0.098 C 
ATOM     12  H3  UNL     1      -0.591   0.968   1.669  1.00  0.00     0.166 HD
BRANCH  11  13
HETATM   13  C4  UNL     1       1.758   1.129   0.839  1.00  0.00     0.224 C 
BRANCH  13  14
HETATM   14  N4  UNL     1       3.005   0.745   0.216  1.00  0.00    -0.348 N 
HETATM   15  C5  UNL     1       3.358  -0.488   0.069  1.00  0.00     0.198 C 
HETATM   16  N5  UNL     1       4.611  -0.774  -0.559  1.00  0.00    -0.067 NA
HETATM   17  N6  UNL     1       2.575  -1.587   0.494  1.00  0.00    -0.067 NA
ATOM     18  H4  UNL     1       3.630   1.477  -0.121  1.00  0.00     0.163 HD
ENDBRANCH  13  14
BRANCH  13  19
HETATM   19  C6  UNL     1       1.662   2.618   0.787  1.00  0.00     0.202 C 
HETATM   20  O1  UNL     1       0.660   3.211   1.264  1.00  0.00    -0.646 OA
HETATM   21  O2  UNL     1       2.662   3.393   0.217  1.00  0.00    -0.646 OA
ENDBRANCH  13  19
ENDBRANCH  11  13
ENDBRANCH   4  10
BRANCH   5  22
HETATM   22  N7  UNL     1      -1.384  -2.054   1.269  1.00  0.00    -0.106 N 
HETATM   23  O3  UNL     1      -1.261  -1.919   2.492  1.00  0.00    -0.531 OA
HETATM   24  O4  UNL     1      -0.695  -3.058   0.631  1.00  0.00    -0.531 OA
ENDBRANCH   5  22
BRANCH   1  25
HETATM   25  N1  UNL     1      -4.493   1.156  -1.749  1.00  0.00    -0.234 N 
ATOM     26  H12 UNL     1      -4.172   2.107  -1.932  1.00  0.00     0.174 HD
ATOM     27  H11 UNL     1      -5.379   0.822  -2.128  1.00  0.00     0.174 HD
ENDBRANCH   1  25
TORSDOF 6
