REMARK  10 active torsions:
REMARK  status: ('A' for Active; 'I' for Inactive)
REMARK    1  A    between atoms: N1_1  and  C1_4 
REMARK    2  A    between atoms: C2_7  and  C3_8 
REMARK    3  A    between atoms: C3_8  and  C4_9 
REMARK    4  A    between atoms: C4_9  and  C5_10 
REMARK    5  A    between atoms: C5_10  and  C6_11 
REMARK    6  A    between atoms: C6_11  and  N3_12 
REMARK    7  A    between atoms: C9_25  and  O3_26 
REMARK    8  A    between atoms: O3_26  and  C10_27 
REMARK    9  A    between atoms: C10_27  and  N7_28 
REMARK   10  A    between atoms: C10_27  and  N8_32 
ROOT
HETATM    1  C1  UNL     1       0.533   0.179  -0.559  1.00  0.00     0.134 A 
HETATM    2  N2  UNL     1      -0.800  -0.061  -0.745  1.00  0.00    -0.329 N 
ATOM      3  H2  UNL     1      -1.434   0.728  -0.873  1.00  0.00     0.168 HD
HETATM    4  C2  UNL     1      -1.296  -1.307  -0.763  1.00  0.00     0.098 A 
HETATM    5  N4  UNL     1      -0.390  -2.312  -0.587  1.00  0.00    -0.279 N 
ATOM      6  H4  UNL     1      -0.727  -3.275  -0.595  1.00  0.00     0.189 HD
HETATM    7  N5  UNL     1       0.903  -2.101  -0.406  1.00  0.00    -0.206 N 
HETATM    8  C7  UNL     1       1.765  -3.139  -0.234  1.00  0.00     0.335 A 
HETATM    9  O1  UNL     1       1.293  -4.308  -0.253  1.00  0.00    -0.260 OA
HETATM   10  C8  UNL     1       3.108  -2.909  -0.046  1.00  0.00     0.317 A 
HETATM   11  O2  UNL     1       3.928  -3.867   0.116  1.00  0.00    -0.262 OA
HETATM   12  N6  UNL     1       3.632  -1.664  -0.023  1.00  0.00    -0.297 N 
ATOM     13  H6  UNL     1       4.630  -1.509   0.117  1.00  0.00     0.171 HD
HETATM   14  C9  UNL     1       2.780  -0.639  -0.192  1.00  0.00     0.182 A 
HETATM   15  C11 UNL     1       1.412  -0.867  -0.384  1.00  0.00     0.154 A 
ENDROOT
BRANCH  14  16
HETATM   16  O3  UNL     1       3.181   0.664  -0.190  1.00  0.00    -0.278 OA
BRANCH  16  17
HETATM   17  C10 UNL     1       4.430   1.225  -0.030  1.00  0.00     0.525 C 
BRANCH  17  18
HETATM   18  N7  UNL     1       4.846   2.019  -1.188  1.00  0.00    -0.027 N 
ATOM     19  H73 UNL     1       4.800   1.468  -2.045  1.00  0.00     0.279 HD
ATOM     20  H72 UNL     1       4.151   2.731  -1.412  1.00  0.00     0.279 HD
ATOM     21  H71 UNL     1       5.770   2.434  -1.070  1.00  0.00     0.279 HD
ENDBRANCH  17  18
BRANCH  17  22
HETATM   22  N8  UNL     1       4.526   2.125   1.105  1.00  0.00    -0.027 N 
ATOM     23  H83 UNL     1       3.811   2.850   1.050  1.00  0.00     0.279 HD
ATOM     24  H82 UNL     1       4.230   1.657   1.961  1.00  0.00     0.279 HD
ATOM     25  H81 UNL     1       5.450   2.540   1.223  1.00  0.00     0.279 HD
ENDBRANCH  17  22
ENDBRANCH  16  17
ENDBRANCH  14  16
BRANCH   1  26
HETATM   26  N1  UNL     1       0.991   1.380  -0.544  1.00  0.00    -0.383 N 
ATOM     27  H12 UNL     1       0.340   2.155  -0.674  1.00  0.00     0.157 HD
ATOM     28  H11 UNL     1       1.986   1.559  -0.405  1.00  0.00     0.157 HD
ENDBRANCH   1  26
BRANCH   4  29
HETATM   29  C3  UNL     1      -2.721  -1.661  -0.928  1.00  0.00     0.078 C 
BRANCH  29  30
HETATM   30  C4  UNL     1      -3.691  -0.550  -0.856  1.00  0.00     0.009 C 
BRANCH  30  31
HETATM   31  C5  UNL     1      -3.791   0.179   0.438  1.00  0.00     0.027 C 
BRANCH  31  32
HETATM   32  C6  UNL     1      -4.843   1.281   0.239  1.00  0.00     0.229 C 
BRANCH  32  33
HETATM   33  N3  UNL     1      -4.944   1.995   1.498  1.00  0.00    -0.079 N 
ATOM     34  H33 UNL     1      -5.145   1.386   2.291  1.00  0.00     0.274 HD
ATOM     35  H32 UNL     1      -4.048   2.350   1.832  1.00  0.00     0.274 HD
ATOM     36  H31 UNL     1      -5.642   2.727   1.366  1.00  0.00     0.274 HD
ENDBRANCH  32  33
ENDBRANCH  31  32
ENDBRANCH  30  31
ENDBRANCH  29  30
ENDBRANCH   4  29
TORSDOF 10
