REMARK  10 active torsions:
REMARK  status: ('A' for Active; 'I' for Inactive)
REMARK    1  A    between atoms: C2_3  and  N2_4 
REMARK    2  A    between atoms: N2_4  and  C3_6 
REMARK    3  A    between atoms: C4_9  and  N4_10 
REMARK    4  A    between atoms: N4_10  and  C5_11 
REMARK    5  A    between atoms: N4_10  and  C7_15 
REMARK    6  A    between atoms: C5_11  and  C6_12 
REMARK    7  A    between atoms: C6_12  and  O1_13 
REMARK    8  A    between atoms: C7_15  and  C8_16 
REMARK    9  A    between atoms: C8_16  and  O2_17 
REMARK   10  A    between atoms: C10_20  and  N5_21 
ROOT
HETATM    1  N1  UNL     1      -5.015   2.525   2.715  1.00  0.00    -0.191 NA
HETATM    2  C1  UNL     1      -4.316   2.445   1.808  1.00  0.00     0.105 C 
HETATM    3  C2  UNL     1      -3.425   2.372   0.671  1.00  0.00     0.200 C 
ENDROOT
BRANCH   3   4
HETATM    4  N2  UNL     1      -3.186   1.069   0.158  1.00  0.00    -0.192 N 
ATOM      5  H2  UNL     1      -4.006   0.541  -0.140  1.00  0.00     0.184 HD
BRANCH   4   6
HETATM    6  C3  UNL     1      -2.048   0.481   0.028  1.00  0.00     0.695 A 
HETATM    7  N3  UNL     1      -0.816   0.900   0.324  1.00  0.00    -0.173 N 
HETATM    8  C4  UNL     1       0.124  -0.023   0.011  1.00  0.00     0.151 A 
ATOM      9  H3  UNL     1      -0.607   1.809   0.737  1.00  0.00     0.186 HD
HETATM   10  C9  UNL     1      -0.609  -1.085  -0.520  1.00  0.00     0.151 A 
HETATM   11  C10 UNL     1      -0.192  -2.302  -1.007  1.00  0.00     0.146 A 
HETATM   12  N8  UNL     1      -1.908  -0.744  -0.491  1.00  0.00    -0.087 N 
HETATM   13  N6  UNL     1      -1.131  -3.150  -1.458  1.00  0.00    -0.280 N 
HETATM   14  N7  UNL     1      -2.431  -2.829  -1.437  1.00  0.00    -0.249 N 
ATOM     15  H6  UNL     1      -0.848  -4.059  -1.825  1.00  0.00     0.188 HD
HETATM   16  C11 UNL     1      -2.817  -1.646  -0.963  1.00  0.00     0.360 A 
ATOM     17  H7  UNL     1      -3.125  -3.491  -1.784  1.00  0.00     0.192 HD
HETATM   18  O3  UNL     1      -4.028  -1.347  -0.944  1.00  0.00    -0.244 OA
BRANCH   8  19
HETATM   19  N4  UNL     1       1.529   0.041   0.201  1.00  0.00    -0.361 N 
BRANCH  19  20
HETATM   20  C5  UNL     1       2.332   0.832  -0.687  1.00  0.00     0.150 C 
BRANCH  20  21
HETATM   21  C6  UNL     1       1.446   1.505  -1.697  1.00  0.00     0.183 C 
BRANCH  21  22
HETATM   22  O1  UNL     1       2.179   2.291  -2.594  1.00  0.00    -0.399 OA
ATOM     23  H1  UNL     1       1.619   2.716  -3.233  1.00  0.00     0.209 HD
ENDBRANCH  21  22
ENDBRANCH  20  21
ENDBRANCH  19  20
BRANCH  19  24
HETATM   24  C7  UNL     1       2.211  -0.678   1.256  1.00  0.00     0.150 C 
BRANCH  24  25
HETATM   25  C8  UNL     1       2.795   0.205   2.320  1.00  0.00     0.183 C 
BRANCH  25  26
HETATM   26  O2  UNL     1       3.442  -0.540   3.310  1.00  0.00    -0.399 OA
ATOM     27  H2  UNL     1       3.812   0.019   3.983  1.00  0.00     0.209 HD
ENDBRANCH  25  26
ENDBRANCH  24  25
ENDBRANCH  19  24
ENDBRANCH   8  19
BRANCH  11  28
HETATM   28  N5  UNL     1       1.033  -2.668  -1.050  1.00  0.00    -0.382 N 
ATOM     29  H52 UNL     1       1.746  -2.024  -0.708  1.00  0.00     0.157 HD
ATOM     30  H51 UNL     1       1.342  -3.570  -1.411  1.00  0.00     0.157 HD
ENDBRANCH  11  28
ENDBRANCH   4   6
ENDBRANCH   3   4
TORSDOF 10
