REMARK  6 active torsions:
REMARK  status: ('A' for Active; 'I' for Inactive)
REMARK       I    between atoms: N1_1  and  C1_5 
REMARK       I    between atoms: C1_5  and  N2_6 
REMARK       I    between atoms: C1_5  and  N3_10 
REMARK       I    between atoms: N3_10  and  C2_12 
REMARK    1  A    between atoms: C2_12  and  C3_14 
REMARK    2  A    between atoms: C3_14  and  N4_15 
REMARK    3  A    between atoms: C3_14  and  C4_19 
REMARK    4  A    between atoms: C4_19  and  C5_20 
REMARK    5  A    between atoms: N5_22  and  N6_23 
REMARK       I    between atoms: N6_23  and  C7_25 
REMARK    6  A    between atoms: C7_25  and  C8_27 
ROOT
HETATM    1  C3  UNL     1      -1.670   0.687   0.276  1.00  0.00     0.280 C 
ENDROOT
BRANCH   1   2
HETATM    2  C2  UNL     1      -2.847   1.564   0.477  1.00  0.00     0.251 C 
HETATM    3  N3  UNL     1      -4.150   1.025   0.540  1.00  0.00    -0.310 N 
HETATM    4  C1  UNL     1      -5.337   1.829   0.735  1.00  0.00     0.482 C 
ATOM      5  H3  UNL     1      -4.261   0.016   0.443  1.00  0.00     0.166 HD
HETATM    6  N1  UNL     1      -6.167   1.698  -0.471  1.00  0.00    -0.033 N 
HETATM    7  N2  UNL     1      -6.067   1.404   1.908  1.00  0.00    -0.033 N 
ATOM      8  H13 UNL     1      -6.533   0.752  -0.576  1.00  0.00     0.278 HD
ATOM      9  H12 UNL     1      -7.052   2.196  -0.376  1.00  0.00     0.278 HD
ATOM     10  H11 UNL     1      -5.652   1.998  -1.299  1.00  0.00     0.278 HD
ATOM     11  H23 UNL     1      -6.952   1.902   2.003  1.00  0.00     0.278 HD
ATOM     12  H22 UNL     1      -6.433   0.458   1.803  1.00  0.00     0.278 HD
ATOM     13  H21 UNL     1      -5.491   1.495   2.745  1.00  0.00     0.278 HD
HETATM   14  O1  UNL     1      -2.653   2.799   0.590  1.00  0.00    -0.271 OA
ENDBRANCH   1   2
BRANCH   1  15
HETATM   15  N4  UNL     1      -2.115  -0.687   0.173  1.00  0.00    -0.066 N 
ATOM     16  H43 UNL     1      -2.679  -0.973   0.973  1.00  0.00     0.275 HD
ATOM     17  H42 UNL     1      -2.821  -0.813  -0.553  1.00  0.00     0.275 HD
ATOM     18  H41 UNL     1      -1.305  -1.291   0.035  1.00  0.00     0.275 HD
ENDBRANCH   1  15
BRANCH   1  19
HETATM   19  C4  UNL     1      -0.872   1.098  -0.949  1.00  0.00     0.101 C 
BRANCH  19  20
HETATM   20  C5  UNL     1       0.296   0.148  -1.063  1.00  0.00     0.034 A 
HETATM   21  C6  UNL     1       1.540   0.300  -0.507  1.00  0.00     0.146 A 
HETATM   22  N5  UNL     1       2.316  -0.793  -0.852  1.00  0.00    -0.212 N 
HETATM   23  C11 UNL     1       1.539  -1.563  -1.593  1.00  0.00     0.345 A 
HETATM   24  O3  UNL     1       1.863  -2.675  -2.120  1.00  0.00    -0.245 OA
HETATM   25  N7  UNL     1       0.312  -1.001  -1.728  1.00  0.00    -0.309 N 
ATOM     26  H7  UNL     1      -0.469  -1.395  -2.253  1.00  0.00     0.170 HD
BRANCH  22  27
HETATM   27  N6  UNL     1       3.626  -0.885  -0.412  1.00  0.00    -0.259 N 
HETATM   28  C7  UNL     1       4.555  -1.894  -0.651  1.00  0.00     0.240 C 
HETATM   29  O2  UNL     1       4.330  -2.910  -1.329  1.00  0.00    -0.271 OA
ATOM     30  H6  UNL     1       3.954  -0.110   0.164  1.00  0.00     0.190 HD
BRANCH  28  31
HETATM   31  C8  UNL     1       5.925  -1.721  -0.034  1.00  0.00     0.080 A 
HETATM   32  C9  UNL     1       5.861  -1.194   1.384  1.00  0.00     0.015 A 
HETATM   33  C10 UNL     1       6.438  -0.392   0.291  1.00  0.00     0.015 A 
ENDBRANCH  28  31
ENDBRANCH  22  27
ENDBRANCH  19  20
ENDBRANCH   1  19
TORSDOF 6
