REMARK  9 active torsions:
REMARK  status: ('A' for Active; 'I' for Inactive)
REMARK    1  A    between atoms: C2_2  and  C3_3 
REMARK    2  A    between atoms: C3_3  and  N1_4 
REMARK    3  A    between atoms: N1_4  and  C4_7 
REMARK    4  A    between atoms: C4_7  and  C5_8 
REMARK    5  A    between atoms: C5_8  and  N2_9 
REMARK    6  A    between atoms: C7_12  and  C8_13 
REMARK    7  A    between atoms: C8_13  and  N3_14 
REMARK    8  A    between atoms: C8_13  and  O2_18 
REMARK    9  A    between atoms: C11_27  and  N6_28 
ROOT
HETATM    1  N2  UNL     1      -0.563   0.034  -0.314  1.00  0.00    -0.294 N 
HETATM    2  C6  UNL     1      -1.381   1.081  -0.019  1.00  0.00     0.276 A 
HETATM    3  O1  UNL     1      -0.827   2.203   0.115  1.00  0.00    -0.266 OA
HETATM    4  C7  UNL     1      -2.744   0.945   0.129  1.00  0.00     0.135 A 
HETATM    5  N4  UNL     1      -3.264  -0.285  -0.030  1.00  0.00    -0.344 N 
ATOM      6  H4  UNL     1      -4.270  -0.418   0.072  1.00  0.00     0.166 HD
HETATM    7  C9  UNL     1      -2.486  -1.343  -0.321  1.00  0.00     0.147 A 
HETATM    8  C10 UNL     1      -2.988  -2.615  -0.487  1.00  0.00     0.290 A 
HETATM    9  O3  UNL     1      -4.214  -2.773  -0.361  1.00  0.00    -0.265 OA
HETATM   10  N5  UNL     1      -2.230  -3.684  -0.777  1.00  0.00    -0.154 N 
ATOM     11  H5  UNL     1      -2.648  -4.607  -0.892  1.00  0.00     0.187 HD
HETATM   12  C11 UNL     1      -0.906  -3.504  -0.912  1.00  0.00     0.680 A 
HETATM   13  N7  UNL     1      -0.359  -2.278  -0.760  1.00  0.00    -0.174 N 
ATOM     14  H7  UNL     1       0.649  -2.168  -0.868  1.00  0.00     0.186 HD
HETATM   15  C12 UNL     1      -1.104  -1.202  -0.471  1.00  0.00     0.158 A 
ENDROOT
BRANCH   1  16
HETATM   16  C5  UNL     1       0.853   0.210  -0.458  1.00  0.00     0.161 C 
BRANCH  16  17
HETATM   17  C4  UNL     1       1.582  -0.003   0.867  1.00  0.00     0.253 C 
BRANCH  17  18
HETATM   18  N1  UNL     1       3.008   0.165   0.706  1.00  0.00    -0.071 N 
ATOM     19  H12 UNL     1       3.368  -0.469  -0.008  1.00  0.00     0.277 HD
ATOM     20  H11 UNL     1       3.508  -0.194   1.520  1.00  0.00     0.277 HD
BRANCH  18  21
HETATM   21  C3  UNL     1       3.402   1.530   0.424  1.00  0.00     0.259 C 
BRANCH  21  22
HETATM   22  C2  UNL     1       4.876   1.597   0.285  1.00  0.00    -0.010 C 
HETATM   23  C1  UNL     1       5.647   0.530   0.415  1.00  0.00     0.008 C 
ENDBRANCH  21  22
ENDBRANCH  18  21
ENDBRANCH  17  18
ENDBRANCH  16  17
ENDBRANCH   1  16
BRANCH   4  24
HETATM   24  C8  UNL     1      -3.586   2.123   0.446  1.00  0.00     0.373 C 
BRANCH  24  25
HETATM   25  N3  UNL     1      -3.194   3.233  -0.395  1.00  0.00    -0.047 N 
ATOM     26  H33 UNL     1      -2.198   3.440  -0.322  1.00  0.00     0.277 HD
ATOM     27  H32 UNL     1      -3.221   2.995  -1.386  1.00  0.00     0.277 HD
ATOM     28  H31 UNL     1      -3.773   4.044  -0.177  1.00  0.00     0.277 HD
ENDBRANCH  24  25
BRANCH  24  29
HETATM   29  O2  UNL     1      -3.310   2.515   1.760  1.00  0.00    -0.365 OA
ATOM     30  H2  UNL     1      -3.850   3.270   1.963  1.00  0.00     0.212 HD
ENDBRANCH  24  29
ENDBRANCH   4  24
BRANCH  12  31
HETATM   31  N6  UNL     1      -0.176  -4.519  -1.188  1.00  0.00    -0.234 N 
ATOM     32  H62 UNL     1      -0.589  -5.445  -1.303  1.00  0.00     0.174 HD
ATOM     33  H61 UNL     1       0.830  -4.382  -1.291  1.00  0.00     0.174 HD
ENDBRANCH  12  31
TORSDOF 9
