REMARK  11 active torsions:
REMARK  status: ('A' for Active; 'I' for Inactive)
REMARK    1  A    between atoms: C2_2  and  C3_3 
REMARK    2  A    between atoms: C10_10  and  C11_11 
REMARK    3  A    between atoms: C11_11  and  C12_12 
REMARK    4  A    between atoms: C12_12  and  C13_13 
REMARK    5  A    between atoms: C13_13  and  C14_14 
REMARK    6  A    between atoms: C14_14  and  O1_15 
REMARK    7  A    between atoms: N1_17  and  O2_19 
REMARK    8  A    between atoms: C15_21  and  O3_22 
REMARK    9  A    between atoms: O3_22  and  C16_23 
REMARK   10  A    between atoms: C16_23  and  C17_25 
REMARK   11  A    between atoms: C21_32  and  O5_33 
ROOT
HETATM    1  C3  UNL     1      -3.255   3.084  -0.148  1.00  0.00     0.030 C 
HETATM    2  C4  UNL     1      -2.916   3.075   1.276  1.00  0.00    -0.022 C 
HETATM    3  C5  UNL     1      -2.210   2.154   1.858  1.00  0.00    -0.022 C 
HETATM    4  C6  UNL     1      -1.653   0.988   1.156  1.00  0.00     0.043 C 
HETATM    5  C7  UNL     1      -2.347   0.761  -0.139  1.00  0.00    -0.003 C 
HETATM    6  C8  UNL     1      -2.555   2.017  -0.924  1.00  0.00     0.017 C 
HETATM    7  C9  UNL     1      -1.725  -0.309  -1.004  1.00  0.00     0.012 C 
HETATM    8  C10 UNL     1      -0.345  -0.687  -0.656  1.00  0.00     0.018 C 
HETATM    9  C15 UNL     1       0.407   0.559  -0.194  1.00  0.00     0.165 C 
HETATM   10  C21 UNL     1      -0.169   1.216   1.005  1.00  0.00     0.156 C 
ENDROOT
BRANCH   8  11
HETATM   11  C11 UNL     1      -0.026  -1.868   0.153  1.00  0.00     0.007 C 
BRANCH  11  12
HETATM   12  C12 UNL     1      -0.316  -3.232  -0.243  1.00  0.00     0.008 C 
BRANCH  12  13
HETATM   13  C13 UNL     1      -1.700  -3.694  -0.424  1.00  0.00     0.086 C 
BRANCH  13  14
HETATM   14  C14 UNL     1      -2.575  -3.645   0.758  1.00  0.00     0.135 C 
HETATM   15  N1  UNL     1      -3.175  -4.754   1.122  1.00  0.00    -0.251 N 
ATOM     16  H1  UNL     1      -3.008  -5.597   0.572  1.00  0.00     0.196 HD
BRANCH  14  17
HETATM   17  O1  UNL     1      -2.825  -2.531   1.526  1.00  0.00    -0.348 OA
ATOM     18  H1  UNL     1      -3.390  -2.499   2.289  1.00  0.00     0.219 HD
ENDBRANCH  14  17
BRANCH  15  19
HETATM   19  O2  UNL     1      -4.004  -4.837   2.190  1.00  0.00    -0.288 OA
ATOM     20  H2  UNL     1      -4.438  -5.640   2.453  1.00  0.00     0.244 HD
ENDBRANCH  15  19
ENDBRANCH  13  14
ENDBRANCH  12  13
ENDBRANCH  11  12
ENDBRANCH   8  11
BRANCH   9  21
HETATM   21  O3  UNL     1       1.723   0.108   0.102  1.00  0.00    -0.311 OA
BRANCH  21  22
HETATM   22  C16 UNL     1       2.828   0.521  -0.602  1.00  0.00     0.290 C 
HETATM   23  O4  UNL     1       2.665   1.332  -1.546  1.00  0.00    -0.263 OA
BRANCH  22  24
HETATM   24  C17 UNL     1       4.160   0.023  -0.254  1.00  0.00     0.284 C 
HETATM   25  C18 UNL     1       4.332  -1.454  -0.455  1.00  0.00     0.045 C 
HETATM   26  C19 UNL     1       5.853  -1.577  -0.535  1.00  0.00     0.030 C 
HETATM   27  C20 UNL     1       6.350  -0.148  -0.736  1.00  0.00     0.233 C 
HETATM   28  N2  UNL     1       5.168   0.596  -1.132  1.00  0.00    -0.062 N 
ATOM     29  H22 UNL     1       4.947   0.566  -2.127  1.00  0.00     0.278 HD
ATOM     30  H21 UNL     1       5.257   1.611  -1.089  1.00  0.00     0.278 HD
ENDBRANCH  22  24
ENDBRANCH  21  22
ENDBRANCH   9  21
BRANCH  10  31
HETATM   31  O5  UNL     1       0.048   2.611   1.003  1.00  0.00    -0.392 OA
ATOM     32  H5  UNL     1       0.982   2.755   0.908  1.00  0.00     0.210 HD
ENDBRANCH  10  31
BRANCH   1  33
HETATM   33  C2  UNL     1      -2.890   4.442  -0.703  1.00  0.00    -0.028 C 
HETATM   34  C1  UNL     1      -2.288   5.341   0.047  1.00  0.00     0.007 C 
ENDBRANCH   1  33
TORSDOF 11
