REMARK  10 active torsions:
REMARK  status: ('A' for Active; 'I' for Inactive)
REMARK    1  A    between atoms: C2_2  and  C3_3 
REMARK    2  A    between atoms: C3_3  and  C4_4 
REMARK    3  A    between atoms: C4_4  and  C5_5 
REMARK    4  A    between atoms: C5_5  and  C6_6 
REMARK    5  A    between atoms: C8_10  and  N2_11 
REMARK    6  A    between atoms: C9_16  and  N4_17 
REMARK    7  A    between atoms: N4_17  and  C10_19 
REMARK    8  A    between atoms: C10_19  and  C12_21 
REMARK    9  A    between atoms: C12_21  and  O1_22 
REMARK   10  A    between atoms: N6_29  and  C15_30 
ROOT
HETATM    1  C6  UNL     1      -1.410   0.418   0.311  1.00  0.00     0.087 A 
HETATM    2  N1  UNL     1      -0.341   1.217   0.394  1.00  0.00    -0.341 N 
ATOM      3  H1  UNL     1      -0.480   2.225   0.466  1.00  0.00     0.167 HD
HETATM    4  C7  UNL     1       0.910   0.731   0.385  1.00  0.00     0.111 A 
HETATM    5  C8  UNL     1       2.002   1.581   0.473  1.00  0.00     0.144 A 
HETATM    6  N3  UNL     1       3.264   1.108   0.466  1.00  0.00    -0.175 N 
ATOM      7  H3  UNL     1       4.057   1.747   0.531  1.00  0.00     0.186 HD
HETATM    8  C9  UNL     1       3.462  -0.214   0.372  1.00  0.00     0.680 A 
HETATM    9  N5  UNL     1       2.416  -1.078   0.285  1.00  0.00    -0.184 N 
ATOM     10  H5  UNL     1       2.589  -2.081   0.215  1.00  0.00     0.184 HD
HETATM   11  C13 UNL     1       1.167  -0.620   0.291  1.00  0.00     0.147 A 
HETATM   12  C14 UNL     1       0.037  -1.427   0.206  1.00  0.00     0.279 A 
HETATM   13  O2  UNL     1       0.204  -2.684   0.116  1.00  0.00    -0.265 OA
HETATM   14  N6  UNL     1      -1.217  -0.942   0.214  1.00  0.00    -0.297 N 
ENDROOT
BRANCH   8  15
HETATM   15  N4  UNL     1       4.664  -0.660   0.365  1.00  0.00    -0.220 N 
ATOM     16  H4  UNL     1       4.769  -1.672   0.291  1.00  0.00     0.178 HD
BRANCH  15  17
HETATM   17  C10 UNL     1       5.869   0.092   0.448  1.00  0.00     0.118 C 
HETATM   18  C11 UNL     1       6.982  -0.879   0.866  1.00  0.00     0.035 C 
BRANCH  17  19
HETATM   19  C12 UNL     1       6.304   0.694  -0.873  1.00  0.00     0.189 C 
BRANCH  19  20
HETATM   20  O1  UNL     1       7.487   1.399  -0.653  1.00  0.00    -0.399 OA
ATOM     21  H1  UNL     1       7.760   1.776  -1.481  1.00  0.00     0.209 HD
ENDBRANCH  19  20
ENDBRANCH  17  19
ENDBRANCH  15  17
ENDBRANCH   8  15
BRANCH   5  22
HETATM   22  N2  UNL     1       1.839   2.854   0.563  1.00  0.00    -0.383 N 
ATOM     23  H22 UNL     1       0.884   3.212   0.568  1.00  0.00     0.157 HD
ATOM     24  H21 UNL     1       2.642   3.479   0.628  1.00  0.00     0.157 HD
ENDBRANCH   5  22
BRANCH  14  25
HETATM   25  C15 UNL     1      -2.306  -1.885   0.129  1.00  0.00     0.094 C 
HETATM   26  C16 UNL     1      -2.448  -2.751   1.362  1.00  0.00     0.026 C 
HETATM   27  C17 UNL     1      -3.708  -3.591   1.097  1.00  0.00     0.002 C 
HETATM   28  C18 UNL     1      -3.258  -4.654   0.131  1.00  0.00     0.000 C 
HETATM   29  C19 UNL     1      -2.518  -4.118  -1.032  1.00  0.00     0.002 C 
HETATM   30  C20 UNL     1      -2.374  -2.655  -1.148  1.00  0.00     0.026 C 
ENDBRANCH  14  25
BRANCH   1  31
HETATM   31  C5  UNL     1      -2.816   0.860   0.313  1.00  0.00     0.077 C 
BRANCH  31  32
HETATM   32  C4  UNL     1      -2.922   2.356   0.361  1.00  0.00     0.007 C 
BRANCH  32  33
HETATM   33  C3  UNL     1      -2.355   3.074  -0.818  1.00  0.00     0.000 C 
BRANCH  33  34
HETATM   34  C2  UNL     1      -2.576   4.581  -0.572  1.00  0.00    -0.005 C 
HETATM   35  C1  UNL     1      -4.029   4.896  -0.432  1.00  0.00     0.005 C 
ENDBRANCH  33  34
ENDBRANCH  32  33
ENDBRANCH  31  32
ENDBRANCH   1  31
TORSDOF 10
