REMARK  9 active torsions:
REMARK  status: ('A' for Active; 'I' for Inactive)
REMARK    1  A    between atoms: C5_5  and  N1_6 
REMARK    2  A    between atoms: N1_6  and  C6_8 
REMARK    3  A    between atoms: C6_8  and  C7_9 
REMARK    4  A    between atoms: C7_9  and  O1_10 
REMARK    5  A    between atoms: C7_9  and  C8_12 
REMARK    6  A    between atoms: C11_16  and  C12_17 
REMARK    7  A    between atoms: C12_17  and  O3_18 
REMARK    8  A    between atoms: C15_22  and  N2_23 
REMARK    9  A    between atoms: N2_23  and  C16_25 
ROOT
HETATM    1  C1  UNL     1       0.547  -1.028  -2.586  1.00  0.00     0.017 C 
HETATM    2  C2  UNL     1       0.271  -1.091  -1.306  1.00  0.00    -0.057 C 
HETATM    3  C3  UNL     1      -0.501  -2.151  -0.532  1.00  0.00     0.025 C 
HETATM    4  C4  UNL     1       0.395  -1.808   0.605  1.00  0.00     0.044 C 
HETATM    5  C5  UNL     1       0.442  -0.402  -0.011  1.00  0.00     0.050 C 
HETATM    6  C13 UNL     1      -0.801   0.410   0.330  1.00  0.00     0.046 C 
HETATM    7  C14 UNL     1      -1.912  -0.533   0.668  1.00  0.00     0.040 C 
HETATM    8  C15 UNL     1      -3.223   0.084   0.913  1.00  0.00    -0.013 C 
HETATM    9  C19 UNL     1      -4.312  -0.921   1.247  1.00  0.00     0.052 C 
HETATM   10  C20 UNL     1      -3.811  -2.128   1.984  1.00  0.00     0.007 C 
HETATM   11  C21 UNL     1      -3.190  -3.153   1.085  1.00  0.00     0.020 C 
HETATM   12  C22 UNL     1      -2.932  -2.652  -0.304  1.00  0.00     0.098 C 
HETATM   13  C23 UNL     1      -2.539  -3.840  -1.109  1.00  0.00     0.064 C 
HETATM   14  N3  UNL     1      -2.235  -4.772  -1.735  1.00  0.00    -0.197 NA
HETATM   15  C24 UNL     1      -1.910  -1.588  -0.425  1.00  0.00     0.021 C 
ENDROOT
BRANCH   8  16
HETATM   16  N2  UNL     1      -3.773   1.061   0.080  1.00  0.00    -0.391 N 
ATOM     17  H2  UNL     1      -4.580   0.852  -0.508  1.00  0.00     0.159 HD
BRANCH  16  18
HETATM   18  C16 UNL     1      -3.179   2.357   0.072  1.00  0.00     0.081 A 
HETATM   19  C17 UNL     1      -3.125   3.226  -1.099  1.00  0.00     0.027 A 
HETATM   20  C18 UNL     1      -4.092   3.547  -0.026  1.00  0.00     0.027 A 
ENDBRANCH  16  18
ENDBRANCH   8  16
BRANCH   5  21
HETATM   21  N1  UNL     1       1.668   0.240   0.291  1.00  0.00    -0.406 N 
ATOM     22  H1  UNL     1       2.224  -0.070   1.088  1.00  0.00     0.154 HD
BRANCH  21  23
HETATM   23  C6  UNL     1       2.117   1.302  -0.508  1.00  0.00     0.151 C 
BRANCH  23  24
HETATM   24  C7  UNL     1       3.468   1.792   0.039  1.00  0.00     0.171 C 
BRANCH  24  25
HETATM   25  O1  UNL     1       3.899   2.897  -0.740  1.00  0.00    -0.389 OA
ATOM     26  H1  UNL     1       4.734   3.200  -0.402  1.00  0.00     0.210 HD
ENDBRANCH  24  25
BRANCH  24  27
HETATM   27  C8  UNL     1       4.492   0.728  -0.128  1.00  0.00     0.006 A 
HETATM   28  C9  UNL     1       4.289  -0.553  -0.546  1.00  0.00     0.037 A 
HETATM   29  C10 UNL     1       5.537  -1.178  -0.560  1.00  0.00     0.143 A 
HETATM   30  O2  UNL     1       6.383  -0.280  -0.167  1.00  0.00    -0.324 OA
HETATM   31  C11 UNL     1       5.849   0.862   0.104  1.00  0.00     0.084 A 
BRANCH  31  32
HETATM   32  C12 UNL     1       6.605   2.070   0.575  1.00  0.00     0.229 C 
BRANCH  32  33
HETATM   33  O3  UNL     1       7.961   1.755   0.661  1.00  0.00    -0.394 OA
ATOM     34  H3  UNL     1       8.440   2.520   0.959  1.00  0.00     0.209 HD
ENDBRANCH  32  33
ENDBRANCH  31  32
ENDBRANCH  24  27
ENDBRANCH  23  24
ENDBRANCH  21  23
ENDBRANCH   5  21
TORSDOF 9
