REMARK  9 active torsions:
REMARK  status: ('A' for Active; 'I' for Inactive)
REMARK    1  A    between atoms: C2_2  and  C3_3 
REMARK    2  A    between atoms: C4_4  and  O1_5 
REMARK    3  A    between atoms: C5_9  and  S1_10 
REMARK    4  A    between atoms: S1_10  and  C6_11 
REMARK    5  A    between atoms: C6_11  and  C7_12 
REMARK    6  A    between atoms: C7_12  and  N2_14 
REMARK    7  A    between atoms: N2_14  and  O2_15 
REMARK    8  A    between atoms: N2_14  and  C9_17 
REMARK    9  A    between atoms: C15_25  and  C16_26 
ROOT
HETATM    1  C7  UNL     1       0.231  -1.468   0.177  1.00  0.00     0.120 C 
HETATM    2  C8  UNL     1       0.853  -0.195  -0.318  1.00  0.00     0.036 C 
ENDROOT
BRANCH   1   3
HETATM    3  C6  UNL     1       1.203  -2.614   0.256  1.00  0.00     0.109 C 
BRANCH   3   4
HETATM    4  S1  UNL     1       2.587  -2.403   1.344  1.00  0.00    -0.092 SA
BRANCH   4   5
HETATM    5  C5  UNL     1       3.771  -1.188   0.920  1.00  0.00     0.149 A 
HETATM    6  N1  UNL     1       3.675   0.056   1.424  1.00  0.00    -0.317 N 
HETATM    7  C4  UNL     1       4.521   1.047   1.168  1.00  0.00     0.153 A 
ATOM      8  H1  UNL     1       2.894   0.252   2.050  1.00  0.00     0.170 HD
HETATM    9  C3  UNL     1       5.602   0.814   0.315  1.00  0.00     0.060 A 
HETATM   10  C20 UNL     1       5.709  -0.438  -0.201  1.00  0.00     0.257 A 
HETATM   11  N4  UNL     1       4.820  -1.401   0.096  1.00  0.00    -0.303 N 
HETATM   12  O3  UNL     1       6.655  -0.692  -0.965  1.00  0.00    -0.267 OA
ATOM     13  H4  UNL     1       4.942  -2.326  -0.316  1.00  0.00     0.171 HD
BRANCH   7  14
HETATM   14  O1  UNL     1       4.321   2.302   1.750  1.00  0.00    -0.345 OA
ATOM     15  H1  UNL     1       3.586   2.460   2.330  1.00  0.00     0.219 HD
ENDBRANCH   7  14
BRANCH   9  16
HETATM   16  C2  UNL     1       6.497   1.937   0.070  1.00  0.00     0.044 C 
HETATM   17  C1  UNL     1       7.655   1.679  -0.817  1.00  0.00     0.010 C 
ENDBRANCH   9  16
ENDBRANCH   4   5
ENDBRANCH   3   4
ENDBRANCH   1   3
BRANCH   1  18
HETATM   18  N2  UNL     1      -0.926  -1.847  -0.614  1.00  0.00    -0.253 N 
BRANCH  18  19
HETATM   19  O2  UNL     1      -0.741  -2.257  -1.892  1.00  0.00    -0.287 OA
ATOM     20  H2  UNL     1      -1.498  -2.505  -2.410  1.00  0.00     0.244 HD
ENDBRANCH  18  19
BRANCH  18  21
HETATM   21  C9  UNL     1      -2.268  -1.810  -0.136  1.00  0.00     0.087 A 
HETATM   22  C10 UNL     1      -2.924  -2.847   0.484  1.00  0.00     0.035 A 
HETATM   23  C11 UNL     1      -2.419  -4.236   0.798  1.00  0.00     0.070 C 
HETATM   24  N3  UNL     1      -4.164  -2.383   0.772  1.00  0.00    -0.361 N 
HETATM   25  C12 UNL     1      -4.323  -1.115   0.370  1.00  0.00     0.018 A 
ATOM     26  H3  UNL     1      -4.887  -2.931   1.237  1.00  0.00     0.165 HD
HETATM   27  C13 UNL     1      -3.146  -0.719  -0.208  1.00  0.00    -0.004 A 
HETATM   28  C19 UNL     1      -5.523  -0.214   0.485  1.00  0.00     0.058 C 
HETATM   29  C14 UNL     1      -2.941   0.641  -0.779  1.00  0.00     0.047 C 
HETATM   30  C15 UNL     1      -4.204   1.433  -0.709  1.00  0.00    -0.010 C 
HETATM   31  C18 UNL     1      -4.981   1.194   0.569  1.00  0.00     0.011 C 
BRANCH  30  32
HETATM   32  C16 UNL     1      -3.960   2.919  -0.818  1.00  0.00     0.000 C 
HETATM   33  C17 UNL     1      -3.080   3.444   0.270  1.00  0.00     0.005 C 
ENDBRANCH  30  32
ENDBRANCH  18  21
ENDBRANCH   1  18
TORSDOF 9
