REMARK  8 active torsions:
REMARK  status: ('A' for Active; 'I' for Inactive)
REMARK    1  A    between atoms: C2_2  and  C3_3 
REMARK    2  A    between atoms: C3_3  and  C4_4 
REMARK    3  A    between atoms: C4_4  and  C5_5 
REMARK    4  A    between atoms: N2_12  and  C9_13 
REMARK    5  A    between atoms: C11_15  and  C12_16 
REMARK    6  A    between atoms: C13_21  and  N5_22 
REMARK    7  A    between atoms: C15_28  and  C16_29 
REMARK    8  A    between atoms: C20_33  and  O1_34 
ROOT
HETATM    1  C9  UNL     1      -0.464   0.002  -0.518  1.00  0.00     0.072 A 
HETATM    2  C10 UNL     1      -0.813   1.294  -0.250  1.00  0.00     0.048 A 
HETATM    3  C11 UNL     1      -2.120   1.628   0.030  1.00  0.00     0.013 A 
HETATM    4  C14 UNL     1      -3.059   0.584   0.026  1.00  0.00     0.025 A 
HETATM    5  C15 UNL     1      -2.701  -0.707  -0.242  1.00  0.00    -0.017 A 
HETATM    6  C20 UNL     1      -1.386  -1.005  -0.518  1.00  0.00     0.101 A 
ENDROOT
BRANCH   1   7
HETATM    7  N2  UNL     1       0.924  -0.250  -0.816  1.00  0.00    -0.312 N 
HETATM    8  C8  UNL     1       1.352   0.191  -2.129  1.00  0.00     0.160 C 
HETATM    9  C7  UNL     1       2.754  -0.226  -2.447  1.00  0.00     0.254 C 
HETATM   10  N1  UNL     1       3.303  -1.226  -1.611  1.00  0.00    -0.056 N 
HETATM   11  C4  UNL     1       3.242  -0.884  -0.170  1.00  0.00     0.205 C 
ATOM     12  H12 UNL     1       4.259  -1.448  -1.891  1.00  0.00     0.278 HD
ATOM     13  H11 UNL     1       2.862  -2.129  -1.788  1.00  0.00     0.278 HD
HETATM   14  C22 UNL     1       1.778  -0.886   0.119  1.00  0.00     0.261 C 
HETATM   15  O2  UNL     1       1.250  -1.407   1.125  1.00  0.00    -0.270 OA
BRANCH  11  16
HETATM   16  C3  UNL     1       3.857   0.450  -0.047  1.00  0.00     0.049 C 
BRANCH  16  17
HETATM   17  C2  UNL     1       4.090   1.025   1.292  1.00  0.00    -0.002 C 
HETATM   18  C1  UNL     1       4.693   2.443   1.171  1.00  0.00     0.005 C 
ENDBRANCH  16  17
ENDBRANCH  11  16
BRANCH  11  19
HETATM   19  C5  UNL     1       3.953  -2.028   0.462  1.00  0.00     0.044 C 
HETATM   20  C6  UNL     1       4.176  -2.019   1.913  1.00  0.00     0.008 C 
ENDBRANCH  11  19
ENDBRANCH   1   7
BRANCH   6  21
HETATM   21  O1  UNL     1      -0.964  -2.295  -0.795  1.00  0.00    -0.353 OA
HETATM   22  C21 UNL     1      -0.922  -2.837  -2.101  1.00  0.00     0.210 C 
ENDBRANCH   6  21
BRANCH   3  23
HETATM   23  C12 UNL     1      -2.536   2.984   0.337  1.00  0.00     0.146 A 
HETATM   24  N3  UNL     1      -1.694   4.056   0.410  1.00  0.00    -0.270 N 
HETATM   25  N4  UNL     1      -2.418   5.135   0.722  1.00  0.00    -0.131 N 
ATOM     26  H3  UNL     1      -0.686   4.037   0.253  1.00  0.00     0.189 HD
HETATM   27  C13 UNL     1      -3.709   4.718   0.839  1.00  0.00     0.692 A 
ATOM     28  H4  UNL     1      -2.071   6.086   0.848  1.00  0.00     0.205 HD
HETATM   29  N6  UNL     1      -3.757   3.406   0.601  1.00  0.00    -0.174 N 
ATOM     30  H6  UNL     1      -4.597   2.827   0.620  1.00  0.00     0.186 HD
BRANCH  27  31
HETATM   31  N5  UNL     1      -4.670   5.527   1.138  1.00  0.00    -0.233 N 
ATOM     32  H52 UNL     1      -4.633   6.530   1.320  1.00  0.00     0.174 HD
ATOM     33  H51 UNL     1      -5.637   5.215   1.226  1.00  0.00     0.174 HD
ENDBRANCH  27  31
ENDBRANCH   3  23
BRANCH   5  34
HETATM   34  C16 UNL     1      -3.668  -1.804  -0.258  1.00  0.00     0.021 C 
HETATM   35  C17 UNL     1      -5.026  -1.466   0.274  1.00  0.00     0.009 C 
HETATM   36  C18 UNL     1      -5.046  -2.775   1.054  1.00  0.00     0.001 C 
HETATM   37  C19 UNL     1      -3.547  -2.833   0.854  1.00  0.00     0.009 C 
ENDBRANCH   5  34
TORSDOF 8
