REMARK  8 active torsions:
REMARK  status: ('A' for Active; 'I' for Inactive)
REMARK    1  A    between atoms: C2_2  and  N1_5 
REMARK    2  A    between atoms: N1_5  and  C5_8 
REMARK    3  A    between atoms: C5_8  and  C6_9 
REMARK    4  A    between atoms: C7_10  and  N2_11 
REMARK       I    between atoms: N2_11  and  C8_13 
REMARK    5  A    between atoms: C8_13  and  C9_15 
REMARK    6  A    between atoms: C9_15  and  C10_16 
REMARK    7  A    between atoms: C10_16  and  N3_17 
REMARK    8  A    between atoms: N3_17  and  C11_19 
ROOT
HETATM    1  C6  UNL     1      -2.730   1.321  -0.826  1.00  0.00     0.011 A 
HETATM    2  C7  UNL     1      -1.313   1.384  -0.987  1.00  0.00     0.059 A 
HETATM    3  C18 UNL     1      -0.784   2.575  -1.350  1.00  0.00     0.119 A 
HETATM    4  N4  UNL     1      -1.570   3.676  -1.556  1.00  0.00    -0.348 N 
ATOM      5  H4  UNL     1      -1.136   4.557  -1.830  1.00  0.00     0.167 HD
HETATM    6  C19 UNL     1      -2.897   3.617  -1.404  1.00  0.00     0.132 A 
HETATM    7  N5  UNL     1      -3.859   4.546  -1.533  1.00  0.00    -0.285 N 
ATOM      8  H5  UNL     1      -3.703   5.518  -1.799  1.00  0.00     0.188 HD
HETATM    9  N6  UNL     1      -5.011   4.025  -1.270  1.00  0.00    -0.309 N 
ATOM     10  H6  UNL     1      -5.904   4.517  -1.295  1.00  0.00     0.186 HD
HETATM   11  C20 UNL     1      -4.837   2.706  -0.952  1.00  0.00     0.123 A 
HETATM   12  C21 UNL     1      -3.499   2.436  -1.035  1.00  0.00     0.036 A 
ENDROOT
BRANCH   2  13
HETATM   13  N2  UNL     1      -0.563   0.244  -0.738  1.00  0.00    -0.325 N 
HETATM   14  C8  UNL     1       0.808   0.100  -0.944  1.00  0.00     0.226 C 
HETATM   15  O1  UNL     1       1.535   0.982  -1.385  1.00  0.00    -0.273 OA
ATOM     16  H2  UNL     1      -1.062  -0.566  -0.369  1.00  0.00     0.169 HD
BRANCH  14  17
HETATM   17  C9  UNL     1       1.479  -1.219  -0.613  1.00  0.00     0.147 C 
BRANCH  17  18
HETATM   18  C10 UNL     1       2.918  -1.142  -0.983  1.00  0.00     0.066 C 
BRANCH  18  19
HETATM   19  N3  UNL     1       3.651  -0.179  -0.312  1.00  0.00    -0.386 N 
ATOM     20  H3  UNL     1       3.921   0.650  -0.841  1.00  0.00     0.159 HD
BRANCH  19  21
HETATM   21  C11 UNL     1       4.052  -0.238   1.013  1.00  0.00     0.086 C 
HETATM   22  C12 UNL     1       2.965  -0.242   2.034  1.00  0.00     0.047 C 
HETATM   23  C13 UNL     1       5.017  -1.389   1.305  1.00  0.00     0.038 C 
HETATM   24  C14 UNL     1       6.258  -0.903   2.017  1.00  0.00     0.003 C 
HETATM   25  C15 UNL     1       7.084   0.008   1.126  1.00  0.00     0.007 C 
HETATM   26  C16 UNL     1       6.173   1.074   0.513  1.00  0.00     0.081 C 
HETATM   27  C17 UNL     1       4.893   1.008   1.276  1.00  0.00     0.154 C 
HETATM   28  O2  UNL     1       4.523   1.864   2.050  1.00  0.00    -0.295 OA
ENDBRANCH  19  21
ENDBRANCH  18  19
ENDBRANCH  17  18
ENDBRANCH  14  17
ENDBRANCH   2  13
BRANCH   1  29
HETATM   29  C5  UNL     1      -3.264   0.012  -0.437  1.00  0.00     0.275 C 
BRANCH  29  30
HETATM   30  N1  UNL     1      -4.666  -0.109  -0.315  1.00  0.00    -0.063 N 
ATOM     31  H12 UNL     1      -5.145   0.130  -1.184  1.00  0.00     0.278 HD
ATOM     32  H11 UNL     1      -5.060   0.620   0.280  1.00  0.00     0.278 HD
BRANCH  30  33
HETATM   33  C2  UNL     1      -5.029  -1.467   0.161  1.00  0.00     0.115 C 
HETATM   34  C1  UNL     1      -4.581  -2.470  -0.871  1.00  0.00     0.045 C 
HETATM   35  C3  UNL     1      -4.315  -1.700   1.452  1.00  0.00     0.045 C 
HETATM   36  C4  UNL     1      -6.518  -1.505   0.305  1.00  0.00     0.045 C 
ENDBRANCH  30  33
ENDBRANCH  29  30
ENDBRANCH   1  29
TORSDOF 8
