REMARK  2 active torsions:
REMARK  status: ('A' for Active; 'I' for Inactive)
REMARK    1  A    between atoms: N1_1  and  C1_5 
REMARK    2  A    between atoms: C1_5  and  C2_6 
ROOT
HETATM    1  C2  UNL     1       0.670   0.288   0.099  1.00  0.00    -0.016 C 
HETATM    2  C3  UNL     1       0.001   0.427  -1.197  1.00  0.00     0.011 C 
HETATM    3  C4  UNL     1      -1.453   0.703  -1.197  1.00  0.00     0.001 C 
HETATM    4  C5  UNL     1      -2.305  -0.082  -0.299  1.00  0.00     0.000 C 
HETATM    5  C6  UNL     1      -1.693  -1.302   0.313  1.00  0.00     0.005 C 
HETATM    6  C7  UNL     1      -0.520  -1.053   1.179  1.00  0.00    -0.013 C 
HETATM    7  C8  UNL     1      -0.181   0.411   1.310  1.00  0.00     0.015 C 
HETATM    8  C9  UNL     1       0.794  -1.214   0.402  1.00  0.00     0.015 C 
ENDROOT
BRANCH   1   9
HETATM    9  C1  UNL     1       1.972   1.033   0.265  1.00  0.00     0.239 C 
BRANCH   9  10
HETATM   10  N1  UNL     1       2.976   0.631  -0.684  1.00  0.00    -0.079 N 
ATOM     11  H13 UNL     1       3.127  -0.377  -0.649  1.00  0.00     0.274 HD
ATOM     12  H12 UNL     1       2.628   0.715  -1.639  1.00  0.00     0.274 HD
ATOM     13  H11 UNL     1       3.856   1.135  -0.572  1.00  0.00     0.274 HD
ENDBRANCH   9  10
ENDBRANCH   1   9
TORSDOF 2
