REMARK  1 active torsions:
REMARK  status: ('A' for Active; 'I' for Inactive)
REMARK    1  A    between atoms: N1_1  and  C1_5 
ROOT
HETATM    1  C1  UNL     1      -0.505  -0.525  -0.039  1.00  0.00     0.127 C 
HETATM    2  C2  UNL     1       0.507  -1.559   0.337  1.00  0.00     0.039 C 
HETATM    3  C3  UNL     1       1.897  -1.078   0.499  1.00  0.00     0.002 C 
HETATM    4  C4  UNL     1       2.315   0.114  -0.256  1.00  0.00     0.001 C 
HETATM    5  C5  UNL     1       1.188   0.910  -0.881  1.00  0.00     0.007 C 
HETATM    6  C6  UNL     1       0.110   0.874   0.137  1.00  0.00     0.021 C 
HETATM    7  C7  UNL     1      -1.049   1.745  -0.057  1.00  0.00     0.007 C 
HETATM    8  C8  UNL     1      -2.204   0.969   0.550  1.00  0.00     0.003 C 
HETATM    9  C9  UNL     1      -1.660  -0.405   0.900  1.00  0.00     0.039 C 
ENDROOT
BRANCH   1  10
HETATM   10  N1  UNL     1      -1.006  -0.705  -1.387  1.00  0.00    -0.070 N 
ATOM     11  H13 UNL     1      -0.242  -0.734  -2.062  1.00  0.00     0.275 HD
ATOM     12  H12 UNL     1      -1.376  -1.646  -1.519  1.00  0.00     0.275 HD
ATOM     13  H11 UNL     1      -1.697   0.001  -1.644  1.00  0.00     0.275 HD
ENDBRANCH   1  10
TORSDOF 1
