REMARK  2 active torsions:
REMARK  status: ('A' for Active; 'I' for Inactive)
REMARK    1  A    between atoms: N1_1  and  C1_5 
REMARK    2  A    between atoms: C1_5  and  C2_6 
ROOT
HETATM    1  C2  UNL     1       1.048   0.090   0.384  1.00  0.00     0.015 C 
HETATM    2  C3  UNL     1       0.498  -1.310   0.254  1.00  0.00     0.007 C 
HETATM    3  C4  UNL     1      -0.866  -1.426   0.867  1.00  0.00     0.005 C 
HETATM    4  C5  UNL     1      -1.898  -0.572   0.221  1.00  0.00    -0.014 C 
HETATM    5  C6  UNL     1      -1.673  -0.357  -1.253  1.00  0.00     0.005 C 
HETATM    6  C7  UNL     1      -0.474   0.500  -1.535  1.00  0.00     0.005 C 
HETATM    7  C8  UNL     1       0.144   1.086  -0.306  1.00  0.00    -0.009 C 
HETATM    8  C9  UNL     1      -0.829   1.621   0.685  1.00  0.00     0.005 C 
HETATM    9  C10 UNL     1      -2.053   0.781   0.870  1.00  0.00     0.005 C 
ENDROOT
BRANCH   1  10
HETATM   10  C1  UNL     1       2.398   0.171  -0.283  1.00  0.00     0.234 C 
BRANCH  10  11
HETATM   11  N1  UNL     1       3.366  -0.728   0.290  1.00  0.00    -0.079 N 
ATOM     12  H13 UNL     1       3.448  -0.581   1.296  1.00  0.00     0.274 HD
ATOM     13  H12 UNL     1       3.017  -1.686   0.289  1.00  0.00     0.274 HD
ATOM     14  H11 UNL     1       4.279  -0.673  -0.161  1.00  0.00     0.274 HD
ENDBRANCH  10  11
ENDBRANCH   1  10
TORSDOF 2
