REMARK  2 active torsions:
REMARK  status: ('A' for Active; 'I' for Inactive)
REMARK    1  A    between atoms: O1_1  and  C1_3 
REMARK    2  A    between atoms: C1_3  and  C2_4 
ROOT
HETATM    1  C1  UNL     1       0.300  -0.201  -0.270  1.00  0.00     0.061 C 
HETATM    2  C5  UNL     1      -0.369  -0.758   0.923  1.00  0.00     0.038 C 
HETATM    3  C6  UNL     1      -1.852  -0.792   0.900  1.00  0.00     0.003 C 
HETATM    4  C7  UNL     1      -2.377   0.497   0.327  1.00  0.00     0.000 C 
HETATM    5  C8  UNL     1      -1.959   0.498  -1.129  1.00  0.00     0.003 C 
HETATM    6  C9  UNL     1      -0.480   0.646  -1.176  1.00  0.00     0.038 C 
ENDROOT
BRANCH   1   7
HETATM    7  O1  UNL     1       0.872  -1.259  -1.014  1.00  0.00    -0.389 OA
ATOM      8  H1  UNL     1       0.122  -1.758  -1.316  1.00  0.00     0.210 HD
ENDBRANCH   1   7
BRANCH   1   9
HETATM    9  C2  UNL     1       1.510   0.605   0.217  1.00  0.00     0.020 A 
HETATM   10  C3  UNL     1       2.457  -0.216   1.088  1.00  0.00     0.008 A 
HETATM   11  C4  UNL     1       2.855   0.323  -0.274  1.00  0.00     0.008 A 
ENDBRANCH   1   9
TORSDOF 2
