REMARK  2 active torsions:
REMARK  status: ('A' for Active; 'I' for Inactive)
REMARK    1  A    between atoms: C2_2  and  C3_3 
REMARK    2  A    between atoms: C3_3  and  O1_4 
ROOT
HETATM    1  C3  UNL     1      -0.778  -0.470   0.398  1.00  0.00     0.067 C 
HETATM    2  C4  UNL     1      -0.379  -1.050  -0.907  1.00  0.00     0.112 C 
HETATM    3  S1  UNL     1       0.940   0.123  -1.418  1.00  0.00    -0.157 SA
HETATM    4  C5  UNL     1       1.523   0.394   0.280  1.00  0.00     0.004 C 
HETATM    5  C6  UNL     1       2.105   1.781   0.439  1.00  0.00     0.026 C 
HETATM    6  C7  UNL     1       2.576  -0.657   0.558  1.00  0.00     0.026 C 
HETATM    7  C8  UNL     1       0.333   0.146   1.102  1.00  0.00     0.058 C 
ENDROOT
BRANCH   1   8
HETATM    8  C2  UNL     1      -1.912   0.540   0.280  1.00  0.00     0.034 C 
HETATM    9  C1  UNL     1      -3.127  -0.013  -0.380  1.00  0.00     0.008 C 
ENDBRANCH   1   8
BRANCH   1  10
HETATM   10  O1  UNL     1      -1.308  -1.529   1.173  1.00  0.00    -0.389 OA
ATOM     11  H1  UNL     1      -0.601  -2.159   1.247  1.00  0.00     0.210 HD
ENDBRANCH   1  10
TORSDOF 2
