REMARK  1 active torsions:
REMARK  status: ('A' for Active; 'I' for Inactive)
REMARK    1  A    between atoms: C3_5  and  C4_6 
ROOT
HETATM    1  C1  UNL     1       3.250  -0.038  -0.502  1.00  0.00     0.039 C 
HETATM    2  C2  UNL     1       2.857   0.772   0.707  1.00  0.00     0.122 C 
HETATM    3  N1  UNL     1       1.439   0.944   0.792  1.00  0.00    -0.380 N 
ATOM      4  H1  UNL     1       1.100   1.765   1.293  1.00  0.00     0.160 HD
HETATM    5  C3  UNL     1       0.557   0.160   0.296  1.00  0.00     0.077 C 
HETATM    6  N2  UNL     1       0.989  -0.983  -0.402  1.00  0.00    -0.380 N 
ATOM      7  H2  UNL     1       0.297  -1.610  -0.813  1.00  0.00     0.160 HD
HETATM    8  C9  UNL     1       2.399  -1.286  -0.548  1.00  0.00     0.122 C 
ENDROOT
BRANCH   5   9
HETATM    9  C4  UNL     1      -0.865   0.514   0.493  1.00  0.00     0.053 C 
HETATM   10  C5  UNL     1      -1.647  -0.517   1.237  1.00  0.00     0.012 C 
HETATM   11  C6  UNL     1      -3.077  -0.015   1.013  1.00  0.00     0.001 C 
HETATM   12  C7  UNL     1      -3.045   0.676  -0.332  1.00  0.00     0.001 C 
HETATM   13  C8  UNL     1      -1.619   0.556  -0.840  1.00  0.00     0.012 C 
ENDBRANCH   5   9
TORSDOF 1
