REMARK  2 active torsions:
REMARK  status: ('A' for Active; 'I' for Inactive)
REMARK    1  A    between atoms: C8_8  and  C9_9 
REMARK    2  A    between atoms: N1_10  and  N2_12 
ROOT
HETATM    1  C1  UNL     1       0.530   2.218   0.746  1.00  0.00     0.010 C 
HETATM    2  C2  UNL     1      -0.306   1.061   0.171  1.00  0.00    -0.010 C 
HETATM    3  C3  UNL     1      -1.175   0.573   1.288  1.00  0.00     0.005 C 
HETATM    4  C4  UNL     1      -1.722  -0.777   1.142  1.00  0.00     0.000 C 
HETATM    5  C5  UNL     1      -2.211  -1.191  -0.193  1.00  0.00     0.000 C 
HETATM    6  C6  UNL     1      -1.342  -0.958  -1.351  1.00  0.00     0.001 C 
HETATM    7  C7  UNL     1       0.129  -1.055  -1.113  1.00  0.00     0.010 C 
HETATM    8  C8  UNL     1       0.703   0.030  -0.276  1.00  0.00     0.029 C 
ENDROOT
BRANCH   8   9
HETATM    9  C9  UNL     1       1.814   0.757  -0.935  1.00  0.00     0.084 C 
HETATM   10  N1  UNL     1       3.009   0.364  -0.786  1.00  0.00    -0.322 N 
ATOM     11  H1  UNL     1       3.748   0.888  -1.255  1.00  0.00     0.185 HD
BRANCH  10  12
HETATM   12  N2  UNL     1       3.374  -0.744  -0.018  1.00  0.00    -0.346 N 
ATOM     13  H22 UNL     1       2.622  -1.256   0.443  1.00  0.00     0.176 HD
ATOM     14  H21 UNL     1       4.336  -1.060   0.102  1.00  0.00     0.176 HD
ENDBRANCH  10  12
ENDBRANCH   8   9
TORSDOF 2
