REMARK  4 active torsions:
REMARK  status: ('A' for Active; 'I' for Inactive)
REMARK    1  A    between atoms: C2_5  and  O2_6 
REMARK    2  A    between atoms: C3_8  and  C4_9 
REMARK    3  A    between atoms: C5_10  and  N2_11 
REMARK    4  A    between atoms: N3_16  and  O6_17 
ROOT
HETATM    1  C4  UNL     1      -0.267   0.030  -0.125  1.00  0.00     0.094 A 
HETATM    2  C5  UNL     1      -1.048  -0.821   0.607  1.00  0.00     0.191 A 
HETATM    3  C6  UNL     1      -2.439  -0.628   0.658  1.00  0.00     0.321 A 
HETATM    4  O5  UNL     1      -3.161  -1.411   1.336  1.00  0.00    -0.261 OA
HETATM    5  N3  UNL     1      -2.948   0.399  -0.029  1.00  0.00    -0.117 N 
HETATM    6  N4  UNL     1      -2.213   1.216  -0.734  1.00  0.00    -0.236 N 
ATOM      7  H4  UNL     1      -2.652   1.985  -1.241  1.00  0.00     0.193 HD
HETATM    8  C7  UNL     1      -0.860   1.046  -0.795  1.00  0.00     0.276 A 
HETATM    9  O7  UNL     1      -0.262   1.897  -1.511  1.00  0.00    -0.266 OA
ENDROOT
BRANCH   1  10
HETATM   10  C3  UNL     1       1.205  -0.175  -0.122  1.00  0.00     0.079 A 
HETATM   11  C2  UNL     1       2.253   0.521  -0.607  1.00  0.00     0.162 A 
HETATM   12  N1  UNL     1       3.481   0.059  -0.391  1.00  0.00    -0.297 N 
HETATM   13  C1  UNL     1       3.619  -1.070   0.294  1.00  0.00     0.290 A 
ATOM     14  H1  UNL     1       4.297   0.560  -0.743  1.00  0.00     0.171 HD
HETATM   15  O1  UNL     1       4.711  -1.670   0.602  1.00  0.00    -0.260 OA
HETATM   16  S1  UNL     1       2.029  -1.502   0.648  1.00  0.00    -0.024 SA
BRANCH  11  17
HETATM   17  O2  UNL     1       2.162   1.746  -1.351  1.00  0.00    -0.345 OA
ATOM     18  H2  UNL     1       1.285   2.076  -1.505  1.00  0.00     0.219 HD
ENDBRANCH  11  17
ENDBRANCH   1  10
BRANCH   2  19
HETATM   19  N2  UNL     1      -0.568  -1.922   1.347  1.00  0.00    -0.109 N 
HETATM   20  O3  UNL     1      -0.446  -3.020   0.783  1.00  0.00    -0.532 OA
HETATM   21  O4  UNL     1      -0.307  -1.802   2.676  1.00  0.00    -0.532 OA
ENDBRANCH   2  19
BRANCH   5  22
HETATM   22  O6  UNL     1      -4.312   0.577   0.023  1.00  0.00    -0.265 OA
ATOM     23  H6  UNL     1      -4.674   1.307  -0.465  1.00  0.00     0.247 HD
ENDBRANCH   5  22
TORSDOF 4
