REMARK  2 active torsions:
REMARK  status: ('A' for Active; 'I' for Inactive)
REMARK    1  A    between atoms: C6_13  and  N5_14 
REMARK    2  A    between atoms: C8_19  and  N7_20 
ROOT
HETATM    1  N1  UNL     1      -0.762   3.714  -1.712  1.00  0.00    -0.190 NA
HETATM    2  C1  UNL     1      -0.994   2.711  -1.189  1.00  0.00     0.120 C 
HETATM    3  C2  UNL     1      -1.383   1.489  -0.596  1.00  0.00     0.143 C 
HETATM    4  N2  UNL     1      -2.663   1.300  -0.442  1.00  0.00    -0.289 N 
ATOM      5  H2  UNL     1      -3.204   2.093  -0.785  1.00  0.00     0.188 HD
HETATM    6  N3  UNL     1      -3.473   0.315   0.060  1.00  0.00    -0.295 N 
ATOM      7  H3  UNL     1      -4.419   0.610   0.302  1.00  0.00     0.187 HD
HETATM    8  C3  UNL     1      -3.182  -1.079   0.296  1.00  0.00     0.197 C 
HETATM    9  N4  UNL     1      -1.913  -1.522  -0.199  1.00  0.00    -0.350 N 
ATOM     10  H4  UNL     1      -1.928  -2.433  -0.658  1.00  0.00     0.166 HD
HETATM   11  C4  UNL     1      -0.634  -0.897  -0.154  1.00  0.00     0.051 A 
HETATM   12  C5  UNL     1       0.365  -1.770   0.105  1.00  0.00     0.068 A 
HETATM   13  C6  UNL     1       1.635  -1.286   0.284  1.00  0.00     0.131 A 
HETATM   14  C7  UNL     1       1.867   0.049   0.199  1.00  0.00     0.113 A 
HETATM   15  N6  UNL     1       3.171   0.607   0.379  1.00  0.00    -0.097 NA
HETATM   16  C8  UNL     1       0.845   1.005  -0.075  1.00  0.00     0.145 A 
HETATM   17  C9  UNL     1      -0.388   0.500  -0.250  1.00  0.00     0.065 A 
ENDROOT
BRANCH  16  18
HETATM   18  N7  UNL     1       1.310   2.303  -0.115  1.00  0.00    -0.113 N 
HETATM   19  O3  UNL     1       1.208   3.056   0.845  1.00  0.00    -0.532 OA
HETATM   20  O4  UNL     1       1.979   2.767  -1.201  1.00  0.00    -0.532 OA
ENDBRANCH  16  18
BRANCH  13  21
HETATM   21  N5  UNL     1       2.720  -2.175   0.544  1.00  0.00    -0.114 N 
HETATM   22  O1  UNL     1       2.735  -3.357   0.167  1.00  0.00    -0.532 OA
HETATM   23  O2  UNL     1       3.796  -1.697   1.249  1.00  0.00    -0.532 OA
ENDBRANCH  13  21
TORSDOF 2
