REMARK  9 active torsions:
REMARK  status: ('A' for Active; 'I' for Inactive)
REMARK    1  A    between atoms: C3_4  and  C4_5 
REMARK    2  A    between atoms: C4_5  and  C5_7 
REMARK    3  A    between atoms: C5_7  and  S2_8 
REMARK    4  A    between atoms: C5_7  and  C8_20 
REMARK    5  A    between atoms: S2_8  and  C6_9 
REMARK    6  A    between atoms: C7_12  and  N2_13 
REMARK    7  A    between atoms: C8_20  and  O3_22 
REMARK    8  A    between atoms: O3_22  and  C9_23 
REMARK    9  A    between atoms: C13_29  and  N6_30 
ROOT
HETATM    1  C5  UNL     1      -0.524   0.528   0.853  1.00  0.00     0.231 C 
ENDROOT
BRANCH   1   2
HETATM    2  C4  UNL     1       0.815   1.013   0.570  1.00  0.00     0.206 C 
HETATM    3  O1  UNL     1       1.015   2.203   0.262  1.00  0.00    -0.288 OA
BRANCH   2   4
HETATM    4  C3  UNL     1       1.997   0.130   0.628  1.00  0.00     0.124 A 
HETATM    5  S1  UNL     1       2.085  -1.538   1.023  1.00  0.00    -0.070 SA
HETATM    6  C2  UNL     1       3.766  -1.750   0.851  1.00  0.00     0.031 A 
HETATM    7  C1  UNL     1       4.631  -2.971   1.035  1.00  0.00     0.061 C 
HETATM    8  C13 UNL     1       4.175  -0.486   0.488  1.00  0.00     0.187 A 
HETATM    9  N5  UNL     1       3.264   0.425   0.387  1.00  0.00    -0.328 N 
ATOM     10  H5  UNL     1       3.523   1.375   0.120  1.00  0.00     0.168 HD
BRANCH   8  11
HETATM   11  N6  UNL     1       5.586  -0.227   0.233  1.00  0.00    -0.097 N 
HETATM   12  O4  UNL     1       6.328  -1.103  -0.229  1.00  0.00    -0.530 OA
HETATM   13  O5  UNL     1       6.086   1.003   0.511  1.00  0.00    -0.530 OA
ENDBRANCH   8  11
ENDBRANCH   2   4
ENDBRANCH   1   2
BRANCH   1  14
HETATM   14  S2  UNL     1      -1.749   1.808   0.883  1.00  0.00    -0.069 SA
BRANCH  14  15
HETATM   15  C6  UNL     1      -1.236   3.420   0.451  1.00  0.00     0.175 A 
HETATM   16  N1  UNL     1      -0.802   4.374   1.289  1.00  0.00    -0.168 N 
HETATM   17  C7  UNL     1      -0.512   5.477   0.597  1.00  0.00     0.692 A 
ATOM     18  H1  UNL     1      -0.708   4.272   2.300  1.00  0.00     0.186 HD
HETATM   19  N3  UNL     1      -0.770   5.201  -0.693  1.00  0.00    -0.130 N 
HETATM   20  N4  UNL     1      -1.205   3.960  -0.770  1.00  0.00    -0.265 N 
ATOM     21  H3  UNL     1      -0.650   5.842  -1.477  1.00  0.00     0.205 HD
ATOM     22  H4  UNL     1      -1.477   3.484  -1.630  1.00  0.00     0.189 HD
BRANCH  17  23
HETATM   23  N2  UNL     1      -0.065   6.632   1.027  1.00  0.00    -0.233 N 
ATOM     24  H22 UNL     1       0.131   6.841   2.006  1.00  0.00     0.174 HD
ATOM     25  H21 UNL     1       0.157   7.475   0.498  1.00  0.00     0.174 HD
ENDBRANCH  17  23
ENDBRANCH  14  15
ENDBRANCH   1  14
BRANCH   1  26
HETATM   26  C8  UNL     1      -0.983  -0.538  -0.072  1.00  0.00     0.281 C 
HETATM   27  O2  UNL     1      -0.307  -0.985  -1.022  1.00  0.00    -0.263 OA
BRANCH  26  28
HETATM   28  O3  UNL     1      -2.242  -1.062   0.143  1.00  0.00    -0.310 OA
BRANCH  28  29
HETATM   29  C9  UNL     1      -2.848  -2.065  -0.620  1.00  0.00     0.060 C 
HETATM   30  C10 UNL     1      -4.220  -2.322  -0.016  1.00  0.00     0.045 C 
HETATM   31  C11 UNL     1      -3.125  -1.587  -2.051  1.00  0.00     0.045 C 
HETATM   32  C12 UNL     1      -2.119  -3.377  -0.631  1.00  0.00     0.045 C 
ENDBRANCH  28  29
ENDBRANCH  26  28
ENDBRANCH   1  26
TORSDOF 9
