REMARK  9 active torsions:
REMARK  status: ('A' for Active; 'I' for Inactive)
REMARK    1  A    between atoms: O1_2  and  C2_3 
REMARK    2  A    between atoms: C2_3  and  O2_4 
REMARK    3  A    between atoms: C2_3  and  C4_6 
REMARK    4  A    between atoms: C5_7  and  O3_8 
REMARK    5  A    between atoms: C6_11  and  C7_12 
REMARK    6  A    between atoms: C10_15  and  C11_16 
REMARK    7  A    between atoms: C12_18  and  O6_19 
REMARK    8  A    between atoms: C13_21  and  C14_22 
REMARK    9  A    between atoms: C16_25  and  O8_26 
ROOT
HETATM    1  C4  UNL     1       2.764   0.393  -0.014  1.00  0.00     0.106 A 
HETATM    2  C5  UNL     1       2.133  -0.831   0.152  1.00  0.00     0.199 A 
HETATM    3  O4  UNL     1       0.848  -0.978   0.101  1.00  0.00    -0.285 OA
HETATM    4  C6  UNL     1       0.040   0.039  -0.114  1.00  0.00     0.116 A 
HETATM    5  C17 UNL     1       0.592   1.284  -0.285  1.00  0.00     0.130 A 
HETATM    6  C18 UNL     1      -0.219   2.495  -0.429  1.00  0.00     0.106 C 
HETATM    7  N1  UNL     1      -0.853   3.458  -0.515  1.00  0.00    -0.191 NA
HETATM    8  C19 UNL     1       1.962   1.487  -0.240  1.00  0.00     0.211 A 
HETATM    9  O9  UNL     1       2.468   2.629  -0.400  1.00  0.00    -0.286 OA
ENDROOT
BRANCH   4  10
HETATM   10  C7  UNL     1      -1.408  -0.161  -0.160  1.00  0.00     0.041 A 
HETATM   11  C8  UNL     1      -2.173   0.131  -1.265  1.00  0.00    -0.030 A 
HETATM   12  C9  UNL     1      -1.530   0.459  -2.580  1.00  0.00     0.050 C 
HETATM   13  C10 UNL     1      -3.541   0.038  -1.243  1.00  0.00     0.043 A 
HETATM   14  C12 UNL     1      -4.179  -0.378  -0.040  1.00  0.00     0.096 A 
HETATM   15  C13 UNL     1      -3.439  -0.680   1.077  1.00  0.00     0.077 A 
HETATM   16  C16 UNL     1      -2.040  -0.561   0.991  1.00  0.00     0.096 A 
BRANCH  13  17
HETATM   17  C11 UNL     1      -4.401   0.348  -2.378  1.00  0.00     0.273 C 
HETATM   18  O5  UNL     1      -3.985   0.725  -3.483  1.00  0.00    -0.301 OA
ENDBRANCH  13  17
BRANCH  14  19
HETATM   19  O6  UNL     1      -5.507  -0.457  -0.063  1.00  0.00    -0.359 OA
ATOM     20  H6  UNL     1      -5.933  -0.735   0.740  1.00  0.00     0.217 HD
ENDBRANCH  14  19
BRANCH  15  21
HETATM   21  C14 UNL     1      -4.008  -1.110   2.332  1.00  0.00     0.161 C 
HETATM   22  C15 UNL     1      -5.431  -1.305   2.652  1.00  0.00     0.097 C 
HETATM   23  O7  UNL     1      -3.208  -1.362   3.304  1.00  0.00    -0.293 OA
ENDBRANCH  15  21
BRANCH  16  24
HETATM   24  O8  UNL     1      -1.331  -0.872   2.142  1.00  0.00    -0.359 OA
ATOM     25  H8  UNL     1      -1.768  -1.149   2.939  1.00  0.00     0.217 HD
ENDBRANCH  16  24
ENDBRANCH   4  10
BRANCH   1  26
HETATM   26  C2  UNL     1       4.254   0.497   0.054  1.00  0.00     0.301 C 
BRANCH  26  27
HETATM   27  O1  UNL     1       4.756   1.282  -0.974  1.00  0.00    -0.361 OA
HETATM   28  C1  UNL     1       5.602   0.528  -1.806  1.00  0.00     0.205 C 
ENDBRANCH  26  27
BRANCH  26  29
HETATM   29  O2  UNL     1       4.671   0.947   1.305  1.00  0.00    -0.361 OA
HETATM   30  C3  UNL     1       5.437   0.037   1.990  1.00  0.00     0.205 C 
ENDBRANCH  26  29
ENDBRANCH   1  26
BRANCH   2  31
HETATM   31  O3  UNL     1       2.971  -1.939   0.384  1.00  0.00    -0.340 OA
ATOM     32  H3  UNL     1       2.539  -2.777   0.498  1.00  0.00     0.220 HD
ENDBRANCH   2  31
TORSDOF 9
