REMARK  10 active torsions:
REMARK  status: ('A' for Active; 'I' for Inactive)
REMARK    1  A    between atoms: O1_2  and  C2_3 
REMARK    2  A    between atoms: C2_3  and  C3_7 
REMARK    3  A    between atoms: C5_13  and  N4_14 
REMARK    4  A    between atoms: N4_14  and  N5_16 
REMARK    5  A    between atoms: C6_18  and  S1_19 
REMARK    6  A    between atoms: S1_19  and  N6_20 
REMARK    7  A    between atoms: C8_27  and  C9_28 
REMARK    8  A    between atoms: C11_30  and  O2_31 
REMARK    9  A    between atoms: C13_33  and  O3_34 
REMARK   10  A    between atoms: C15_36  and  O4_37 
ROOT
HETATM    1  C3  UNL     1       0.855   0.638   0.871  1.00  0.00     0.112 A 
HETATM    2  N2  UNL     1       2.218   0.600   0.925  1.00  0.00    -0.335 N 
ATOM      3  H2  UNL     1       2.720   1.235   1.545  1.00  0.00     0.168 HD
HETATM    4  C4  UNL     1       2.915  -0.291   0.146  1.00  0.00     0.142 A 
HETATM    5  N3  UNL     1       4.235  -0.409   0.120  1.00  0.00    -0.319 N 
ATOM      6  H3  UNL     1       4.826   0.182   0.705  1.00  0.00     0.169 HD
HETATM    7  C5  UNL     1       4.762  -1.312  -0.683  1.00  0.00     0.167 A 
HETATM    8  S2  UNL     1       3.416  -2.028  -1.433  1.00  0.00    -0.031 SA
HETATM    9  C7  UNL     1       2.190  -1.116  -0.665  1.00  0.00     0.122 A 
HETATM   10  N7  UNL     1       0.835  -1.066  -0.705  1.00  0.00    -0.345 N 
ATOM     11  H7  UNL     1       0.330  -1.700  -1.324  1.00  0.00     0.167 HD
HETATM   12  C8  UNL     1       0.127  -0.176   0.074  1.00  0.00     0.075 A 
ENDROOT
BRANCH  12  13
HETATM   13  C9  UNL     1      -1.293  -0.221  -0.064  1.00  0.00    -0.002 A 
HETATM   14  C10 UNL     1      -1.850   0.050  -1.322  1.00  0.00     0.053 A 
HETATM   15  C11 UNL     1      -3.200  -0.053  -1.549  1.00  0.00     0.105 A 
HETATM   16  C13 UNL     1      -4.094  -0.425  -0.569  1.00  0.00     0.135 A 
HETATM   17  C15 UNL     1      -3.558  -0.694   0.672  1.00  0.00     0.105 A 
HETATM   18  C17 UNL     1      -2.201  -0.591   0.898  1.00  0.00     0.053 A 
BRANCH  15  19
HETATM   19  O2  UNL     1      -3.753   0.218  -2.803  1.00  0.00    -0.353 OA
HETATM   20  C12 UNL     1      -2.901   0.613  -3.890  1.00  0.00     0.210 C 
ENDBRANCH  15  19
BRANCH  16  21
HETATM   21  O3  UNL     1      -5.443  -0.531  -0.778  1.00  0.00    -0.351 OA
HETATM   22  C14 UNL     1      -6.370   0.521  -0.601  1.00  0.00     0.210 C 
ENDBRANCH  16  21
BRANCH  17  23
HETATM   23  O4  UNL     1      -4.397  -1.073   1.704  1.00  0.00    -0.353 OA
HETATM   24  C16 UNL     1      -3.889  -1.358   2.992  1.00  0.00     0.210 C 
ENDBRANCH  17  23
ENDBRANCH  12  13
BRANCH   1  25
HETATM   25  C2  UNL     1       0.219   1.657   1.680  1.00  0.00     0.165 C 
HETATM   26  N1  UNL     1       0.991   2.448   2.392  1.00  0.00    -0.378 N 
ATOM     27  H12 UNL     1       0.543   3.166   2.962  1.00  0.00     0.158 HD
ATOM     28  H11 UNL     1       1.991   2.263   2.310  1.00  0.00     0.158 HD
BRANCH  25  29
HETATM   29  O1  UNL     1      -1.108   1.902   1.789  1.00  0.00    -0.339 OA
HETATM   30  C1  UNL     1      -1.699   3.160   2.071  1.00  0.00     0.211 C 
ENDBRANCH  25  29
ENDBRANCH   1  25
BRANCH   7  31
HETATM   31  N4  UNL     1       6.024  -1.586  -0.857  1.00  0.00    -0.279 N 
ATOM     32  H4  UNL     1       6.730  -1.069  -0.333  1.00  0.00     0.189 HD
BRANCH  31  33
HETATM   33  N5  UNL     1       6.420  -2.581  -1.754  1.00  0.00    -0.302 N 
HETATM   34  C6  UNL     1       7.514  -2.437  -2.386  1.00  0.00     0.174 C 
ATOM     35  H5  UNL     1       5.842  -3.409  -1.899  1.00  0.00     0.186 HD
BRANCH  34  36
HETATM   36  S1  UNL     1       8.600  -1.032  -2.208  1.00  0.00    -0.015 SA
BRANCH  36  37
HETATM   37  N6  UNL     1       9.311  -0.968  -0.597  1.00  0.00    -0.369 N 
ATOM     38  H62 UNL     1       9.116  -1.655   0.131  1.00  0.00     0.164 HD
ATOM     39  H61 UNL     1       9.932  -0.165  -0.495  1.00  0.00     0.164 HD
ENDBRANCH  36  37
ENDBRANCH  34  36
ENDBRANCH  31  33
ENDBRANCH   7  31
TORSDOF 10
