REMARK  11 active torsions:
REMARK  status: ('A' for Active; 'I' for Inactive)
REMARK    1  A    between atoms: N1_2  and  O1_3 
REMARK    2  A    between atoms: O1_3  and  C2_4 
REMARK    3  A    between atoms: C2_4  and  N3_9 
REMARK    4  A    between atoms: N2_5  and  O2_7 
REMARK    5  A    between atoms: N3_9  and  C3_11 
REMARK    6  A    between atoms: C4_12  and  C5_13 
REMARK    7  A    between atoms: C7_15  and  O3_16 
REMARK    8  A    between atoms: C9_18  and  O4_19 
REMARK    9  A    between atoms: C11_21  and  O5_22 
REMARK   10  A    between atoms: C13_24  and  O6_25 
REMARK   11  A    between atoms: C17_30  and  O7_31 
ROOT
HETATM    1  C3  UNL     1       1.962   1.004  -0.300  1.00  0.00     0.124 A 
HETATM    2  C4  UNL     1       0.696   1.401   0.053  1.00  0.00     0.036 A 
HETATM    3  C15 UNL     1       0.475   2.712   0.390  1.00  0.00     0.116 A 
HETATM    4  C16 UNL     1      -0.797   3.198   0.788  1.00  0.00     0.105 C 
HETATM    5  N4  UNL     1      -1.839   3.574   1.114  1.00  0.00    -0.191 NA
HETATM    6  C17 UNL     1       1.541   3.582   0.357  1.00  0.00     0.210 A 
HETATM    7  O8  UNL     1       2.731   3.158   0.013  1.00  0.00    -0.248 OA
HETATM    8  C19 UNL     1       2.999   1.932  -0.314  1.00  0.00     0.318 A 
HETATM    9  O9  UNL     1       4.167   1.551  -0.644  1.00  0.00    -0.257 OA
ENDROOT
BRANCH   2  10
HETATM   10  C5  UNL     1      -0.388   0.440   0.076  1.00  0.00     0.017 A 
HETATM   11  C6  UNL     1      -0.729  -0.194   1.265  1.00  0.00     0.055 A 
HETATM   12  C7  UNL     1      -1.766  -1.088   1.365  1.00  0.00     0.105 A 
HETATM   13  C9  UNL     1      -2.472  -1.337   0.209  1.00  0.00     0.138 A 
HETATM   14  C11 UNL     1      -2.194  -0.753  -0.991  1.00  0.00     0.138 A 
HETATM   15  C13 UNL     1      -1.128   0.155  -1.056  1.00  0.00     0.115 A 
BRANCH  12  16
HETATM   16  O3  UNL     1      -2.105  -1.725   2.570  1.00  0.00    -0.353 OA
HETATM   17  C8  UNL     1      -1.317  -1.399   3.700  1.00  0.00     0.210 C 
ENDBRANCH  12  16
BRANCH  13  18
HETATM   18  O4  UNL     1      -3.528  -2.235   0.268  1.00  0.00    -0.351 OA
HETATM   19  C10 UNL     1      -4.858  -1.862   0.559  1.00  0.00     0.210 C 
ENDBRANCH  13  18
BRANCH  14  20
HETATM   20  O5  UNL     1      -2.927  -1.023  -2.154  1.00  0.00    -0.351 OA
HETATM   21  C12 UNL     1      -2.487  -2.088  -2.972  1.00  0.00     0.210 C 
ENDBRANCH  14  20
BRANCH  15  22
HETATM   22  O6  UNL     1      -0.848   0.741  -2.271  1.00  0.00    -0.352 OA
HETATM   23  C14 UNL     1      -1.399   1.926  -2.768  1.00  0.00     0.210 C 
ENDBRANCH  15  22
ENDBRANCH   2  10
BRANCH   6  24
HETATM   24  O7  UNL     1       1.314   4.905   0.697  1.00  0.00    -0.334 OA
HETATM   25  C18 UNL     1       1.059   5.895  -0.294  1.00  0.00     0.212 C 
ENDBRANCH   6  24
BRANCH   1  26
HETATM   26  N3  UNL     1       2.206  -0.325  -0.652  1.00  0.00    -0.314 N 
ATOM     27  H3  UNL     1       2.078  -0.605  -1.625  1.00  0.00     0.170 HD
BRANCH  26  28
HETATM   28  C2  UNL     1       2.622  -1.298   0.283  1.00  0.00     0.263 C 
HETATM   29  N2  UNL     1       2.887  -1.094   1.513  1.00  0.00    -0.231 N 
ATOM     30  H2  UNL     1       3.181  -1.889   2.081  1.00  0.00     0.198 HD
BRANCH  28  31
HETATM   31  O1  UNL     1       2.782  -2.648  -0.121  1.00  0.00    -0.207 OA
BRANCH  31  32
HETATM   32  N1  UNL     1       3.587  -3.492   0.606  1.00  0.00    -0.096 NA
HETATM   33  C1  UNL     1       4.272  -4.359  -0.333  1.00  0.00     0.168 C 
ENDBRANCH  31  32
ENDBRANCH  28  31
BRANCH  29  34
HETATM   34  O2  UNL     1       2.800   0.123   2.110  1.00  0.00    -0.287 OA
ATOM     35  H2  UNL     1       2.998   0.275   3.027  1.00  0.00     0.244 HD
ENDBRANCH  29  34
ENDBRANCH  26  28
ENDBRANCH   1  26
TORSDOF 11
