REMARK  11 active torsions:
REMARK  status: ('A' for Active; 'I' for Inactive)
REMARK    1  A    between atoms: C1_2  and  C2_4 
REMARK    2  A    between atoms: C2_4  and  C3_6 
REMARK    3  A    between atoms: C3_6  and  C4_8 
REMARK    4  A    between atoms: C4_8  and  O5_9 
REMARK    5  A    between atoms: O5_9  and  C5_10 
REMARK    6  A    between atoms: C5_10  and  C6_12 
REMARK    7  A    between atoms: C8_14  and  O7_15 
REMARK    8  A    between atoms: C9_17  and  O8_18 
REMARK    9  A    between atoms: C10_20  and  O9_21 
REMARK   10  A    between atoms: C11_23  and  O10_24 
REMARK   11  A    between atoms: O10_24  and  S1_25 
ROOT
HETATM    1  C6  UNL     1      -1.000   0.422  -0.457  1.00  0.00     0.080 A 
HETATM    2  C7  UNL     1      -1.159   1.692  -1.025  1.00  0.00     0.060 A 
HETATM    3  C8  UNL     1      -2.347   1.976  -1.645  1.00  0.00     0.102 A 
HETATM    4  C9  UNL     1      -3.371   1.027  -1.711  1.00  0.00     0.135 A 
HETATM    5  C10 UNL     1      -3.167  -0.207  -1.138  1.00  0.00     0.138 A 
HETATM    6  C11 UNL     1      -1.970  -0.544  -0.492  1.00  0.00     0.144 A 
ENDROOT
BRANCH   1   7
HETATM    7  C5  UNL     1       0.293   0.095   0.188  1.00  0.00     0.296 C 
HETATM    8  O6  UNL     1       0.486  -1.042   0.668  1.00  0.00    -0.259 OA
BRANCH   7   9
HETATM    9  O5  UNL     1       1.311   1.017   0.278  1.00  0.00    -0.309 OA
BRANCH   9  10
HETATM   10  C4  UNL     1       2.571   0.814   0.863  1.00  0.00     0.266 C 
BRANCH  10  11
HETATM   11  C3  UNL     1       3.386  -0.233   0.251  1.00  0.00     0.230 C 
HETATM   12  O4  UNL     1       2.974  -0.876  -0.737  1.00  0.00    -0.286 OA
BRANCH  11  13
HETATM   13  C2  UNL     1       4.700  -0.548   0.784  1.00  0.00     0.295 C 
HETATM   14  O3  UNL     1       5.160   0.085   1.794  1.00  0.00    -0.277 OA
BRANCH  13  15
HETATM   15  C1  UNL     1       5.534  -1.588   0.192  1.00  0.00     0.255 C 
HETATM   16  O1  UNL     1       5.138  -2.246  -0.803  1.00  0.00    -0.641 OA
HETATM   17  O2  UNL     1       6.785  -1.877   0.712  1.00  0.00    -0.641 OA
ENDBRANCH  13  15
ENDBRANCH  11  13
ENDBRANCH  10  11
ENDBRANCH   9  10
ENDBRANCH   7   9
ENDBRANCH   1   7
BRANCH   6  18
HETATM   18  O10 UNL     1      -1.812  -1.799   0.075  1.00  0.00    -0.210 OA
BRANCH  18  19
HETATM   19  S1  UNL     1      -2.334  -1.968   1.708  1.00  0.00     0.257 S 
HETATM   20  O11 UNL     1      -1.582  -3.058   2.392  1.00  0.00    -0.572 OA
HETATM   21  O12 UNL     1      -3.787  -2.440   1.671  1.00  0.00    -0.572 OA
HETATM   22  O13 UNL     1      -2.279  -0.522   2.515  1.00  0.00    -0.572 OA
ENDBRANCH  18  19
ENDBRANCH   6  18
BRANCH   3  23
HETATM   23  O7  UNL     1      -2.570   3.237  -2.237  1.00  0.00    -0.358 OA
ATOM     24  H7  UNL     1      -3.394   3.434  -2.667  1.00  0.00     0.217 HD
ENDBRANCH   3  23
BRANCH   5  25
HETATM   25  O9  UNL     1      -4.157  -1.188  -1.177  1.00  0.00    -0.356 OA
ATOM     26  H9  UNL     1      -4.016  -2.040  -0.781  1.00  0.00     0.218 HD
ENDBRANCH   5  25
BRANCH   4  27
HETATM   27  O8  UNL     1      -4.573   1.329  -2.345  1.00  0.00    -0.356 OA
ATOM     28  H8  UNL     1      -5.269   0.684  -2.390  1.00  0.00     0.218 HD
ENDBRANCH   4  27
TORSDOF 11
