REMARK  12 active torsions:
REMARK  status: ('A' for Active; 'I' for Inactive)
REMARK    1  A    between atoms: C2_2  and  O1_3 
REMARK    2  A    between atoms: O1_3  and  C3_4 
REMARK       I    between atoms: C3_4  and  N1_6 
REMARK    3  A    between atoms: N1_6  and  S1_8 
REMARK    4  A    between atoms: S1_8  and  N2_11 
REMARK    5  A    between atoms: C5_13  and  O5_14 
REMARK    6  A    between atoms: N3_16  and  N4_17 
REMARK    7  A    between atoms: N4_17  and  C6_18 
REMARK    8  A    between atoms: C6_18  and  C7_19 
REMARK    9  A    between atoms: C6_18  and  C10_22 
REMARK   10  A    between atoms: C10_22  and  O6_23 
REMARK   11  A    between atoms: C10_22  and  N5_25 
REMARK   12  A    between atoms: C12_29  and  N6_30 
ROOT
HETATM    1  N2  UNL     1       1.257   0.184  -1.351  1.00  0.00    -0.059 N 
HETATM    2  C4  UNL     1       0.851   1.321  -1.868  1.00  0.00     0.188 A 
HETATM    3  C5  UNL     1      -0.424   1.549  -1.401  1.00  0.00     0.209 A 
HETATM    4  N3  UNL     1      -0.801   0.523  -0.577  1.00  0.00     0.007 N 
HETATM    5  C12 UNL     1       0.297  -0.298  -0.589  1.00  0.00     0.727 A 
ENDROOT
BRANCH   4   6
HETATM    6  N4  UNL     1      -1.926   0.380   0.034  1.00  0.00    -0.306 NA
BRANCH   6   7
HETATM    7  C6  UNL     1      -2.995   0.425   0.550  1.00  0.00     0.147 C 
BRANCH   7   8
HETATM    8  C7  UNL     1      -3.852   1.661   0.524  1.00  0.00     0.044 C 
HETATM    9  C8  UNL     1      -5.151   1.431  -0.193  1.00  0.00     0.017 C 
HETATM   10  C9  UNL     1      -4.232   2.051   1.956  1.00  0.00     0.017 C 
ENDBRANCH   7   8
BRANCH   7  11
HETATM   11  C10 UNL     1      -3.633  -0.739   1.270  1.00  0.00     0.381 C 
BRANCH  11  12
HETATM   12  O6  UNL     1      -2.684  -1.677   1.684  1.00  0.00    -0.365 OA
ATOM     13  H6  UNL     1      -3.085  -2.409   2.137  1.00  0.00     0.212 HD
ENDBRANCH  11  12
BRANCH  11  14
HETATM   14  N5  UNL     1      -4.643  -1.390   0.430  1.00  0.00    -0.046 N 
HETATM   15  C11 UNL     1      -4.078  -1.987  -0.762  1.00  0.00     0.270 C 
ATOM     16  H52 UNL     1      -5.177  -2.075   0.965  1.00  0.00     0.280 HD
ATOM     17  H51 UNL     1      -5.395  -0.743   0.194  1.00  0.00     0.280 HD
ENDBRANCH  11  14
ENDBRANCH   7  11
ENDBRANCH   6   7
ENDBRANCH   4   6
BRANCH   3  18
HETATM   18  O5  UNL     1      -1.129   2.682  -1.774  1.00  0.00    -0.343 OA
ATOM     19  H5  UNL     1      -2.009   2.839  -1.452  1.00  0.00     0.219 HD
ENDBRANCH   3  18
BRANCH   5  20
HETATM   20  N6  UNL     1       0.378  -1.395   0.048  1.00  0.00    -0.231 N 
ATOM     21  H62 UNL     1       1.195  -2.006   0.039  1.00  0.00     0.174 HD
ATOM     22  H61 UNL     1      -0.365  -1.768   0.638  1.00  0.00     0.174 HD
ENDBRANCH   5  20
BRANCH   1  23
HETATM   23  S1  UNL     1       2.827  -0.522  -1.655  1.00  0.00     0.347 S 
HETATM   24  O3  UNL     1       2.648  -1.934  -2.176  1.00  0.00    -0.181 OA
HETATM   25  O4  UNL     1       3.534   0.281  -2.702  1.00  0.00    -0.181 OA
BRANCH  23  26
HETATM   26  N1  UNL     1       3.743  -0.663  -0.203  1.00  0.00    -0.212 N 
HETATM   27  C3  UNL     1       5.141  -0.396  -0.120  1.00  0.00     0.375 C 
HETATM   28  O2  UNL     1       5.785  -0.040  -1.121  1.00  0.00    -0.237 OA
ATOM     29  H1  UNL     1       3.258  -0.954   0.646  1.00  0.00     0.185 HD
BRANCH  27  30
HETATM   30  O1  UNL     1       5.778  -0.534   1.080  1.00  0.00    -0.304 OA
BRANCH  30  31
HETATM   31  C2  UNL     1       7.136  -0.301   1.270  1.00  0.00     0.176 C 
HETATM   32  C1  UNL     1       8.040  -1.177   0.472  1.00  0.00     0.034 C 
ENDBRANCH  30  31
ENDBRANCH  27  30
ENDBRANCH  23  26
ENDBRANCH   1  23
TORSDOF 12
