REMARK  7 active torsions:
REMARK  status: ('A' for Active; 'I' for Inactive)
REMARK    1  A    between atoms: C3_5  and  S1_6 
REMARK    2  A    between atoms: S1_6  and  C4_7 
REMARK    3  A    between atoms: C4_7  and  C5_8 
REMARK    4  A    between atoms: C5_8  and  C6_9 
REMARK    5  A    between atoms: C6_9  and  C7_10 
REMARK    6  A    between atoms: C7_10  and  N2_11 
REMARK    7  A    between atoms: C10_17  and  C11_18 
ROOT
HETATM    1  C1  UNL     1      -1.761   0.707  -4.011  1.00  0.00     0.089 C 
HETATM    2  C2  UNL     1      -1.246   0.327  -2.653  1.00  0.00     0.078 A 
HETATM    3  N1  UNL     1      -0.085  -0.322  -2.565  1.00  0.00    -0.340 N 
ATOM      4  H1  UNL     1       0.429  -0.521  -3.423  1.00  0.00     0.167 HD
HETATM    5  C3  UNL     1       0.455  -0.738  -1.357  1.00  0.00     0.079 A 
HETATM    6  C8  UNL     1      -0.253  -0.452  -0.226  1.00  0.00    -0.005 A 
HETATM    7  C9  UNL     1       0.291  -0.819   1.128  1.00  0.00     0.053 C 
HETATM    8  C10 UNL     1      -1.463   0.223  -0.313  1.00  0.00     0.023 A 
HETATM    9  N3  UNL     1      -1.900   0.580  -1.529  1.00  0.00    -0.349 N 
ATOM     10  H3  UNL     1      -2.789   1.076  -1.593  1.00  0.00     0.167 HD
ENDROOT
BRANCH   5  11
HETATM   11  S1  UNL     1       1.980  -1.619  -1.390  1.00  0.00    -0.112 SA
BRANCH  11  12
HETATM   12  C4  UNL     1       3.369  -0.524  -1.161  1.00  0.00     0.081 C 
BRANCH  12  13
HETATM   13  C5  UNL     1       4.073  -0.668   0.179  1.00  0.00     0.012 C 
BRANCH  13  14
HETATM   14  C6  UNL     1       5.222   0.334   0.192  1.00  0.00     0.028 C 
BRANCH  14  15
HETATM   15  C7  UNL     1       6.064   0.179   1.466  1.00  0.00     0.229 C 
BRANCH  15  16
HETATM   16  N2  UNL     1       6.625  -1.167   1.452  1.00  0.00    -0.079 N 
ATOM     17  H23 UNL     1       5.917  -1.894   1.351  1.00  0.00     0.274 HD
ATOM     18  H22 UNL     1       7.148  -1.373   0.601  1.00  0.00     0.274 HD
ATOM     19  H21 UNL     1       7.185  -1.270   2.299  1.00  0.00     0.274 HD
ENDBRANCH  15  16
ENDBRANCH  14  15
ENDBRANCH  13  14
ENDBRANCH  12  13
ENDBRANCH  11  12
ENDBRANCH   5  11
BRANCH   8  20
HETATM   20  C11 UNL     1      -2.325   0.511   0.859  1.00  0.00     0.036 C 
HETATM   21  C12 UNL     1      -3.278   1.638   0.505  1.00  0.00     0.011 C 
HETATM   22  C13 UNL     1      -4.624   1.510   1.178  1.00  0.00     0.001 C 
HETATM   23  C14 UNL     1      -5.366   0.265   0.730  1.00  0.00     0.000 C 
HETATM   24  C15 UNL     1      -4.386  -0.828   0.344  1.00  0.00     0.001 C 
HETATM   25  C16 UNL     1      -3.143  -0.734   1.219  1.00  0.00     0.011 C 
ENDBRANCH   8  20
TORSDOF 7
