REMARK  6 active torsions:
REMARK  status: ('A' for Active; 'I' for Inactive)
REMARK    1  A    between atoms: C2_2  and  O1_3 
REMARK    2  A    between atoms: O1_3  and  C3_4 
REMARK    3  A    between atoms: C3_4  and  C4_5 
REMARK    4  A    between atoms: C4_5  and  C5_6 
REMARK    5  A    between atoms: C5_6  and  C6_7 
REMARK    6  A    between atoms: C6_7  and  O2_8 
ROOT
HETATM    1  C3  UNL     1      -0.253   0.329   0.151  1.00  0.00     0.078 C 
HETATM    2  C7  UNL     1      -0.192   0.837   1.550  1.00  0.00     0.089 C 
HETATM    3  C8  UNL     1      -1.458   1.277   2.182  1.00  0.00     0.025 C 
HETATM    4  S1  UNL     1       0.499  -0.351   2.759  1.00  0.00    -0.090 SA
HETATM    5  S2  UNL     1       0.937  -2.213   1.909  1.00  0.00    -0.092 SA
HETATM    6  C9  UNL     1       1.063  -1.888   0.132  1.00  0.00     0.065 C 
HETATM    7  C10 UNL     1       2.379  -2.465  -0.333  1.00  0.00     0.016 C 
HETATM    8  C11 UNL     1       3.561  -1.585  -0.245  1.00  0.00     0.001 C 
HETATM    9  C12 UNL     1       3.293  -0.203  -0.861  1.00  0.00     0.001 C 
HETATM   10  C13 UNL     1       2.196   0.353   0.023  1.00  0.00     0.009 C 
HETATM   11  C14 UNL     1       0.947  -0.497  -0.266  1.00  0.00     0.036 C 
ENDROOT
BRANCH   1  12
HETATM   12  O1  UNL     1       0.063   1.464  -0.652  1.00  0.00    -0.379 OA
BRANCH  12  13
HETATM   13  C2  UNL     1      -0.709   2.525  -0.661  1.00  0.00     0.164 C 
HETATM   14  C1  UNL     1      -0.016   3.547  -1.608  1.00  0.00     0.033 C 
ENDBRANCH  12  13
ENDBRANCH   1  12
BRANCH   1  15
HETATM   15  C4  UNL     1      -1.562  -0.125  -0.338  1.00  0.00     0.042 C 
BRANCH  15  16
HETATM   16  C5  UNL     1      -2.269  -1.269   0.230  1.00  0.00     0.029 C 
BRANCH  16  17
HETATM   17  C6  UNL     1      -3.593  -1.407  -0.563  1.00  0.00     0.164 C 
BRANCH  17  18
HETATM   18  O2  UNL     1      -4.312  -2.489  -0.058  1.00  0.00    -0.401 OA
ATOM     19  H2  UNL     1      -5.124  -2.574  -0.544  1.00  0.00     0.209 HD
ENDBRANCH  17  18
ENDBRANCH  16  17
ENDBRANCH  15  16
ENDBRANCH   1  15
TORSDOF 6
