REMARK  6 active torsions:
REMARK  status: ('A' for Active; 'I' for Inactive)
REMARK    1  A    between atoms: C2_2  and  O1_3 
REMARK    2  A    between atoms: O1_3  and  C3_4 
REMARK    3  A    between atoms: C3_4  and  C4_5 
REMARK    4  A    between atoms: C4_5  and  C5_6 
REMARK    5  A    between atoms: C5_6  and  C6_7 
REMARK    6  A    between atoms: C12_16  and  C13_17 
ROOT
HETATM    1  C1  UNL     1       2.949  -0.362  -0.899  1.00  0.00     0.094 A 
HETATM    2  C2  UNL     1       1.700  -0.774  -0.473  1.00  0.00     0.165 A 
HETATM    3  N1  UNL     1       1.876  -1.258   0.760  1.00  0.00    -0.239 N 
ATOM      4  H1  UNL     1       1.143  -1.644   1.355  1.00  0.00     0.197 HD
HETATM    5  O2  UNL     1       3.117  -1.159   1.076  1.00  0.00    -0.238 OA
HETATM    6  C12 UNL     1       3.821  -0.630   0.130  1.00  0.00     0.111 A 
ENDROOT
BRANCH   2   7
HETATM    7  O1  UNL     1       0.519  -0.685  -1.212  1.00  0.00    -0.334 OA
BRANCH   7   8
HETATM    8  C3  UNL     1      -0.745  -1.105  -0.769  1.00  0.00     0.177 C 
BRANCH   8   9
HETATM    9  C4  UNL     1      -1.242  -0.405   0.461  1.00  0.00     0.027 C 
BRANCH   9  10
HETATM   10  C5  UNL     1      -2.596  -0.877   0.901  1.00  0.00     0.007 C 
BRANCH  10  11
HETATM   11  C6  UNL     1      -3.676  -0.670  -0.141  1.00  0.00    -0.014 C 
HETATM   12  C7  UNL     1      -4.985  -1.165   0.374  1.00  0.00     0.004 C 
HETATM   13  C8  UNL     1      -5.964  -0.130   0.796  1.00  0.00     0.000 C 
HETATM   14  C9  UNL     1      -6.021   1.094  -0.063  1.00  0.00     0.000 C 
HETATM   15  C10 UNL     1      -5.042   1.037  -1.216  1.00  0.00     0.000 C 
HETATM   16  C11 UNL     1      -3.688   0.778  -0.557  1.00  0.00     0.004 C 
ENDBRANCH  10  11
ENDBRANCH   9  10
ENDBRANCH   8   9
ENDBRANCH   7   8
ENDBRANCH   2   7
BRANCH   6  17
HETATM   17  C13 UNL     1       5.273  -0.328   0.056  1.00  0.00     0.244 C 
HETATM   18  C14 UNL     1       5.580   0.692  -1.015  1.00  0.00     0.041 C 
HETATM   19  C15 UNL     1       6.963   1.162  -0.593  1.00  0.00     0.030 C 
HETATM   20  C16 UNL     1       6.847   1.158   0.907  1.00  0.00     0.233 C 
HETATM   21  N2  UNL     1       5.761   0.298   1.266  1.00  0.00    -0.065 N 
ATOM     22  H22 UNL     1       5.028   0.782   1.784  1.00  0.00     0.278 HD
ATOM     23  H21 UNL     1       6.013  -0.378   1.987  1.00  0.00     0.278 HD
ENDBRANCH   6  17
TORSDOF 6
