REMARK  6 active torsions:
REMARK  status: ('A' for Active; 'I' for Inactive)
REMARK    1  A    between atoms: C2_2  and  C3_3 
REMARK    2  A    between atoms: C3_3  and  C4_5 
REMARK    3  A    between atoms: C4_5  and  C8_17 
REMARK    4  A    between atoms: C5_6  and  N1_7 
REMARK       I    between atoms: N2_9  and  C6_11 
REMARK       I    between atoms: C6_11  and  N3_13 
REMARK    5  A    between atoms: N3_13  and  O3_15 
REMARK    6  A    between atoms: C8_17  and  C9_18 
ROOT
HETATM    1  C4  UNL     1       0.248   0.298  -0.529  1.00  0.00     0.005 C 
HETATM    2  C5  UNL     1       1.020  -0.698  -0.878  1.00  0.00     0.118 C 
ENDROOT
BRANCH   1   3
HETATM    3  C3  UNL     1       0.408   1.580  -1.157  1.00  0.00     0.156 C 
HETATM    4  O1  UNL     1       1.311   1.695  -2.070  1.00  0.00    -0.293 OA
BRANCH   3   5
HETATM    5  C2  UNL     1      -0.333   2.821  -0.897  1.00  0.00     0.079 C 
HETATM    6  C1  UNL     1       0.723   3.809  -0.339  1.00  0.00     0.013 C 
ENDBRANCH   3   5
ENDBRANCH   1   3
BRANCH   1   7
HETATM    7  C8  UNL     1      -0.735   0.063   0.528  1.00  0.00     0.048 C 
BRANCH   7   8
HETATM    8  C9  UNL     1      -2.164  -0.004   0.128  1.00  0.00    -0.010 C 
HETATM    9  C10 UNL     1      -3.037  -0.244   1.353  1.00  0.00     0.005 C 
HETATM   10  C11 UNL     1      -3.919  -1.441   1.239  1.00  0.00     0.000 C 
HETATM   11  C12 UNL     1      -4.734  -1.434  -0.039  1.00  0.00     0.000 C 
HETATM   12  C13 UNL     1      -3.904  -1.042  -1.230  1.00  0.00     0.000 C 
HETATM   13  C14 UNL     1      -2.441  -1.146  -0.839  1.00  0.00     0.005 C 
ENDBRANCH   7   8
ENDBRANCH   1   7
BRANCH   2  14
HETATM   14  N1  UNL     1       2.016  -0.566  -1.857  1.00  0.00    -0.307 N 
HETATM   15  N2  UNL     1       3.259  -0.675  -1.713  1.00  0.00    -0.250 N 
HETATM   16  C6  UNL     1       3.790  -0.967  -0.436  1.00  0.00     0.358 C 
ATOM     17  H2  UNL     1       3.881  -0.554  -2.512  1.00  0.00     0.192 HD
HETATM   18  O2  UNL     1       3.241  -1.793   0.350  1.00  0.00    -0.243 OA
HETATM   19  N3  UNL     1       4.989  -0.317   0.002  1.00  0.00    -0.216 N 
ATOM     20  H3  UNL     1       5.438   0.349  -0.627  1.00  0.00     0.199 HD
ATOM     21  H1  UNL     1       1.691  -0.356  -2.801  1.00  0.00     0.186 HD
BRANCH  19  22
HETATM   22  O3  UNL     1       5.549  -0.543   1.200  1.00  0.00    -0.281 OA
HETATM   23  C7  UNL     1       6.746  -1.227   1.033  1.00  0.00     0.237 C 
ENDBRANCH  19  22
ENDBRANCH   2  14
TORSDOF 6
