REMARK  5 active torsions:
REMARK  status: ('A' for Active; 'I' for Inactive)
REMARK    1  A    between atoms: N1_1  and  C1_4 
REMARK    2  A    between atoms: C2_7  and  O1_8 
REMARK    3  A    between atoms: C3_10  and  C4_11 
REMARK    4  A    between atoms: C4_11  and  C5_13 
REMARK    5  A    between atoms: C10_20  and  O3_21 
ROOT
HETATM    1  C4  UNL     1       0.513   0.715  -0.497  1.00  0.00     0.177 C 
HETATM    2  O2  UNL     1       0.468   1.619  -1.357  1.00  0.00    -0.291 OA
ENDROOT
BRANCH   1   3
HETATM    3  C3  UNL     1       1.841   0.298  -0.021  1.00  0.00     0.105 A 
HETATM    4  C2  UNL     1       3.059   0.777  -0.400  1.00  0.00     0.163 A 
HETATM    5  N2  UNL     1       4.125   0.250   0.165  1.00  0.00    -0.316 N 
HETATM    6  C1  UNL     1       3.958  -0.710   1.066  1.00  0.00     0.145 A 
ATOM      7  H2  UNL     1       5.060   0.573  -0.085  1.00  0.00     0.170 HD
HETATM    8  S1  UNL     1       2.267  -0.888   1.130  1.00  0.00    -0.046 SA
BRANCH   4   9
HETATM    9  O1  UNL     1       3.155   1.817  -1.380  1.00  0.00    -0.345 OA
ATOM     10  H1  UNL     1       2.386   2.197  -1.788  1.00  0.00     0.219 HD
ENDBRANCH   4   9
BRANCH   6  11
HETATM   11  N1  UNL     1       4.870  -1.367   1.745  1.00  0.00    -0.380 N 
ATOM     12  H12 UNL     1       5.884  -1.260   1.707  1.00  0.00     0.158 HD
ATOM     13  H11 UNL     1       4.742  -2.105   2.437  1.00  0.00     0.158 HD
ENDBRANCH   6  11
ENDBRANCH   1   3
BRANCH   1  14
HETATM   14  C5  UNL     1      -0.723   0.130  -0.018  1.00  0.00     0.096 C 
HETATM   15  C6  UNL     1      -0.859  -1.348  -0.254  1.00  0.00     0.015 C 
HETATM   16  C7  UNL     1      -2.233  -1.793   0.187  1.00  0.00     0.007 C 
HETATM   17  C8  UNL     1      -2.981  -0.701   0.907  1.00  0.00     0.082 C 
HETATM   18  C9  UNL     1      -3.161   0.526   0.077  1.00  0.00     0.269 C 
HETATM   19  F1  UNL     1      -4.206   0.389  -0.823  1.00  0.00    -0.203 F 
HETATM   20  F2  UNL     1      -3.513   1.592   0.904  1.00  0.00    -0.203 F 
HETATM   21  C10 UNL     1      -1.897   0.820  -0.671  1.00  0.00     0.202 C 
BRANCH  21  22
HETATM   22  O3  UNL     1      -1.733   2.213  -0.675  1.00  0.00    -0.389 OA
ATOM     23  H3  UNL     1      -2.471   2.647  -1.086  1.00  0.00     0.210 HD
ENDBRANCH  21  22
ENDBRANCH   1  14
TORSDOF 5
