REMARK  4 active torsions:
REMARK  status: ('A' for Active; 'I' for Inactive)
REMARK    1  A    between atoms: C2_2  and  C3_3 
REMARK    2  A    between atoms: C3_3  and  C5_5 
REMARK    3  A    between atoms: C9_16  and  N4_17 
REMARK    4  A    between atoms: S1_20  and  C10_21 
ROOT
HETATM    1  C5  UNL     1       0.497   0.176  -0.779  1.00  0.00     0.149 C 
HETATM    2  N1  UNL     1      -0.153  -1.035  -0.371  1.00  0.00    -0.371 N 
ATOM      3  H1  UNL     1       0.370  -1.908  -0.310  1.00  0.00     0.161 HD
HETATM    4  C6  UNL     1      -1.500  -1.001  -0.062  1.00  0.00     0.106 A 
HETATM    5  C7  UNL     1      -1.989   0.072   0.605  1.00  0.00     0.101 A 
HETATM    6  N2  UNL     1      -3.217   0.225   0.981  1.00  0.00    -0.301 N 
ATOM      7  H2  UNL     1      -3.492   1.070   1.482  1.00  0.00     0.171 HD
HETATM    8  C8  UNL     1      -4.157  -0.748   0.709  1.00  0.00     0.326 A 
HETATM    9  O1  UNL     1      -5.339  -0.629   1.056  1.00  0.00    -0.247 OA
HETATM   10  N3  UNL     1      -3.745  -1.837   0.050  1.00  0.00    -0.293 N 
ATOM     11  H3  UNL     1      -4.418  -2.572  -0.165  1.00  0.00     0.172 HD
HETATM   12  C9  UNL     1      -2.481  -1.985  -0.331  1.00  0.00     0.132 A 
HETATM   13  S1  UNL     1      -0.289   1.322   0.766  1.00  0.00    -0.080 SA
ENDROOT
BRANCH   1  14
HETATM   14  C3  UNL     1       1.904   0.209  -0.916  1.00  0.00     0.014 C 
HETATM   15  C4  UNL     1       2.212  -0.839  -2.057  1.00  0.00     0.012 C 
BRANCH  14  16
HETATM   16  C2  UNL     1       2.903  -0.080   0.100  1.00  0.00     0.002 C 
HETATM   17  C1  UNL     1       2.948   0.748   1.343  1.00  0.00     0.005 C 
ENDBRANCH  14  16
ENDBRANCH   1  14
BRANCH  13  18
HETATM   18  C10 UNL     1      -0.450   3.161   0.680  1.00  0.00     0.414 C 
HETATM   19  F1  UNL     1      -0.974   3.709   1.828  1.00  0.00    -0.203 F 
HETATM   20  F2  UNL     1       0.721   3.830   0.409  1.00  0.00    -0.203 F 
ENDBRANCH  13  18
BRANCH  12  21
HETATM   21  N4  UNL     1      -2.170  -3.088  -0.969  1.00  0.00    -0.383 N 
ATOM     22  H42 UNL     1      -1.199  -3.202  -1.262  1.00  0.00     0.157 HD
ATOM     23  H41 UNL     1      -2.877  -3.797  -1.163  1.00  0.00     0.157 HD
ENDBRANCH  12  21
TORSDOF 4
