REMARK  3 active torsions:
REMARK  status: ('A' for Active; 'I' for Inactive)
REMARK    1  A    between atoms: C3_5  and  N2_6 
REMARK    2  A    between atoms: N2_6  and  C4_8 
REMARK    3  A    between atoms: C8_17  and  N5_18 
ROOT
HETATM    1  C1  UNL     1       3.497  -1.406   0.323  1.00  0.00     0.070 C 
HETATM    2  C2  UNL     1       2.527  -0.415  -0.202  1.00  0.00     0.031 A 
HETATM    3  N1  UNL     1       1.209  -0.268   0.113  1.00  0.00    -0.342 N 
ATOM      4  H1  UNL     1       0.694  -0.843   0.780  1.00  0.00     0.167 HD
HETATM    5  C3  UNL     1       0.695   0.752  -0.591  1.00  0.00     0.147 A 
HETATM    6  C9  UNL     1       1.667   1.307  -1.391  1.00  0.00     0.182 A 
HETATM    7  F1  UNL     1       1.604   2.330  -2.248  1.00  0.00    -0.200 F 
HETATM    8  C10 UNL     1       2.822   0.555  -1.133  1.00  0.00     0.109 A 
HETATM    9  C11 UNL     1       4.108   0.762  -1.742  1.00  0.00     0.104 C 
HETATM   10  N6  UNL     1       5.144   0.946  -2.225  1.00  0.00    -0.191 NA
ENDROOT
BRANCH   5  11
HETATM   11  N2  UNL     1      -0.651   1.184  -0.510  1.00  0.00    -0.336 N 
ATOM     12  H2  UNL     1      -0.944   1.972  -1.087  1.00  0.00     0.168 HD
BRANCH  11  13
HETATM   13  C4  UNL     1      -1.609   0.574   0.334  1.00  0.00     0.088 A 
HETATM   14  C5  UNL     1      -2.377  -0.467  -0.100  1.00  0.00     0.009 A 
HETATM   15  C6  UNL     1      -2.232  -0.998  -1.477  1.00  0.00     0.054 C 
HETATM   16  C7  UNL     1      -3.331  -1.090   0.713  1.00  0.00     0.126 A 
HETATM   17 CL1  UNL     1      -4.281  -2.420   0.092  1.00  0.00    -0.062 Cl
HETATM   18  N3  UNL     1      -3.465  -0.614   1.959  1.00  0.00    -0.288 N 
HETATM   19  N4  UNL     1      -2.741   0.395   2.421  1.00  0.00    -0.283 N 
ATOM     20  H3  UNL     1      -4.152  -1.046   2.577  1.00  0.00     0.188 HD
HETATM   21  C8  UNL     1      -1.814   1.008   1.647  1.00  0.00     0.141 A 
ATOM     22  H4  UNL     1      -2.885   0.716   3.378  1.00  0.00     0.188 HD
BRANCH  21  23
HETATM   23  N5  UNL     1      -1.097   1.989   2.068  1.00  0.00    -0.383 N 
ATOM     24  H52 UNL     1      -0.399   2.451   1.485  1.00  0.00     0.157 HD
ATOM     25  H51 UNL     1      -1.247   2.306   3.026  1.00  0.00     0.157 HD
ENDBRANCH  21  23
ENDBRANCH  11  13
ENDBRANCH   5  11
TORSDOF 3
