REMARK  4 active torsions:
REMARK  status: ('A' for Active; 'I' for Inactive)
REMARK    1  A    between atoms: C4_5  and  C5_6 
REMARK    2  A    between atoms: C5_6  and  S1_7 
REMARK    3  A    between atoms: S1_7  and  C6_8 
REMARK    4  A    between atoms: C7_15  and  N4_16 
ROOT
HETATM    1  C1  UNL     1      -2.151  -2.982  -0.398  1.00  0.00     0.053 C 
HETATM    2  C2  UNL     1      -1.690  -1.590  -0.145  1.00  0.00     0.001 C 
HETATM    3  C3  UNL     1      -0.327  -1.382  -0.030  1.00  0.00     0.147 C 
HETATM    4  F1  UNL     1       0.393  -2.498   0.270  1.00  0.00    -0.203 F 
HETATM    5  C4  UNL     1       0.391  -0.205  -0.177  1.00  0.00     0.060 C 
HETATM    6  N3  UNL     1      -0.113   0.992  -0.435  1.00  0.00    -0.343 N 
ATOM      7  H3  UNL     1       0.557   1.675  -0.788  1.00  0.00     0.167 HD
HETATM    8  C7  UNL     1      -1.386   1.452  -0.302  1.00  0.00     0.106 C 
HETATM    9  C8  UNL     1      -2.552   0.767  -0.025  1.00  0.00     0.004 C 
HETATM   10  C9  UNL     1      -3.749   1.576   0.321  1.00  0.00     0.054 C 
HETATM   11  C10 UNL     1      -2.684  -0.618  -0.047  1.00  0.00     0.052 C 
HETATM   12 CL1  UNL     1      -4.326  -1.194   0.065  1.00  0.00    -0.083 Cl
ENDROOT
BRANCH   5  13
HETATM   13  C5  UNL     1       1.848  -0.394  -0.016  1.00  0.00     0.142 C 
BRANCH  13  14
HETATM   14  S1  UNL     1       2.788   1.113  -0.202  1.00  0.00    -0.092 SA
BRANCH  14  15
HETATM   15  C6  UNL     1       4.511   0.758   0.012  1.00  0.00     0.148 C 
HETATM   16  N1  UNL     1       4.885  -0.433   0.257  1.00  0.00    -0.382 N 
ATOM     17  H12 UNL     1       4.211  -1.195   0.334  1.00  0.00     0.157 HD
ATOM     18  H11 UNL     1       5.877  -0.637   0.380  1.00  0.00     0.157 HD
HETATM   19  N2  UNL     1       5.441   1.809  -0.094  1.00  0.00    -0.075 NA
ENDBRANCH  14  15
ENDBRANCH  13  14
ENDBRANCH   5  13
BRANCH   8  20
HETATM   20  N4  UNL     1      -1.536   2.726  -0.457  1.00  0.00    -0.385 N 
ATOM     21  H42 UNL     1      -0.674   3.232  -0.662  1.00  0.00     0.157 HD
ATOM     22  H41 UNL     1      -2.491   3.071  -0.357  1.00  0.00     0.157 HD
ENDBRANCH   8  20
TORSDOF 4
