REMARK  2 active torsions:
REMARK  status: ('A' for Active; 'I' for Inactive)
REMARK    1  A    between atoms: C4_11  and  C5_12 
REMARK    2  A    between atoms: N4_13  and  C6_15 
ROOT
HETATM    1  C1  UNL     1      -1.562   1.771  -0.942  1.00  0.00     0.070 C 
HETATM    2  C2  UNL     1      -2.092   0.599  -0.205  1.00  0.00     0.037 A 
HETATM    3  N1  UNL     1      -3.333   0.439   0.285  1.00  0.00    -0.303 N 
ATOM      4  H1  UNL     1      -4.079   1.130   0.203  1.00  0.00     0.186 HD
HETATM    5  N2  UNL     1      -3.461  -0.724   0.884  1.00  0.00    -0.285 N 
ATOM      6  H2  UNL     1      -4.303  -1.081   1.336  1.00  0.00     0.188 HD
HETATM    7  C3  UNL     1      -2.278  -1.357   0.791  1.00  0.00     0.127 A 
HETATM    8  N3  UNL     1      -1.955  -2.524   1.241  1.00  0.00    -0.384 N 
ATOM      9  H31 UNL     1      -1.058  -3.004   1.170  1.00  0.00     0.157 HD
ATOM     10  H32 UNL     1      -2.610  -3.122   1.745  1.00  0.00     0.157 HD
HETATM   11  C4  UNL     1      -1.388  -0.544   0.106  1.00  0.00     0.047 A 
ENDROOT
BRANCH  11  12
HETATM   12  C5  UNL     1       0.010  -0.853  -0.213  1.00  0.00     0.100 C 
HETATM   13  N4  UNL     1       0.689   0.042  -0.867  1.00  0.00    -0.393 N 
ATOM     14  H4  UNL     1       0.228   0.913  -1.129  1.00  0.00     0.159 HD
BRANCH  13  15
HETATM   15  C6  UNL     1       2.074  -0.152  -1.237  1.00  0.00     0.085 A 
HETATM   16  C7  UNL     1       2.890  -1.067  -0.364  1.00  0.00     0.031 A 
HETATM   17  C8  UNL     1       3.147   0.392  -0.317  1.00  0.00     0.006 A 
HETATM   18  C9  UNL     1       2.598   1.168   0.870  1.00  0.00     0.012 C 
ENDBRANCH  13  15
ENDBRANCH  11  12
TORSDOF 2
