REMARK  2 active torsions:
REMARK  status: ('A' for Active; 'I' for Inactive)
REMARK    1  A    between atoms: C3_4  and  N2_5 
REMARK    2  A    between atoms: N2_5  and  C4_7 
ROOT
HETATM    1  N2  UNL     1       1.262   0.651  -0.350  1.00  0.00    -0.355 N 
ATOM      2  H2  UNL     1       1.327   1.572  -0.784  1.00  0.00     0.162 HD
ENDROOT
BRANCH   1   3
HETATM    3  C3  UNL     1      -0.007   0.163   0.138  1.00  0.00     0.350 A 
HETATM    4  N1  UNL     1      -1.186   0.270  -0.692  1.00  0.00     0.112 N 
HETATM    5  C1  UNL     1      -2.446   0.436   0.051  1.00  0.00     0.312 C 
HETATM    6  C2  UNL     1      -0.513  -1.070  -0.449  1.00  0.00     0.331 A 
ENDBRANCH   1   3
BRANCH   1   7
HETATM    7  C4  UNL     1       2.405  -0.153  -0.221  1.00  0.00     0.170 C 
HETATM    8  N3  UNL     1       3.118  -0.085   0.836  1.00  0.00    -0.395 N 
ATOM      9  H32 UNL     1       2.843   0.559   1.578  1.00  0.00     0.156 HD
ATOM     10  H31 UNL     1       3.949  -0.669   0.930  1.00  0.00     0.156 HD
ENDBRANCH   1   7
TORSDOF 2
