REMARK  7 active torsions:
REMARK  status: ('A' for Active; 'I' for Inactive)
REMARK    1  A    between atoms: C2_2  and  C3_3 
REMARK    2  A    between atoms: C3_3  and  C4_4 
REMARK    3  A    between atoms: C4_4  and  N1_5 
REMARK    4  A    between atoms: C12_13  and  C13_14 
REMARK    5  A    between atoms: C13_14  and  C14_15 
REMARK    6  A    between atoms: C14_15  and  N2_16 
REMARK    7  A    between atoms: N2_16  and  C15_19 
ROOT
HETATM    1  N1  UNL     1       2.168   0.207   0.357  1.00  0.00    -0.373 N 
HETATM    2  C5  UNL     1       2.407   1.148  -0.662  1.00  0.00     0.068 C 
HETATM    3  C6  UNL     1       1.661   2.429  -0.650  1.00  0.00     0.029 C 
HETATM    4  C7  UNL     1       1.620   3.153   0.654  1.00  0.00     0.021 C 
HETATM    5  C8  UNL     1       0.119   3.008   1.002  1.00  0.00     0.033 C 
HETATM    6  C9  UNL     1      -0.454   3.382  -0.345  1.00  0.00     0.016 C 
HETATM    7  C10 UNL     1       0.289   2.404  -1.251  1.00  0.00    -0.004 C 
HETATM    8  C11 UNL     1      -0.422   1.078  -1.171  1.00  0.00     0.022 C 
HETATM    9  C12 UNL     1      -0.661   0.630   0.231  1.00  0.00     0.017 C 
HETATM   10  C18 UNL     1      -0.034   1.542   1.222  1.00  0.00     0.004 C 
HETATM   11  N3  UNL     1       0.321   0.851   2.240  1.00  0.00    -0.333 N 
ATOM     12  H3  UNL     1       0.771   1.246   3.065  1.00  0.00     0.168 HD
HETATM   13  C19 UNL     1       0.016  -0.531   2.089  1.00  0.00     0.232 C 
HETATM   14  O1  UNL     1      -0.153  -1.373   2.990  1.00  0.00    -0.272 OA
HETATM   15  C20 UNL     1      -0.047  -0.701   0.588  1.00  0.00     0.131 C 
HETATM   16  C21 UNL     1       1.356  -0.910   0.107  1.00  0.00     0.078 C 
ENDROOT
BRANCH   9  17
HETATM   17  C13 UNL     1      -2.131   0.524   0.587  1.00  0.00     0.044 C 
BRANCH  17  18
HETATM   18  C14 UNL     1      -2.896  -0.437  -0.259  1.00  0.00     0.233 C 
BRANCH  18  19
HETATM   19  N2  UNL     1      -4.280  -0.408   0.242  1.00  0.00    -0.072 N 
ATOM     20  H22 UNL     1      -4.337  -0.583   1.245  1.00  0.00     0.277 HD
ATOM     21  H21 UNL     1      -4.677   0.532   0.241  1.00  0.00     0.277 HD
BRANCH  19  22
HETATM   22  C15 UNL     1      -5.072  -1.350  -0.535  1.00  0.00     0.177 C 
HETATM   23  C16 UNL     1      -6.470  -1.455  -0.018  1.00  0.00     0.039 C 
HETATM   24  C17 UNL     1      -4.426  -2.718  -0.391  1.00  0.00     0.039 C 
ENDBRANCH  19  22
ENDBRANCH  18  19
ENDBRANCH  17  18
ENDBRANCH   9  17
BRANCH   1  25
HETATM   25  C4  UNL     1       3.249  -0.073   1.251  1.00  0.00     0.127 C 
BRANCH  25  26
HETATM   26  C3  UNL     1       4.444  -0.747   0.680  1.00  0.00     0.020 C 
BRANCH  26  27
HETATM   27  C2  UNL     1       4.220  -2.105   0.081  1.00  0.00    -0.003 C 
HETATM   28  C1  UNL     1       5.570  -2.632  -0.439  1.00  0.00     0.005 C 
ENDBRANCH  26  27
ENDBRANCH  25  26
ENDBRANCH   1  25
TORSDOF 7
