REMARK  7 active torsions:
REMARK  status: ('A' for Active; 'I' for Inactive)
REMARK    1  A    between atoms: C2_2  and  C3_3 
REMARK    2  A    between atoms: C3_3  and  C4_4 
REMARK    3  A    between atoms: C5_5  and  O1_6 
REMARK    4  A    between atoms: C7_8  and  C8_9 
REMARK    5  A    between atoms: N1_11  and  N2_13 
REMARK    6  A    between atoms: C12_19  and  N5_20 
REMARK    7  A    between atoms: C16_24  and  C17_25 
ROOT
HETATM    1  C4  UNL     1      -0.816   1.172   0.440  1.00  0.00    -0.011 A 
HETATM    2  C5  UNL     1       0.523   0.963   0.818  1.00  0.00     0.087 A 
HETATM    3  C7  UNL     1       1.151  -0.234   0.607  1.00  0.00     0.024 A 
HETATM    4  C11 UNL     1       0.371  -1.223  -0.010  1.00  0.00     0.054 A 
HETATM    5  C12 UNL     1      -0.961  -1.073  -0.410  1.00  0.00     0.147 A 
HETATM    6  C16 UNL     1      -1.556   0.152  -0.171  1.00  0.00     0.009 A 
ENDROOT
BRANCH   3   7
HETATM    7  C8  UNL     1       2.533  -0.574   0.942  1.00  0.00     0.035 C 
HETATM    8  C9  UNL     1       3.583   0.220   1.540  1.00  0.00     0.070 C 
HETATM    9  N1  UNL     1       2.880  -1.804   0.636  1.00  0.00    -0.302 N 
ATOM     10  H1  UNL     1       2.150  -2.370   0.203  1.00  0.00     0.186 HD
BRANCH   9  11
HETATM   11  N2  UNL     1       4.042  -2.411   0.810  1.00  0.00    -0.276 N 
HETATM   12  C10 UNL     1       5.026  -2.461   0.022  1.00  0.00     0.215 C 
HETATM   13  N3  UNL     1       4.959  -1.803  -1.249  1.00  0.00    -0.065 NA
HETATM   14  N4  UNL     1       6.217  -3.183   0.365  1.00  0.00    -0.065 NA
ATOM     15  H2  UNL     1       4.158  -2.902   1.696  1.00  0.00     0.189 HD
ENDBRANCH   9  11
ENDBRANCH   3   7
BRANCH   2  16
HETATM   16  O1  UNL     1       1.235   1.985   1.417  1.00  0.00    -0.354 OA
HETATM   17  C6  UNL     1       1.342   2.385   2.725  1.00  0.00     0.210 C 
ENDBRANCH   2  16
BRANCH   1  18
HETATM   18  C3  UNL     1      -1.351   2.473   0.815  1.00  0.00     0.042 C 
BRANCH  18  19
HETATM   19  C2  UNL     1      -0.806   3.643   0.057  1.00  0.00     0.000 C 
HETATM   20  C1  UNL     1      -1.492   4.936   0.570  1.00  0.00     0.005 C 
ENDBRANCH  18  19
ENDBRANCH   1  18
BRANCH   5  21
HETATM   21  N5  UNL     1      -1.559  -2.118  -1.145  1.00  0.00    -0.048 N 
HETATM   22  C13 UNL     1      -2.653  -2.845  -0.623  1.00  0.00     0.278 C 
HETATM   23  C14 UNL     1      -0.512  -3.216  -1.174  1.00  0.00     0.278 C 
HETATM   24  C15 UNL     1      -1.616  -1.870  -2.591  1.00  0.00     0.278 C 
ENDBRANCH   5  21
BRANCH   6  25
HETATM   25  C17 UNL     1      -2.916   0.446  -0.562  1.00  0.00    -0.074 C 
HETATM   26  C18 UNL     1      -4.022  -0.055   0.357  1.00  0.00     0.044 C 
HETATM   27  C19 UNL     1      -3.261   1.651  -1.360  1.00  0.00     0.044 C 
ENDBRANCH   6  25
TORSDOF 7
