REMARK  14 active torsions:
REMARK  status: ('A' for Active; 'I' for Inactive)
REMARK    1  A    between atoms: N1_5  and  C5_6 
REMARK    2  A    between atoms: C5_6  and  C6_7 
REMARK       I    between atoms: C6_7  and  N2_9 
REMARK    3  A    between atoms: N2_9  and  C7_11 
REMARK       I    between atoms: N5_26  and  C16_27 
REMARK    4  A    between atoms: C16_27  and  C17_29 
REMARK    5  A    between atoms: C17_29  and  C18_30 
REMARK    6  A    between atoms: C18_30  and  C19_31 
REMARK    7  A    between atoms: C19_31  and  C20_32 
REMARK    8  A    between atoms: C20_32  and  C21_33 
REMARK    9  A    between atoms: C21_33  and  C22_34 
REMARK   10  A    between atoms: C22_34  and  C23_35 
REMARK   11  A    between atoms: C23_35  and  C24_36 
REMARK   12  A    between atoms: C24_36  and  C25_37 
REMARK   13  A    between atoms: C25_37  and  C26_38 
REMARK   14  A    between atoms: C26_38  and  C27_39 
ROOT
HETATM    1  C1  UNL     1      -0.186   2.162   0.496  1.00  0.00     0.033 C 
HETATM    2  C2  UNL     1       0.640   1.195   1.345  1.00  0.00     0.089 C 
HETATM    3  C3  UNL     1       2.065   1.405   1.405  1.00  0.00     0.040 C 
HETATM    4  C4  UNL     1       3.454   1.133   1.155  1.00  0.00     0.097 C 
HETATM    5  N1  UNL     1       3.593  -0.180   0.472  1.00  0.00    -0.283 NA
HETATM    6  C14 UNL     1       2.538  -0.419  -0.482  1.00  0.00     0.140 C 
HETATM    7  C15 UNL     1       1.221  -0.891  -0.073  1.00  0.00     0.082 C 
HETATM    8  N5  UNL     1       0.386  -0.143   0.815  1.00  0.00    -0.326 N 
HETATM    9  C16 UNL     1      -0.785  -0.780   1.220  1.00  0.00     0.227 C 
HETATM   10  O2  UNL     1      -1.006  -1.943   0.780  1.00  0.00    -0.273 OA
ENDROOT
BRANCH   5  11
HETATM   11  C5  UNL     1       3.715  -1.284   1.335  1.00  0.00     0.135 C 
BRANCH  11  12
HETATM   12  C6  UNL     1       4.914  -1.433   2.138  1.00  0.00     0.269 C 
HETATM   13  O1  UNL     1       5.042  -2.445   2.928  1.00  0.00    -0.267 OA
HETATM   14  N2  UNL     1       6.019  -0.550   2.153  1.00  0.00    -0.155 N 
ATOM     15  H2  UNL     1       6.173  -0.002   3.000  1.00  0.00     0.187 HD
BRANCH  14  16
HETATM   16  C7  UNL     1       6.841  -0.386   1.184  1.00  0.00     0.686 A 
HETATM   17  N3  UNL     1       7.883   0.453   1.214  1.00  0.00    -0.189 N 
HETATM   18  C8  UNL     1       8.531   0.388   0.058  1.00  0.00     0.078 A 
ATOM     19  H3  UNL     1       8.139   1.049   2.001  1.00  0.00     0.184 HD
HETATM   20  C9  UNL     1       9.672   1.047  -0.421  1.00  0.00     0.058 A 
HETATM   21  C13 UNL     1       7.866  -0.528  -0.730  1.00  0.00     0.078 A 
HETATM   22  C10 UNL     1      10.125   0.768  -1.691  1.00  0.00     0.058 A 
HETATM   23 CL1  UNL     1      11.554   1.569  -2.331  1.00  0.00    -0.082 Cl
HETATM   24  C11 UNL     1       9.473  -0.143  -2.488  1.00  0.00     0.058 A 
HETATM   25 CL2  UNL     1      10.049  -0.485  -4.082  1.00  0.00    -0.082 Cl
HETATM   26  C12 UNL     1       8.333  -0.796  -2.000  1.00  0.00     0.058 A 
HETATM   27  N4  UNL     1       6.838  -0.978  -0.004  1.00  0.00    -0.189 N 
ATOM     28  H4  UNL     1       6.156  -1.670  -0.315  1.00  0.00     0.184 HD
ENDBRANCH  14  16
ENDBRANCH  11  12
ENDBRANCH   5  11
BRANCH   9  29
HETATM   29  C17 UNL     1      -1.790  -0.194   2.126  1.00  0.00     0.130 C 
BRANCH  29  30
HETATM   30  C18 UNL     1      -2.906  -1.072   2.530  1.00  0.00    -0.022 C 
BRANCH  30  31
HETATM   31  C19 UNL     1      -3.804  -1.707   1.581  1.00  0.00    -0.030 C 
BRANCH  31  32
HETATM   32  C20 UNL     1      -4.652  -0.986   0.629  1.00  0.00     0.027 C 
BRANCH  32  33
HETATM   33  C21 UNL     1      -3.970  -0.177  -0.391  1.00  0.00     0.004 C 
BRANCH  33  34
HETATM   34  C22 UNL     1      -4.880   0.518  -1.393  1.00  0.00     0.000 C 
BRANCH  34  35
HETATM   35  C23 UNL     1      -5.709  -0.471  -2.156  1.00  0.00     0.000 C 
BRANCH  35  36
HETATM   36  C24 UNL     1      -6.540   0.236  -3.167  1.00  0.00     0.000 C 
BRANCH  36  37
HETATM   37  C25 UNL     1      -7.478   1.259  -2.725  1.00  0.00     0.001 C 
BRANCH  37  38
HETATM   38  C26 UNL     1      -8.618   0.985  -1.842  1.00  0.00     0.015 C 
BRANCH  38  39
HETATM   39  C27 UNL     1      -8.420   0.471  -0.472  1.00  0.00     0.114 C 
HETATM   40 CL3  UNL     1     -10.068   0.347   0.295  1.00  0.00    -0.130 Cl
ENDBRANCH  38  39
ENDBRANCH  37  38
ENDBRANCH  36  37
ENDBRANCH  35  36
ENDBRANCH  34  35
ENDBRANCH  33  34
ENDBRANCH  32  33
ENDBRANCH  31  32
ENDBRANCH  30  31
ENDBRANCH  29  30
ENDBRANCH   9  29
TORSDOF 14
