REMARK  13 active torsions:
REMARK  status: ('A' for Active; 'I' for Inactive)
REMARK    1  A    between atoms: C1_2  and  C2_3 
REMARK    2  A    between atoms: C2_3  and  C3_6 
REMARK    3  A    between atoms: C3_6  and  C4_7 
REMARK    4  A    between atoms: C4_7  and  C5_8 
REMARK    5  A    between atoms: C5_8  and  C6_9 
REMARK    6  A    between atoms: C6_9  and  C7_10 
REMARK    7  A    between atoms: C7_10  and  C8_11 
REMARK    8  A    between atoms: C8_11  and  C9_12 
REMARK    9  A    between atoms: C9_12  and  C10_13 
REMARK   10  A    between atoms: C10_13  and  C11_14 
REMARK   11  A    between atoms: C12_15  and  C13_16 
REMARK   12  A    between atoms: C15_20  and  C16_21 
REMARK   13  A    between atoms: C16_21  and  C17_22 
ROOT
HETATM    1  C13 UNL     1       2.192  -0.449   1.392  1.00  0.00     0.104 A 
HETATM    2  N1  UNL     1       2.993  -0.356   2.520  1.00  0.00    -0.350 N 
ATOM      3  H1  UNL     1       2.708   0.037   3.417  1.00  0.00     0.166 HD
HETATM    4  C14 UNL     1       4.180  -0.856   2.250  1.00  0.00     0.115 A 
HETATM    5  C15 UNL     1       4.211  -1.290   0.957  1.00  0.00     0.032 A 
HETATM    6  N3  UNL     1       2.961  -1.016   0.472  1.00  0.00    -0.344 N 
ATOM      7  H3  UNL     1       2.658  -1.222  -0.480  1.00  0.00     0.167 HD
ENDROOT
BRANCH   1   8
HETATM    8  C12 UNL     1       0.824   0.048   1.365  1.00  0.00     0.044 C 
HETATM    9  C11 UNL     1      -0.072  -0.027   0.484  1.00  0.00    -0.023 C 
BRANCH   9  10
HETATM   10  C10 UNL     1      -0.094  -0.636  -0.834  1.00  0.00     0.027 C 
BRANCH  10  11
HETATM   11  C9  UNL     1      -0.224   0.424  -1.886  1.00  0.00     0.004 C 
BRANCH  11  12
HETATM   12  C8  UNL     1      -1.481   1.214  -1.756  1.00  0.00     0.000 C 
BRANCH  12  13
HETATM   13  C7  UNL     1      -2.698   0.374  -1.925  1.00  0.00     0.000 C 
BRANCH  13  14
HETATM   14  C6  UNL     1      -3.931   1.223  -1.884  1.00  0.00     0.000 C 
BRANCH  14  15
HETATM   15  C5  UNL     1      -4.104   1.920  -0.592  1.00  0.00     0.000 C 
BRANCH  15  16
HETATM   16  C4  UNL     1      -4.236   0.986   0.564  1.00  0.00     0.004 C 
BRANCH  16  17
HETATM   17  C3  UNL     1      -5.454   0.098   0.378  1.00  0.00     0.063 C 
BRANCH  17  18
HETATM   18  C2  UNL     1      -5.595  -0.838   1.567  1.00  0.00     0.212 C 
HETATM   19  F1  UNL     1      -5.699  -0.084   2.727  1.00  0.00    -0.223 F 
HETATM   20 BR1  UNL     1      -3.987  -1.928   1.616  1.00  0.00    -0.041 Br
BRANCH  18  21
HETATM   21  C1  UNL     1      -6.785  -1.694   1.369  1.00  0.00     0.286 C 
HETATM   22  O1  UNL     1      -7.866  -1.385   1.874  1.00  0.00    -0.302 OA
ENDBRANCH  18  21
ENDBRANCH  17  18
ENDBRANCH  16  17
ENDBRANCH  15  16
ENDBRANCH  14  15
ENDBRANCH  13  14
ENDBRANCH  12  13
ENDBRANCH  11  12
ENDBRANCH  10  11
ENDBRANCH   9  10
ENDBRANCH   1   8
BRANCH   5  23
HETATM   23  C16 UNL     1       5.341  -1.922   0.220  1.00  0.00     0.115 C 
BRANCH  23  24
HETATM   24  C17 UNL     1       6.105  -0.791  -0.411  1.00  0.00     0.017 A 
HETATM   25  C18 UNL     1       7.159  -0.128   0.208  1.00  0.00     0.047 A 
HETATM   26  C19 UNL     1       7.585   0.822  -0.673  1.00  0.00     0.046 A 
HETATM   27 BR2  UNL     1       9.025   2.064  -0.389  1.00  0.00    -0.048 Br
HETATM   28  C20 UNL     1       6.816   0.759  -1.822  1.00  0.00     0.097 A 
HETATM   29 BR3  UNL     1       7.002   1.872  -3.363  1.00  0.00    -0.030 Br
HETATM   30  N2  UNL     1       5.939  -0.236  -1.601  1.00  0.00    -0.352 N 
ATOM     31  H2  UNL     1       5.229  -0.529  -2.272  1.00  0.00     0.166 HD
ENDBRANCH  23  24
ENDBRANCH   5  23
TORSDOF 13
