REMARK  14 active torsions:
REMARK  status: ('A' for Active; 'I' for Inactive)
REMARK    1  A    between atoms: C2_2  and  N1_3 
REMARK    2  A    between atoms: C6_8  and  N2_9 
REMARK       I    between atoms: N2_9  and  C7_11 
REMARK    3  A    between atoms: C7_11  and  C8_13 
REMARK    4  A    between atoms: C8_13  and  C9_14 
REMARK    5  A    between atoms: C9_14  and  C10_15 
REMARK    6  A    between atoms: C10_15  and  C11_16 
REMARK    7  A    between atoms: C11_16  and  C12_17 
REMARK    8  A    between atoms: C12_17  and  C13_18 
REMARK    9  A    between atoms: C13_18  and  C14_19 
REMARK       I    between atoms: C14_19  and  N3_21 
REMARK   10  A    between atoms: N3_21  and  C15_23 
REMARK   11  A    between atoms: C15_23  and  C16_24 
REMARK   12  A    between atoms: C19_28  and  N4_29 
REMARK   13  A    between atoms: N4_29  and  C22_32 
REMARK   14  A    between atoms: C22_32  and  C23_33 
ROOT
HETATM    1  C13 UNL     1       0.506  -0.859   0.849  1.00  0.00     0.103 C 
ENDROOT
BRANCH   1   2
HETATM    2  C12 UNL     1       1.175  -2.146   1.218  1.00  0.00     0.009 C 
BRANCH   2   3
HETATM    3  C11 UNL     1       1.134  -3.136   0.118  1.00  0.00     0.000 C 
BRANCH   3   4
HETATM    4  C10 UNL     1       1.763  -2.735  -1.150  1.00  0.00     0.000 C 
BRANCH   4   5
HETATM    5  C9  UNL     1       3.204  -2.539  -1.201  1.00  0.00     0.009 C 
BRANCH   5   6
HETATM    6  C8  UNL     1       3.825  -1.507  -0.359  1.00  0.00     0.103 C 
BRANCH   6   7
HETATM    7  C7  UNL     1       5.329  -1.444  -0.675  1.00  0.00     0.222 C 
HETATM    8  N2  UNL     1       6.055  -0.499   0.069  1.00  0.00    -0.326 N 
ATOM      9  H2  UNL     1       5.541   0.067   0.744  1.00  0.00     0.169 HD
HETATM   10  O1  UNL     1       5.754  -2.215  -1.535  1.00  0.00    -0.273 OA
BRANCH   8  11
HETATM   11  C6  UNL     1       7.434  -0.277  -0.049  1.00  0.00     0.052 A 
HETATM   12  C5  UNL     1       8.281  -1.152  -0.654  1.00  0.00     0.056 A 
HETATM   13  C4  UNL     1       9.644  -0.870  -0.759  1.00  0.00     0.051 A 
HETATM   14  C3  UNL     1      10.129   0.302  -0.246  1.00  0.00     0.114 A 
HETATM   15 CL1  UNL     1      10.713  -2.023  -1.548  1.00  0.00    -0.083 Cl
HETATM   16  N1  UNL     1       9.288   1.161   0.349  1.00  0.00    -0.363 N 
HETATM   17  C26 UNL     1       7.981   0.907   0.458  1.00  0.00     0.119 A 
BRANCH  16  18
HETATM   18  C2  UNL     1       9.771   2.428   0.915  1.00  0.00     0.123 C 
HETATM   19  C1  UNL     1       9.709   3.492  -0.137  1.00  0.00     0.027 C 
ENDBRANCH  16  18
ENDBRANCH   8  11
ENDBRANCH   6   7
ENDBRANCH   5   6
ENDBRANCH   4   5
ENDBRANCH   3   4
ENDBRANCH   2   3
ENDBRANCH   1   2
BRANCH   1  20
HETATM   20  C14 UNL     1      -0.967  -1.108   0.621  1.00  0.00     0.218 C 
HETATM   21  O2  UNL     1      -1.390  -2.213   0.998  1.00  0.00    -0.274 OA
HETATM   22  N3  UNL     1      -1.755  -0.121   0.021  1.00  0.00    -0.349 N 
ATOM     23  H3  UNL     1      -1.252   0.735  -0.212  1.00  0.00     0.163 HD
BRANCH  22  24
HETATM   24  C15 UNL     1      -3.144  -0.102  -0.324  1.00  0.00     0.062 C 
HETATM   25  C17 UNL     1      -3.881  -0.569   0.931  1.00  0.00     0.036 C 
HETATM   26  C18 UNL     1      -5.340  -0.286   0.923  1.00  0.00     0.036 C 
HETATM   27  C19 UNL     1      -5.707   1.051   0.385  1.00  0.00     0.191 C 
HETATM   28  C24 UNL     1      -5.002   1.427  -0.876  1.00  0.00     0.056 C 
HETATM   29  C25 UNL     1      -3.524   1.325  -0.666  1.00  0.00     0.113 C 
HETATM   30 CL4  UNL     1      -3.078   2.434   0.650  1.00  0.00    -0.122 Cl
BRANCH  24  31
HETATM   31  C16 UNL     1      -3.482  -0.976  -1.459  1.00  0.00     0.147 C 
HETATM   32 CL2  UNL     1      -3.129  -2.671  -1.183  1.00  0.00    -0.128 Cl
ENDBRANCH  24  31
BRANCH  27  33
HETATM   33  N4  UNL     1      -7.143   1.145   0.181  1.00  0.00    -0.069 N 
HETATM   34  C20 UNL     1      -7.420   2.289  -0.676  1.00  0.00     0.272 C 
HETATM   35  C21 UNL     1      -7.677  -0.012  -0.511  1.00  0.00     0.272 C 
BRANCH  33  36
HETATM   36  C22 UNL     1      -7.729   1.388   1.461  1.00  0.00     0.252 C 
BRANCH  36  37
HETATM   37  C23 UNL     1      -9.119   1.935   1.444  1.00  0.00     0.142 C 
HETATM   38 CL3  UNL     1     -10.272   0.858   0.634  1.00  0.00    -0.129 Cl
ENDBRANCH  36  37
ENDBRANCH  33  36
ENDBRANCH  27  33
ENDBRANCH  22  24
ENDBRANCH   1  20
TORSDOF 14
