REMARK  13 active torsions:
REMARK  status: ('A' for Active; 'I' for Inactive)
REMARK    1  A    between atoms: C1_2  and  C2_3 
REMARK    2  A    between atoms: C2_3  and  C3_4 
REMARK    3  A    between atoms: C3_4  and  N1_5 
REMARK       I    between atoms: C4_7  and  N2_8 
REMARK       I    between atoms: C4_7  and  N4_23 
REMARK    4  A    between atoms: N2_8  and  C5_10 
REMARK    5  A    between atoms: C5_10  and  C6_11 
REMARK    6  A    between atoms: C6_11  and  C7_12 
REMARK    7  A    between atoms: C7_12  and  C8_13 
REMARK    8  A    between atoms: C8_13  and  C9_14 
REMARK    9  A    between atoms: C9_14  and  C10_15 
REMARK   10  A    between atoms: C10_15  and  C11_16 
REMARK   11  A    between atoms: C11_16  and  C12_17 
REMARK   12  A    between atoms: C12_17  and  N3_18 
REMARK   13  A    between atoms: N4_23  and  C17_25 
ROOT
HETATM    1  N1  UNL     1      -3.093  -1.494  -0.004  1.00  0.00    -0.226 N 
ATOM      2  H1  UNL     1      -2.487  -1.759  -0.780  1.00  0.00     0.177 HD
HETATM    3  C4  UNL     1      -3.512  -0.305  -0.058  1.00  0.00     0.674 C 
HETATM    4  N2  UNL     1      -3.128   0.510  -1.126  1.00  0.00    -0.226 N 
ATOM      5  H2  UNL     1      -3.855   0.826  -1.768  1.00  0.00     0.177 HD
HETATM    6  N4  UNL     1      -4.368   0.208   0.930  1.00  0.00    -0.189 N 
ATOM      7  H4  UNL     1      -4.471  -0.341   1.783  1.00  0.00     0.184 HD
ENDROOT
BRANCH   1   8
HETATM    8  C3  UNL     1      -3.312  -2.523   0.937  1.00  0.00     0.139 C 
BRANCH   8   9
HETATM    9  C2  UNL     1      -4.453  -3.455   0.615  1.00  0.00     0.035 C 
BRANCH   9  10
HETATM   10  C1  UNL     1      -4.259  -4.166  -0.700  1.00  0.00     0.116 C 
HETATM   11 CL1  UNL     1      -4.131  -3.076  -2.067  1.00  0.00    -0.130 Cl
ENDBRANCH   9  10
ENDBRANCH   8   9
ENDBRANCH   1   8
BRANCH   4  12
HETATM   12  C5  UNL     1      -1.787   0.931  -1.379  1.00  0.00     0.138 C 
BRANCH  12  13
HETATM   13  C6  UNL     1      -0.879  -0.164  -1.819  1.00  0.00     0.020 C 
BRANCH  13  14
HETATM   14  C7  UNL     1       0.533   0.263  -2.119  1.00  0.00     0.002 C 
BRANCH  14  15
HETATM   15  C8  UNL     1       1.204   0.851  -0.929  1.00  0.00     0.000 C 
BRANCH  15  16
HETATM   16  C9  UNL     1       2.628   1.280  -1.209  1.00  0.00     0.000 C 
BRANCH  16  17
HETATM   17  C10 UNL     1       3.524   0.185  -1.662  1.00  0.00     0.002 C 
BRANCH  17  18
HETATM   18  C11 UNL     1       3.634  -0.917  -0.642  1.00  0.00     0.030 C 
BRANCH  18  19
HETATM   19  C12 UNL     1       4.183  -0.404   0.669  1.00  0.00     0.272 C 
BRANCH  19  20
HETATM   20  N3  UNL     1       5.478   0.175   0.545  1.00  0.00     0.088 N 
HETATM   21  C13 UNL     1       5.977   0.639   1.801  1.00  0.00     0.272 C 
HETATM   22  C14 UNL     1       7.484   0.439   1.751  1.00  0.00     0.032 C 
HETATM   23  C15 UNL     1       7.568  -0.808   0.898  1.00  0.00     0.032 C 
HETATM   24  C16 UNL     1       6.469  -0.594  -0.113  1.00  0.00     0.272 C 
ENDBRANCH  19  20
ENDBRANCH  18  19
ENDBRANCH  17  18
ENDBRANCH  16  17
ENDBRANCH  15  16
ENDBRANCH  14  15
ENDBRANCH  13  14
ENDBRANCH  12  13
ENDBRANCH   4  12
BRANCH   6  25
HETATM   25  C17 UNL     1      -5.096   1.408   0.852  1.00  0.00     0.088 A 
HETATM   26  C18 UNL     1      -6.351   1.435   0.287  1.00  0.00     0.064 A 
HETATM   27 CL2  UNL     1      -6.980  -0.079  -0.320  1.00  0.00    -0.082 Cl
HETATM   28  C19 UNL     1      -7.087   2.620   0.207  1.00  0.00     0.045 A 
HETATM   29  C20 UNL     1      -6.559   3.796   0.699  1.00  0.00     0.014 A 
HETATM   30 BR1  UNL     1      -7.607   5.394   0.564  1.00  0.00    -0.051 Br
HETATM   31  C21 UNL     1      -5.308   3.778   1.264  1.00  0.00     0.040 A 
HETATM   32  C22 UNL     1      -4.580   2.584   1.339  1.00  0.00     0.041 A 
HETATM   33 BR2  UNL     1      -2.854   2.618   2.150  1.00  0.00    -0.049 Br
ENDBRANCH   6  25
TORSDOF 13
