REMARK  13 active torsions:
REMARK  status: ('A' for Active; 'I' for Inactive)
REMARK    1  A    between atoms: C2_2  and  O1_3 
REMARK    2  A    between atoms: O1_3  and  C3_4 
REMARK    3  A    between atoms: C3_4  and  C4_5 
REMARK    4  A    between atoms: C3_4  and  C8_9 
REMARK    5  A    between atoms: C4_5  and  C5_6 
REMARK    6  A    between atoms: C8_9  and  O2_10 
REMARK    7  A    between atoms: C8_9  and  N1_12 
REMARK    8  A    between atoms: N1_12  and  C9_14 
REMARK    9  A    between atoms: C10_17  and  N3_18 
REMARK   10  A    between atoms: N3_18  and  C11_20 
REMARK   11  A    between atoms: C11_20  and  C12_21 
REMARK   12  A    between atoms: C12_21  and  C13_22 
REMARK   13  A    between atoms: C20_29  and  C21_30 
ROOT
HETATM    1  C9  UNL     1      -0.978   1.107  -0.607  1.00  0.00     0.148 A 
HETATM    2  N2  UNL     1       0.175   0.716  -0.073  1.00  0.00    -0.322 N 
ATOM      3  H2  UNL     1       0.190  -0.234   0.297  1.00  0.00     0.169 HD
HETATM    4  C10 UNL     1       1.304   1.393   0.043  1.00  0.00     0.114 A 
HETATM    5  C18 UNL     1       1.524   2.698  -0.386  1.00  0.00     0.026 A 
HETATM    6  C19 UNL     1       2.768   3.314  -0.211  1.00  0.00     0.029 A 
HETATM    7  C20 UNL     1       3.019   4.606  -0.626  1.00  0.00     0.007 A 
HETATM    8  C22 UNL     1       2.037   5.352  -1.239  1.00  0.00     0.014 A 
HETATM    9  C23 UNL     1       0.800   4.774  -1.426  1.00  0.00     0.021 A 
HETATM   10  C24 UNL     1       0.569   3.468  -0.999  1.00  0.00     0.022 A 
HETATM   11  S1  UNL     1      -0.955   2.718  -1.218  1.00  0.00    -0.053 SA
ENDROOT
BRANCH   1  12
HETATM   12  N1  UNL     1      -2.036   0.402  -0.695  1.00  0.00    -0.342 N 
ATOM     13  H1  UNL     1      -2.848   0.840  -1.131  1.00  0.00     0.164 HD
BRANCH  12  14
HETATM   14  C8  UNL     1      -2.191  -0.935  -0.244  1.00  0.00     0.248 C 
BRANCH  14  15
HETATM   15  C3  UNL     1      -3.684  -1.208   0.171  1.00  0.00     0.170 C 
BRANCH  15  16
HETATM   16  O1  UNL     1      -3.660  -2.519   0.557  1.00  0.00    -0.382 OA
BRANCH  16  17
HETATM   17  C2  UNL     1      -3.675  -2.835   1.866  1.00  0.00     0.164 C 
HETATM   18  C1  UNL     1      -4.820  -2.444   2.718  1.00  0.00     0.033 C 
ENDBRANCH  16  17
ENDBRANCH  15  16
BRANCH  15  19
HETATM   19  C4  UNL     1      -4.551  -0.938  -0.989  1.00  0.00     0.040 C 
BRANCH  19  20
HETATM   20  C5  UNL     1      -6.005  -1.224  -0.837  1.00  0.00    -0.020 C 
HETATM   21  C6  UNL     1      -6.595  -0.347   0.244  1.00  0.00     0.009 C 
HETATM   22  C7  UNL     1      -6.720  -0.863  -2.143  1.00  0.00     0.009 C 
ENDBRANCH  19  20
ENDBRANCH  15  19
ENDBRANCH  14  15
BRANCH  14  23
HETATM   23  O2  UNL     1      -1.907  -1.860  -1.217  1.00  0.00    -0.374 OA
ATOM     24  H2  UNL     1      -1.006  -1.695  -1.468  1.00  0.00     0.212 HD
ENDBRANCH  14  23
ENDBRANCH  12  14
ENDBRANCH   1  12
BRANCH   4  25
HETATM   25  N3  UNL     1       2.343   0.849   0.606  1.00  0.00    -0.376 N 
ATOM     26  H3  UNL     1       3.214   1.372   0.695  1.00  0.00     0.161 HD
BRANCH  25  27
HETATM   27  C11 UNL     1       2.251  -0.497   1.102  1.00  0.00     0.121 C 
BRANCH  27  28
HETATM   28  C12 UNL     1       3.575  -0.945   1.715  1.00  0.00     0.024 C 
BRANCH  28  29
HETATM   29  C13 UNL     1       4.610  -0.875   0.614  1.00  0.00    -0.013 C 
HETATM   30  C14 UNL     1       4.243  -1.788  -0.547  1.00  0.00     0.005 C 
HETATM   31  C15 UNL     1       5.547  -1.775  -1.344  1.00  0.00     0.000 C 
HETATM   32  C16 UNL     1       6.612  -1.774  -0.286  1.00  0.00     0.000 C 
HETATM   33  C17 UNL     1       5.948  -1.402   1.021  1.00  0.00     0.005 C 
ENDBRANCH  28  29
ENDBRANCH  27  28
ENDBRANCH  25  27
ENDBRANCH   4  25
BRANCH   7  34
HETATM   34  C21 UNL     1       4.377   5.220  -0.413  1.00  0.00     0.386 C 
HETATM   35  F1  UNL     1       5.343   4.495  -1.087  1.00  0.00    -0.209 F 
HETATM   36  F2  UNL     1       4.676   5.290   0.932  1.00  0.00    -0.209 F 
ENDBRANCH   7  34
TORSDOF 13
