REMARK  10 active torsions:
REMARK  status: ('A' for Active; 'I' for Inactive)
REMARK    1  A    between atoms: C4_4  and  O1_5 
REMARK    2  A    between atoms: C4_4  and  C12_14 
REMARK    3  A    between atoms: O1_5  and  C5_6 
REMARK    4  A    between atoms: C12_14  and  O2_15 
REMARK    5  A    between atoms: C12_14  and  C13_17 
REMARK    6  A    between atoms: C13_17  and  O3_18 
REMARK    7  A    between atoms: O3_18  and  C14_19 
REMARK    8  A    between atoms: C17_23  and  O4_24 
REMARK    9  A    between atoms: O4_24  and  C18_25 
REMARK   10  A    between atoms: C18_25  and  C19_26 
ROOT
HETATM    1  C12 UNL     1      -0.216  -1.249   0.169  1.00  0.00     0.199 C 
ENDROOT
BRANCH   1   2
HETATM    2  C4  UNL     1      -1.490  -1.526  -0.502  1.00  0.00     0.079 C 
HETATM    3  C2  UNL     1      -2.156  -2.596  -0.686  1.00  0.00    -0.056 C 
HETATM    4  C1  UNL     1      -1.915  -3.991  -0.297  1.00  0.00     0.046 C 
HETATM    5  C3  UNL     1      -3.475  -2.427  -1.471  1.00  0.00     0.046 C 
BRANCH   2   6
HETATM    6  O1  UNL     1      -2.097  -0.331  -1.059  1.00  0.00    -0.347 OA
BRANCH   6   7
HETATM    7  C5  UNL     1      -2.310   0.748  -0.176  1.00  0.00     0.130 C 
HETATM    8  C6  UNL     1      -3.217   0.310   0.920  1.00  0.00     0.032 C 
HETATM    9  C7  UNL     1      -3.504   1.402   1.924  1.00  0.00     0.004 C 
HETATM   10  C8  UNL     1      -3.555   2.766   1.284  1.00  0.00     0.025 C 
HETATM   11  C9  UNL     1      -3.864   2.714  -0.195  1.00  0.00     0.036 C 
HETATM   12  C10 UNL     1      -5.274   2.238  -0.459  1.00  0.00     0.033 C 
HETATM   13 CL1  UNL     1      -3.764   4.392  -0.802  1.00  0.00    -0.119 Cl
HETATM   14  C11 UNL     1      -2.845   1.910  -0.972  1.00  0.00     0.057 C 
ENDBRANCH   6   7
ENDBRANCH   2   6
ENDBRANCH   1   2
BRANCH   1  15
HETATM   15  O2  UNL     1       0.482  -0.391  -0.761  1.00  0.00    -0.387 OA
ATOM     16  H2  UNL     1       1.307  -0.212  -0.326  1.00  0.00     0.210 HD
ENDBRANCH   1  15
BRANCH   1  17
HETATM   17  C13 UNL     1       0.608  -2.442   0.406  1.00  0.00     0.214 C 
BRANCH  17  18
HETATM   18  O3  UNL     1       1.888  -2.243   0.965  1.00  0.00    -0.345 OA
BRANCH  18  19
HETATM   19  C14 UNL     1       2.936  -1.526   0.544  1.00  0.00     0.112 A 
HETATM   20  C15 UNL     1       3.811  -2.060  -0.381  1.00  0.00     0.071 A 
HETATM   21 CL2  UNL     1       3.569  -3.688  -1.030  1.00  0.00    -0.081 Cl
HETATM   22  C16 UNL     1       4.907  -1.380  -0.853  1.00  0.00     0.063 A 
HETATM   23  C17 UNL     1       5.174  -0.082  -0.391  1.00  0.00     0.072 A 
HETATM   24  C20 UNL     1       4.318   0.456   0.523  1.00  0.00     0.063 A 
HETATM   25  C21 UNL     1       3.205  -0.263   0.989  1.00  0.00     0.071 A 
HETATM   26 CL3  UNL     1       2.251   0.560   2.204  1.00  0.00    -0.081 Cl
BRANCH  23  27
HETATM   27  O4  UNL     1       6.294   0.549  -0.909  1.00  0.00    -0.341 OA
BRANCH  27  28
HETATM   28  C18 UNL     1       6.787   1.802  -0.613  1.00  0.00     0.288 C 
BRANCH  28  29
HETATM   29  C19 UNL     1       7.217   2.017   0.769  1.00  0.00     0.198 C 
HETATM   30  O5  UNL     1       7.194   1.068   1.592  1.00  0.00    -0.646 OA
HETATM   31  O6  UNL     1       7.665   3.236   1.253  1.00  0.00    -0.646 OA
ENDBRANCH  28  29
ENDBRANCH  27  28
ENDBRANCH  23  27
ENDBRANCH  18  19
ENDBRANCH  17  18
ENDBRANCH   1  17
TORSDOF 10
