REMARK  10 active torsions:
REMARK  status: ('A' for Active; 'I' for Inactive)
REMARK    1  A    between atoms: C5_6  and  N1_7 
REMARK    2  A    between atoms: N1_7  and  C6_9 
REMARK    3  A    between atoms: C6_9  and  C7_10 
REMARK    4  A    between atoms: C7_10  and  C8_11 
REMARK    5  A    between atoms: C8_11  and  C9_12 
REMARK    6  A    between atoms: C9_12  and  C10_13 
REMARK    7  A    between atoms: C10_13  and  C11_14 
REMARK    8  A    between atoms: C11_14  and  N2_15 
REMARK    9  A    between atoms: N2_15  and  S1_17 
REMARK   10  A    between atoms: N4_28  and  C18_29 
ROOT
HETATM    1  C1  UNL     1      -5.348  -1.354   2.174  1.00  0.00     0.070 C 
HETATM    2  C2  UNL     1      -4.587  -0.786   1.048  1.00  0.00     0.032 A 
HETATM    3  C3  UNL     1      -3.203  -0.716   0.938  1.00  0.00     0.071 A 
HETATM    4 CL1  UNL     1      -2.104  -1.279   2.181  1.00  0.00    -0.081 Cl
HETATM    5  C4  UNL     1      -2.856  -0.161  -0.269  1.00  0.00     0.044 A 
HETATM    6  C5  UNL     1      -1.624   0.103  -0.847  1.00  0.00     0.064 A 
HETATM    7  C13 UNL     1      -1.605   0.651  -2.099  1.00  0.00     0.062 A 
HETATM    8 CL2  UNL     1      -0.091   1.003  -2.889  1.00  0.00    -0.082 Cl
HETATM    9  C14 UNL     1      -2.785   0.923  -2.742  1.00  0.00     0.051 A 
HETATM   10  C15 UNL     1      -4.050   0.666  -2.177  1.00  0.00     0.074 A 
HETATM   11  C16 UNL     1      -5.216   0.951  -2.961  1.00  0.00     0.102 C 
HETATM   12  N3  UNL     1      -6.133   1.180  -3.626  1.00  0.00    -0.191 NA
HETATM   13  C17 UNL     1      -4.069   0.118  -0.922  1.00  0.00     0.071 A 
HETATM   14  N4  UNL     1      -5.094  -0.268  -0.099  1.00  0.00    -0.329 N 
ENDROOT
BRANCH  14  15
HETATM   15  C18 UNL     1      -6.482  -0.104  -0.399  1.00  0.00     0.182 C 
HETATM   16  C19 UNL     1      -7.381   0.053   0.847  1.00  0.00     0.050 C 
HETATM   17 CL3  UNL     1      -7.170  -1.509  -1.239  1.00  0.00    -0.102 Cl
ENDBRANCH  14  15
BRANCH   6  18
HETATM   18  N1  UNL     1      -0.436  -0.190  -0.113  1.00  0.00    -0.388 N 
ATOM     19  H1  UNL     1      -0.011  -1.116  -0.157  1.00  0.00     0.159 HD
BRANCH  18  20
HETATM   20  C6  UNL     1       0.155   0.860   0.698  1.00  0.00     0.120 C 
BRANCH  20  21
HETATM   21  C7  UNL     1       1.333   0.420   1.494  1.00  0.00     0.020 C 
BRANCH  21  22
HETATM   22  C8  UNL     1       2.497  -0.094   0.710  1.00  0.00     0.002 C 
BRANCH  22  23
HETATM   23  C9  UNL     1       3.057   0.961  -0.218  1.00  0.00     0.002 C 
BRANCH  23  24
HETATM   24  C10 UNL     1       4.217   0.400  -0.995  1.00  0.00     0.020 C 
BRANCH  24  25
HETATM   25  C11 UNL     1       5.329  -0.058  -0.097  1.00  0.00     0.132 C 
BRANCH  25  26
HETATM   26  N2  UNL     1       6.386  -0.570  -0.989  1.00  0.00    -0.320 N 
ATOM     27  H2  UNL     1       6.364  -0.605  -2.008  1.00  0.00     0.172 HD
BRANCH  26  28
HETATM   28  S1  UNL     1       7.674  -1.101   0.043  1.00  0.00     0.222 S 
HETATM   29  C12 UNL     1       8.283   0.285   0.972  1.00  0.00     0.185 C 
HETATM   30  O1  UNL     1       7.135  -2.135   1.006  1.00  0.00    -0.206 OA
HETATM   31  O2  UNL     1       8.785  -1.716  -0.734  1.00  0.00    -0.206 OA
ENDBRANCH  26  28
ENDBRANCH  25  26
ENDBRANCH  24  25
ENDBRANCH  23  24
ENDBRANCH  22  23
ENDBRANCH  21  22
ENDBRANCH  20  21
ENDBRANCH  18  20
ENDBRANCH   6  18
TORSDOF 10
