REMARK  5 active torsions:
REMARK  status: ('A' for Active; 'I' for Inactive)
REMARK    1  A    between atoms: C5_8  and  N2_9 
REMARK    2  A    between atoms: N2_9  and  C6_11 
REMARK    3  A    between atoms: C6_11  and  N3_13 
REMARK    4  A    between atoms: N3_13  and  C7_15 
REMARK    5  A    between atoms: C7_15  and  C8_16 
ROOT
HETATM    1  N1  UNL     1       1.924   3.033  -1.513  1.00  0.00    -0.194 NA
HETATM    2  C1  UNL     1       2.513   2.213  -0.941  1.00  0.00     0.094 C 
HETATM    3  C2  UNL     1       3.230   1.171  -0.227  1.00  0.00     0.261 C 
HETATM    4  O1  UNL     1       4.556   1.085  -0.797  1.00  0.00    -0.299 OA
HETATM    5  C3  UNL     1       5.007  -0.216  -0.674  1.00  0.00     0.262 C 
HETATM    6  O2  UNL     1       6.157  -0.602  -0.956  1.00  0.00    -0.265 OA
HETATM    7  C4  UNL     1       3.900  -1.060  -0.154  1.00  0.00     0.139 C 
HETATM    8  C5  UNL     1       2.723  -0.210  -0.549  1.00  0.00     0.136 C 
ENDROOT
BRANCH   8   9
HETATM    9  N2  UNL     1       1.468  -0.568  -0.009  1.00  0.00    -0.359 N 
ATOM     10  H2  UNL     1       0.755  -0.832  -0.690  1.00  0.00     0.162 HD
BRANCH   9  11
HETATM   11  C6  UNL     1       1.066  -0.611   1.336  1.00  0.00     0.168 C 
HETATM   12  S1  UNL     1       2.095  -0.222   2.570  1.00  0.00    -0.041 SA
BRANCH  11  13
HETATM   13  N3  UNL     1      -0.245  -0.987   1.716  1.00  0.00    -0.367 N 
ATOM     14  H3  UNL     1      -0.444  -1.008   2.716  1.00  0.00     0.161 HD
BRANCH  13  15
HETATM   15  C7  UNL     1      -1.322  -1.342   0.836  1.00  0.00     0.126 C 
BRANCH  15  16
HETATM   16  C8  UNL     1      -1.911  -0.220   0.044  1.00  0.00     0.003 C 
HETATM   17  C9  UNL     1      -3.028  -0.721  -0.850  1.00  0.00     0.006 C 
HETATM   18  C10 UNL     1      -4.072   0.369  -0.888  1.00  0.00     0.000 C 
HETATM   19  C11 UNL     1      -3.481   1.524  -0.097  1.00  0.00     0.000 C 
HETATM   20  C12 UNL     1      -2.666   0.762   0.930  1.00  0.00     0.006 C 
ENDBRANCH  15  16
ENDBRANCH  13  15
ENDBRANCH  11  13
ENDBRANCH   9  11
ENDBRANCH   8   9
TORSDOF 5
