REMARK  4 active torsions:
REMARK  status: ('A' for Active; 'I' for Inactive)
REMARK    1  A    between atoms: N1_4  and  C4_5 
REMARK    2  A    between atoms: C4_5  and  C5_6 
REMARK    3  A    between atoms: C5_6  and  N2_7 
REMARK    4  A    between atoms: N2_7  and  C6_9 
ROOT
HETATM    1  C6  UNL     1      -1.422  -0.119   0.302  1.00  0.00     0.174 A 
HETATM    2  O1  UNL     1      -1.340  -1.288   0.873  1.00  0.00    -0.219 OA
HETATM    3  N3  UNL     1      -2.522  -1.817   1.020  1.00  0.00    -0.263 N 
ATOM      4  H3  UNL     1      -2.706  -2.727   1.442  1.00  0.00     0.194 HD
HETATM    5  C7  UNL     1      -3.465  -0.989   0.535  1.00  0.00     0.044 A 
HETATM    6  C8  UNL     1      -2.762   0.105   0.072  1.00  0.00     0.021 A 
HETATM    7  C9  UNL     1      -3.305   1.344  -0.575  1.00  0.00     0.064 C 
HETATM    8  C10 UNL     1      -4.770   1.481  -0.235  1.00  0.00     0.118 C 
HETATM    9  N4  UNL     1      -5.618   0.643  -1.012  1.00  0.00    -0.421 N 
ATOM     10  H4  UNL     1      -6.277   1.030  -1.687  1.00  0.00     0.153 HD
HETATM   11  C11 UNL     1      -5.504  -0.758  -0.804  1.00  0.00     0.120 C 
HETATM   12  C12 UNL     1      -4.933  -1.191   0.501  1.00  0.00     0.079 C 
ENDROOT
BRANCH   1  13
HETATM   13  N2  UNL     1      -0.422   0.645   0.025  1.00  0.00    -0.367 N 
ATOM     14  H2  UNL     1      -0.622   1.538  -0.425  1.00  0.00     0.161 HD
BRANCH  13  15
HETATM   15  C5  UNL     1       0.961   0.332   0.303  1.00  0.00     0.141 C 
BRANCH  15  16
HETATM   16  C4  UNL     1       1.838   0.648  -0.886  1.00  0.00     0.136 C 
BRANCH  16  17
HETATM   17  N1  UNL     1       3.215   0.377  -0.700  1.00  0.00    -0.411 N 
HETATM   18  C3  UNL     1       3.598  -0.993  -0.585  1.00  0.00     0.117 C 
HETATM   19  C2  UNL     1       5.068  -1.058  -1.026  1.00  0.00     0.019 C 
HETATM   20  C1  UNL     1       5.877  -0.259  -0.054  1.00  0.00     0.003 C 
HETATM   21  C14 UNL     1       5.027   0.526   0.924  1.00  0.00     0.019 C 
HETATM   22  C13 UNL     1       3.930   1.249   0.176  1.00  0.00     0.117 C 
ENDBRANCH  16  17
ENDBRANCH  15  16
ENDBRANCH  13  15
ENDBRANCH   1  13
TORSDOF 4
