REMARK  5 active torsions:
REMARK  status: ('A' for Active; 'I' for Inactive)
REMARK    1  A    between atoms: O1_1  and  C1_3 
REMARK    2  A    between atoms: C1_3  and  C2_4 
REMARK    3  A    between atoms: C2_4  and  N1_5 
REMARK    4  A    between atoms: C9_12  and  N2_13 
REMARK    5  A    between atoms: C12_16  and  O2_17 
ROOT
HETATM    1  C2  UNL     1      -1.543  -0.694  -0.255  1.00  0.00     0.182 C 
HETATM    2  C7  UNL     1      -1.317  -0.659   1.229  1.00  0.00     0.046 C 
HETATM    3  C8  UNL     1       0.193  -0.628   1.326  1.00  0.00     0.038 C 
HETATM    4  C9  UNL     1       0.538   0.319   0.229  1.00  0.00     0.225 C 
HETATM    5  C15 UNL     1      -0.267  -0.228  -0.921  1.00  0.00     0.079 C 
ENDROOT
BRANCH   1   6
HETATM    6  C1  UNL     1      -1.766  -2.137  -0.654  1.00  0.00     0.206 C 
BRANCH   6   7
HETATM    7  O1  UNL     1      -2.909  -2.699  -0.102  1.00  0.00    -0.398 OA
ATOM      8  H1  UNL     1      -3.049  -3.605  -0.352  1.00  0.00     0.209 HD
ENDBRANCH   6   7
ENDBRANCH   1   6
BRANCH   1   9
HETATM    9  N1  UNL     1      -2.651   0.088  -0.695  1.00  0.00     0.100 N 
HETATM   10  C3  UNL     1      -3.906  -0.265  -0.113  1.00  0.00     0.273 C 
HETATM   11  C4  UNL     1      -4.690   1.049  -0.009  1.00  0.00     0.032 C 
HETATM   12  C5  UNL     1      -3.901   2.001  -0.878  1.00  0.00     0.032 C 
HETATM   13  C6  UNL     1      -2.479   1.507  -0.564  1.00  0.00     0.273 C 
ENDBRANCH   1   9
BRANCH   4  14
HETATM   14  N2  UNL     1       1.932   0.427  -0.057  1.00  0.00     0.093 N 
HETATM   15  C10 UNL     1       2.667   0.929   1.051  1.00  0.00     0.275 C 
HETATM   16  C11 UNL     1       3.955   1.530   0.474  1.00  0.00     0.062 C 
HETATM   17  C12 UNL     1       4.676   0.474  -0.292  1.00  0.00     0.121 C 
HETATM   18  C13 UNL     1       3.962  -0.841  -0.359  1.00  0.00     0.062 C 
HETATM   19  C14 UNL     1       2.507  -0.731  -0.678  1.00  0.00     0.275 C 
BRANCH  17  20
HETATM   20  O2  UNL     1       5.899   0.241   0.371  1.00  0.00    -0.395 OA
ATOM     21  H2  UNL     1       6.359  -0.432  -0.117  1.00  0.00     0.210 HD
ENDBRANCH  17  20
ENDBRANCH   4  14
TORSDOF 5
