REMARK  4 active torsions:
REMARK  status: ('A' for Active; 'I' for Inactive)
REMARK    1  A    between atoms: C1_2  and  C2_3 
REMARK       I    between atoms: C1_2  and  N2_10 
REMARK    2  A    between atoms: C2_3  and  N1_4 
REMARK    3  A    between atoms: N2_10  and  C8_12 
REMARK    4  A    between atoms: C13_18  and  O2_19 
ROOT
HETATM    1  O1  UNL     1      -0.083   1.540  -2.016  1.00  0.00    -0.272 OA
HETATM    2  C1  UNL     1      -0.405   0.581  -1.214  1.00  0.00     0.246 C 
HETATM    3  N2  UNL     1       0.639  -0.133  -0.572  1.00  0.00    -0.352 N 
ATOM      4  H2  UNL     1       0.425  -0.902   0.063  1.00  0.00     0.163 HD
ENDROOT
BRANCH   3   5
HETATM    5  C8  UNL     1       2.019   0.246  -0.832  1.00  0.00     0.114 C 
HETATM    6  C9  UNL     1       2.750  -0.878  -1.514  1.00  0.00     0.038 C 
HETATM    7  C10 UNL     1       3.031  -2.070  -0.681  1.00  0.00     0.076 C 
HETATM    8  S1  UNL     1       3.314  -1.766   1.060  1.00  0.00    -0.169 SA
HETATM    9  C11 UNL     1       4.565  -0.471   1.277  1.00  0.00     0.076 C 
HETATM   10  C12 UNL     1       4.158   0.689   0.387  1.00  0.00     0.044 C 
HETATM   11  C13 UNL     1       2.655   0.756   0.416  1.00  0.00     0.141 C 
BRANCH  11  12
HETATM   12  O2  UNL     1       2.304   2.110   0.559  1.00  0.00    -0.393 OA
ATOM     13  H2  UNL     1       2.709   2.435   1.354  1.00  0.00     0.210 HD
ENDBRANCH  11  12
ENDBRANCH   3   5
BRANCH   2  14
HETATM   14  C2  UNL     1      -1.843   0.361  -1.084  1.00  0.00     0.374 C 
BRANCH  14  15
HETATM   15  N1  UNL     1      -2.281  -0.633  -0.164  1.00  0.00     0.097 N 
HETATM   16  C3  UNL     1      -3.696  -0.890  -0.443  1.00  0.00     0.273 C 
HETATM   17  C4  UNL     1      -4.606   0.233  -0.094  1.00  0.00     0.030 C 
HETATM   18  C5  UNL     1      -4.489   0.458   1.411  1.00  0.00     0.003 C 
HETATM   19  C6  UNL     1      -3.062   0.883   1.637  1.00  0.00     0.030 C 
HETATM   20  C7  UNL     1      -2.140  -0.216   1.228  1.00  0.00     0.273 C 
ENDBRANCH  14  15
ENDBRANCH   2  14
TORSDOF 4
