REMARK  6 active torsions:
REMARK  status: ('A' for Active; 'I' for Inactive)
REMARK    1  A    between atoms: N1_1  and  N2_4 
REMARK    2  A    between atoms: C5_9  and  N3_10 
REMARK    3  A    between atoms: N3_10  and  C6_12 
REMARK    4  A    between atoms: C6_12  and  C7_13 
REMARK    5  A    between atoms: C7_13  and  C8_14 
REMARK    6  A    between atoms: C8_14  and  O1_15 
ROOT
HETATM    1  N2  UNL     1       0.086  -0.590   0.642  1.00  0.00    -0.250 N 
HETATM    2  C1  UNL     1      -1.272  -0.702   0.573  1.00  0.00     0.042 A 
HETATM    3  C2  UNL     1      -2.067   0.321   0.135  1.00  0.00    -0.026 A 
HETATM    4  C3  UNL     1      -1.447   1.490  -0.243  1.00  0.00    -0.040 A 
HETATM    5  C4  UNL     1      -0.095   1.594  -0.173  1.00  0.00    -0.006 A 
HETATM    6  C5  UNL     1       0.723   0.521   0.286  1.00  0.00     0.129 A 
HETATM    7  C9  UNL     1       0.280   2.972  -0.648  1.00  0.00     0.043 C 
HETATM    8  C10 UNL     1      -0.968   3.756  -0.306  1.00  0.00     0.009 C 
HETATM    9  C11 UNL     1      -2.044   2.759  -0.756  1.00  0.00     0.040 C 
HETATM   10  C12 UNL     1      -3.549   0.223   0.051  1.00  0.00     0.041 C 
HETATM   11  C13 UNL     1      -4.047  -1.169  -0.143  1.00  0.00     0.005 C 
HETATM   12  C14 UNL     1      -3.006  -2.231  -0.082  1.00  0.00     0.006 C 
HETATM   13  C15 UNL     1      -1.949  -1.957   0.979  1.00  0.00     0.060 C 
ENDROOT
BRANCH   6  14
HETATM   14  N3  UNL     1       1.943   0.740   0.304  1.00  0.00    -0.374 N 
ATOM     15  H3  UNL     1       2.171   1.680  -0.021  1.00  0.00     0.161 HD
BRANCH  14  16
HETATM   16  C6  UNL     1       3.071   0.022   0.657  1.00  0.00     0.123 C 
BRANCH  16  17
HETATM   17  C7  UNL     1       3.689  -0.737  -0.531  1.00  0.00     0.045 C 
BRANCH  17  18
HETATM   18  C8  UNL     1       4.886  -1.467   0.002  1.00  0.00     0.165 C 
BRANCH  18  19
HETATM   19  O1  UNL     1       5.518  -2.188  -1.005  1.00  0.00    -0.401 OA
ATOM     20  H1  UNL     1       6.276  -2.650  -0.667  1.00  0.00     0.209 HD
ENDBRANCH  18  19
ENDBRANCH  17  18
ENDBRANCH  16  17
ENDBRANCH  14  16
ENDBRANCH   6  14
BRANCH   1  21
HETATM   21  N1  UNL     1       0.826  -1.691   1.106  1.00  0.00    -0.337 N 
ATOM     22  H12 UNL     1       0.337  -2.544   1.379  1.00  0.00     0.177 HD
ATOM     23  H11 UNL     1       1.841  -1.607   1.158  1.00  0.00     0.177 HD
ENDBRANCH   1  21
TORSDOF 6
