REMARK  5 active torsions:
REMARK  status: ('A' for Active; 'I' for Inactive)
REMARK    1  A    between atoms: C4_4  and  O1_5 
REMARK    2  A    between atoms: N1_8  and  C6_9 
REMARK    3  A    between atoms: C6_9  and  C7_10 
REMARK    4  A    between atoms: C7_10  and  C8_11 
REMARK    5  A    between atoms: C8_11  and  O2_12 
ROOT
HETATM    1  C7  UNL     1      -0.831   0.345  -1.631  1.00  0.00     0.069 C 
ENDROOT
BRANCH   1   2
HETATM    2  C6  UNL     1       0.625   0.210  -1.728  1.00  0.00     0.275 C 
BRANCH   2   3
HETATM    3  N1  UNL     1       1.473   0.353  -0.631  1.00  0.00     0.091 N 
HETATM    4  C5  UNL     1       1.644   1.635  -0.045  1.00  0.00     0.303 C 
HETATM    5  C4  UNL     1       2.176   1.512   1.364  1.00  0.00     0.146 C 
HETATM    6  C3  UNL     1       2.727   0.143   1.657  1.00  0.00     0.039 C 
HETATM    7  C2  UNL     1       3.373  -0.534   0.501  1.00  0.00     0.012 C 
HETATM    8  C1  UNL     1       3.281  -2.046   0.756  1.00  0.00     0.012 C 
HETATM    9  C15 UNL     1       2.792  -0.221  -0.836  1.00  0.00     0.277 C 
BRANCH   5  10
HETATM   10  O1  UNL     1       3.184   2.457   1.603  1.00  0.00    -0.394 OA
ATOM     11  H1  UNL     1       2.836   3.321   1.418  1.00  0.00     0.210 HD
ENDBRANCH   5  10
ENDBRANCH   2   3
ENDBRANCH   1   2
BRANCH   1  12
HETATM   12  C8  UNL     1      -1.592  -0.599  -0.780  1.00  0.00     0.069 C 
HETATM   13  C9  UNL     1      -1.351  -0.585   0.673  1.00  0.00     0.039 C 
HETATM   14  C10 UNL     1      -1.781   0.604   1.450  1.00  0.00     0.010 C 
HETATM   15  C11 UNL     1      -3.120   1.179   1.097  1.00  0.00     0.079 C 
HETATM   16  C12 UNL     1      -3.538   0.834  -0.286  1.00  0.00     0.133 C 
HETATM   17  O3  UNL     1      -4.273   1.627  -0.847  1.00  0.00    -0.297 OA
HETATM   18  C13 UNL     1      -3.121  -0.380  -0.988  1.00  0.00     0.085 C 
HETATM   19  C14 UNL     1      -3.804  -1.635  -0.542  1.00  0.00     0.021 C 
BRANCH  12  20
HETATM   20  O2  UNL     1      -1.358  -1.939  -1.235  1.00  0.00    -0.389 OA
ATOM     21  H2  UNL     1      -1.846  -2.544  -0.689  1.00  0.00     0.210 HD
ENDBRANCH  12  20
ENDBRANCH   1  12
TORSDOF 5
