REMARK  5 active torsions:
REMARK  status: ('A' for Active; 'I' for Inactive)
REMARK    1  A    between atoms: N1_2  and  C1_4 
REMARK    2  A    between atoms: C1_4  and  C2_5 
REMARK    3  A    between atoms: C2_5  and  S1_6 
REMARK    4  A    between atoms: S1_6  and  C3_7 
REMARK    5  A    between atoms: C3_7  and  N2_9 
ROOT
HETATM    1  C3  UNL     1      -0.327  -0.067   0.328  1.00  0.00     0.138 C 
HETATM    2  S2  UNL     1       0.230   1.104   1.348  1.00  0.00    -0.053 SA
ENDROOT
BRANCH   1   3
HETATM    3  S1  UNL     1       0.745  -1.272  -0.403  1.00  0.00    -0.099 SA
BRANCH   3   4
HETATM    4  C2  UNL     1       2.470  -1.059   0.068  1.00  0.00     0.108 C 
BRANCH   4   5
HETATM    5  C1  UNL     1       3.062   0.221  -0.473  1.00  0.00     0.212 C 
BRANCH   5   6
HETATM    6  N1  UNL     1       4.437   0.311  -0.048  1.00  0.00    -0.155 N 
HETATM    7  O1  UNL     1       4.806   1.254   0.641  1.00  0.00    -0.537 OA
HETATM    8  O2  UNL     1       5.323  -0.658  -0.418  1.00  0.00    -0.537 OA
ENDBRANCH   5   6
ENDBRANCH   4   5
ENDBRANCH   3   4
ENDBRANCH   1   3
BRANCH   1   9
HETATM    9  N2  UNL     1      -1.690  -0.081   0.057  1.00  0.00    -0.343 N 
HETATM   10  C4  UNL     1      -2.701   0.806   0.553  1.00  0.00     0.152 C 
HETATM   11  C5  UNL     1      -3.616   0.868  -0.673  1.00  0.00     0.189 C 
HETATM   12  O3  UNL     1      -3.234  -0.163  -1.505  1.00  0.00    -0.370 OA
HETATM   13  C6  UNL     1      -2.375  -1.008  -0.799  1.00  0.00     0.294 C 
ENDBRANCH   1   9
TORSDOF 5
