REMARK  4 active torsions:
REMARK  status: ('A' for Active; 'I' for Inactive)
REMARK    1  A    between atoms: O1_2  and  C2_3 
REMARK    2  A    between atoms: C2_3  and  C3_5 
REMARK    3  A    between atoms: C3_5  and  C4_6 
REMARK    4  A    between atoms: C4_6  and  N1_7 
ROOT
HETATM    1  C3  UNL     1      -1.283  -0.864  -0.518  1.00  0.00     0.123 C 
HETATM    2  C9  UNL     1      -1.818  -1.773   0.579  1.00  0.00     0.043 C 
HETATM    3  C10 UNL     1      -2.117  -3.029  -0.206  1.00  0.00     0.077 C 
HETATM    4  S1  UNL     1      -2.022  -2.059  -1.715  1.00  0.00    -0.147 SA
ENDROOT
BRANCH   1   5
HETATM    5  C2  UNL     1      -2.024   0.389  -0.581  1.00  0.00     0.279 C 
HETATM    6  O2  UNL     1      -2.726   0.634  -1.605  1.00  0.00    -0.263 OA
BRANCH   5   7
HETATM    7  O1  UNL     1      -2.044   1.374   0.390  1.00  0.00    -0.325 OA
HETATM    8  C1  UNL     1      -2.801   2.561   0.232  1.00  0.00     0.213 C 
ENDBRANCH   5   7
ENDBRANCH   1   5
BRANCH   1   9
HETATM    9  C4  UNL     1       0.180  -0.891  -0.700  1.00  0.00     0.303 C 
BRANCH   9  10
HETATM   10  N1  UNL     1       1.032  -0.176   0.161  1.00  0.00     0.094 N 
HETATM   11  C5  UNL     1       1.045   1.240   0.105  1.00  0.00     0.298 C 
HETATM   12  C6  UNL     1       2.485   1.791  -0.003  1.00  0.00     0.198 C 
HETATM   13  O3  UNL     1       3.290   1.283   0.984  1.00  0.00    -0.388 OA
HETATM   14  C7  UNL     1       3.417  -0.090   0.816  1.00  0.00     0.198 C 
HETATM   15  C8  UNL     1       2.387  -0.683  -0.074  1.00  0.00     0.298 C 
ENDBRANCH   9  10
ENDBRANCH   1   9
TORSDOF 4
