REMARK  4 active torsions:
REMARK  status: ('A' for Active; 'I' for Inactive)
REMARK    1  A    between atoms: C1_2  and  O2_3 
REMARK    2  A    between atoms: C1_2  and  C6_10 
REMARK    3  A    between atoms: O2_3  and  C2_4 
REMARK    4  A    between atoms: C2_4  and  C3_5 
ROOT
HETATM    1  O1  UNL     1      -0.549  -1.754   0.855  1.00  0.00    -0.262 OA
HETATM    2  C1  UNL     1      -0.595  -0.691   0.184  1.00  0.00     0.294 C 
ENDROOT
BRANCH   2   3
HETATM    3  O2  UNL     1       0.579  -0.132  -0.237  1.00  0.00    -0.316 OA
BRANCH   3   4
HETATM    4  C2  UNL     1       1.800  -0.748   0.084  1.00  0.00     0.213 C 
BRANCH   4   5
HETATM    5  C3  UNL     1       2.988   0.010  -0.464  1.00  0.00     0.172 C 
HETATM    6  C4  UNL     1       4.292  -0.594  -0.034  1.00  0.00     0.204 C 
HETATM    7  O3  UNL     1       4.579   0.087   1.138  1.00  0.00    -0.364 OA
HETATM    8  C5  UNL     1       4.081   1.369   0.938  1.00  0.00     0.338 C 
HETATM    9  O4  UNL     1       3.070   1.295   0.015  1.00  0.00    -0.357 OA
ENDBRANCH   4   5
ENDBRANCH   3   4
ENDBRANCH   2   3
BRANCH   2  10
HETATM   10  C6  UNL     1      -1.938  -0.129  -0.096  1.00  0.00     0.154 C 
HETATM   11  C7  UNL     1      -2.765  -0.109   1.146  1.00  0.00     0.076 C 
HETATM   12  C8  UNL     1      -4.041   0.634   0.843  1.00  0.00    -0.025 C 
HETATM   13  C9  UNL     1      -4.215   0.977  -0.422  1.00  0.00     0.001 C 
HETATM   14  C10 UNL     1      -3.169   0.611  -1.408  1.00  0.00     0.149 C 
HETATM   15  C11 UNL     1      -2.695  -0.811  -1.200  1.00  0.00     0.085 C 
HETATM   16  O5  UNL     1      -1.948   1.029  -0.829  1.00  0.00    -0.360 OA
ENDBRANCH   2  10
TORSDOF 4
