REMARK  4 active torsions:
REMARK  status: ('A' for Active; 'I' for Inactive)
REMARK    1  A    between atoms: N1_1  and  N2_4 
REMARK    2  A    between atoms: N3_6  and  N4_8 
REMARK    3  A    between atoms: N4_8  and  C1_10 
REMARK    4  A    between atoms: C1_10  and  C2_11 
ROOT
HETATM    1  N4  UNL     1       1.221  -0.525   0.705  1.00  0.00    -0.318 N 
ATOM      2  H4  UNL     1       0.924   0.158   1.402  1.00  0.00     0.181 HD
ENDROOT
BRANCH   1   3
HETATM    3  N3  UNL     1       2.369  -1.292   0.904  1.00  0.00    -0.233 N 
HETATM    4  N2  UNL     1       3.466  -0.869   0.454  1.00  0.00    -0.235 N 
ATOM      5  H2  UNL     1       4.320  -1.411   0.586  1.00  0.00     0.209 HD
ATOM      6  H3  UNL     1       2.321  -2.179   1.405  1.00  0.00     0.209 HD
BRANCH   4   7
HETATM    7  N1  UNL     1       3.502   0.345  -0.226  1.00  0.00    -0.330 N 
ATOM      8  H12 UNL     1       2.639   0.874  -0.350  1.00  0.00     0.178 HD
ATOM      9  H11 UNL     1       4.391   0.688  -0.591  1.00  0.00     0.178 HD
ENDBRANCH   4   7
ENDBRANCH   1   3
BRANCH   1  10
HETATM   10  C1  UNL     1       0.462  -0.717  -0.508  1.00  0.00     0.177 C 
BRANCH  10  11
HETATM   11  C2  UNL     1      -0.735   0.263  -0.435  1.00  0.00     0.172 A 
HETATM   12  N5  UNL     1      -1.567   0.087   0.614  1.00  0.00    -0.358 N 
HETATM   13  C3  UNL     1      -2.608  -0.194   0.063  1.00  0.00     0.153 A 
ATOM     14  H5  UNL     1      -1.370   0.169   1.611  1.00  0.00     0.162 HD
HETATM   15  N6  UNL     1      -3.970  -0.523   0.543  1.00  0.00    -0.075 NA
HETATM   16  S1  UNL     1      -2.010  -0.097  -1.560  1.00  0.00    -0.070 SA
ENDBRANCH  10  11
ENDBRANCH   1  10
TORSDOF 4
