REMARK  6 active torsions:
REMARK  status: ('A' for Active; 'I' for Inactive)
REMARK    1  A    between atoms: N1_1  and  C1_5 
REMARK    2  A    between atoms: C1_5  and  C2_6 
REMARK    3  A    between atoms: C3_8  and  C4_9 
REMARK    4  A    between atoms: C4_9  and  N2_10 
REMARK    5  A    between atoms: C5_14  and  C6_15 
REMARK    6  A    between atoms: C6_15  and  N3_16 
ROOT
HETATM    1  C2  UNL     1       0.840  -0.801   0.170  1.00  0.00     0.155 C 
HETATM    2  O1  UNL     1      -0.266  -1.507  -0.312  1.00  0.00    -0.376 OA
HETATM    3  C3  UNL     1      -0.936  -0.295  -0.573  1.00  0.00     0.155 C 
HETATM    4  C5  UNL     1       0.241   0.523  -0.218  1.00  0.00     0.072 C 
ENDROOT
BRANCH   1   5
HETATM    5  C1  UNL     1       2.045  -1.185  -0.703  1.00  0.00     0.261 C 
BRANCH   5   6
HETATM    6  N1  UNL     1       3.218  -0.486  -0.252  1.00  0.00    -0.077 N 
ATOM      7  H13 UNL     1       3.074   0.523  -0.220  1.00  0.00     0.274 HD
ATOM      8  H12 UNL     1       3.399  -0.641   0.740  1.00  0.00     0.274 HD
ATOM      9  H11 UNL     1       4.018  -0.741  -0.831  1.00  0.00     0.274 HD
ENDBRANCH   5   6
ENDBRANCH   1   5
BRANCH   4  10
HETATM   10  C6  UNL     1       0.110   1.534   0.864  1.00  0.00     0.239 C 
BRANCH  10  11
HETATM   11  N3  UNL     1      -0.480   2.735   0.316  1.00  0.00    -0.079 N 
ATOM     12  H33 UNL     1       0.038   3.091  -0.488  1.00  0.00     0.274 HD
ATOM     13  H32 UNL     1      -1.366   2.553  -0.155  1.00  0.00     0.274 HD
ATOM     14  H31 UNL     1      -0.570   3.429   1.058  1.00  0.00     0.274 HD
ENDBRANCH  10  11
ENDBRANCH   4  10
BRANCH   3  15
HETATM   15  C4  UNL     1      -2.149  -0.204   0.300  1.00  0.00     0.261 C 
BRANCH  15  16
HETATM   16  N2  UNL     1      -3.009  -1.352  -0.023  1.00  0.00    -0.077 N 
ATOM     17  H23 UNL     1      -3.236  -1.413  -1.016  1.00  0.00     0.274 HD
ATOM     18  H22 UNL     1      -2.526  -2.247   0.058  1.00  0.00     0.274 HD
ATOM     19  H21 UNL     1      -3.835  -1.290   0.572  1.00  0.00     0.274 HD
ENDBRANCH  15  16
ENDBRANCH   3  15
TORSDOF 6
