REMARK  5 active torsions:
REMARK  status: ('A' for Active; 'I' for Inactive)
REMARK    1  A    between atoms: N1_1  and  C1_5 
REMARK    2  A    between atoms: C1_5  and  C2_6 
REMARK    3  A    between atoms: C2_6  and  C3_7 
REMARK    4  A    between atoms: C3_7  and  N2_8 
REMARK    5  A    between atoms: N2_8  and  C4_10 
ROOT
HETATM    1  N2  UNL     1       0.223  -0.066  -0.684  1.00  0.00    -0.361 N 
ATOM      2  H2  UNL     1      -0.234  -0.605  -1.420  1.00  0.00     0.162 HD
ENDROOT
BRANCH   1   3
HETATM    3  C3  UNL     1      -0.548   0.833   0.154  1.00  0.00     0.124 C 
BRANCH   3   4
HETATM    4  C2  UNL     1      -2.002   0.845  -0.201  1.00  0.00     0.047 C 
BRANCH   4   5
HETATM    5  C1  UNL     1      -2.587  -0.560  -0.039  1.00  0.00     0.231 C 
BRANCH   5   6
HETATM    6  N1  UNL     1      -3.996  -0.487  -0.398  1.00  0.00    -0.079 N 
ATOM      7  H13 UNL     1      -4.506   0.221   0.131  1.00  0.00     0.274 HD
ATOM      8  H12 UNL     1      -4.151  -0.095  -1.327  1.00  0.00     0.274 HD
ATOM      9  H11 UNL     1      -4.386  -1.423  -0.290  1.00  0.00     0.274 HD
ENDBRANCH   5   6
ENDBRANCH   4   5
ENDBRANCH   3   4
ENDBRANCH   1   3
BRANCH   1  10
HETATM   10  C4  UNL     1       1.629  -0.186  -0.466  1.00  0.00     0.188 C 
HETATM   11  N3  UNL     1       2.492   0.720  -0.762  1.00  0.00    -0.346 N 
HETATM   12  C5  UNL     1       3.790   0.232  -0.395  1.00  0.00     0.259 C 
ATOM     13  H3  UNL     1       2.289   1.626  -1.184  1.00  0.00     0.163 HD
HETATM   14  N4  UNL     1       3.496  -0.791   0.588  1.00  0.00    -0.119 NA
HETATM   15  N5  UNL     1       2.289  -1.314   0.112  1.00  0.00    -0.274 N 
ATOM     16  H5  UNL     1       1.957  -2.277   0.165  1.00  0.00     0.185 HD
ENDBRANCH   1  10
TORSDOF 5
