REMARK  8 active torsions:
REMARK  status: ('A' for Active; 'I' for Inactive)
REMARK    1  A    between atoms: C2_2  and  O1_4 
REMARK    2  A    between atoms: O1_4  and  C4_5 
REMARK    3  A    between atoms: C6_7  and  N1_8 
REMARK    4  A    between atoms: C6_7  and  C7_14 
REMARK    5  A    between atoms: N1_8  and  N2_10 
REMARK    6  A    between atoms: N2_10  and  N3_11 
REMARK    7  A    between atoms: C7_14  and  O2_15 
REMARK    8  A    between atoms: N4_17  and  O3_19 
ROOT
HETATM    1  C4  UNL     1       0.572   0.070   0.636  1.00  0.00     0.117 C 
HETATM    2  C5  UNL     1      -0.229   0.366  -0.364  1.00  0.00     0.053 C 
HETATM    3  C6  UNL     1      -1.609  -0.151  -0.416  1.00  0.00     0.146 C 
HETATM    4  C8  UNL     1      -1.897  -1.340   0.430  1.00  0.00     0.053 C 
HETATM    5  C9  UNL     1      -0.642  -1.947   0.995  1.00  0.00     0.090 C 
HETATM    6  C10 UNL     1       0.078  -0.802   1.730  1.00  0.00     0.291 C 
HETATM    7  F1  UNL     1       1.116  -1.292   2.495  1.00  0.00    -0.199 F 
HETATM    8  F2  UNL     1      -0.816  -0.205   2.561  1.00  0.00    -0.199 F 
ENDROOT
BRANCH   3   9
HETATM    9  N1  UNL     1      -1.975  -0.465  -1.806  1.00  0.00    -0.231 N 
ATOM     10  H1  UNL     1      -1.304  -0.376  -2.569  1.00  0.00     0.198 HD
BRANCH   9  11
HETATM   11  N2  UNL     1      -3.142  -0.844  -2.004  1.00  0.00    -0.247 NA
BRANCH  11  12
HETATM   12  N3  UNL     1      -4.127  -1.545  -2.202  1.00  0.00    -0.261 N 
ATOM     13  H32 UNL     1      -3.610  -2.424  -2.199  1.00  0.00     0.193 HD
ATOM     14  H31 UNL     1      -5.085  -1.856  -2.364  1.00  0.00     0.193 HD
ENDBRANCH  11  12
ENDBRANCH   9  11
ENDBRANCH   3   9
BRANCH   3  15
HETATM   15  C7  UNL     1      -2.509   1.007  -0.061  1.00  0.00     0.171 C 
HETATM   16  N4  UNL     1      -2.083   2.175   0.212  1.00  0.00    -0.249 N 
ATOM     17  H4  UNL     1      -1.075   2.328   0.187  1.00  0.00     0.196 HD
BRANCH  15  18
HETATM   18  O2  UNL     1      -3.866   0.750  -0.039  1.00  0.00    -0.346 OA
ATOM     19  H2  UNL     1      -4.433   1.479   0.184  1.00  0.00     0.219 HD
ENDBRANCH  15  18
BRANCH  16  20
HETATM   20  O3  UNL     1      -2.872   3.234   0.535  1.00  0.00    -0.288 OA
ATOM     21  H3  UNL     1      -2.554   4.106   0.739  1.00  0.00     0.244 HD
ENDBRANCH  16  20
ENDBRANCH   3  15
BRANCH   1  22
HETATM   22  O1  UNL     1       1.865   0.569   0.665  1.00  0.00    -0.345 OA
BRANCH  22  23
HETATM   23  C2  UNL     1       2.762   0.509  -0.409  1.00  0.00     0.120 C 
HETATM   24  C1  UNL     1       3.059  -0.902  -0.848  1.00  0.00     0.040 C 
HETATM   25  C3  UNL     1       4.069   1.126   0.055  1.00  0.00     0.040 C 
ENDBRANCH  22  23
ENDBRANCH   1  22
TORSDOF 8
