REMARK  5 active torsions:
REMARK  status: ('A' for Active; 'I' for Inactive)
REMARK    1  A    between atoms: C2_2  and  C3_5 
REMARK    2  A    between atoms: C3_5  and  N1_6 
REMARK    3  A    between atoms: C5_8  and  C6_9 
REMARK    4  A    between atoms: C6_9  and  O1_12 
REMARK    5  A    between atoms: C9_15  and  N2_16 
ROOT
HETATM    1  N1  UNL     1       0.988  -0.895   0.007  1.00  0.00    -0.334 N 
HETATM    2  C4  UNL     1       0.059  -0.205   0.635  1.00  0.00     0.111 A 
HETATM    3  C5  UNL     1      -1.208  -0.221   0.147  1.00  0.00     0.035 A 
HETATM    4  S1  UNL     1      -1.051  -1.233  -1.217  1.00  0.00    -0.054 SA
HETATM    5  C9  UNL     1       0.638  -1.578  -1.076  1.00  0.00     0.144 A 
ENDROOT
BRANCH   1   6
HETATM    6  C3  UNL     1       2.405  -0.882   0.455  1.00  0.00     0.172 C 
BRANCH   6   7
HETATM    7  C2  UNL     1       3.148   0.325   0.031  1.00  0.00     0.126 C 
HETATM    8  C1  UNL     1       3.264   0.622  -1.423  1.00  0.00     0.052 C 
HETATM    9 CL1  UNL     1       4.844   0.107   0.622  1.00  0.00    -0.100 Cl
HETATM   10 CL2  UNL     1       2.580   1.793   0.932  1.00  0.00    -0.100 Cl
ENDBRANCH   6   7
ENDBRANCH   1   6
BRANCH   5  11
HETATM   11  N2  UNL     1       1.334  -2.363  -1.874  1.00  0.00    -0.379 N 
ATOM     12  H22 UNL     1       2.330  -2.566  -1.791  1.00  0.00     0.158 HD
ATOM     13  H21 UNL     1       1.065  -2.888  -2.706  1.00  0.00     0.158 HD
ENDBRANCH   5  11
BRANCH   3  14
HETATM   14  C6  UNL     1      -2.453   0.457   0.615  1.00  0.00     0.085 C 
HETATM   15  C7  UNL     1      -2.876   1.532  -0.377  1.00  0.00     0.051 C 
HETATM   16  C8  UNL     1      -3.607  -0.514   0.715  1.00  0.00     0.051 C 
BRANCH  14  17
HETATM   17  O1  UNL     1      -2.231   1.042   1.875  1.00  0.00    -0.385 OA
ATOM     18  H1  UNL     1      -3.023   1.473   2.173  1.00  0.00     0.211 HD
ENDBRANCH  14  17
ENDBRANCH   3  14
TORSDOF 5
