REMARK  6 active torsions:
REMARK  status: ('A' for Active; 'I' for Inactive)
REMARK    1  A    between atoms: C2_2  and  C4_4 
REMARK    2  A    between atoms: C4_4  and  C5_5 
REMARK    3  A    between atoms: C5_5  and  N1_6 
REMARK    4  A    between atoms: C5_5  and  C13_19 
REMARK    5  A    between atoms: C6_7  and  O1_8 
REMARK    6  A    between atoms: C9_12  and  O2_13 
ROOT
HETATM    1  N1  UNL     1       0.335  -0.248  -0.012  1.00  0.00    -0.294 N 
HETATM    2  C6  UNL     1       0.855  -0.220   1.210  1.00  0.00     0.152 A 
HETATM    3  C7  UNL     1       2.245  -0.140   1.074  1.00  0.00     0.008 A 
HETATM    4  C8  UNL     1       2.516  -0.123  -0.274  1.00  0.00     0.027 A 
HETATM    5  C9  UNL     1       1.287  -0.192  -0.943  1.00  0.00     0.154 A 
HETATM    6  C10 UNL     1       3.903  -0.042  -0.808  1.00  0.00     0.211 C 
HETATM    7  O3  UNL     1       4.845  -0.158   0.176  1.00  0.00    -0.386 OA
HETATM    8  C11 UNL     1       4.521   0.583   1.321  1.00  0.00     0.172 C 
HETATM    9  C12 UNL     1       3.365  -0.077   2.040  1.00  0.00     0.070 C 
ENDROOT
BRANCH   1  10
HETATM   10  C5  UNL     1      -1.112  -0.332  -0.335  1.00  0.00     0.202 C 
BRANCH  10  11
HETATM   11  C4  UNL     1      -1.845   0.758   0.300  1.00  0.00     0.039 C 
BRANCH  11  12
HETATM   12  C2  UNL     1      -3.294   0.943   0.118  1.00  0.00    -0.020 C 
HETATM   13  C1  UNL     1      -4.252  -0.074   0.574  1.00  0.00     0.009 C 
HETATM   14  C3  UNL     1      -3.499   1.250  -1.394  1.00  0.00     0.009 C 
ENDBRANCH  11  12
ENDBRANCH  10  11
BRANCH  10  15
HETATM   15  C13 UNL     1      -1.461  -1.752  -0.128  1.00  0.00     0.408 C 
HETATM   16  F1  UNL     1      -1.422  -2.203   1.176  1.00  0.00    -0.169 F 
HETATM   17  F2  UNL     1      -0.376  -2.536  -0.711  1.00  0.00    -0.169 F 
HETATM   18  F3  UNL     1      -2.535  -2.231  -0.828  1.00  0.00    -0.169 F 
ENDBRANCH  10  15
ENDBRANCH   1  10
BRANCH   2  19
HETATM   19  O1  UNL     1       0.276  -0.255   2.457  1.00  0.00    -0.345 OA
ATOM     20  H1  UNL     1       0.648  -0.235   3.331  1.00  0.00     0.219 HD
ENDBRANCH   2  19
BRANCH   5  21
HETATM   21  O2  UNL     1       1.159  -0.198  -2.336  1.00  0.00    -0.345 OA
ATOM     22  H2  UNL     1       1.838  -0.158  -3.000  1.00  0.00     0.219 HD
ENDBRANCH   5  21
TORSDOF 6
