REMARK  5 active torsions:
REMARK  status: ('A' for Active; 'I' for Inactive)
REMARK    1  A    between atoms: C2_2  and  C5_5 
REMARK    2  A    between atoms: C5_5  and  O1_6 
REMARK    3  A    between atoms: C5_5  and  C6_8 
REMARK    4  A    between atoms: C8_12  and  C9_13 
REMARK    5  A    between atoms: C10_16  and  C11_17 
ROOT
HETATM    1  C6  UNL     1       0.745   0.015   0.637  1.00  0.00     0.038 A 
HETATM    2  C7  UNL     1       1.412   0.065   1.896  1.00  0.00     0.101 A 
HETATM    3  N1  UNL     1       0.815   0.026   3.221  1.00  0.00    -0.093 NA
HETATM    4  S1  UNL     1       3.039   0.189   1.516  1.00  0.00    -0.067 SA
HETATM    5  C8  UNL     1       2.955   0.181  -0.171  1.00  0.00     0.095 A 
HETATM    6  C10 UNL     1       1.582   0.075  -0.432  1.00  0.00     0.045 A 
ENDROOT
BRANCH   1   7
HETATM    7  C5  UNL     1      -0.730  -0.097   0.714  1.00  0.00     0.064 C 
BRANCH   7   8
HETATM    8  C2  UNL     1      -1.922  -0.096  -0.058  1.00  0.00    -0.002 C 
HETATM    9  C1  UNL     1      -3.079  -0.362   1.052  1.00  0.00     0.021 C 
HETATM   10  C3  UNL     1      -2.238  -1.217  -0.998  1.00  0.00     0.021 C 
HETATM   11  C4  UNL     1      -2.389   1.202  -0.683  1.00  0.00     0.021 C 
ENDBRANCH   7   8
BRANCH   7  12
HETATM   12  O1  UNL     1      -1.153  -0.254   1.999  1.00  0.00    -0.363 OA
ATOM     13  H1  UNL     1      -0.356  -0.255   2.515  1.00  0.00     0.217 HD
ENDBRANCH   7  12
ENDBRANCH   1   7
BRANCH   6  14
HETATM   14  C11 UNL     1       1.226  -0.035  -1.902  1.00  0.00     0.389 C 
HETATM   15  F1  UNL     1       0.796  -1.309  -2.240  1.00  0.00    -0.209 F 
HETATM   16  F2  UNL     1       0.328   0.820  -2.400  1.00  0.00    -0.209 F 
ENDBRANCH   6  14
BRANCH   5  17
HETATM   17  C9  UNL     1       4.123   0.267  -1.040  1.00  0.00     0.217 C 
HETATM   18  O2  UNL     1       4.259   0.275  -2.244  1.00  0.00    -0.643 OA
HETATM   19  O3  UNL     1       5.388   0.364  -0.376  1.00  0.00    -0.643 OA
ENDBRANCH   5  17
TORSDOF 5
