REMARK  4 active torsions:
REMARK  status: ('A' for Active; 'I' for Inactive)
REMARK    1  A    between atoms: C2_2  and  O1_3 
REMARK    2  A    between atoms: O1_3  and  C3_4 
REMARK    3  A    between atoms: C3_4  and  C4_6 
REMARK    4  A    between atoms: C7_11  and  N1_12 
REMARK       I    between atoms: N1_12  and  C8_14 
REMARK       I    between atoms: C8_14  and  N3_18 
ROOT
HETATM    1  C4  UNL     1       0.720   0.960   1.217  1.00  0.00     0.110 A 
HETATM    2  S1  UNL     1       0.676   2.233   2.344  1.00  0.00    -0.090 SA
HETATM    3  C5  UNL     1      -0.685   1.756   3.248  1.00  0.00     0.095 A 
HETATM    4  C6  UNL     1      -1.077   0.597   2.639  1.00  0.00     0.151 A 
HETATM    5  F1  UNL     1      -2.191  -0.076   3.139  1.00  0.00    -0.203 F 
HETATM    6  C7  UNL     1      -0.347   0.179   1.580  1.00  0.00     0.111 A 
ENDROOT
BRANCH   6   7
HETATM    7  N1  UNL     1      -0.675  -1.041   0.853  1.00  0.00    -0.186 N 
HETATM    8  C8  UNL     1      -1.567  -1.017  -0.249  1.00  0.00     0.688 C 
HETATM    9  N2  UNL     1      -2.052  -2.116  -0.718  1.00  0.00    -0.131 N 
HETATM   10  N3  UNL     1      -1.939   0.216  -0.848  1.00  0.00    -0.230 N 
HETATM   11 CL1  UNL     1      -3.149  -2.146  -2.066  1.00  0.00     0.026 Cl
ATOM     12  H2  UNL     1      -1.783  -2.998  -0.283  1.00  0.00     0.199 HD
HETATM   13  C9  UNL     1      -3.314   0.653  -0.776  1.00  0.00     0.165 C 
ATOM     14  H3  UNL     1      -1.242   0.788  -1.325  1.00  0.00     0.177 HD
ATOM     15  H1  UNL     1      -0.257  -1.925   1.141  1.00  0.00     0.184 HD
ENDBRANCH   6   7
BRANCH   1  16
HETATM   16  C3  UNL     1       1.670   0.721   0.103  1.00  0.00     0.302 C 
HETATM   17  O2  UNL     1       2.581   1.559  -0.063  1.00  0.00    -0.259 OA
BRANCH  16  18
HETATM   18  O1  UNL     1       1.554  -0.370  -0.709  1.00  0.00    -0.317 OA
BRANCH  18  19
HETATM   19  C2  UNL     1       2.428  -0.653  -1.787  1.00  0.00     0.174 C 
HETATM   20  C1  UNL     1       3.864  -0.813  -1.296  1.00  0.00     0.034 C 
ENDBRANCH  18  19
ENDBRANCH  16  18
ENDBRANCH   1  16
TORSDOF 4
