REMARK  5 active torsions:
REMARK  status: ('A' for Active; 'I' for Inactive)
REMARK    1  A    between atoms: C2_2  and  O1_3 
REMARK    2  A    between atoms: C2_2  and  C3_5 
REMARK    3  A    between atoms: C2_2  and  C7_16 
REMARK    4  A    between atoms: C5_7  and  C6_8 
REMARK    5  A    between atoms: C6_8  and  O2_9 
ROOT
HETATM    1  C3  UNL     1       0.988  -0.455  -0.315  1.00  0.00     0.113 A 
HETATM    2  C4  UNL     1       2.120  -0.304   0.474  1.00  0.00     0.072 A 
HETATM    3  C5  UNL     1       3.107   0.233  -0.325  1.00  0.00     0.118 A 
HETATM    4  N1  UNL     1       2.543   0.379  -1.532  1.00  0.00    -0.258 N 
ATOM      5  H1  UNL     1       3.016   0.756  -2.353  1.00  0.00     0.194 HD
HETATM    6  O3  UNL     1       1.299  -0.030  -1.509  1.00  0.00    -0.239 OA
ENDROOT
BRANCH   1   7
HETATM    7  C2  UNL     1      -0.340  -0.997   0.106  1.00  0.00     0.108 C 
HETATM    8  C1  UNL     1      -0.516  -2.308  -0.593  1.00  0.00     0.053 C 
BRANCH   7   9
HETATM    9  O1  UNL     1      -0.390  -1.111   1.483  1.00  0.00    -0.383 OA
ATOM     10  H1  UNL     1      -0.278  -0.279   1.927  1.00  0.00     0.211 HD
ENDBRANCH   7   9
BRANCH   7  11
HETATM   11  C7  UNL     1      -1.393  -0.047  -0.369  1.00  0.00     0.026 C 
HETATM   12  C8  UNL     1      -1.263   1.325   0.295  1.00  0.00     0.008 C 
HETATM   13  C9  UNL     1      -2.586   1.958  -0.164  1.00  0.00     0.001 C 
HETATM   14  C10 UNL     1      -3.557   0.848   0.140  1.00  0.00     0.001 C 
HETATM   15  C11 UNL     1      -2.783  -0.435   0.101  1.00  0.00     0.008 C 
ENDBRANCH   7  11
ENDBRANCH   1   7
BRANCH   3  16
HETATM   16  C6  UNL     1       4.516   0.573   0.057  1.00  0.00     0.329 C 
HETATM   17  F1  UNL     1       4.543   1.540   1.047  1.00  0.00    -0.186 F 
HETATM   18 CL1  UNL     1       5.295  -0.912   0.657  1.00  0.00    -0.046 Cl
BRANCH  16  19
HETATM   19  O2  UNL     1       5.195   1.038  -1.081  1.00  0.00    -0.345 OA
ATOM     20  H2  UNL     1       6.088   1.253  -0.839  1.00  0.00     0.215 HD
ENDBRANCH  16  19
ENDBRANCH   3  16
TORSDOF 5
