REMARK  6 active torsions:
REMARK  status: ('A' for Active; 'I' for Inactive)
REMARK    1  A    between atoms: C2_2  and  N1_3 
REMARK    2  A    between atoms: N1_3  and  C3_5 
REMARK    3  A    between atoms: C3_5  and  N2_7 
REMARK    4  A    between atoms: N2_7  and  C4_9 
REMARK    5  A    between atoms: C4_9  and  C5_10 
REMARK    6  A    between atoms: C5_10  and  C6_11 
ROOT
HETATM    1  C6  UNL     1      -0.668  -0.210  -0.799  1.00  0.00     0.160 C 
HETATM    2  O1  UNL     1      -0.952  -1.465  -0.272  1.00  0.00    -0.347 OA
HETATM    3  C7  UNL     1      -2.313  -1.678  -0.491  1.00  0.00     0.167 C 
HETATM    4  C8  UNL     1      -3.024  -2.111   0.770  1.00  0.00     0.068 C 
HETATM    5  C9  UNL     1      -2.607  -3.549   0.913  1.00  0.00     0.006 C 
HETATM    6  C10 UNL     1      -2.467  -4.075  -0.489  1.00  0.00     0.006 C 
HETATM    7  C11 UNL     1      -2.443  -2.864  -1.410  1.00  0.00     0.068 C 
HETATM    8  O2  UNL     1      -2.956  -0.563  -1.020  1.00  0.00    -0.323 OA
HETATM    9  C12 UNL     1      -2.887   0.510  -0.153  1.00  0.00     0.298 C 
HETATM   10  O3  UNL     1      -3.363   1.668  -0.749  1.00  0.00    -0.323 OA
HETATM   11  C13 UNL     1      -2.525   2.633  -0.185  1.00  0.00     0.160 C 
HETATM   12  C14 UNL     1      -2.871   2.766   1.272  1.00  0.00     0.078 C 
HETATM   13  C15 UNL     1      -2.706   3.982  -0.841  1.00  0.00     0.078 C 
HETATM   14  O4  UNL     1      -1.282   2.086  -0.420  1.00  0.00    -0.343 OA
HETATM   15  C16 UNL     1      -1.398   0.799   0.049  1.00  0.00     0.209 C 
ENDROOT
BRANCH   1  16
HETATM   16  C5  UNL     1       0.797   0.067  -0.959  1.00  0.00     0.054 C 
BRANCH  16  17
HETATM   17  C4  UNL     1       1.561   0.011   0.311  1.00  0.00     0.124 C 
BRANCH  17  18
HETATM   18  N2  UNL     1       2.962   0.279   0.161  1.00  0.00    -0.367 N 
ATOM     19  H2  UNL     1       3.313   1.155   0.549  1.00  0.00     0.161 HD
BRANCH  18  20
HETATM   20  C3  UNL     1       3.904  -0.571  -0.482  1.00  0.00     0.167 C 
HETATM   21  S1  UNL     1       3.370  -1.987  -1.089  1.00  0.00    -0.041 SA
BRANCH  20  22
HETATM   22  N1  UNL     1       5.268  -0.256  -0.607  1.00  0.00    -0.368 N 
ATOM     23  H1  UNL     1       5.876  -0.921  -1.084  1.00  0.00     0.161 HD
BRANCH  22  24
HETATM   24  C2  UNL     1       5.856   0.969  -0.092  1.00  0.00     0.117 C 
HETATM   25  C1  UNL     1       7.324   1.053  -0.359  1.00  0.00     0.026 C 
ENDBRANCH  22  24
ENDBRANCH  20  22
ENDBRANCH  18  20
ENDBRANCH  17  18
ENDBRANCH  16  17
ENDBRANCH   1  16
TORSDOF 6
