REMARK  6 active torsions:
REMARK  status: ('A' for Active; 'I' for Inactive)
REMARK    1  A    between atoms: C2_2  and  N1_3 
REMARK    2  A    between atoms: N1_3  and  C3_5 
REMARK    3  A    between atoms: C4_8  and  N3_9 
REMARK    4  A    between atoms: N5_18  and  C11_20 
REMARK    5  A    between atoms: C14_23  and  O1_24 
REMARK    6  A    between atoms: O1_24  and  C15_25 
ROOT
HETATM    1  C3  UNL     1      -1.956  -2.141  -0.711  1.00  0.00     0.707 A 
HETATM    2  N2  UNL     1      -2.769  -1.082  -0.544  1.00  0.00    -0.021 N 
ATOM      3  H2  UNL     1      -3.683  -1.099  -0.996  1.00  0.00     0.203 HD
HETATM    4  C4  UNL     1      -2.438  -0.000   0.189  1.00  0.00     0.709 A 
HETATM    5  N4  UNL     1      -1.209  -0.038   0.765  1.00  0.00    -0.021 N 
ATOM      6  H4  UNL     1      -0.920   0.762   1.329  1.00  0.00     0.203 HD
HETATM    7  C10 UNL     1      -0.358  -1.053   0.640  1.00  0.00     0.707 A 
HETATM    8  N5  UNL     1       0.796  -1.131   1.148  1.00  0.00    -0.220 N 
ATOM      9  H5  UNL     1       1.308  -1.989   0.944  1.00  0.00     0.178 HD
HETATM   10  N6  UNL     1      -0.762  -2.116  -0.118  1.00  0.00    -0.022 N 
ATOM     11  H6  UNL     1      -0.134  -2.911  -0.233  1.00  0.00     0.203 HD
ENDROOT
BRANCH   8  12
HETATM   12  C11 UNL     1       1.485  -0.184   1.969  1.00  0.00     0.099 C 
HETATM   13  C12 UNL     1       2.764  -0.772   2.543  1.00  0.00     0.028 C 
HETATM   14  C13 UNL     1       3.812  -0.947   1.460  1.00  0.00     0.034 C 
HETATM   15  C14 UNL     1       3.860   0.282   0.567  1.00  0.00     0.121 C 
HETATM   16  C17 UNL     1       3.179   1.449   1.300  1.00  0.00     0.034 C 
HETATM   17  C18 UNL     1       1.702   1.137   1.293  1.00  0.00     0.028 C 
BRANCH  15  18
HETATM   18  O1  UNL     1       5.112   0.595   0.107  1.00  0.00    -0.386 OA
BRANCH  18  19
HETATM   19  C15 UNL     1       5.223   0.549  -1.277  1.00  0.00     0.163 C 
HETATM   20  C16 UNL     1       6.648   0.916  -1.636  1.00  0.00     0.033 C 
ENDBRANCH  18  19
ENDBRANCH  15  18
ENDBRANCH   8  12
BRANCH   4  21
HETATM   21  N3  UNL     1      -3.325   1.120   0.351  1.00  0.00    -0.217 N 
HETATM   22  C5  UNL     1      -4.587   1.050  -0.311  1.00  0.00     0.141 C 
HETATM   23  C6  UNL     1      -5.528   2.151   0.046  1.00  0.00     0.020 C 
HETATM   24  C7  UNL     1      -4.750   3.443   0.092  1.00  0.00     0.003 C 
HETATM   25  C8  UNL     1      -3.799   3.352   1.258  1.00  0.00     0.020 C 
HETATM   26  C9  UNL     1      -2.855   2.205   1.168  1.00  0.00     0.141 C 
ENDBRANCH   4  21
BRANCH   1  27
HETATM   27  N1  UNL     1      -2.292  -3.165  -1.416  1.00  0.00    -0.225 N 
ATOM     28  H1  UNL     1      -3.205  -3.188  -1.871  1.00  0.00     0.177 HD
BRANCH  27  29
HETATM   29  C2  UNL     1      -1.388  -4.281  -1.568  1.00  0.00     0.133 C 
HETATM   30  C1  UNL     1      -2.002  -5.234  -2.594  1.00  0.00     0.027 C 
ENDBRANCH  27  29
ENDBRANCH   1  27
TORSDOF 6
