REMARK  5 active torsions:
REMARK  status: ('A' for Active; 'I' for Inactive)
REMARK    1  A    between atoms: C2_2  and  N1_3 
REMARK    2  A    between atoms: N3_9  and  C5_10 
REMARK    3  A    between atoms: C5_10  and  C6_11 
REMARK    4  A    between atoms: C7_12  and  C8_13 
REMARK    5  A    between atoms: C8_13  and  O1_14 
ROOT
HETATM    1  C6  UNL     1       0.042   0.869  -0.266  1.00  0.00    -0.040 C 
HETATM    2  C7  UNL     1      -0.839   1.615  -0.969  1.00  0.00     0.015 C 
HETATM    3  C9  UNL     1      -1.852   0.882  -1.715  1.00  0.00     0.163 C 
HETATM    4  O2  UNL     1      -2.481   1.498  -2.608  1.00  0.00    -0.292 OA
HETATM    5  C10 UNL     1      -2.188  -0.537  -1.490  1.00  0.00     0.069 C 
HETATM    6  C11 UNL     1      -3.664  -0.788  -1.498  1.00  0.00    -0.007 C 
HETATM    7  C12 UNL     1      -4.480   0.444  -1.167  1.00  0.00     0.011 C 
HETATM    8  C13 UNL     1      -4.036  -1.939  -0.570  1.00  0.00     0.006 C 
HETATM    9  C14 UNL     1      -3.594  -1.674   0.837  1.00  0.00     0.009 C 
HETATM   10  C15 UNL     1      -2.163  -1.221   0.960  1.00  0.00    -0.043 C 
HETATM   11  C16 UNL     1      -2.119  -0.020   1.839  1.00  0.00     0.015 C 
HETATM   12  C17 UNL     1      -1.459  -2.335   1.763  1.00  0.00     0.015 C 
HETATM   13  C18 UNL     1      -1.471  -1.145  -0.343  1.00  0.00     0.009 C 
HETATM   14  C19 UNL     1      -0.068  -0.596  -0.268  1.00  0.00     0.042 C 
ENDROOT
BRANCH   1  15
HETATM   15  C5  UNL     1       1.070   1.565   0.505  1.00  0.00     0.311 C 
BRANCH  15  16
HETATM   16  N3  UNL     1       2.450   1.333   0.124  1.00  0.00     0.146 N 
HETATM   17  C4  UNL     1       3.298   2.306   0.817  1.00  0.00     0.507 C 
HETATM   18  N2  UNL     1       4.685   2.152   0.634  1.00  0.00    -0.022 N 
HETATM   19  C3  UNL     1       4.918   1.038  -0.259  1.00  0.00     0.507 C 
ATOM     20  H22 UNL     1       5.186   2.054   1.517  1.00  0.00     0.281 HD
ATOM     21  H21 UNL     1       5.133   3.010   0.311  1.00  0.00     0.281 HD
HETATM   22  N1  UNL     1       4.364  -0.112   0.457  1.00  0.00     0.141 N 
HETATM   23  C20 UNL     1       2.920  -0.005   0.332  1.00  0.00     0.547 C 
BRANCH  22  24
HETATM   24  C2  UNL     1       4.785  -1.281  -0.302  1.00  0.00     0.272 C 
HETATM   25  C1  UNL     1       4.282  -2.569   0.289  1.00  0.00     0.037 C 
ENDBRANCH  22  24
ENDBRANCH  15  16
ENDBRANCH   1  15
BRANCH   2  26
HETATM   26  C8  UNL     1      -0.864   3.072  -1.036  1.00  0.00     0.206 C 
BRANCH  26  27
HETATM   27  O1  UNL     1      -2.092   3.601  -0.555  1.00  0.00    -0.396 OA
ATOM     28  H1  UNL     1      -2.108   4.550  -0.599  1.00  0.00     0.209 HD
ENDBRANCH  26  27
ENDBRANCH   2  26
TORSDOF 5
