REMARK  11 active torsions:
REMARK  status: ('A' for Active; 'I' for Inactive)
REMARK    1  A    between atoms: C2_2  and  C3_3 
REMARK    2  A    between atoms: C3_3  and  N1_4 
REMARK    3  A    between atoms: N1_4  and  C4_5 
REMARK    4  A    between atoms: N1_4  and  C16_23 
REMARK    5  A    between atoms: C4_5  and  O1_6 
REMARK    6  A    between atoms: C4_5  and  C5_8 
REMARK    7  A    between atoms: C5_8  and  S1_9 
REMARK    8  A    between atoms: S1_9  and  C6_10 
REMARK    9  A    between atoms: C7_11  and  C8_12 
REMARK   10  A    between atoms: C9_13  and  C10_14 
REMARK   11  A    between atoms: C10_14  and  O2_17 
ROOT
HETATM    1  C5  UNL     1       0.188  -0.881  -0.687  1.00  0.00     0.134 C 
ENDROOT
BRANCH   1   2
HETATM    2  C4  UNL     1      -1.062  -1.294   0.057  1.00  0.00     0.229 C 
BRANCH   2   3
HETATM    3  N1  UNL     1      -2.216  -0.606  -0.267  1.00  0.00    -0.361 N 
BRANCH   3   4
HETATM    4  C3  UNL     1      -3.426  -0.899   0.382  1.00  0.00     0.061 C 
BRANCH   4   5
HETATM    5  C2  UNL     1      -4.046  -2.214   0.095  1.00  0.00     0.040 C 
HETATM    6  C1  UNL     1      -5.351  -2.260   0.913  1.00  0.00     0.010 C 
ENDBRANCH   4   5
ENDBRANCH   3   4
BRANCH   3   7
HETATM    7  C16 UNL     1      -2.157   0.632  -0.958  1.00  0.00     0.100 C 
HETATM    8  C17 UNL     1      -2.318   1.752  -0.007  1.00  0.00     0.041 C 
HETATM    9  C18 UNL     1      -2.726   2.990  -0.724  1.00  0.00     0.142 C 
HETATM   10  S2  UNL     1      -3.905   2.331  -1.883  1.00  0.00     0.146 S 
HETATM   11  O3  UNL     1      -5.273   2.401  -1.292  1.00  0.00    -0.228 OA
HETATM   12  O4  UNL     1      -3.818   3.023  -3.208  1.00  0.00    -0.228 OA
HETATM   13  C19 UNL     1      -3.280   0.671  -1.963  1.00  0.00     0.165 C 
ENDBRANCH   3   7
ENDBRANCH   2   3
BRANCH   2  14
HETATM   14  O1  UNL     1      -1.212  -2.674  -0.216  1.00  0.00    -0.376 OA
ATOM     15  H1  UNL     1      -0.419  -3.147   0.007  1.00  0.00     0.212 HD
ENDBRANCH   2  14
ENDBRANCH   1   2
BRANCH   1  16
HETATM   16  S1  UNL     1       1.647  -1.830  -0.209  1.00  0.00    -0.106 SA
BRANCH  16  17
HETATM   17  C6  UNL     1       2.165  -1.515   1.452  1.00  0.00     0.090 A 
HETATM   18  C7  UNL     1       3.061  -0.491   1.775  1.00  0.00     0.052 A 
HETATM   19  C13 UNL     1       3.212  -0.578   3.149  1.00  0.00     0.040 A 
HETATM   20  C14 UNL     1       2.439  -1.612   3.629  1.00  0.00     0.093 A 
HETATM   21  N2  UNL     1       1.814  -2.162   2.571  1.00  0.00    -0.355 N 
HETATM   22  C15 UNL     1       0.914  -3.288   2.670  1.00  0.00     0.156 C 
BRANCH  18  23
HETATM   23  C8  UNL     1       3.662   0.417   0.846  1.00  0.00    -0.061 C 
HETATM   24  C9  UNL     1       4.195   1.185   0.062  1.00  0.00    -0.064 C 
BRANCH  24  25
HETATM   25  C10 UNL     1       4.854   2.091  -0.890  1.00  0.00     0.114 C 
HETATM   26  C11 UNL     1       5.394   3.320  -0.195  1.00  0.00     0.060 C 
HETATM   27  C12 UNL     1       6.050   1.394  -1.544  1.00  0.00     0.060 C 
BRANCH  25  28
HETATM   28  O2  UNL     1       3.914   2.401  -1.858  1.00  0.00    -0.378 OA
ATOM     29  H2  UNL     1       4.340   2.986  -2.473  1.00  0.00     0.211 HD
ENDBRANCH  25  28
ENDBRANCH  24  25
ENDBRANCH  18  23
ENDBRANCH  16  17
ENDBRANCH   1  16
TORSDOF 11
