REMARK  8 active torsions:
REMARK  status: ('A' for Active; 'I' for Inactive)
REMARK    1  A    between atoms: C2_3  and  N1_4 
REMARK    2  A    between atoms: N1_4  and  C3_6 
REMARK    3  A    between atoms: C3_6  and  C4_7 
REMARK    4  A    between atoms: C4_7  and  O2_8 
REMARK    5  A    between atoms: C5_10  and  N2_11 
REMARK    6  A    between atoms: N3_18  and  N4_19 
REMARK    7  A    between atoms: N4_19  and  O3_20 
REMARK    8  A    between atoms: N5_22  and  C12_24 
ROOT
HETATM    1  N2  UNL     1       2.419  -1.086  -1.021  1.00  0.00    -0.374 N 
HETATM    2  C6  UNL     1       2.433  -2.456  -1.479  1.00  0.00     0.123 C 
HETATM    3  C7  UNL     1       2.375  -3.469  -0.379  1.00  0.00     0.020 C 
HETATM    4  C8  UNL     1       1.170  -4.369  -0.560  1.00  0.00     0.002 C 
HETATM    5  C9  UNL     1       0.193  -4.088   0.569  1.00  0.00     0.002 C 
HETATM    6  C10 UNL     1      -0.956  -3.226   0.077  1.00  0.00     0.021 C 
HETATM    7  C11 UNL     1      -1.222  -2.073   1.022  1.00  0.00     0.147 C 
HETATM    8  N3  UNL     1      -0.765  -0.816   0.465  1.00  0.00    -0.285 N 
HETATM    9  C18 UNL     1       0.623  -0.400   0.508  1.00  0.00     0.166 C 
HETATM   10  C19 UNL     1       1.164  -0.393  -0.903  1.00  0.00     0.144 C 
ENDROOT
BRANCH   1  11
HETATM   11  C5  UNL     1       3.649  -0.475  -0.704  1.00  0.00     0.116 A 
HETATM   12  C2  UNL     1       4.123   0.754  -0.250  1.00  0.00     0.114 A 
HETATM   13  C1  UNL     1       5.428   0.319  -0.276  1.00  0.00     0.252 A 
HETATM   14  O1  UNL     1       6.573   0.762  -0.022  1.00  0.00    -0.281 OA
HETATM   15  C20 UNL     1       4.994  -0.884  -0.718  1.00  0.00     0.252 A 
HETATM   16  O4  UNL     1       5.539  -1.971  -1.031  1.00  0.00    -0.281 OA
BRANCH  12  17
HETATM   17  N1  UNL     1       3.527   1.992   0.097  1.00  0.00    -0.383 N 
ATOM     18  H1  UNL     1       2.508   2.032   0.115  1.00  0.00     0.160 HD
BRANCH  17  19
HETATM   19  C3  UNL     1       4.243   3.201   0.427  1.00  0.00     0.146 C 
BRANCH  19  20
HETATM   20  C4  UNL     1       4.899   3.796  -0.778  1.00  0.00     0.183 C 
BRANCH  20  21
HETATM   21  O2  UNL     1       5.582   4.966  -0.407  1.00  0.00    -0.399 OA
ATOM     22  H2  UNL     1       5.999   5.344  -1.172  1.00  0.00     0.209 HD
ENDBRANCH  20  21
ENDBRANCH  19  20
ENDBRANCH  17  19
ENDBRANCH  12  17
ENDBRANCH   1  11
BRANCH   8  23
HETATM   23  N4  UNL     1      -1.717   0.012  -0.132  1.00  0.00    -0.101 N 
HETATM   24  N5  UNL     1      -2.851   0.064   0.424  1.00  0.00    -0.290 N 
ATOM     25  H5  UNL     1      -2.985  -0.501   1.263  1.00  0.00     0.184 HD
BRANCH  23  26
HETATM   26  O3  UNL     1      -1.447   0.729  -1.252  1.00  0.00    -0.254 OA
ATOM     27  H3  UNL     1      -2.095   1.293  -1.658  1.00  0.00     0.248 HD
ENDBRANCH  23  26
BRANCH  24  28
HETATM   28  C12 UNL     1      -3.962   0.846  -0.021  1.00  0.00     0.103 C 
HETATM   29  C13 UNL     1      -5.201   0.328   0.698  1.00  0.00     0.027 C 
HETATM   30  C14 UNL     1      -6.401   1.183   0.463  1.00  0.00     0.002 C 
HETATM   31  C15 UNL     1      -6.028   2.405  -0.360  1.00  0.00     0.000 C 
HETATM   32  C16 UNL     1      -4.931   3.127   0.385  1.00  0.00     0.002 C 
HETATM   33  C17 UNL     1      -3.681   2.290   0.371  1.00  0.00     0.027 C 
ENDBRANCH  24  28
ENDBRANCH   8  23
TORSDOF 8
