REMARK  8 active torsions:
REMARK  status: ('A' for Active; 'I' for Inactive)
REMARK    1  A    between atoms: C2_2  and  C4_4 
REMARK    2  A    between atoms: C4_4  and  C5_5 
REMARK    3  A    between atoms: C4_4  and  C6_7 
REMARK    4  A    between atoms: C6_7  and  O2_8 
REMARK    5  A    between atoms: C7_11  and  C8_12 
REMARK    6  A    between atoms: C17_23  and  C18_24 
REMARK    7  A    between atoms: C18_24  and  O6_26 
REMARK    8  A    between atoms: O6_26  and  C20_27 
ROOT
HETATM    1  C6  UNL     1      -1.467  -0.579   0.337  1.00  0.00     0.207 C 
HETATM    2  O3  UNL     1      -0.100  -0.792   0.642  1.00  0.00    -0.321 OA
HETATM    3  C7  UNL     1       0.625  -0.656  -0.506  1.00  0.00     0.273 C 
HETATM    4  O5  UNL     1      -0.106   0.034  -1.420  1.00  0.00    -0.347 OA
HETATM    5  C17 UNL     1      -1.409   0.251  -0.866  1.00  0.00     0.217 C 
ENDROOT
BRANCH   3   6
HETATM    6  C8  UNL     1       2.058  -0.226  -0.327  1.00  0.00     0.019 C 
HETATM    7  C9  UNL     1       2.638  -0.126  -1.749  1.00  0.00     0.021 C 
HETATM    8  C10 UNL     1       2.309   1.017   0.416  1.00  0.00    -0.004 C 
HETATM    9  C11 UNL     1       2.496   2.225  -0.522  1.00  0.00     0.011 C 
HETATM   10  C12 UNL     1       3.509   1.029   1.328  1.00  0.00     0.012 C 
HETATM   11  C13 UNL     1       4.641   0.176   0.859  1.00  0.00     0.079 C 
HETATM   12  C14 UNL     1       4.217  -1.114   0.292  1.00  0.00     0.131 C 
HETATM   13  O4  UNL     1       5.036  -1.877  -0.144  1.00  0.00    -0.298 OA
HETATM   14  C15 UNL     1       2.776  -1.435   0.277  1.00  0.00     0.064 C 
HETATM   15  C16 UNL     1       2.317  -1.797   1.641  1.00  0.00     0.019 C 
ENDBRANCH   3   6
BRANCH   1  16
HETATM   16  C4  UNL     1      -2.096  -1.913   0.291  1.00  0.00     0.140 C 
BRANCH  16  17
HETATM   17  C2  UNL     1      -3.556  -2.020   0.237  1.00  0.00    -0.077 C 
HETATM   18  C1  UNL     1      -4.403  -1.026   0.227  1.00  0.00     0.015 C 
HETATM   19  C3  UNL     1      -4.181  -3.404   0.187  1.00  0.00     0.043 C 
ENDBRANCH  16  17
BRANCH  16  20
HETATM   20  C5  UNL     1      -1.554  -2.842  -0.748  1.00  0.00     0.245 C 
HETATM   21  O1  UNL     1      -1.969  -2.846  -1.894  1.00  0.00    -0.306 OA
ENDBRANCH  16  20
ENDBRANCH   1  16
BRANCH   1  22
HETATM   22  O2  UNL     1      -1.949   0.081   1.490  1.00  0.00    -0.362 OA
ATOM     23  H2  UNL     1      -1.544   0.940   1.520  1.00  0.00     0.213 HD
ENDBRANCH   1  22
BRANCH   5  24
HETATM   24  C18 UNL     1      -1.436   1.733  -0.625  1.00  0.00     0.163 C 
HETATM   25  C19 UNL     1      -1.203   2.480  -1.966  1.00  0.00     0.043 C 
BRANCH  24  26
HETATM   26  O6  UNL     1      -2.584   2.289  -0.102  1.00  0.00    -0.299 OA
BRANCH  26  27
HETATM   27  C20 UNL     1      -2.647   3.107   1.005  1.00  0.00     0.373 C 
HETATM   28  N1  UNL     1      -3.848   3.652   1.514  1.00  0.00    -0.032 NA
HETATM   29  O7  UNL     1      -1.590   3.405   1.622  1.00  0.00    -0.242 OA
ENDBRANCH  26  27
ENDBRANCH  24  26
ENDBRANCH   5  24
TORSDOF 8
