REMARK  6 active torsions:
REMARK  status: ('A' for Active; 'I' for Inactive)
REMARK    1  A    between atoms: N2_6  and  C3_8 
REMARK    2  A    between atoms: C3_8  and  C4_9 
REMARK    3  A    between atoms: C4_9  and  C5_10 
REMARK    4  A    between atoms: C5_10  and  C6_11 
REMARK    5  A    between atoms: C6_11  and  C7_12 
REMARK    6  A    between atoms: C7_12  and  N3_13 
ROOT
HETATM    1  C4  UNL     1       2.415  -0.828   0.727  1.00  0.00     0.044 C 
ENDROOT
BRANCH   1   2
HETATM    2  C3  UNL     1       2.671   0.052  -0.486  1.00  0.00     0.062 C 
BRANCH   2   3
HETATM    3  N2  UNL     1       3.516   1.131  -0.195  1.00  0.00    -0.355 N 
HETATM    4  C2  UNL     1       4.746   1.354  -0.225  1.00  0.00     0.128 A 
HETATM    5  N1  UNL     1       5.161   2.604   0.161  1.00  0.00    -0.293 N 
HETATM    6  C16 UNL     1       5.676   0.396  -0.630  1.00  0.00     0.075 A 
HETATM    7  C1  UNL     1       6.486   2.801   0.113  1.00  0.00     0.326 A 
ATOM      8  H1  UNL     1       4.510   3.329   0.462  1.00  0.00     0.172 HD
HETATM    9  O1  UNL     1       6.864   3.970   0.476  1.00  0.00    -0.247 OA
HETATM   10  N4  UNL     1       7.386   1.917  -0.264  1.00  0.00    -0.307 N 
HETATM   11  C19 UNL     1       7.022   0.649  -0.662  1.00  0.00     0.057 A 
ATOM     12  H4  UNL     1       8.373   2.176  -0.261  1.00  0.00     0.170 HD
HETATM   13  C18 UNL     1       7.831  -0.346  -1.069  1.00  0.00     0.038 A 
HETATM   14  C17 UNL     1       7.243  -1.530  -1.418  1.00  0.00     0.053 A 
HETATM   15  S1  UNL     1       5.587  -1.219  -1.170  1.00  0.00    -0.096 SA
ATOM     16  H2  UNL     1       2.992   1.946   0.124  1.00  0.00     0.166 HD
ENDBRANCH   2   3
ENDBRANCH   1   2
BRANCH   1  17
HETATM   17  C5  UNL     1       1.524  -1.966   0.368  1.00  0.00     0.007 C 
BRANCH  17  18
HETATM   18  C6  UNL     1       0.170  -1.568  -0.158  1.00  0.00     0.030 C 
BRANCH  18  19
HETATM   19  C7  UNL     1      -0.544  -0.767   0.876  1.00  0.00     0.272 C 
BRANCH  19  20
HETATM   20  N3  UNL     1      -1.882  -0.354   0.418  1.00  0.00     0.092 N 
HETATM   21  C8  UNL     1      -2.462   0.429   1.522  1.00  0.00     0.298 C 
HETATM   22  C9  UNL     1      -3.074   1.711   1.014  1.00  0.00     0.198 C 
HETATM   23  O2  UNL     1      -4.239   2.064   1.609  1.00  0.00    -0.387 OA
HETATM   24  C10 UNL     1      -5.317   1.267   1.425  1.00  0.00     0.193 C 
HETATM   25  C11 UNL     1      -6.048   1.472   0.120  1.00  0.00     0.193 C 
HETATM   26  O3  UNL     1      -5.329   1.110  -0.986  1.00  0.00    -0.387 OA
HETATM   27  C12 UNL     1      -5.612  -0.140  -1.473  1.00  0.00     0.193 C 
HETATM   28  C13 UNL     1      -4.551  -0.531  -2.497  1.00  0.00     0.193 C 
HETATM   29  O4  UNL     1      -3.281  -0.549  -1.928  1.00  0.00    -0.387 OA
HETATM   30  C14 UNL     1      -3.054  -1.723  -1.264  1.00  0.00     0.198 C 
HETATM   31  C15 UNL     1      -2.625  -1.550   0.170  1.00  0.00     0.298 C 
ENDBRANCH  19  20
ENDBRANCH  18  19
ENDBRANCH  17  18
ENDBRANCH   1  17
TORSDOF 6
