REMARK  7 active torsions:
REMARK  status: ('A' for Active; 'I' for Inactive)
REMARK    1  A    between atoms: C3_6  and  C4_7 
REMARK    2  A    between atoms: C4_7  and  O2_8 
REMARK    3  A    between atoms: C4_7  and  C5_10 
REMARK    4  A    between atoms: C5_10  and  N2_11 
REMARK       I    between atoms: N2_11  and  C6_12 
REMARK    5  A    between atoms: N2_11  and  C15_23 
REMARK    6  A    between atoms: C6_12  and  C7_14 
REMARK    7  A    between atoms: C10_18  and  C11_19 
ROOT
HETATM    1  N2  UNL     1       0.443  -0.631   0.726  1.00  0.00    -0.340 N 
HETATM    2  C6  UNL     1      -0.769  -0.413   0.047  1.00  0.00     0.261 C 
HETATM    3  O3  UNL     1      -1.529  -1.411  -0.129  1.00  0.00    -0.267 OA
ENDROOT
BRANCH   1   4
HETATM    4  C5  UNL     1       1.431   0.394   1.004  1.00  0.00     0.166 C 
BRANCH   4   5
HETATM    5  C4  UNL     1       2.466   0.514  -0.061  1.00  0.00     0.213 C 
BRANCH   5   6
HETATM    6  C3  UNL     1       3.395   1.650   0.167  1.00  0.00     0.178 A 
HETATM    7  O1  UNL     1       3.196   2.623   1.037  1.00  0.00    -0.220 OA
HETATM    8  N1  UNL     1       4.206   3.471   0.993  1.00  0.00    -0.247 N 
HETATM    9  C2  UNL     1       5.093   3.054   0.076  1.00  0.00     0.100 A 
ATOM     10  H1  UNL     1       4.298   4.310   1.565  1.00  0.00     0.196 HD
HETATM   11  C1  UNL     1       6.374   3.700  -0.305  1.00  0.00     0.091 C 
HETATM   12  N3  UNL     1       4.568   1.916  -0.427  1.00  0.00    -0.325 N 
ATOM     13  H3  UNL     1       5.000   1.343  -1.152  1.00  0.00     0.169 HD
ENDBRANCH   5   6
BRANCH   5  14
HETATM   14  O2  UNL     1       3.160  -0.702  -0.137  1.00  0.00    -0.386 OA
ATOM     15  H2  UNL     1       2.566  -1.429  -0.283  1.00  0.00     0.210 HD
ENDBRANCH   5  14
ENDBRANCH   4   5
ENDBRANCH   1   4
BRANCH   1  16
HETATM   16  C15 UNL     1       0.706  -1.998   1.192  1.00  0.00     0.087 C 
HETATM   17  C16 UNL     1      -0.340  -2.491   2.142  1.00  0.00     0.025 C 
HETATM   18  C17 UNL     1      -0.709  -3.881   1.718  1.00  0.00     0.002 C 
HETATM   19  C18 UNL     1       0.414  -4.322   0.839  1.00  0.00     0.002 C 
HETATM   20  C19 UNL     1       0.820  -3.022   0.126  1.00  0.00     0.025 C 
ENDBRANCH   1  16
BRANCH   2  21
HETATM   21  C7  UNL     1      -1.236   0.862  -0.474  1.00  0.00     0.079 A 
HETATM   22  S1  UNL     1      -0.495   2.405  -0.394  1.00  0.00    -0.096 SA
HETATM   23  C8  UNL     1      -1.637   3.340  -1.211  1.00  0.00     0.051 A 
HETATM   24  C9  UNL     1      -2.592   2.414  -1.536  1.00  0.00     0.016 A 
HETATM   25  C10 UNL     1      -2.402   1.141  -1.167  1.00  0.00    -0.031 A 
BRANCH  25  26
HETATM   26  C11 UNL     1      -3.386   0.027  -1.472  1.00  0.00     0.020 C 
HETATM   27  C12 UNL     1      -4.623   0.476  -2.237  1.00  0.00     0.009 C 
HETATM   28  C13 UNL     1      -5.248   0.784  -0.894  1.00  0.00     0.001 C 
HETATM   29  C14 UNL     1      -4.324  -0.287  -0.326  1.00  0.00     0.009 C 
ENDBRANCH  25  26
ENDBRANCH   2  21
TORSDOF 7
