REMARK  6 active torsions:
REMARK  status: ('A' for Active; 'I' for Inactive)
REMARK    1  A    between atoms: S1_2  and  C2_3 
REMARK    2  A    between atoms: C2_3  and  C3_4 
REMARK    3  A    between atoms: C3_4  and  S2_5 
REMARK    4  A    between atoms: C3_4  and  C12_19 
REMARK    5  A    between atoms: S2_5  and  C4_6 
REMARK       I    between atoms: C12_19  and  N4_21 
REMARK    6  A    between atoms: N4_21  and  C13_23 
ROOT
HETATM    1  C3  UNL     1      -0.200  -0.601   0.633  1.00  0.00     0.156 C 
ENDROOT
BRANCH   1   2
HETATM    2  C2  UNL     1      -0.985  -1.863   0.859  1.00  0.00     0.098 C 
BRANCH   2   3
HETATM    3  S1  UNL     1      -0.355  -2.739   2.342  1.00  0.00    -0.172 SA
HETATM    4  C1  UNL     1      -0.660  -1.790   3.850  1.00  0.00     0.089 C 
ENDBRANCH   2   3
ENDBRANCH   1   2
BRANCH   1   5
HETATM    5  S2  UNL     1      -0.809   0.251  -0.819  1.00  0.00    -0.078 SA
BRANCH   5   6
HETATM    6  C4  UNL     1      -2.463   0.876  -0.662  1.00  0.00     0.153 A 
HETATM    7  N1  UNL     1      -2.728   2.109  -0.161  1.00  0.00    -0.340 N 
HETATM    8  C5  UNL     1      -3.970   2.608  -0.039  1.00  0.00     0.011 A 
ATOM      9  H1  UNL     1      -1.943   2.688   0.139  1.00  0.00     0.167 HD
HETATM   10  C6  UNL     1      -4.206   3.984   0.525  1.00  0.00     0.068 C 
HETATM   11  C7  UNL     1      -5.006   1.800  -0.454  1.00  0.00     0.073 A 
HETATM   12  C8  UNL     1      -4.776   0.529  -0.975  1.00  0.00     0.115 A 
HETATM   13  N2  UNL     1      -5.611  -0.423  -1.441  1.00  0.00    -0.344 N 
HETATM   14  N3  UNL     1      -3.486   0.107  -1.060  1.00  0.00    -0.286 N 
HETATM   15  C9  UNL     1      -4.880  -1.478  -1.838  1.00  0.00     0.023 A 
ATOM     16  H2  UNL     1      -6.628  -0.353  -1.485  1.00  0.00     0.167 HD
HETATM   17  C10 UNL     1      -5.336  -2.765  -2.419  1.00  0.00     0.069 C 
HETATM   18  C11 UNL     1      -3.568  -1.131  -1.594  1.00  0.00     0.125 A 
ENDBRANCH   5   6
ENDBRANCH   1   5
BRANCH   1  19
HETATM   19  C12 UNL     1       1.242  -0.855   0.451  1.00  0.00     0.233 C 
HETATM   20  O1  UNL     1       1.674  -2.017   0.520  1.00  0.00    -0.272 OA
HETATM   21  N4  UNL     1       2.116   0.218   0.202  1.00  0.00    -0.355 N 
ATOM     22  H4  UNL     1       1.737   1.163   0.149  1.00  0.00     0.162 HD
BRANCH  21  23
HETATM   23  C13 UNL     1       3.525   0.022   0.020  1.00  0.00     0.084 C 
HETATM   24  C14 UNL     1       3.933   0.447  -1.376  1.00  0.00     0.025 C 
HETATM   25  C15 UNL     1       5.391   0.171  -1.615  1.00  0.00     0.002 C 
HETATM   26  C16 UNL     1       6.281   0.651  -0.512  1.00  0.00     0.000 C 
HETATM   27  C17 UNL     1       5.788   0.306   0.866  1.00  0.00     0.002 C 
HETATM   28  C18 UNL     1       4.370   0.797   1.008  1.00  0.00     0.025 C 
ENDBRANCH  21  23
ENDBRANCH   1  19
TORSDOF 6
