REMARK  7 active torsions:
REMARK  status: ('A' for Active; 'I' for Inactive)
REMARK    1  A    between atoms: C7_8  and  C8_9 
REMARK    2  A    between atoms: C8_9  and  N1_10 
REMARK    3  A    between atoms: C12_14  and  O1_15 
REMARK    4  A    between atoms: O1_15  and  C13_16 
REMARK    5  A    between atoms: C13_16  and  C14_17 
REMARK    6  A    between atoms: C14_17  and  O2_18 
REMARK    7  A    between atoms: N3_23  and  C16_24 
ROOT
HETATM    1  C1  UNL     1       0.480   3.477   1.643  1.00  0.00     0.057 C 
HETATM    2  C2  UNL     1      -0.842   2.871   1.196  1.00  0.00    -0.006 A 
HETATM    3  S1  UNL     1      -2.371   3.598   1.166  1.00  0.00    -0.097 SA
HETATM    4  C3  UNL     1      -3.297   2.274   0.547  1.00  0.00     0.009 A 
HETATM    5  C4  UNL     1      -4.781   2.294   0.281  1.00  0.00     0.059 C 
HETATM    6  C5  UNL     1      -2.350   1.288   0.383  1.00  0.00     0.082 A 
HETATM    7  C6  UNL     1      -1.089   1.605   0.720  1.00  0.00     0.032 A 
HETATM    8  C7  UNL     1      -0.283   0.461   0.476  1.00  0.00     0.068 A 
HETATM    9  N2  UNL     1      -1.106  -0.452   0.015  1.00  0.00    -0.295 N 
ATOM     10  H2  UNL     1      -0.815  -1.392  -0.253  1.00  0.00     0.187 HD
HETATM   11  N3  UNL     1      -2.383  -0.010  -0.066  1.00  0.00    -0.263 N 
ENDROOT
BRANCH   8  12
HETATM   12  C8  UNL     1       1.164   0.340   0.727  1.00  0.00     0.331 C 
BRANCH  12  13
HETATM   13  N1  UNL     1       1.648  -0.944   0.335  1.00  0.00     0.096 N 
HETATM   14  C9  UNL     1       1.638  -1.160  -1.056  1.00  0.00     0.273 C 
HETATM   15  C10 UNL     1       2.444  -2.374  -1.491  1.00  0.00     0.033 C 
HETATM   16  C11 UNL     1       3.751  -2.514  -0.793  1.00  0.00     0.035 C 
HETATM   17  C12 UNL     1       4.015  -1.248   0.057  1.00  0.00     0.149 C 
HETATM   18  C15 UNL     1       2.856  -1.218   1.042  1.00  0.00     0.304 C 
BRANCH  17  19
HETATM   19  O1  UNL     1       5.217  -1.318   0.670  1.00  0.00    -0.382 OA
BRANCH  19  20
HETATM   20  C13 UNL     1       6.092  -0.322   0.411  1.00  0.00     0.194 C 
BRANCH  20  21
HETATM   21  C14 UNL     1       5.724   1.043   0.899  1.00  0.00     0.190 C 
BRANCH  21  22
HETATM   22  O2  UNL     1       4.564   1.537   0.385  1.00  0.00    -0.399 OA
ATOM     23  H2  UNL     1       4.330   2.404   0.695  1.00  0.00     0.209 HD
ENDBRANCH  21  22
ENDBRANCH  20  21
ENDBRANCH  19  20
ENDBRANCH  17  19
ENDBRANCH  12  13
ENDBRANCH   8  12
BRANCH  11  24
HETATM   24  C16 UNL     1      -3.453  -0.808  -0.528  1.00  0.00     0.012 C 
HETATM   25  C17 UNL     1      -4.435  -1.326   0.471  1.00  0.00     0.054 C 
HETATM   26  C18 UNL     1      -5.497  -1.942  -0.424  1.00  0.00     0.006 C 
HETATM   27  C19 UNL     1      -5.542  -0.980  -1.586  1.00  0.00     0.006 C 
HETATM   28  C20 UNL     1      -4.129  -0.462  -1.799  1.00  0.00     0.054 C 
ENDBRANCH  11  24
TORSDOF 7
