REMARK  6 active torsions:
REMARK  status: ('A' for Active; 'I' for Inactive)
REMARK    1  A    between atoms: C1_2  and  C2_3 
REMARK       I    between atoms: C1_2  and  N2_12 
REMARK    2  A    between atoms: C2_3  and  C3_4 
REMARK    3  A    between atoms: C3_4  and  C4_5 
REMARK    4  A    between atoms: C4_5  and  N1_6 
REMARK    5  A    between atoms: N2_12  and  C10_14 
REMARK    6  A    between atoms: C10_14  and  C11_15 
ROOT
HETATM    1  C11 UNL     1       1.938   0.682   1.179  1.00  0.00     0.064 A 
HETATM    2  N3  UNL     1       1.039   1.601   0.732  1.00  0.00    -0.262 N 
ATOM      3  H3  UNL     1       0.079   1.672   1.068  1.00  0.00     0.194 HD
HETATM    4  O2  UNL     1       1.547   2.370  -0.166  1.00  0.00    -0.229 OA
HETATM    5  C12 UNL     1       2.814   1.975  -0.341  1.00  0.00     0.153 A 
HETATM    6  S1  UNL     1       4.268   2.254  -1.199  1.00  0.00    -0.066 SA
HETATM    7  C13 UNL     1       5.226   1.037  -0.512  1.00  0.00    -0.007 A 
HETATM    8  C14 UNL     1       4.383   0.427   0.386  1.00  0.00    -0.029 A 
HETATM    9  C15 UNL     1       3.122   0.923   0.471  1.00  0.00     0.040 A 
HETATM   10  C16 UNL     1       4.899  -0.740   1.220  1.00  0.00     0.040 C 
HETATM   11  C17 UNL     1       5.371  -1.847   0.313  1.00  0.00     0.005 C 
HETATM   12  C18 UNL     1       5.409  -1.438  -1.136  1.00  0.00     0.001 C 
HETATM   13  C19 UNL     1       6.735  -0.705  -1.375  1.00  0.00     0.005 C 
HETATM   14  C20 UNL     1       6.668   0.713  -0.838  1.00  0.00     0.047 C 
ENDROOT
BRANCH   1  15
HETATM   15  C10 UNL     1       1.642  -0.319   2.227  1.00  0.00     0.182 C 
BRANCH  15  16
HETATM   16  N2  UNL     1       0.252  -0.218   2.659  1.00  0.00    -0.355 N 
HETATM   17  C1  UNL     1      -0.840  -0.486   1.813  1.00  0.00     0.217 C 
HETATM   18  O1  UNL     1      -0.600  -0.846   0.630  1.00  0.00    -0.274 OA
ATOM     19  H2  UNL     1       0.063   0.061   3.622  1.00  0.00     0.162 HD
BRANCH  17  20
HETATM   20  C2  UNL     1      -2.245  -0.372   2.220  1.00  0.00     0.104 C 
BRANCH  20  21
HETATM   21  C3  UNL     1      -3.253  -0.613   1.151  1.00  0.00     0.029 C 
BRANCH  21  22
HETATM   22  C4  UNL     1      -3.206   0.301  -0.019  1.00  0.00     0.127 C 
BRANCH  22  23
HETATM   23  N1  UNL     1      -4.251  -0.075  -0.958  1.00  0.00    -0.374 N 
HETATM   24  C5  UNL     1      -4.206   0.645  -2.165  1.00  0.00     0.063 C 
HETATM   25  C6  UNL     1      -5.440   1.141  -2.796  1.00  0.00     0.045 C 
HETATM   26  C7  UNL     1      -6.703   1.024  -2.018  1.00  0.00     0.010 C 
HETATM   27  C8  UNL     1      -6.711  -0.254  -1.203  1.00  0.00     0.045 C 
HETATM   28  C9  UNL     1      -5.485  -0.366  -0.349  1.00  0.00     0.063 C 
ENDBRANCH  22  23
ENDBRANCH  21  22
ENDBRANCH  20  21
ENDBRANCH  17  20
ENDBRANCH  15  16
ENDBRANCH   1  15
TORSDOF 6
