REMARK  8 active torsions:
REMARK  status: ('A' for Active; 'I' for Inactive)
REMARK    1  A    between atoms: C2_2  and  C3_3 
REMARK    2  A    between atoms: C3_3  and  C10_15 
REMARK    3  A    between atoms: C4_4  and  C5_5 
REMARK    4  A    between atoms: C5_5  and  C6_6 
REMARK    5  A    between atoms: C6_6  and  C7_7 
REMARK    6  A    between atoms: C10_15  and  O1_16 
REMARK    7  A    between atoms: C13_22  and  C14_23 
REMARK    8  A    between atoms: C13_22  and  C16_25 
ROOT
HETATM    1  C10 UNL     1      -0.177  -0.049   0.301  1.00  0.00     0.152 C 
HETATM    2  C11 UNL     1      -0.907   0.657   1.412  1.00  0.00     0.234 C 
HETATM    3  O2  UNL     1      -0.508   0.782   2.578  1.00  0.00    -0.285 OA
HETATM    4  C12 UNL     1      -2.208   1.231   1.010  1.00  0.00     0.207 C 
HETATM    5  O3  UNL     1      -2.727   2.006   1.848  1.00  0.00    -0.288 OA
HETATM    6  C13 UNL     1      -2.879   0.950  -0.254  1.00  0.00     0.031 C 
HETATM    7  C19 UNL     1      -2.284  -0.164  -1.044  1.00  0.00     0.026 C 
HETATM    8  C20 UNL     1      -1.134  -0.921  -0.380  1.00  0.00     0.030 C 
HETATM    9  C21 UNL     1      -1.664  -2.066   0.416  1.00  0.00     0.014 C 
ENDROOT
BRANCH   1  10
HETATM   10  C3  UNL     1       1.058  -0.676   0.794  1.00  0.00    -0.042 C 
HETATM   11  C4  UNL     1       2.280  -0.394   0.356  1.00  0.00    -0.020 C 
BRANCH  10  12
HETATM   12  C2  UNL     1       1.003  -1.688   1.923  1.00  0.00     0.033 C 
HETATM   13  C1  UNL     1       2.371  -2.105   2.416  1.00  0.00     0.010 C 
ENDBRANCH  10  12
BRANCH  11  14
HETATM   14  C5  UNL     1       2.772   0.501  -0.685  1.00  0.00     0.035 C 
BRANCH  14  15
HETATM   15  C6  UNL     1       3.481  -0.264  -1.808  1.00  0.00     0.082 C 
BRANCH  15  16
HETATM   16  C7  UNL     1       4.632  -0.979  -1.221  1.00  0.00     0.098 A 
HETATM   17  N1  UNL     1       4.629  -2.222  -0.742  1.00  0.00    -0.288 N 
HETATM   18  N2  UNL     1       5.840  -2.498  -0.307  1.00  0.00    -0.295 N 
ATOM     19  H1  UNL     1       3.827  -2.851  -0.717  1.00  0.00     0.188 HD
HETATM   20  C8  UNL     1       6.632  -1.433  -0.503  1.00  0.00     0.200 A 
ATOM     21  H2  UNL     1       6.130  -3.381   0.113  1.00  0.00     0.187 HD
HETATM   22  N3  UNL     1       5.883  -0.475  -1.075  1.00  0.00    -0.335 N 
HETATM   23  C9  UNL     1       6.265   0.861  -1.487  1.00  0.00     0.158 C 
ENDBRANCH  15  16
ENDBRANCH  14  15
ENDBRANCH  11  14
ENDBRANCH   1  10
BRANCH   1  24
HETATM   24  O1  UNL     1       0.228   0.994  -0.574  1.00  0.00    -0.377 OA
ATOM     25  H1  UNL     1      -0.570   1.399  -0.893  1.00  0.00     0.211 HD
ENDBRANCH   1  24
BRANCH   6  26
HETATM   26  C14 UNL     1      -2.924   2.163  -1.176  1.00  0.00     0.013 C 
HETATM   27  C15 UNL     1      -3.620   3.361  -0.685  1.00  0.00     0.006 C 
ENDBRANCH   6  26
BRANCH   6  28
HETATM   28  C16 UNL     1      -4.358   0.738   0.106  1.00  0.00    -0.006 C 
HETATM   29  C17 UNL     1      -5.224   0.406  -1.057  1.00  0.00     0.011 C 
HETATM   30  C18 UNL     1      -4.582  -0.178   1.257  1.00  0.00     0.011 C 
ENDBRANCH   6  28
TORSDOF 8
