REMARK  10 active torsions:
REMARK  status: ('A' for Active; 'I' for Inactive)
REMARK    1  A    between atoms: C2_2  and  C3_4 
REMARK    2  A    between atoms: C3_4  and  C19_24 
REMARK    3  A    between atoms: C4_5  and  C5_6 
REMARK    4  A    between atoms: C6_7  and  C7_8 
REMARK    5  A    between atoms: C8_9  and  C9_10 
REMARK    6  A    between atoms: C9_10  and  C11_12 
REMARK    7  A    between atoms: C12_13  and  C13_14 
REMARK    8  A    between atoms: C16_18  and  O3_19 
REMARK    9  A    between atoms: C19_24  and  O6_26 
REMARK   10  A    between atoms: O6_26  and  C20_27 
ROOT
HETATM    1  C5  UNL     1       2.359   3.559   0.520  1.00  0.00     0.001 C 
HETATM    2  C6  UNL     1       1.129   4.047   0.757  1.00  0.00    -0.000 C 
ENDROOT
BRANCH   2   3
HETATM    3  C7  UNL     1      -0.094   3.273   0.692  1.00  0.00    -0.003 C 
HETATM    4  C8  UNL     1      -1.253   3.852   0.943  1.00  0.00    -0.019 C 
BRANCH   4   5
HETATM    5  C9  UNL     1      -2.519   3.100   0.887  1.00  0.00     0.026 C 
HETATM    6  C10 UNL     1      -3.199   3.188   2.227  1.00  0.00     0.018 C 
BRANCH   5   7
HETATM    7  C11 UNL     1      -2.213   1.684   0.530  1.00  0.00    -0.020 C 
HETATM    8  C12 UNL     1      -2.697   1.106  -0.557  1.00  0.00     0.004 C 
BRANCH   8   9
HETATM    9  C13 UNL     1      -2.352  -0.303  -0.849  1.00  0.00     0.176 C 
HETATM   10  O2  UNL     1      -1.638  -0.824   0.208  1.00  0.00    -0.350 OA
HETATM   11  C14 UNL     1      -2.531  -1.561   0.982  1.00  0.00     0.263 C 
HETATM   12  C15 UNL     1      -2.244  -3.029   0.832  1.00  0.00     0.092 C 
HETATM   13  O4  UNL     1      -3.805  -1.301   0.535  1.00  0.00    -0.353 OA
HETATM   14  C16 UNL     1      -2.998  -3.559  -0.349  1.00  0.00     0.125 C 
HETATM   15  C17 UNL     1      -3.191  -2.527  -1.435  1.00  0.00     0.067 C 
HETATM   16  C18 UNL     1      -3.578  -1.191  -0.856  1.00  0.00     0.160 C 
BRANCH  14  17
HETATM   17  O3  UNL     1      -4.273  -4.004   0.053  1.00  0.00    -0.395 OA
ATOM     18  H3  UNL     1      -4.751  -4.340  -0.696  1.00  0.00     0.210 HD
ENDBRANCH  14  17
ENDBRANCH   8   9
ENDBRANCH   5   7
ENDBRANCH   4   5
ENDBRANCH   2   3
BRANCH   1  19
HETATM   19  C4  UNL     1       2.610   2.193   0.170  1.00  0.00     0.021 C 
HETATM   20  C3  UNL     1       3.774   1.636  -0.076  1.00  0.00     0.085 C 
BRANCH  20  21
HETATM   21  C2  UNL     1       5.060   2.269  -0.051  1.00  0.00     0.161 C 
HETATM   22  C1  UNL     1       6.307   1.534  -0.347  1.00  0.00     0.097 C 
HETATM   23  O1  UNL     1       5.184   3.475   0.225  1.00  0.00    -0.293 OA
ENDBRANCH  20  21
BRANCH  20  24
HETATM   24  C19 UNL     1       3.679   0.188  -0.411  1.00  0.00     0.303 C 
HETATM   25  O5  UNL     1       4.711  -0.438  -0.661  1.00  0.00    -0.259 OA
BRANCH  24  26
HETATM   26  O6  UNL     1       2.483  -0.496  -0.457  1.00  0.00    -0.257 OA
BRANCH  26  27
HETATM   27  C20 UNL     1       2.382  -1.843  -0.767  1.00  0.00     0.151 A 
HETATM   28  C21 UNL     1       2.219  -2.461  -1.977  1.00  0.00     0.058 A 
HETATM   29  C22 UNL     1       2.171  -3.847  -1.795  1.00  0.00     0.021 A 
HETATM   30  C23 UNL     1       2.311  -4.024  -0.441  1.00  0.00     0.090 A 
HETATM   31  N1  UNL     1       2.435  -2.821   0.152  1.00  0.00    -0.347 N 
ATOM     32  H1  UNL     1       2.552  -2.674   1.155  1.00  0.00     0.167 HD
ENDBRANCH  26  27
ENDBRANCH  24  26
ENDBRANCH  20  24
ENDBRANCH   1  19
TORSDOF 10
