REMARK  9 active torsions:
REMARK  status: ('A' for Active; 'I' for Inactive)
REMARK    1  A    between atoms: C2_2  and  C3_3 
REMARK       I    between atoms: N1_5  and  C5_6 
REMARK    2  A    between atoms: C5_6  and  C6_8 
REMARK    3  A    between atoms: C7_9  and  O2_10 
REMARK    4  A    between atoms: O2_10  and  C8_11 
REMARK    5  A    between atoms: N3_16  and  C11_17 
REMARK    6  A    between atoms: C11_17  and  C12_18 
REMARK    7  A    between atoms: C12_18  and  O3_19 
REMARK    8  A    between atoms: C13_21  and  C14_22 
REMARK    9  A    between atoms: C22_30  and  O4_31 
ROOT
HETATM    1  C6  UNL     1      -0.250  -0.613   0.587  1.00  0.00     0.112 A 
HETATM    2  C7  UNL     1      -0.370  -2.017   0.572  1.00  0.00     0.176 A 
HETATM    3  N2  UNL     1      -1.481  -2.242  -0.079  1.00  0.00    -0.276 N 
ATOM      4  H2  UNL     1      -1.854  -3.174  -0.261  1.00  0.00     0.189 HD
HETATM    5  N3  UNL     1      -2.084  -1.092  -0.487  1.00  0.00    -0.287 N 
HETATM    6  C13 UNL     1      -1.357  -0.074  -0.096  1.00  0.00     0.073 A 
ENDROOT
BRANCH   1   7
HETATM    7  C5  UNL     1       0.911   0.025   1.190  1.00  0.00     0.260 C 
HETATM    8  N1  UNL     1       2.056   0.405   0.459  1.00  0.00    -0.345 N 
HETATM    9  C4  UNL     1       3.229   1.042   1.022  1.00  0.00     0.133 C 
HETATM   10  C21 UNL     1       2.233   0.215  -0.965  1.00  0.00     0.158 C 
HETATM   11  C3  UNL     1       4.292   0.580   0.069  1.00  0.00     0.034 C 
HETATM   12  C22 UNL     1       3.609   0.783  -1.278  1.00  0.00     0.142 C 
HETATM   13  O1  UNL     1       0.845   0.236   2.449  1.00  0.00    -0.267 OA
BRANCH  11  14
HETATM   14  C2  UNL     1       5.586   1.292   0.192  1.00  0.00     0.004 C 
HETATM   15  C1  UNL     1       5.502   2.774  -0.049  1.00  0.00     0.005 C 
ENDBRANCH  11  14
BRANCH  12  16
HETATM   16  O4  UNL     1       4.247   0.030  -2.256  1.00  0.00    -0.393 OA
ATOM     17  H4  UNL     1       3.821   0.157  -3.096  1.00  0.00     0.210 HD
ENDBRANCH  12  16
ENDBRANCH   1   7
BRANCH   2  18
HETATM   18  O2  UNL     1       0.549  -2.898   1.153  1.00  0.00    -0.329 OA
BRANCH  18  19
HETATM   19  C8  UNL     1       0.293  -4.280   1.075  1.00  0.00     0.122 C 
HETATM   20  C9  UNL     1       1.293  -4.909   0.110  1.00  0.00     0.040 C 
HETATM   21  C10 UNL     1       0.417  -4.924   2.440  1.00  0.00     0.040 C 
ENDBRANCH  18  19
ENDBRANCH   2  18
BRANCH   6  22
HETATM   22  C14 UNL     1      -1.559   1.371  -0.253  1.00  0.00    -0.050 C 
HETATM   23  C15 UNL     1      -2.438   1.912  -1.302  1.00  0.00     0.036 C 
HETATM   24  C16 UNL     1      -3.511   2.899  -0.801  1.00  0.00     0.004 C 
HETATM   25  C17 UNL     1      -4.445   2.364   0.203  1.00  0.00     0.000 C 
HETATM   26  C18 UNL     1      -4.002   2.708   1.591  1.00  0.00     0.000 C 
HETATM   27  C19 UNL     1      -2.815   1.782   1.922  1.00  0.00     0.004 C 
HETATM   28  C20 UNL     1      -1.698   2.131   1.060  1.00  0.00     0.036 C 
ENDBRANCH   6  22
BRANCH   5  29
HETATM   29  C11 UNL     1      -3.277  -1.221  -1.254  1.00  0.00     0.175 C 
BRANCH  29  30
HETATM   30  C12 UNL     1      -2.881  -1.544  -2.696  1.00  0.00     0.185 C 
BRANCH  30  31
HETATM   31  O3  UNL     1      -3.993  -1.681  -3.516  1.00  0.00    -0.399 OA
ATOM     32  H3  UNL     1      -3.747  -1.882  -4.411  1.00  0.00     0.209 HD
ENDBRANCH  30  31
ENDBRANCH  29  30
ENDBRANCH   5  29
TORSDOF 9
