REMARK  10 active torsions:
REMARK  status: ('A' for Active; 'I' for Inactive)
REMARK    1  A    between atoms: C2_2  and  C3_3 
REMARK    2  A    between atoms: C3_3  and  C5_5 
REMARK    3  A    between atoms: C5_5  and  C6_6 
REMARK    4  A    between atoms: C5_5  and  O4_29 
REMARK    5  A    between atoms: C6_6  and  C7_7 
REMARK    6  A    between atoms: C7_7  and  C8_8 
REMARK    7  A    between atoms: C8_8  and  C9_9 
REMARK    8  A    between atoms: C9_9  and  O1_10 
REMARK    9  A    between atoms: C12_14  and  O2_15 
REMARK   10  A    between atoms: O4_29  and  C23_30 
ROOT
HETATM    1  C9  UNL     1       1.215   1.863  -0.927  1.00  0.00     0.091 C 
HETATM    2  C10 UNL     1       1.700   0.737  -1.735  1.00  0.00     0.048 C 
HETATM    3  C11 UNL     1       0.777   0.438  -2.891  1.00  0.00     0.016 C 
HETATM    4  C12 UNL     1       1.969  -0.558  -1.046  1.00  0.00     0.134 C 
HETATM    5  C13 UNL     1       3.478  -0.754  -0.998  1.00  0.00     0.057 A 
HETATM    6  C14 UNL     1       3.943  -0.139   0.318  1.00  0.00    -0.060 A 
HETATM    7  C15 UNL     1       3.865   1.096   0.768  1.00  0.00     0.056 C 
HETATM    8  C16 UNL     1       3.360   2.372   0.315  1.00  0.00     0.174 C 
HETATM    9  O3  UNL     1       4.121   3.303   0.776  1.00  0.00    -0.291 OA
HETATM   10  C17 UNL     1       2.251   2.859  -0.498  1.00  0.00     0.141 C 
HETATM   11  C18 UNL     1       1.609   4.108   0.106  1.00  0.00     0.043 C 
HETATM   12  C19 UNL     1       2.857   3.353  -1.768  1.00  0.00     0.080 C 
HETATM   13  N1  UNL     1       3.341   3.722  -2.762  1.00  0.00    -0.196 NA
HETATM   14  C20 UNL     1       4.129  -1.586  -0.004  1.00  0.00    -0.014 A 
HETATM   15  C21 UNL     1       5.560  -1.977  -0.243  1.00  0.00     0.020 C 
HETATM   16  C22 UNL     1       3.345  -2.577   0.842  1.00  0.00     0.020 C 
ENDROOT
BRANCH   1  17
HETATM   17  C8  UNL     1       0.328   1.568   0.235  1.00  0.00     0.041 C 
BRANCH  17  18
HETATM   18  C7  UNL     1      -0.921   0.791  -0.127  1.00  0.00     0.006 C 
BRANCH  18  19
HETATM   19  C6  UNL     1      -1.794   0.548   1.082  1.00  0.00     0.033 C 
BRANCH  19  20
HETATM   20  C5  UNL     1      -3.037  -0.220   0.673  1.00  0.00     0.135 C 
BRANCH  20  21
HETATM   21  C3  UNL     1      -2.751  -1.557   0.070  1.00  0.00     0.011 C 
HETATM   22  C4  UNL     1      -2.039  -2.467   1.086  1.00  0.00     0.012 C 
BRANCH  21  23
HETATM   23  C2  UNL     1      -4.006  -2.300  -0.327  1.00  0.00     0.002 C 
HETATM   24  C1  UNL     1      -4.852  -1.593  -1.332  1.00  0.00     0.005 C 
ENDBRANCH  21  23
ENDBRANCH  20  21
BRANCH  20  25
HETATM   25  O4  UNL     1      -3.831  -0.405   1.839  1.00  0.00    -0.316 OA
BRANCH  25  26
HETATM   26  C23 UNL     1      -5.059   0.169   2.034  1.00  0.00     0.255 C 
HETATM   27  C24 UNL     1      -5.815  -0.093   3.288  1.00  0.00     0.126 C 
HETATM   28  O5  UNL     1      -5.564   0.918   1.168  1.00  0.00    -0.266 OA
ENDBRANCH  25  26
ENDBRANCH  20  25
ENDBRANCH  19  20
ENDBRANCH  18  19
ENDBRANCH  17  18
ENDBRANCH   1  17
BRANCH   1  29
HETATM   29  O1  UNL     1       0.367   2.623  -1.807  1.00  0.00    -0.387 OA
ATOM     30  H1  UNL     1       0.932   2.811  -2.547  1.00  0.00     0.210 HD
ENDBRANCH   1  29
BRANCH   4  31
HETATM   31  O2  UNL     1       1.498  -1.679  -1.759  1.00  0.00    -0.394 OA
ATOM     32  H2  UNL     1       1.669  -2.504  -1.320  1.00  0.00     0.210 HD
ENDBRANCH   4  31
TORSDOF 10
