REMARK  12 active torsions:
REMARK  status: ('A' for Active; 'I' for Inactive)
REMARK    1  A    between atoms: C3_3  and  C4_4 
REMARK    2  A    between atoms: C4_4  and  O2_6 
REMARK    3  A    between atoms: O2_6  and  C5_7 
REMARK    4  A    between atoms: C7_9  and  O3_10 
REMARK    5  A    between atoms: C10_14  and  C11_15 
REMARK    6  A    between atoms: C11_15  and  C12_16 
REMARK    7  A    between atoms: C12_16  and  O4_17 
REMARK    8  A    between atoms: C14_22  and  C23_31 
REMARK    9  A    between atoms: C15_23  and  C17_25 
REMARK   10  A    between atoms: C18_26  and  C19_27 
REMARK   11  A    between atoms: C19_27  and  C20_28 
REMARK   12  A    between atoms: C20_28  and  C21_29 
ROOT
HETATM    1  C11 UNL     1      -0.145   0.647  -0.796  1.00  0.00     0.109 C 
HETATM    2  O5  UNL     1       0.256   2.040  -0.720  1.00  0.00    -0.306 OA
HETATM    3  C13 UNL     1       0.981   2.234   0.477  1.00  0.00     0.266 C 
HETATM    4  O6  UNL     1       1.522   3.323   0.745  1.00  0.00    -0.265 OA
HETATM    5  C14 UNL     1       0.912   0.937   1.207  1.00  0.00     0.113 C 
HETATM    6  C15 UNL     1       0.944   0.055  -0.020  1.00  0.00     0.021 C 
HETATM    7  C16 UNL     1       1.104  -1.370   0.154  1.00  0.00     0.024 C 
ENDROOT
BRANCH   6   8
HETATM    8  C17 UNL     1       2.241   0.540  -0.671  1.00  0.00    -0.018 C 
HETATM    9  C18 UNL     1       3.406   0.042  -0.230  1.00  0.00    -0.030 C 
BRANCH   9  10
HETATM   10  C19 UNL     1       4.698   0.475  -0.825  1.00  0.00     0.027 C 
BRANCH  10  11
HETATM   11  C20 UNL     1       5.472  -0.671  -1.436  1.00  0.00     0.003 C 
BRANCH  11  12
HETATM   12  C21 UNL     1       5.779  -1.697  -0.386  1.00  0.00    -0.004 C 
HETATM   13  C22 UNL     1       6.601  -1.090   0.719  1.00  0.00     0.005 C 
ENDBRANCH  11  12
ENDBRANCH  10  11
ENDBRANCH   9  10
ENDBRANCH   6   8
BRANCH   1  14
HETATM   14  C10 UNL     1      -1.537   0.655  -0.327  1.00  0.00     0.054 C 
HETATM   15  C5  UNL     1      -2.198  -0.604   0.102  1.00  0.00     0.142 C 
HETATM   16  C6  UNL     1      -2.022  -0.950   1.548  1.00  0.00     0.072 C 
HETATM   17  C7  UNL     1      -1.214  -0.077   2.371  1.00  0.00     0.078 A 
HETATM   18  C8  UNL     1      -1.434   1.412   2.065  1.00  0.00     0.004 A 
HETATM   19  C23 UNL     1      -0.143   0.859   2.131  1.00  0.00     0.017 A 
HETATM   20  C9  UNL     1      -1.910   1.705   0.703  1.00  0.00     0.024 C 
HETATM   21  C24 UNL     1      -0.484   2.191   2.861  1.00  0.00     0.028 A 
BRANCH  15  22
HETATM   22  O2  UNL     1      -3.599  -0.407  -0.082  1.00  0.00    -0.312 OA
BRANCH  22  23
HETATM   23  C4  UNL     1      -4.383  -1.172  -0.925  1.00  0.00     0.282 C 
HETATM   24  O1  UNL     1      -3.783  -2.081  -1.544  1.00  0.00    -0.260 OA
BRANCH  23  25
HETATM   25  C3  UNL     1      -5.807  -0.914  -1.063  1.00  0.00     0.077 C 
HETATM   26  C2  UNL     1      -6.380   0.059  -0.382  1.00  0.00    -0.025 C 
HETATM   27  C1  UNL     1      -7.842   0.324  -0.523  1.00  0.00     0.036 C 
ENDBRANCH  23  25
ENDBRANCH  22  23
ENDBRANCH  15  22
BRANCH  17  28
HETATM   28  O3  UNL     1      -1.379  -0.315   3.769  1.00  0.00    -0.388 OA
ATOM     29  H3  UNL     1      -0.848   0.258   4.310  1.00  0.00     0.210 HD
ENDBRANCH  17  28
ENDBRANCH   1  14
BRANCH   1  30
HETATM   30  C12 UNL     1      -0.023   0.279  -2.259  1.00  0.00     0.204 C 
BRANCH  30  31
HETATM   31  O4  UNL     1      -0.379  -1.045  -2.493  1.00  0.00    -0.398 OA
ATOM     32  H4  UNL     1      -0.302  -1.276  -3.411  1.00  0.00     0.209 HD
ENDBRANCH  30  31
ENDBRANCH   1  30
TORSDOF 12
