REMARK  10 active torsions:
REMARK  status: ('A' for Active; 'I' for Inactive)
REMARK    1  A    between atoms: C2_2  and  C3_3 
REMARK    2  A    between atoms: C3_3  and  O1_4 
REMARK    3  A    between atoms: O1_4  and  C4_5 
REMARK    4  A    between atoms: C4_5  and  C5_7 
REMARK    5  A    between atoms: C5_7  and  C6_8 
REMARK    6  A    between atoms: C6_8  and  C7_9 
REMARK    7  A    between atoms: C7_9  and  O4_11 
REMARK    8  A    between atoms: O4_11  and  C8_12 
REMARK    9  A    between atoms: C20_25  and  O6_26 
REMARK   10  A    between atoms: C23_30  and  O7_32 
ROOT
HETATM    1  C8  UNL     1      -0.373  -0.211  -0.645  1.00  0.00     0.146 C 
HETATM    2  C9  UNL     1      -0.101  -1.640  -0.727  1.00  0.00     0.038 C 
HETATM    3  C10 UNL     1      -0.549  -2.627   0.260  1.00  0.00     0.036 C 
HETATM    4  C11 UNL     1      -1.582  -3.515  -0.331  1.00  0.00    -0.085 C 
HETATM    5  C12 UNL     1      -1.126  -4.835  -0.940  1.00  0.00     0.043 C 
HETATM    6  C13 UNL     1      -2.846  -3.228  -0.359  1.00  0.00     0.010 C 
HETATM    7  C14 UNL     1      -3.460  -2.035   0.162  1.00  0.00     0.182 A 
HETATM    8  O5  UNL     1      -2.794  -1.271   1.069  1.00  0.00    -0.363 OA
HETATM    9  C15 UNL     1      -2.789  -0.105   0.259  1.00  0.00     0.110 A 
HETATM   10  C16 UNL     1      -3.554   0.932   1.106  1.00  0.00     0.020 C 
HETATM   11  C17 UNL     1      -4.639   0.393   1.948  1.00  0.00     0.013 C 
HETATM   12  C18 UNL     1      -3.931   2.101   0.226  1.00  0.00     0.010 C 
HETATM   13  C19 UNL     1      -2.614   2.712  -0.133  1.00  0.00     0.033 C 
HETATM   14  C20 UNL     1      -1.454   1.872  -0.315  1.00  0.00     0.132 C 
HETATM   15  C21 UNL     1      -1.436   0.424   0.117  1.00  0.00     0.043 C 
HETATM   16  C22 UNL     1      -0.888   0.475   1.573  1.00  0.00     0.024 C 
HETATM   17  C23 UNL     1      -3.571  -0.821  -0.698  1.00  0.00     0.116 A 
HETATM   18  C24 UNL     1      -3.400  -0.889  -2.146  1.00  0.00     0.052 C 
ENDROOT
BRANCH   1  19
HETATM   19  O4  UNL     1       0.881   0.357  -0.176  1.00  0.00    -0.315 OA
BRANCH  19  20
HETATM   20  C7  UNL     1       1.773   1.013  -0.967  1.00  0.00     0.259 C 
HETATM   21  O3  UNL     1       1.526   1.151  -2.191  1.00  0.00    -0.265 OA
BRANCH  20  22
HETATM   22  C6  UNL     1       3.063   1.592  -0.443  1.00  0.00     0.121 C 
BRANCH  22  23
HETATM   23  C5  UNL     1       4.164   0.694  -0.925  1.00  0.00     0.121 C 
BRANCH  23  24
HETATM   24  C4  UNL     1       5.500   1.136  -0.481  1.00  0.00     0.259 C 
HETATM   25  O2  UNL     1       5.580   2.172   0.226  1.00  0.00    -0.265 OA
BRANCH  24  26
HETATM   26  O1  UNL     1       6.672   0.480  -0.795  1.00  0.00    -0.318 OA
BRANCH  26  27
HETATM   27  C3  UNL     1       7.952   0.946  -0.338  1.00  0.00     0.205 C 
BRANCH  27  28
HETATM   28  C2  UNL     1       8.013   0.979   1.137  1.00  0.00    -0.011 C 
HETATM   29  C1  UNL     1       8.238   2.095   1.808  1.00  0.00     0.009 C 
ENDBRANCH  27  28
ENDBRANCH  26  27
ENDBRANCH  24  26
ENDBRANCH  23  24
ENDBRANCH  22  23
ENDBRANCH  20  22
ENDBRANCH  19  20
ENDBRANCH   1  19
BRANCH  14  30
HETATM   30  O6  UNL     1      -0.381   2.578   0.323  1.00  0.00    -0.395 OA
ATOM     31  H6  UNL     1       0.382   2.025   0.203  1.00  0.00     0.210 HD
ENDBRANCH  14  30
BRANCH  17  32
HETATM   32  O7  UNL     1      -4.966  -0.441  -0.571  1.00  0.00    -0.384 OA
ATOM     33  H7  UNL     1      -5.037   0.332  -1.119  1.00  0.00     0.210 HD
ENDBRANCH  17  32
TORSDOF 10
