REMARK  10 active torsions:
REMARK  status: ('A' for Active; 'I' for Inactive)
REMARK    1  A    between atoms: C2_2  and  C4_4 
REMARK    2  A    between atoms: C4_4  and  C5_5 
REMARK    3  A    between atoms: C5_5  and  C6_6 
REMARK    4  A    between atoms: C6_6  and  O2_8 
REMARK    5  A    between atoms: O2_8  and  C7_9 
REMARK    6  A    between atoms: C9_11  and  O3_12 
REMARK    7  A    between atoms: C16_21  and  C17_22 
REMARK    8  A    between atoms: C17_22  and  O6_24 
REMARK    9  A    between atoms: O6_24  and  C18_25 
REMARK   10  A    between atoms: C21_28  and  O7_29 
ROOT
HETATM    1  C7  UNL     1      -0.845  -0.830   0.397  1.00  0.00     0.145 C 
HETATM    2  C8  UNL     1      -1.292  -2.217   0.726  1.00  0.00     0.066 C 
HETATM    3  C9  UNL     1      -1.206  -3.038  -0.532  1.00  0.00     0.128 C 
HETATM    4  C10 UNL     1       0.253  -3.192  -0.849  1.00  0.00    -0.017 C 
HETATM    5  C11 UNL     1       0.853  -4.133   0.175  1.00  0.00     0.018 C 
HETATM    6  C12 UNL     1       0.314  -3.972  -2.174  1.00  0.00     0.018 C 
HETATM    7  C13 UNL     1       0.992  -1.905  -0.987  1.00  0.00     0.016 C 
HETATM    8  C14 UNL     1       2.479  -2.248  -0.782  1.00  0.00     0.085 C 
HETATM    9  C15 UNL     1       3.218  -0.932  -0.714  1.00  0.00     0.143 C 
HETATM   10  O4  UNL     1       3.980  -0.554  -1.557  1.00  0.00    -0.297 OA
HETATM   11  C16 UNL     1       2.884  -0.161   0.531  1.00  0.00     0.184 C 
HETATM   12  C21 UNL     1       1.450  -0.272   0.881  1.00  0.00     0.150 C 
HETATM   13  C22 UNL     1       0.536  -0.746  -0.228  1.00  0.00     0.015 C 
HETATM   14  C23 UNL     1       0.415   0.478  -1.164  1.00  0.00     0.021 C 
ENDROOT
BRANCH   1  15
HETATM   15  O2  UNL     1      -1.842  -0.230  -0.426  1.00  0.00    -0.315 OA
BRANCH  15  16
HETATM   16  C6  UNL     1      -2.635   0.838   0.003  1.00  0.00     0.259 C 
HETATM   17  O1  UNL     1      -2.406   1.235   1.169  1.00  0.00    -0.265 OA
BRANCH  16  18
HETATM   18  C5  UNL     1      -3.664   1.447  -0.862  1.00  0.00     0.111 C 
BRANCH  18  19
HETATM   19  C4  UNL     1      -4.450   2.466  -0.095  1.00  0.00     0.013 C 
BRANCH  19  20
HETATM   20  C2  UNL     1      -5.211   1.875   1.036  1.00  0.00    -0.022 C 
HETATM   21  C1  UNL     1      -6.174   0.844   0.420  1.00  0.00     0.009 C 
HETATM   22  C3  UNL     1      -6.052   2.909   1.769  1.00  0.00     0.009 C 
ENDBRANCH  19  20
ENDBRANCH  18  19
ENDBRANCH  16  18
ENDBRANCH  15  16
ENDBRANCH   1  15
BRANCH   3  23
HETATM   23  O3  UNL     1      -1.930  -2.462  -1.550  1.00  0.00    -0.395 OA
ATOM     24  H3  UNL     1      -1.876  -2.980  -2.344  1.00  0.00     0.210 HD
ENDBRANCH   3  23
BRANCH  12  25
HETATM   25  O7  UNL     1       1.227  -0.989   2.078  1.00  0.00    -0.393 OA
ATOM     26  H7  UNL     1       0.307  -1.060   2.303  1.00  0.00     0.210 HD
ENDBRANCH  12  25
BRANCH  11  27
HETATM   27  C17 UNL     1       3.371   1.241   0.463  1.00  0.00     0.273 C 
HETATM   28  O5  UNL     1       2.565   2.232   0.514  1.00  0.00    -0.264 OA
BRANCH  27  29
HETATM   29  O6  UNL     1       4.704   1.573   0.343  1.00  0.00    -0.316 OA
BRANCH  29  30
HETATM   30  C18 UNL     1       5.149   2.930   0.278  1.00  0.00     0.123 C 
HETATM   31  C19 UNL     1       5.901   3.194   1.589  1.00  0.00     0.040 C 
HETATM   32  C20 UNL     1       6.019   3.215  -0.898  1.00  0.00     0.040 C 
ENDBRANCH  29  30
ENDBRANCH  27  29
ENDBRANCH  11  27
TORSDOF 10
