REMARK  7 active torsions:
REMARK  status: ('A' for Active; 'I' for Inactive)
REMARK    1  A    between atoms: C2_2  and  C3_3 
REMARK    2  A    between atoms: C2_2  and  N3_16 
REMARK    3  A    between atoms: C3_3  and  C4_4 
REMARK    4  A    between atoms: C3_3  and  C7_11 
REMARK    5  A    between atoms: C7_11  and  O1_14 
REMARK    6  A    between atoms: C13_20  and  C14_21 
REMARK    7  A    between atoms: C13_20  and  N5_24 
ROOT
HETATM    1  C14 UNL     1       0.746   2.264  -0.919  1.00  0.00     0.157 C 
HETATM    2  C15 UNL     1       0.994   1.691  -2.239  1.00  0.00     0.061 C 
HETATM    3  N4  UNL     1       1.199   1.257  -3.280  1.00  0.00    -0.197 NA
ENDROOT
BRANCH   1   4
HETATM    4  C13 UNL     1       1.352   1.301   0.108  1.00  0.00     0.083 C 
HETATM    5  C11 UNL     1       1.133   1.823   1.513  1.00  0.00     0.041 C 
HETATM    6  C10 UNL     1       0.045   0.923   2.099  1.00  0.00     0.279 C 
HETATM    7  C12 UNL     1       2.357   1.661   2.375  1.00  0.00     0.014 C 
HETATM    8  N3  UNL     1      -0.630   0.488   0.919  1.00  0.00     0.096 N 
HETATM    9  C23 UNL     1       0.542   0.043   0.133  1.00  0.00     0.305 C 
BRANCH   8  10
HETATM   10  C2  UNL     1      -1.568  -0.596   1.096  1.00  0.00     0.231 C 
HETATM   11  C1  UNL     1      -0.926  -1.869   1.531  1.00  0.00     0.043 C 
BRANCH  10  12
HETATM   12  C3  UNL     1      -2.378  -0.734  -0.158  1.00  0.00     0.103 C 
BRANCH  12  13
HETATM   13  C4  UNL     1      -2.967   0.612  -0.540  1.00  0.00     0.034 A 
HETATM   14  C5  UNL     1      -3.724   1.476   0.199  1.00  0.00     0.114 A 
HETATM   15  N1  UNL     1      -4.050   2.552  -0.518  1.00  0.00    -0.360 N 
HETATM   16  C6  UNL     1      -3.495   2.367  -1.721  1.00  0.00     0.180 A 
ATOM     17  H1  UNL     1      -4.607   3.350  -0.213  1.00  0.00     0.166 HD
HETATM   18  N2  UNL     1      -2.834   1.187  -1.739  1.00  0.00    -0.354 N 
ATOM     19  H2  UNL     1      -2.322   0.802  -2.532  1.00  0.00     0.166 HD
ENDBRANCH  12  13
BRANCH  12  20
HETATM   20  C7  UNL     1      -3.544  -1.654  -0.113  1.00  0.00     0.062 C 
HETATM   21  C8  UNL     1      -3.310  -3.088   0.180  1.00  0.00     0.046 C 
HETATM   22  C9  UNL     1      -4.208  -1.598  -1.496  1.00  0.00     0.046 C 
BRANCH  20  23
HETATM   23  O1  UNL     1      -4.515  -1.190   0.793  1.00  0.00    -0.390 OA
ATOM     24  H1  UNL     1      -5.260  -1.778   0.822  1.00  0.00     0.210 HD
ENDBRANCH  20  23
ENDBRANCH  12  20
ENDBRANCH  10  12
ENDBRANCH   8  10
BRANCH   4  25
HETATM   25  N5  UNL     1       2.726   1.155  -0.245  1.00  0.00    -0.314 N 
HETATM   26  C16 UNL     1       3.512   2.263  -0.410  1.00  0.00     0.186 A 
HETATM   27  N6  UNL     1       4.743   1.861  -0.736  1.00  0.00    -0.349 N 
HETATM   28  C17 UNL     1       4.737   0.495  -0.778  1.00  0.00     0.079 A 
ATOM     29  H6  UNL     1       5.544   2.465  -0.921  1.00  0.00     0.166 HD
HETATM   30  C18 UNL     1       5.740  -0.384  -1.060  1.00  0.00     0.057 A 
HETATM   31  C22 UNL     1       3.468   0.063  -0.468  1.00  0.00     0.136 A 
HETATM   32  C19 UNL     1       5.477  -1.740  -1.036  1.00  0.00     0.062 A 
HETATM   33  C20 UNL     1       6.491  -2.722  -1.325  1.00  0.00     0.101 C 
HETATM   34  C21 UNL     1       4.188  -2.108  -0.720  1.00  0.00     0.112 A 
HETATM   35  N7  UNL     1       7.304  -3.534  -1.564  1.00  0.00    -0.191 NA
HETATM   36  N8  UNL     1       3.200  -1.246  -0.441  1.00  0.00    -0.349 N 
ATOM     37  H8  UNL     1       2.264  -1.582  -0.213  1.00  0.00     0.167 HD
ENDBRANCH   4  25
ENDBRANCH   1   4
TORSDOF 7
