REMARK  10 active torsions:
REMARK  status: ('A' for Active; 'I' for Inactive)
REMARK    1  A    between atoms: C2_2  and  C4_4 
REMARK    2  A    between atoms: C4_4  and  C5_6 
REMARK    3  A    between atoms: C6_7  and  C7_8 
REMARK    4  A    between atoms: C7_8  and  O2_9 
REMARK    5  A    between atoms: O2_9  and  C8_10 
REMARK    6  A    between atoms: C8_10  and  C9_12 
REMARK    7  A    between atoms: C18_21  and  C19_22 
REMARK    8  A    between atoms: C20_26  and  C21_27 
REMARK    9  A    between atoms: C21_27  and  O5_28 
REMARK   10  A    between atoms: C22_30  and  O6_31 
ROOT
HETATM    1  C9  UNL     1       1.093   0.720   0.110  1.00  0.00     0.049 C 
HETATM    2  C10 UNL     1       1.554   1.121   1.521  1.00  0.00     0.026 C 
HETATM    3  C11 UNL     1       1.347   1.968  -0.750  1.00  0.00     0.020 C 
HETATM    4  C12 UNL     1       0.134   2.860  -0.677  1.00  0.00     0.002 C 
HETATM    5  C13 UNL     1      -1.043   2.260  -1.426  1.00  0.00     0.010 C 
HETATM    6  C14 UNL     1      -1.121   0.790  -1.089  1.00  0.00    -0.035 C 
HETATM    7  C15 UNL     1      -0.750  -0.033  -2.262  1.00  0.00     0.016 C 
HETATM    8  C16 UNL     1      -2.538   0.386  -0.645  1.00  0.00     0.043 C 
HETATM    9  C17 UNL     1      -2.326  -0.618   0.410  1.00  0.00    -0.077 C 
HETATM   10  C18 UNL     1      -3.188  -1.208   1.151  1.00  0.00     0.032 C 
HETATM   11  C23 UNL     1      -0.832  -0.867   0.516  1.00  0.00     0.041 C 
HETATM   12  C24 UNL     1      -0.360   0.519   0.160  1.00  0.00     0.016 C 
ENDROOT
BRANCH   1  13
HETATM   13  C8  UNL     1       1.897  -0.395  -0.385  1.00  0.00     0.268 C 
HETATM   14  O3  UNL     1       2.571  -0.265  -1.433  1.00  0.00    -0.264 OA
BRANCH  13  15
HETATM   15  O2  UNL     1       1.953  -1.610   0.259  1.00  0.00    -0.317 OA
BRANCH  15  16
HETATM   16  C7  UNL     1       2.699  -2.733  -0.121  1.00  0.00     0.206 C 
BRANCH  16  17
HETATM   17  C6  UNL     1       4.162  -2.588  -0.048  1.00  0.00     0.004 C 
HETATM   18  C5  UNL     1       4.845  -1.547   0.338  1.00  0.00     0.053 C 
BRANCH  18  19
HETATM   19  C4  UNL     1       6.295  -1.496   0.374  1.00  0.00     0.176 C 
HETATM   20  O1  UNL     1       6.915  -2.553  -0.001  1.00  0.00    -0.288 OA
BRANCH  19  21
HETATM   21  C2  UNL     1       7.086  -0.365   0.793  1.00  0.00    -0.021 C 
HETATM   22  C1  UNL     1       6.492   0.738   1.185  1.00  0.00     0.022 C 
HETATM   23  C3  UNL     1       8.565  -0.418   0.792  1.00  0.00     0.051 C 
ENDBRANCH  19  21
ENDBRANCH  18  19
ENDBRANCH  16  17
ENDBRANCH  15  16
ENDBRANCH  13  15
ENDBRANCH   1  13
BRANCH  10  24
HETATM   24  C19 UNL     1      -4.646  -1.010   1.120  1.00  0.00     0.063 C 
HETATM   25  N1  UNL     1      -5.470  -1.660   1.910  1.00  0.00    -0.268 N 
HETATM   26  O4  UNL     1      -6.766  -1.320   1.706  1.00  0.00    -0.270 OA
ATOM     27  H1  UNL     1      -5.167  -2.346   2.602  1.00  0.00     0.194 HD
HETATM   28  C20 UNL     1      -6.872  -0.755   0.388  1.00  0.00     0.210 C 
HETATM   29  C22 UNL     1      -5.473  -0.112   0.298  1.00  0.00     0.203 C 
BRANCH  28  30
HETATM   30  C21 UNL     1      -7.945   0.282   0.316  1.00  0.00     0.201 C 
BRANCH  30  31
HETATM   31  O5  UNL     1      -7.967   0.767  -1.002  1.00  0.00    -0.398 OA
ATOM     32  H5  UNL     1      -8.649   1.426  -1.048  1.00  0.00     0.209 HD
ENDBRANCH  30  31
ENDBRANCH  28  30
BRANCH  29  33
HETATM   33  O6  UNL     1      -5.656   1.140   0.943  1.00  0.00    -0.387 OA
ATOM     34  H6  UNL     1      -6.190   1.720   0.412  1.00  0.00     0.210 HD
ENDBRANCH  29  33
ENDBRANCH  10  24
TORSDOF 10
