REMARK  9 active torsions:
REMARK  status: ('A' for Active; 'I' for Inactive)
REMARK    1  A    between atoms: C2_2  and  C3_3 
REMARK    2  A    between atoms: C3_3  and  C4_4 
REMARK    3  A    between atoms: N1_8  and  C8_9 
REMARK    4  A    between atoms: C8_9  and  C9_10 
REMARK    5  A    between atoms: C11_14  and  N3_15 
REMARK    6  A    between atoms: N3_15  and  C12_16 
REMARK    7  A    between atoms: N3_15  and  C14_18 
REMARK    8  A    between atoms: C19_28  and  N6_29 
REMARK    9  A    between atoms: C25_38  and  C26_39 
ROOT
HETATM    1  C9  UNL     1       1.111  -0.071   0.444  1.00  0.00     0.040 A 
HETATM    2  C10 UNL     1       1.615  -1.378   0.516  1.00  0.00     0.122 A 
HETATM    3  N2  UNL     1       2.940  -1.692   0.359  1.00  0.00    -0.200 N 
ATOM      4  H2  UNL     1       3.248  -2.662   0.429  1.00  0.00     0.183 HD
HETATM    5  C11 UNL     1       3.786  -0.768   0.125  1.00  0.00     0.686 A 
HETATM    6  N5  UNL     1       3.341   0.524   0.041  1.00  0.00    -0.176 N 
ATOM      7  H5  UNL     1       4.026   1.257  -0.144  1.00  0.00     0.186 HD
HETATM    8  C19 UNL     1       2.067   0.878   0.187  1.00  0.00     0.127 A 
ENDROOT
BRANCH   1   9
HETATM    9  C8  UNL     1      -0.216   0.313   0.856  1.00  0.00     0.108 C 
BRANCH   9  10
HETATM   10  N1  UNL     1      -1.459   0.047   0.278  1.00  0.00    -0.354 N 
HETATM   11  C6  UNL     1      -1.861   1.210  -0.597  1.00  0.00     0.086 C 
HETATM   12  C5  UNL     1      -3.168   1.127  -1.263  1.00  0.00     0.035 C 
HETATM   13  C7  UNL     1      -2.011   2.434   0.349  1.00  0.00     0.033 C 
HETATM   14  C4  UNL     1      -4.211   0.560  -0.353  1.00  0.00     0.026 C 
HETATM   15  C21 UNL     1      -3.734  -0.735   0.123  1.00  0.00     0.015 C 
HETATM   16  C20 UNL     1      -2.418  -0.968   0.405  1.00  0.00     0.027 C 
HETATM   17  C22 UNL     1      -4.668  -1.776   0.525  1.00  0.00     0.158 C 
HETATM   18  C25 UNL     1      -1.983  -2.319   0.740  1.00  0.00     0.046 C 
HETATM   19  C24 UNL     1      -3.030  -3.223   1.374  1.00  0.00     0.019 C 
HETATM   20  C23 UNL     1      -4.252  -2.492   1.819  1.00  0.00     0.084 C 
HETATM   21  O1  UNL     1      -5.696  -2.140  -0.018  1.00  0.00    -0.293 OA
BRANCH  14  22
HETATM   22  C3  UNL     1      -5.560   0.764  -0.818  1.00  0.00     0.009 C 
BRANCH  22  23
HETATM   23  C2  UNL     1      -6.135   2.125  -0.798  1.00  0.00    -0.004 C 
HETATM   24  C1  UNL     1      -5.574   3.253  -1.513  1.00  0.00     0.005 C 
ENDBRANCH  22  23
ENDBRANCH  14  22
BRANCH  18  25
HETATM   25  C26 UNL     1      -1.537  -3.122  -0.483  1.00  0.00     0.096 C 
HETATM   26 BR1  UNL     1      -2.820  -3.328  -1.865  1.00  0.00    -0.096 Br
ENDBRANCH  18  25
ENDBRANCH   9  10
ENDBRANCH   1   9
BRANCH   8  27
HETATM   27  N6  UNL     1       1.850   2.143   0.049  1.00  0.00    -0.384 N 
ATOM     28  H62 UNL     1       0.873   2.414   0.161  1.00  0.00     0.157 HD
ATOM     29  H61 UNL     1       2.561   2.849  -0.142  1.00  0.00     0.157 HD
ENDBRANCH   8  27
BRANCH   5  30
HETATM   30  N3  UNL     1       5.243  -0.932   0.045  1.00  0.00    -0.182 N 
BRANCH  30  31
HETATM   31  C12 UNL     1       5.939  -2.131   0.008  1.00  0.00     0.143 C 
HETATM   32  C13 UNL     1       7.300  -2.013   0.702  1.00  0.00     0.027 C 
ENDBRANCH  30  31
BRANCH  30  33
HETATM   33  C14 UNL     1       5.873   0.373   0.061  1.00  0.00     0.067 A 
HETATM   34  C15 UNL     1       6.509   0.910  -0.976  1.00  0.00     0.036 A 
HETATM   35  C16 UNL     1       6.888   2.283  -0.899  1.00  0.00     0.064 A 
HETATM   36  C17 UNL     1       6.614   3.028   0.208  1.00  0.00     0.188 A 
HETATM   37  F1  UNL     1       6.908   4.351   0.344  1.00  0.00    -0.186 F 
HETATM   38  N4  UNL     1       5.968   2.432   1.239  1.00  0.00    -0.341 N 
HETATM   39  C18 UNL     1       5.610   1.155   1.171  1.00  0.00     0.120 A 
ATOM     40  H4  UNL     1       5.754   2.971   2.078  1.00  0.00     0.167 HD
ENDBRANCH  30  33
ENDBRANCH   5  30
TORSDOF 9
