REMARK  11 active torsions:
REMARK  status: ('A' for Active; 'I' for Inactive)
REMARK    1  A    between atoms: C2_2  and  C3_3 
REMARK    2  A    between atoms: C3_3  and  N1_4 
REMARK    3  A    between atoms: C3_3  and  C14_27 
REMARK    4  A    between atoms: N1_4  and  C4_6 
REMARK    5  A    between atoms: C5_9  and  C6_10 
REMARK    6  A    between atoms: C6_10  and  C7_11 
REMARK    7  A    between atoms: C7_11  and  C8_12 
REMARK    8  A    between atoms: C7_11  and  N3_14 
REMARK    9  A    between atoms: N3_14  and  C9_16 
REMARK   10  A    between atoms: C17_30  and  C18_31 
REMARK   11  A    between atoms: N7_37  and  C21_38 
ROOT
HETATM    1  N1  UNL     1       0.560  -0.595   1.357  1.00  0.00    -0.217 N 
ATOM      2  H1  UNL     1      -0.128  -1.256   1.717  1.00  0.00     0.178 HD
ENDROOT
BRANCH   1   3
HETATM    3  C3  UNL     1       0.199   0.157   0.225  1.00  0.00     0.132 C 
BRANCH   3   4
HETATM    4  C2  UNL     1       0.690   1.568   0.143  1.00  0.00     0.026 C 
HETATM    5  C1  UNL     1       0.240   2.440   1.288  1.00  0.00     0.007 C 
ENDBRANCH   3   4
BRANCH   3   6
HETATM    6  C14 UNL     1      -1.274   0.166  -0.030  1.00  0.00    -0.032 A 
HETATM    7  C15 UNL     1      -2.146   0.358   1.011  1.00  0.00     0.010 A 
HETATM    8  C16 UNL     1      -3.501   0.378   0.836  1.00  0.00     0.017 A 
HETATM    9  C17 UNL     1      -4.089   0.199  -0.446  1.00  0.00     0.031 A 
HETATM   10  C24 UNL     1      -3.208   0.016  -1.457  1.00  0.00     0.129 A 
HETATM   11  F1  UNL     1      -3.638  -0.040  -2.748  1.00  0.00    -0.205 F 
HETATM   12  C25 UNL     1      -1.805  -0.006  -1.273  1.00  0.00     0.052 A 
BRANCH   9  13
HETATM   13  C18 UNL     1      -5.530   0.346  -0.534  1.00  0.00     0.066 A 
HETATM   14  C19 UNL     1      -6.186   1.309   0.277  1.00  0.00     0.121 A 
HETATM   15  N6  UNL     1      -7.480   1.215   0.087  1.00  0.00    -0.340 N 
HETATM   16  C20 UNL     1      -7.731   0.221  -0.824  1.00  0.00     0.182 A 
ATOM     17  H6  UNL     1      -8.188   1.790   0.544  1.00  0.00     0.167 HD
HETATM   18 CL2  UNL     1      -9.350  -0.175  -1.363  1.00  0.00    -0.045 Cl
HETATM   19  N7  UNL     1      -6.524  -0.286  -1.173  1.00  0.00    -0.317 N 
BRANCH  19  20
HETATM   20  C21 UNL     1      -6.336  -1.433  -2.013  1.00  0.00     0.084 C 
HETATM   21  C22 UNL     1      -7.688  -2.151  -2.203  1.00  0.00     0.032 C 
HETATM   22  C23 UNL     1      -5.484  -2.497  -1.315  1.00  0.00     0.032 C 
ENDBRANCH  19  20
ENDBRANCH   9  13
ENDBRANCH   3   6
ENDBRANCH   1   3
BRANCH   1  23
HETATM   23  C4  UNL     1       1.667  -0.521   1.967  1.00  0.00     0.678 A 
HETATM   24  N2  UNL     1       2.696   0.264   1.672  1.00  0.00    -0.194 N 
HETATM   25  C5  UNL     1       3.880   0.312   2.361  1.00  0.00     0.052 A 
ATOM     26  H2  UNL     1       2.598   0.882   0.867  1.00  0.00     0.184 HD
HETATM   27  C12 UNL     1       4.052  -0.495   3.442  1.00  0.00     0.073 A 
HETATM   28 CL1  UNL     1       5.484  -0.494   4.451  1.00  0.00    -0.081 Cl
HETATM   29  C13 UNL     1       2.979  -1.335   3.773  1.00  0.00     0.132 A 
HETATM   30  N5  UNL     1       1.852  -1.332   3.057  1.00  0.00    -0.200 N 
ATOM     31  H5  UNL     1       1.097  -1.960   3.333  1.00  0.00     0.183 HD
BRANCH  25  32
HETATM   32  C6  UNL     1       4.881   1.210   1.824  1.00  0.00     0.091 C 
BRANCH  32  33
HETATM   33  C7  UNL     1       5.870   0.669   0.842  1.00  0.00     0.150 C 
BRANCH  33  34
HETATM   34  C8  UNL     1       6.763  -0.394   1.263  1.00  0.00     0.256 C 
HETATM   35  O1  UNL     1       7.811  -0.193   1.901  1.00  0.00    -0.305 OA
ENDBRANCH  33  34
BRANCH  33  36
HETATM   36  N3  UNL     1       5.138   0.132  -0.327  1.00  0.00    -0.359 N 
ATOM     37  H3  UNL     1       4.166  -0.170  -0.268  1.00  0.00     0.162 HD
BRANCH  36  38
HETATM   38  C9  UNL     1       5.821   0.071  -1.439  1.00  0.00     0.144 A 
HETATM   39  N4  UNL     1       7.079   0.413  -1.706  1.00  0.00    -0.346 N 
HETATM   40  C10 UNL     1       7.535   0.254  -2.916  1.00  0.00     0.097 A 
ATOM     41  H4  UNL     1       7.678   0.794  -0.974  1.00  0.00     0.167 HD
HETATM   42  C11 UNL     1       6.697  -0.259  -3.865  1.00  0.00     0.070 A 
HETATM   43  S1  UNL     1       5.264  -0.500  -2.977  1.00  0.00    -0.065 SA
ENDBRANCH  36  38
ENDBRANCH  33  36
ENDBRANCH  32  33
ENDBRANCH  25  32
ENDBRANCH   1  23
TORSDOF 11
