REMARK  10 active torsions:
REMARK  status: ('A' for Active; 'I' for Inactive)
REMARK    1  A    between atoms: C7_8  and  C8_9 
REMARK    2  A    between atoms: C8_9  and  C9_10 
REMARK    3  A    between atoms: C9_10  and  C10_11 
REMARK    4  A    between atoms: C10_11  and  O2_13 
REMARK    5  A    between atoms: O2_13  and  C11_14 
REMARK    6  A    between atoms: C15_19  and  O4_21 
REMARK    7  A    between atoms: C22_30  and  C23_31 
REMARK    8  A    between atoms: C23_31  and  C24_32 
REMARK    9  A    between atoms: C24_32  and  C25_33 
REMARK   10  A    between atoms: C28_37  and  C29_38 
ROOT
HETATM    1  C1  UNL     1      -3.426   0.659   2.320  1.00  0.00     0.018 C 
HETATM    2  C2  UNL     1      -2.786   0.557   1.187  1.00  0.00    -0.047 C 
HETATM    3  C3  UNL     1      -1.905   1.693   0.749  1.00  0.00     0.199 C 
HETATM    4  F1  UNL     1      -1.774   2.646   1.736  1.00  0.00    -0.245 F 
HETATM    5  C4  UNL     1      -0.566   1.115   0.315  1.00  0.00     0.047 C 
HETATM    6  C5  UNL     1      -0.301  -0.270   0.819  1.00  0.00     0.003 C 
HETATM    7  C6  UNL     1       1.081  -0.684   0.290  1.00  0.00     0.014 C 
HETATM    8  C7  UNL     1       2.108   0.021   1.132  1.00  0.00     0.061 C 
HETATM    9  C13 UNL     1       2.756  -0.984   2.021  1.00  0.00     0.134 C 
HETATM   10  O3  UNL     1       2.706  -0.896   3.216  1.00  0.00    -0.297 OA
HETATM   11  C14 UNL     1       3.473  -2.111   1.389  1.00  0.00     0.116 C 
HETATM   12  C15 UNL     1       2.626  -2.690   0.272  1.00  0.00     0.070 C 
HETATM   13  C16 UNL     1       2.572  -4.203   0.543  1.00  0.00     0.047 C 
HETATM   14  C17 UNL     1       1.221  -2.188   0.458  1.00  0.00     0.097 C 
HETATM   15  C18 UNL     1       0.275  -2.895  -0.452  1.00  0.00     0.251 C 
HETATM   16  F2  UNL     1      -0.003  -4.194  -0.070  1.00  0.00    -0.206 F 
HETATM   17  F3  UNL     1       0.888  -2.998  -1.696  1.00  0.00    -0.206 F 
HETATM   18  C19 UNL     1      -1.046  -2.163  -0.611  1.00  0.00     0.090 C 
HETATM   19  C20 UNL     1      -1.361  -1.291   0.548  1.00  0.00    -0.024 C 
HETATM   20  C21 UNL     1      -1.597  -2.074   1.836  1.00  0.00     0.016 C 
HETATM   21  C22 UNL     1      -2.746  -0.612   0.284  1.00  0.00     0.048 C 
ENDROOT
BRANCH  21  22
HETATM   22  C23 UNL     1      -3.046  -0.459  -1.108  1.00  0.00    -0.016 C 
BRANCH  22  23
HETATM   23  C24 UNL     1      -4.344  -0.050  -1.611  1.00  0.00     0.011 C 
BRANCH  23  24
HETATM   24  C25 UNL     1      -5.055   1.167  -1.286  1.00  0.00     0.006 A 
HETATM   25  C26 UNL     1      -4.817   2.410  -1.911  1.00  0.00     0.039 A 
HETATM   26  C27 UNL     1      -5.626   3.334  -1.327  1.00  0.00     0.143 A 
HETATM   27  O5  UNL     1      -6.319   2.735  -0.412  1.00  0.00    -0.315 OA
HETATM   28  C28 UNL     1      -6.030   1.441  -0.336  1.00  0.00     0.161 A 
BRANCH  28  29
HETATM   29  C29 UNL     1      -6.654   0.503   0.590  1.00  0.00     0.235 C 
HETATM   30  O6  UNL     1      -6.347  -0.697   0.599  1.00  0.00    -0.642 OA
HETATM   31  O7  UNL     1      -7.607   0.970   1.473  1.00  0.00    -0.642 OA
ENDBRANCH  28  29
ENDBRANCH  23  24
ENDBRANCH  22  23
ENDBRANCH  21  22
BRANCH   8  32
HETATM   32  C8  UNL     1       3.234   0.679   0.425  1.00  0.00     0.022 C 
BRANCH  32  33
HETATM   33  C9  UNL     1       2.947   1.747  -0.556  1.00  0.00     0.112 C 
BRANCH  33  34
HETATM   34  C10 UNL     1       4.261   2.212  -1.091  1.00  0.00     0.258 C 
HETATM   35  O1  UNL     1       4.868   1.620  -2.024  1.00  0.00    -0.265 OA
BRANCH  34  36
HETATM   36  O2  UNL     1       4.842   3.326  -0.553  1.00  0.00    -0.322 OA
BRANCH  36  37
HETATM   37  C11 UNL     1       6.074   3.893  -0.942  1.00  0.00     0.174 C 
HETATM   38  C12 UNL     1       7.164   2.845  -0.731  1.00  0.00     0.034 C 
ENDBRANCH  36  37
ENDBRANCH  34  36
ENDBRANCH  33  34
ENDBRANCH  32  33
ENDBRANCH   8  32
BRANCH  12  39
HETATM   39  O4  UNL     1       3.138  -2.557  -0.982  1.00  0.00    -0.389 OA
ATOM     40  H4  UNL     1       2.607  -2.920  -1.682  1.00  0.00     0.210 HD
ENDBRANCH  12  39
TORSDOF 10
