REMARK  8 active torsions:
REMARK  status: ('A' for Active; 'I' for Inactive)
REMARK    1  A    between atoms: O1_1  and  C1_3 
REMARK    2  A    between atoms: C5_10  and  C6_11 
REMARK    3  A    between atoms: C6_11  and  N2_12 
REMARK    4  A    between atoms: C9_15  and  C10_16 
REMARK    5  A    between atoms: C9_15  and  C17_25 
REMARK    6  A    between atoms: C17_25  and  C18_26 
REMARK    7  A    between atoms: N3_29  and  C21_30 
REMARK    8  A    between atoms: C21_30  and  C22_31 
ROOT
HETATM    1  N2  UNL     1      -3.209  -0.395   0.352  1.00  0.00    -0.388 N 
HETATM    2  C7  UNL     1      -2.448  -0.481   1.459  1.00  0.00     0.123 C 
HETATM    3  C8  UNL     1      -0.964  -0.201   1.163  1.00  0.00     0.033 C 
HETATM    4  C9  UNL     1      -0.700   0.962   0.241  1.00  0.00    -0.019 C 
HETATM    5  C27 UNL     1      -1.674   1.051  -0.840  1.00  0.00     0.033 C 
HETATM    6  C28 UNL     1      -3.086   0.926  -0.299  1.00  0.00     0.123 C 
ENDROOT
BRANCH   4   7
HETATM    7  C10 UNL     1      -0.765   2.237   1.125  1.00  0.00    -0.006 C 
HETATM    8  C11 UNL     1      -0.728   3.535   0.556  1.00  0.00    -0.037 A 
HETATM    9  C12 UNL     1       0.286   4.251   0.033  1.00  0.00     0.013 A 
HETATM   10  C16 UNL     1      -1.939   4.258   0.580  1.00  0.00     0.036 A 
HETATM   11  C13 UNL     1       0.170   5.569  -0.444  1.00  0.00     0.026 A 
HETATM   12  C14 UNL     1      -1.039   6.201  -0.385  1.00  0.00     0.055 A 
HETATM   13 CL2  UNL     1      -1.294   7.834  -0.972  1.00  0.00    -0.083 Cl
HETATM   14  C15 UNL     1      -2.118   5.522   0.143  1.00  0.00     0.056 A 
HETATM   15 CL3  UNL     1      -3.673   6.333   0.258  1.00  0.00    -0.083 Cl
ENDBRANCH   4   7
BRANCH   4  16
HETATM   16  C17 UNL     1       0.761   0.887  -0.086  1.00  0.00     0.018 C 
BRANCH  16  17
HETATM   17  C18 UNL     1       1.488  -0.280  -0.547  1.00  0.00    -0.010 C 
HETATM   18  C19 UNL     1       1.759  -1.421   0.371  1.00  0.00     0.035 C 
HETATM   19  C20 UNL     1       3.060  -0.974   1.113  1.00  0.00     0.273 C 
HETATM   20  N3  UNL     1       4.139  -1.364   0.234  1.00  0.00     0.094 N 
HETATM   21  C25 UNL     1       3.820  -0.991  -1.138  1.00  0.00     0.273 C 
HETATM   22  C26 UNL     1       2.789   0.104  -1.243  1.00  0.00     0.035 C 
BRANCH  20  23
HETATM   23  C21 UNL     1       5.406  -0.769   0.637  1.00  0.00     0.330 C 
BRANCH  23  24
HETATM   24  C22 UNL     1       6.493  -1.476  -0.098  1.00  0.00     0.054 A 
HETATM   25  C23 UNL     1       7.723  -1.036  -0.511  1.00  0.00     0.115 A 
HETATM   26  N4  UNL     1       8.405  -2.038  -1.107  1.00  0.00    -0.360 N 
HETATM   27  C24 UNL     1       7.617  -3.114  -1.079  1.00  0.00     0.180 A 
ATOM     28  H4  UNL     1       9.343  -1.983  -1.503  1.00  0.00     0.166 HD
HETATM   29  N5  UNL     1       6.459  -2.794  -0.476  1.00  0.00    -0.353 N 
ATOM     30  H5  UNL     1       5.677  -3.431  -0.323  1.00  0.00     0.166 HD
ENDBRANCH  23  24
ENDBRANCH  20  23
ENDBRANCH  16  17
ENDBRANCH   4  16
BRANCH   1  31
HETATM   31  C6  UNL     1      -3.707  -1.280  -0.566  1.00  0.00     0.118 C 
BRANCH  31  32
HETATM   32  C5  UNL     1      -4.613  -2.369  -0.216  1.00  0.00     0.082 A 
HETATM   33  C1  UNL     1      -5.854  -2.115   0.370  1.00  0.00     0.093 A 
HETATM   34  C2  UNL     1      -6.818  -3.079   0.538  1.00  0.00     0.042 A 
HETATM   35  C3  UNL     1      -6.492  -4.342   0.089  1.00  0.00     0.045 A 
HETATM   36  C4  UNL     1      -5.282  -4.612  -0.487  1.00  0.00     0.104 A 
HETATM   37 CL1  UNL     1      -4.995  -6.255  -1.079  1.00  0.00    -0.065 Cl
HETATM   38  N1  UNL     1      -4.382  -3.631  -0.621  1.00  0.00    -0.344 N 
ATOM     39  H1  UNL     1      -3.482  -3.849  -1.049  1.00  0.00     0.167 HD
BRANCH  33  40
HETATM   40  O1  UNL     1      -6.043  -0.797   0.784  1.00  0.00    -0.358 OA
ATOM     41  H1  UNL     1      -5.376  -0.130   0.668  1.00  0.00     0.217 HD
ENDBRANCH  33  40
ENDBRANCH  31  32
ENDBRANCH   1  31
TORSDOF 8
