REMARK  6 active torsions:
REMARK  status: ('A' for Active; 'I' for Inactive)
REMARK    1  A    between atoms: C3_3  and  C5_5 
REMARK    2  A    between atoms: C6_6  and  C7_7 
REMARK    3  A    between atoms: C11_12  and  C12_13 
REMARK    4  A    between atoms: C12_13  and  N1_14 
REMARK       I    between atoms: N1_14  and  C13_16 
REMARK       I    between atoms: C13_16  and  N2_18 
REMARK    5  A    between atoms: N3_21  and  C16_22 
REMARK    6  A    between atoms: C16_22  and  C17_23 
ROOT
HETATM    1  C1  UNL     1      -8.729  -2.800  -1.521  1.00  0.00     0.012 C 
HETATM    2  C2  UNL     1      -7.858  -2.467  -0.761  1.00  0.00    -0.109 C 
HETATM    3  C3  UNL     1      -6.762  -2.045   0.166  1.00  0.00     0.082 C 
HETATM    4  C4  UNL     1      -6.679  -3.129   1.233  1.00  0.00     0.027 C 
ENDROOT
BRANCH   3   5
HETATM    5  C5  UNL     1      -5.547  -1.960  -0.627  1.00  0.00    -0.014 C 
HETATM    6  C6  UNL     1      -4.784  -0.910  -0.721  1.00  0.00    -0.022 C 
BRANCH   6   7
HETATM    7  C7  UNL     1      -5.056   0.358  -0.021  1.00  0.00     0.039 C 
HETATM    8  C8  UNL     1      -5.098   1.505  -1.022  1.00  0.00     0.013 C 
HETATM    9  C9  UNL     1      -3.759   2.201  -0.850  1.00  0.00     0.035 C 
HETATM   10  C10 UNL     1      -3.640   2.117   0.678  1.00  0.00     0.151 C 
HETATM   11  O1  UNL     1      -2.427   2.591   1.117  1.00  0.00    -0.374 OA
HETATM   12  C23 UNL     1      -3.867   0.658   0.902  1.00  0.00     0.158 C 
HETATM   13  C11 UNL     1      -1.343   1.871   0.685  1.00  0.00     0.163 C 
HETATM   14  C22 UNL     1      -1.575   0.410   0.939  1.00  0.00     0.201 C 
HETATM   15  O3  UNL     1      -2.786  -0.036   0.418  1.00  0.00    -0.380 OA
BRANCH  13  16
HETATM   16  C12 UNL     1      -0.092   2.312   1.375  1.00  0.00     0.158 C 
BRANCH  16  17
HETATM   17  N1  UNL     1       1.077   1.599   0.972  1.00  0.00    -0.340 N 
HETATM   18  C13 UNL     1       2.327   1.902   1.534  1.00  0.00     0.318 C 
HETATM   19  O2  UNL     1       2.419   2.804   2.395  1.00  0.00    -0.247 OA
HETATM   20  N2  UNL     1       3.497   1.200   1.142  1.00  0.00    -0.331 N 
HETATM   21  C14 UNL     1       4.756   1.537   1.750  1.00  0.00     0.158 C 
HETATM   22  C21 UNL     1       3.375   0.171   0.148  1.00  0.00     0.158 C 
HETATM   23  C15 UNL     1       5.895   1.294   0.789  1.00  0.00     0.292 C 
HETATM   24  N3  UNL     1       5.830  -0.071   0.294  1.00  0.00     0.091 N 
HETATM   25  C20 UNL     1       4.642  -0.322  -0.457  1.00  0.00     0.292 C 
ATOM     26  H1  UNL     1       1.003   0.863   0.270  1.00  0.00     0.164 HD
BRANCH  24  27
HETATM   27  C16 UNL     1       7.015  -0.372  -0.450  1.00  0.00     0.277 C 
BRANCH  27  28
HETATM   28  C17 UNL     1       6.889  -1.803  -0.943  1.00  0.00     0.014 A 
HETATM   29  C18 UNL     1       7.961  -2.422  -1.752  1.00  0.00     0.007 A 
HETATM   30  C19 UNL     1       6.643  -2.069  -2.384  1.00  0.00     0.007 A 
ENDBRANCH  27  28
ENDBRANCH  24  27
ENDBRANCH  16  17
ENDBRANCH  13  16
ENDBRANCH   6   7
ENDBRANCH   3   5
TORSDOF 6
