REMARK  14 active torsions:
REMARK  status: ('A' for Active; 'I' for Inactive)
REMARK    1  A    between atoms: C3_3  and  C4_4 
REMARK    2  A    between atoms: C4_4  and  C5_5 
REMARK    3  A    between atoms: C7_10  and  C8_11 
REMARK    4  A    between atoms: C8_11  and  C9_12 
REMARK       I    between atoms: C9_12  and  N2_14 
REMARK    5  A    between atoms: N2_14  and  C10_16 
REMARK    6  A    between atoms: C10_16  and  C11_17 
REMARK    7  A    between atoms: C11_17  and  C12_18 
REMARK    8  A    between atoms: C12_18  and  C13_19 
REMARK    9  A    between atoms: C13_19  and  C14_20 
REMARK   10  A    between atoms: C14_20  and  C15_21 
REMARK   11  A    between atoms: C15_21  and  C16_22 
REMARK   12  A    between atoms: C19_28  and  C20_29 
REMARK   13  A    between atoms: C20_29  and  C21_30 
REMARK   14  A    between atoms: C27_39  and  O5_40 
ROOT
HETATM    1  C1  UNL     1      -4.170   5.608   2.470  1.00  0.00     0.112 C 
HETATM    2  C2  UNL     1      -3.206   4.940   1.592  1.00  0.00    -0.111 C 
HETATM    3  C3  UNL     1      -2.425   4.375   0.881  1.00  0.00    -0.106 C 
ENDROOT
BRANCH   3   4
HETATM    4  C4  UNL     1      -1.471   3.717   0.047  1.00  0.00     0.110 C 
BRANCH   4   5
HETATM    5  C5  UNL     1      -1.962   2.342  -0.439  1.00  0.00     0.119 C 
HETATM    6  C6  UNL     1      -0.899   1.725  -1.296  1.00  0.00     0.226 C 
HETATM    7  O1  UNL     1       0.026   2.540  -1.676  1.00  0.00    -0.273 OA
HETATM    8  N1  UNL     1      -0.771   0.424  -1.731  1.00  0.00    -0.347 N 
HETATM    9  C7  UNL     1      -0.893  -0.843  -1.067  1.00  0.00     0.185 C 
ATOM     10  H1  UNL     1      -0.544   0.345  -2.722  1.00  0.00     0.163 HD
HETATM   11  C18 UNL     1      -1.169  -0.824   0.367  1.00  0.00     0.241 C 
HETATM   12  O3  UNL     1      -0.274  -0.454   1.169  1.00  0.00    -0.271 OA
HETATM   13  N3  UNL     1      -2.429  -1.212   0.908  1.00  0.00    -0.346 N 
HETATM   14  C19 UNL     1      -3.646  -0.914   0.196  1.00  0.00     0.177 C 
ATOM     15  H3  UNL     1      -2.470  -1.702   1.802  1.00  0.00     0.163 HD
HETATM   16  C24 UNL     1      -4.323   0.153   1.020  1.00  0.00     0.240 C 
HETATM   17  O4  UNL     1      -4.754  -0.317   2.124  1.00  0.00    -0.271 OA
HETATM   18  N4  UNL     1      -4.504   1.492   0.713  1.00  0.00    -0.353 N 
HETATM   19  C25 UNL     1      -4.495   2.245  -0.481  1.00  0.00     0.110 C 
ATOM     20  H4  UNL     1      -4.685   2.064   1.538  1.00  0.00     0.163 HD
HETATM   21  C26 UNL     1      -5.485   1.594  -1.467  1.00  0.00     0.035 C 
HETATM   22  C27 UNL     1      -3.247   2.534  -1.196  1.00  0.00     0.154 C 
BRANCH   9  23
HETATM   23  C8  UNL     1       0.239  -1.785  -1.395  1.00  0.00     0.137 C 
BRANCH  23  24
HETATM   24  C9  UNL     1       1.589  -1.310  -1.076  1.00  0.00     0.220 C 
HETATM   25  O2  UNL     1       1.777  -0.148  -0.664  1.00  0.00    -0.274 OA
HETATM   26  N2  UNL     1       2.739  -2.153  -1.223  1.00  0.00    -0.361 N 
ATOM     27  H2  UNL     1       2.636  -3.112  -1.554  1.00  0.00     0.162 HD
BRANCH  26  28
HETATM   28  C10 UNL     1       4.063  -1.621  -0.893  1.00  0.00     0.122 C 
BRANCH  28  29
HETATM   29  C11 UNL     1       5.129  -2.638  -1.111  1.00  0.00     0.020 C 
BRANCH  29  30
HETATM   30  C12 UNL     1       6.473  -2.047  -0.782  1.00  0.00     0.002 C 
BRANCH  30  31
HETATM   31  C13 UNL     1       6.525  -1.605   0.641  1.00  0.00     0.000 C 
BRANCH  31  32
HETATM   32  C14 UNL     1       7.874  -1.008   1.004  1.00  0.00     0.000 C 
BRANCH  32  33
HETATM   33  C15 UNL     1       8.197   0.193   0.156  1.00  0.00    -0.000 C 
BRANCH  33  34
HETATM   34  C16 UNL     1       7.186   1.292   0.294  1.00  0.00    -0.005 C 
HETATM   35  C17 UNL     1       7.610   2.441  -0.596  1.00  0.00     0.005 C 
ENDBRANCH  33  34
ENDBRANCH  32  33
ENDBRANCH  31  32
ENDBRANCH  30  31
ENDBRANCH  29  30
ENDBRANCH  28  29
ENDBRANCH  26  28
ENDBRANCH  23  24
ENDBRANCH   9  23
BRANCH  14  36
HETATM   36  C20 UNL     1      -4.523  -2.056  -0.132  1.00  0.00     0.038 C 
BRANCH  36  37
HETATM   37  C21 UNL     1      -5.093  -2.897   0.929  1.00  0.00    -0.020 C 
HETATM   38  C22 UNL     1      -5.952  -3.962   0.194  1.00  0.00     0.009 C 
HETATM   39  C23 UNL     1      -4.104  -3.700   1.736  1.00  0.00     0.009 C 
ENDBRANCH  36  37
ENDBRANCH  14  36
BRANCH  22  40
HETATM   40  O5  UNL     1      -3.168   1.992  -2.495  1.00  0.00    -0.393 OA
ATOM     41  H5  UNL     1      -3.980   2.113  -2.973  1.00  0.00     0.210 HD
ENDBRANCH  22  40
ENDBRANCH   4   5
ENDBRANCH   3   4
TORSDOF 14
