REMARK  12 active torsions:
REMARK  status: ('A' for Active; 'I' for Inactive)
REMARK    1  A    between atoms: C5_5  and  C6_6 
REMARK    2  A    between atoms: C6_6  and  C7_7 
REMARK    3  A    between atoms: C7_7  and  C9_9 
REMARK    4  A    between atoms: C7_7  and  N1_12 
REMARK    5  A    between atoms: C14_15  and  C15_16 
REMARK    6  A    between atoms: C15_16  and  C16_17 
REMARK    7  A    between atoms: C16_17  and  C17_18 
REMARK    8  A    between atoms: C17_18  and  N2_19 
REMARK    9  A    between atoms: C19_26  and  C20_27 
REMARK   10  A    between atoms: C20_27  and  C21_28 
REMARK   11  A    between atoms: C21_28  and  C22_29 
REMARK   12  A    between atoms: C22_29  and  N6_30 
REMARK       I    between atoms: N6_30  and  C23_32 
ROOT
HETATM    1  N1  UNL     1      -1.350   0.200  -0.754  1.00  0.00    -0.338 N 
HETATM    2  C12 UNL     1      -0.625  -0.881  -1.366  1.00  0.00     0.129 C 
HETATM    3  C13 UNL     1       0.744  -0.572  -1.856  1.00  0.00     0.044 C 
HETATM    4  C14 UNL     1       1.753  -0.058  -0.929  1.00  0.00     0.079 C 
HETATM    5  N5  UNL     1       1.349   0.856   0.066  1.00  0.00    -0.405 N 
ATOM      6  H5  UNL     1       1.647   0.740   1.035  1.00  0.00     0.154 HD
HETATM    7  C19 UNL     1       0.523   1.934  -0.313  1.00  0.00     0.170 C 
HETATM    8  C24 UNL     1      -0.892   1.524  -0.655  1.00  0.00     0.243 C 
HETATM    9  O1  UNL     1      -1.659   2.474  -0.855  1.00  0.00    -0.271 OA
ENDROOT
BRANCH   1  10
HETATM   10  C7  UNL     1      -2.713  -0.089  -0.185  1.00  0.00     0.054 C 
HETATM   11  C8  UNL     1      -3.597   0.695  -1.136  1.00  0.00     0.044 C 
BRANCH  10  12
HETATM   12  C6  UNL     1      -2.974  -1.529  -0.406  1.00  0.00     0.017 C 
BRANCH  12  13
HETATM   13  C5  UNL     1      -4.256  -2.164  -0.342  1.00  0.00    -0.016 A 
HETATM   14  C4  UNL     1      -4.822  -2.679   0.793  1.00  0.00     0.013 A 
HETATM   15  C3  UNL     1      -6.073  -3.239   0.839  1.00  0.00     0.007 A 
HETATM   16  C2  UNL     1      -6.863  -3.322  -0.281  1.00  0.00    -0.060 A 
HETATM   17  C1  UNL     1      -8.218  -3.927  -0.224  1.00  0.00     0.048 C 
HETATM   18  C26 UNL     1      -6.320  -2.813  -1.447  1.00  0.00     0.031 A 
HETATM   19  C25 UNL     1      -5.063  -2.254  -1.485  1.00  0.00     0.044 A 
HETATM   20 CL1  UNL     1      -4.515  -1.795  -3.086  1.00  0.00    -0.083 Cl
ENDBRANCH  12  13
ENDBRANCH  10  12
BRANCH  10  21
HETATM   21  C9  UNL     1      -2.683   0.453   1.181  1.00  0.00     0.017 A 
HETATM   22  C10 UNL     1      -1.614  -0.117   2.176  1.00  0.00     0.008 A 
HETATM   23  C11 UNL     1      -3.079   0.020   2.474  1.00  0.00     0.008 A 
ENDBRANCH  10  21
ENDBRANCH   1  10
BRANCH   7  24
HETATM   24  C20 UNL     1       1.041   2.838  -1.375  1.00  0.00     0.036 C 
BRANCH  24  25
HETATM   25  C21 UNL     1       2.344   3.505  -1.002  1.00  0.00     0.022 C 
BRANCH  25  26
HETATM   26  C22 UNL     1       2.262   4.354   0.228  1.00  0.00     0.122 C 
BRANCH  26  27
HETATM   27  N6  UNL     1       3.579   4.930   0.455  1.00  0.00    -0.365 N 
HETATM   28  C23 UNL     1       4.117   5.896  -0.430  1.00  0.00     0.181 C 
HETATM   29  N7  UNL     1       5.329   5.852  -0.836  1.00  0.00    -0.374 N 
HETATM   30  N8  UNL     1       3.269   6.945  -0.875  1.00  0.00    -0.064 NA
ATOM     31  H72 UNL     1       5.938   5.099  -0.516  1.00  0.00     0.158 HD
ATOM     32  H71 UNL     1       5.716   6.548  -1.473  1.00  0.00     0.158 HD
ATOM     33  H6  UNL     1       4.124   4.633   1.265  1.00  0.00     0.162 HD
ENDBRANCH  26  27
ENDBRANCH  25  26
ENDBRANCH  24  25
ENDBRANCH   7  24
BRANCH   4  34
HETATM   34  C15 UNL     1       2.427  -1.258  -0.256  1.00  0.00     0.026 C 
BRANCH  34  35
HETATM   35  C16 UNL     1       3.489  -0.820   0.716  1.00  0.00     0.022 C 
BRANCH  35  36
HETATM   36  C17 UNL     1       4.115  -2.070   1.331  1.00  0.00     0.122 C 
BRANCH  36  37
HETATM   37  N2  UNL     1       4.708  -2.904   0.322  1.00  0.00    -0.367 N 
HETATM   38  C18 UNL     1       5.887  -3.373   0.310  1.00  0.00     0.196 C 
HETATM   39  N3  UNL     1       6.775  -3.088   1.371  1.00  0.00    -0.067 NA
HETATM   40  N4  UNL     1       6.331  -4.181  -0.759  1.00  0.00    -0.067 NA
ATOM     41  H2  UNL     1       4.116  -3.146  -0.472  1.00  0.00     0.161 HD
ENDBRANCH  36  37
ENDBRANCH  35  36
ENDBRANCH  34  35
ENDBRANCH   4  34
TORSDOF 12
