REMARK  4 active torsions:
REMARK  status: ('A' for Active; 'I' for Inactive)
REMARK    1  A    between atoms: O1_1  and  C1_3 
REMARK    2  A    between atoms: C1_3  and  C2_4 
REMARK    3  A    between atoms: C2_4  and  C3_5 
REMARK    4  A    between atoms: C3_5  and  N1_6 
ROOT
HETATM    1  N1  UNL     1       0.393   0.537   0.363  1.00  0.00    -0.409 N 
HETATM    2  C4  UNL     1       1.444   0.296   1.293  1.00  0.00     0.135 C 
HETATM    3  C5  UNL     1       1.984  -1.125   1.219  1.00  0.00     0.162 C 
HETATM    4  N2  UNL     1       3.165  -1.063   0.359  1.00  0.00    -0.100 NA
HETATM    5  O2  UNL     1       2.701  -1.129  -0.921  1.00  0.00    -0.285 OA
HETATM    6  C6  UNL     1       2.127   0.067  -1.315  1.00  0.00     0.215 C 
HETATM    7  C7  UNL     1       0.677   0.185  -0.990  1.00  0.00     0.145 C 
ENDROOT
BRANCH   1   8
HETATM    8  C3  UNL     1      -0.912   0.183   0.814  1.00  0.00     0.119 C 
BRANCH   8   9
HETATM    9  C2  UNL     1      -1.926   0.485  -0.253  1.00  0.00     0.045 C 
BRANCH   9  10
HETATM   10  C1  UNL     1      -3.316   0.107   0.230  1.00  0.00     0.165 C 
BRANCH  10  11
HETATM   11  O1  UNL     1      -4.273   0.377  -0.742  1.00  0.00    -0.401 OA
ATOM     12  H1  UNL     1      -5.142   0.141  -0.440  1.00  0.00     0.209 HD
ENDBRANCH  10  11
ENDBRANCH   9  10
ENDBRANCH   8   9
ENDBRANCH   1   8
TORSDOF 4
