REMARK  5 active torsions:
REMARK  status: ('A' for Active; 'I' for Inactive)
REMARK    1  A    between atoms: O1_1  and  C1_3 
REMARK    2  A    between atoms: C1_3  and  C2_4 
REMARK    3  A    between atoms: C2_4  and  N1_5 
REMARK    4  A    between atoms: C5_9  and  C6_10 
REMARK    5  A    between atoms: C6_10  and  O2_11 
ROOT
HETATM    1  N1  UNL     1       0.219   0.267  -0.605  1.00  0.00     0.107 N 
HETATM    2  C3  UNL     1       0.273   1.725  -0.726  1.00  0.00     0.347 C 
HETATM    3  S1  UNL     1      -0.762   2.158   0.744  1.00  0.00    -0.137 SA
HETATM    4  C4  UNL     1      -1.639   0.533   0.836  1.00  0.00     0.113 C 
HETATM    5  C5  UNL     1      -1.203   0.036  -0.520  1.00  0.00     0.256 C 
ENDROOT
BRANCH   1   6
HETATM    6  C2  UNL     1       0.931  -0.081   0.592  1.00  0.00     0.299 C 
BRANCH   6   7
HETATM    7  C1  UNL     1       2.401   0.145   0.472  1.00  0.00     0.194 C 
BRANCH   7   8
HETATM    8  O1  UNL     1       2.966  -0.611  -0.561  1.00  0.00    -0.399 OA
ATOM      9  H1  UNL     1       3.902  -0.467  -0.637  1.00  0.00     0.209 HD
ENDBRANCH   7   8
ENDBRANCH   6   7
ENDBRANCH   1   6
BRANCH   5  10
HETATM   10  C6  UNL     1      -1.693  -1.286  -0.929  1.00  0.00     0.200 C 
BRANCH  10  11
HETATM   11  O2  UNL     1      -1.181  -2.368  -0.222  1.00  0.00    -0.399 OA
ATOM     12  H2  UNL     1      -1.498  -3.224  -0.487  1.00  0.00     0.209 HD
ENDBRANCH  10  11
ENDBRANCH   5  10
TORSDOF 5
