REMARK  5 active torsions:
REMARK  status: ('A' for Active; 'I' for Inactive)
REMARK    1  A    between atoms: O1_1  and  C1_3 
REMARK    2  A    between atoms: C1_3  and  C2_4 
REMARK    3  A    between atoms: C2_4  and  O2_5 
REMARK    4  A    between atoms: C2_4  and  C3_7 
REMARK    5  A    between atoms: C3_7  and  N1_8 
ROOT
HETATM    1  C2  UNL     1      -1.684  -0.298  -0.710  1.00  0.00     0.155 C 
ENDROOT
BRANCH   1   2
HETATM    2  C1  UNL     1      -3.052  -0.359  -0.060  1.00  0.00     0.197 C 
BRANCH   2   3
HETATM    3  O1  UNL     1      -3.315   0.920   0.481  1.00  0.00    -0.398 OA
ATOM      4  H1  UNL     1      -4.172   0.882   0.888  1.00  0.00     0.209 HD
ENDBRANCH   2   3
ENDBRANCH   1   2
BRANCH   1   5
HETATM    5  O2  UNL     1      -1.283  -1.478  -1.274  1.00  0.00    -0.392 OA
ATOM      6  H2  UNL     1      -0.426  -1.440  -1.681  1.00  0.00     0.210 HD
ENDBRANCH   1   5
BRANCH   1   7
HETATM    7  C3  UNL     1      -0.685   0.195   0.309  1.00  0.00     0.136 C 
BRANCH   7   8
HETATM    8  N1  UNL     1       0.572   0.397  -0.397  1.00  0.00    -0.256 NA
HETATM    9  C4  UNL     1       1.583   0.972   0.439  1.00  0.00     0.103 C 
HETATM   10  C5  UNL     1       2.937   0.527   0.118  1.00  0.00     0.027 C 
HETATM   11  C6  UNL     1       2.974  -0.787  -0.565  1.00  0.00     0.092 C 
HETATM   12  S1  UNL     1       1.226  -1.138  -0.982  1.00  0.00    -0.083 SA
ENDBRANCH   7   8
ENDBRANCH   1   7
TORSDOF 5
