REMARK  14 active torsions:
REMARK  status: ('A' for Active; 'I' for Inactive)
REMARK    1  A    between atoms: C2_2  and  C3_3 
REMARK    2  A    between atoms: C3_3  and  N1_4 
REMARK    3  A    between atoms: C4_6  and  C5_7 
REMARK    4  A    between atoms: C6_8  and  O1_9 
REMARK    5  A    between atoms: O1_9  and  C7_10 
REMARK    6  A    between atoms: C8_12  and  C9_13 
REMARK    7  A    between atoms: C9_13  and  O3_14 
REMARK    8  A    between atoms: C10_16  and  O4_17 
REMARK    9  A    between atoms: C11_19  and  O5_20 
REMARK   10  A    between atoms: C12_23  and  C13_24 
REMARK   11  A    between atoms: C13_24  and  O7_25 
REMARK   12  A    between atoms: C14_27  and  O8_28 
REMARK   13  A    between atoms: C15_30  and  S1_31 
REMARK   14  A    between atoms: S1_31  and  C16_32 
ROOT
HETATM    1  C5  UNL     1       0.121  -0.375  -0.360  1.00  0.00     0.095 C 
HETATM    2  C6  UNL     1      -0.969  -0.927  -1.301  1.00  0.00     0.273 C 
HETATM    3  O6  UNL     1      -0.300  -1.680  -2.264  1.00  0.00    -0.350 OA
HETATM    4  C12 UNL     1       0.169  -2.879  -1.743  1.00  0.00     0.178 C 
HETATM    5  C14 UNL     1       0.864  -2.698  -0.419  1.00  0.00     0.164 C 
HETATM    6  C15 UNL     1       1.333  -1.241  -0.386  1.00  0.00     0.092 C 
ENDROOT
BRANCH   2   7
HETATM    7  O1  UNL     1      -1.596   0.137  -1.838  1.00  0.00    -0.328 OA
BRANCH   7   8
HETATM    8  C7  UNL     1      -2.891   0.377  -1.593  1.00  0.00     0.294 C 
HETATM    9  O2  UNL     1      -3.722   0.306  -2.723  1.00  0.00    -0.348 OA
HETATM   10  C8  UNL     1      -4.780   1.157  -2.546  1.00  0.00     0.179 C 
HETATM   11  C10 UNL     1      -4.774   1.565  -1.081  1.00  0.00     0.182 C 
HETATM   12  C11 UNL     1      -3.239   1.684  -0.953  1.00  0.00     0.204 C 
BRANCH  10  13
HETATM   13  C9  UNL     1      -6.102   0.631  -2.998  1.00  0.00     0.198 C 
BRANCH  13  14
HETATM   14  O3  UNL     1      -6.486  -0.524  -2.349  1.00  0.00    -0.398 OA
ATOM     15  H3  UNL     1      -7.327  -0.859  -2.637  1.00  0.00     0.209 HD
ENDBRANCH  13  14
ENDBRANCH  10  13
BRANCH  11  16
HETATM   16  O4  UNL     1      -5.239   0.508  -0.310  1.00  0.00    -0.390 OA
ATOM     17  H4  UNL     1      -5.235   0.763   0.605  1.00  0.00     0.210 HD
ENDBRANCH  11  16
BRANCH  12  18
HETATM   18  O5  UNL     1      -2.934   2.780  -1.772  1.00  0.00    -0.388 OA
ATOM     19  H5  UNL     1      -3.155   3.610  -1.366  1.00  0.00     0.210 HD
ENDBRANCH  12  18
ENDBRANCH   7   8
ENDBRANCH   2   7
BRANCH   1  20
HETATM   20  C4  UNL     1      -0.485  -0.271   1.003  1.00  0.00     0.066 C 
HETATM   21  N1  UNL     1       0.024  -0.905   1.989  1.00  0.00    -0.398 N 
ATOM     22  H1  UNL     1       0.849  -1.479   1.816  1.00  0.00     0.158 HD
BRANCH  21  23
HETATM   23  C3  UNL     1      -0.494  -0.858   3.318  1.00  0.00     0.145 C 
BRANCH  23  24
HETATM   24  C2  UNL     1       0.573  -0.458   4.286  1.00  0.00    -0.018 C 
HETATM   25  C1  UNL     1       0.464   0.624   5.035  1.00  0.00     0.008 C 
ENDBRANCH  23  24
ENDBRANCH  21  23
ENDBRANCH   1  20
BRANCH   6  26
HETATM   26  S1  UNL     1       2.511  -1.064   0.907  1.00  0.00    -0.156 SA
BRANCH  26  27
HETATM   27  C16 UNL     1       3.514   0.382   0.975  1.00  0.00     0.048 C 
HETATM   28  C17 UNL     1       4.450   0.468  -0.221  1.00  0.00     0.015 C 
HETATM   29  C18 UNL     1       5.475   1.564  -0.014  1.00  0.00     0.001 C 
HETATM   30  C19 UNL     1       5.024   2.540   1.052  1.00  0.00     0.000 C 
HETATM   31  C20 UNL     1       3.577   2.873   0.832  1.00  0.00     0.001 C 
HETATM   32  C21 UNL     1       2.761   1.627   1.226  1.00  0.00     0.015 C 
ENDBRANCH  26  27
ENDBRANCH   6  26
BRANCH   4  33
HETATM   33  C13 UNL     1       1.068  -3.613  -2.679  1.00  0.00     0.198 C 
BRANCH  33  34
HETATM   34  O7  UNL     1       2.193  -2.905  -3.032  1.00  0.00    -0.398 OA
ATOM     35  H7  UNL     1       2.766  -3.373  -3.628  1.00  0.00     0.209 HD
ENDBRANCH  33  34
ENDBRANCH   4  33
BRANCH   5  36
HETATM   36  O8  UNL     1       1.947  -3.561  -0.375  1.00  0.00    -0.392 OA
ATOM     37  H8  UNL     1       2.385  -3.447   0.460  1.00  0.00     0.210 HD
ENDBRANCH   5  36
TORSDOF 14
