REMARK  15 active torsions:
REMARK  status: ('A' for Active; 'I' for Inactive)
REMARK    1  A    between atoms: C2_2  and  C3_3 
REMARK    2  A    between atoms: C3_3  and  C4_4 
REMARK    3  A    between atoms: C4_4  and  C5_5 
REMARK    4  A    between atoms: C5_5  and  C6_6 
REMARK    5  A    between atoms: C6_6  and  O2_8 
REMARK    6  A    between atoms: O2_8  and  C7_9 
REMARK    7  A    between atoms: C7_9  and  C8_10 
REMARK    8  A    between atoms: C9_11  and  O3_12 
REMARK    9  A    between atoms: C15_19  and  O4_20 
REMARK   10  A    between atoms: O4_20  and  C16_21 
REMARK   11  A    between atoms: C17_24  and  C18_25 
REMARK   12  A    between atoms: C18_25  and  O7_26 
REMARK   13  A    between atoms: C19_28  and  O8_29 
REMARK   14  A    between atoms: C20_31  and  O9_32 
REMARK   15  A    between atoms: C21_34  and  O10_35 
ROOT
HETATM    1  C8  UNL     1       0.466  -1.164   0.044  1.00  0.00     0.069 C 
HETATM    2  C9  UNL     1       1.014  -1.381  -1.297  1.00  0.00     0.126 C 
HETATM    3  C10 UNL     1       0.844  -2.834  -1.772  1.00  0.00     0.033 C 
HETATM    4  C11 UNL     1       0.080  -3.581  -0.721  1.00  0.00     0.014 C 
HETATM    5  C12 UNL     1      -1.271  -2.909  -0.452  1.00  0.00    -0.021 C 
HETATM    6  C13 UNL     1      -2.055  -2.783  -1.715  1.00  0.00     0.017 C 
HETATM    7  C14 UNL     1      -2.035  -3.859   0.450  1.00  0.00     0.017 C 
HETATM    8  C15 UNL     1      -0.963  -1.612   0.250  1.00  0.00     0.141 C 
ENDROOT
BRANCH   8   9
HETATM    9  O4  UNL     1      -1.827  -0.612   0.053  1.00  0.00    -0.349 OA
BRANCH   9  10
HETATM   10  C16 UNL     1      -2.626  -0.177   1.050  1.00  0.00     0.328 C 
HETATM   11  O5  UNL     1      -3.925  -0.586   0.671  1.00  0.00    -0.205 OA
HETATM   12  O6  UNL     1      -4.328  -0.302  -0.483  1.00  0.00    -0.228 OA
HETATM   13  C17 UNL     1      -4.085   1.000  -0.867  1.00  0.00     0.215 C 
HETATM   14  C19 UNL     1      -4.779   1.916   0.113  1.00  0.00     0.183 C 
HETATM   15  C20 UNL     1      -4.153   1.737   1.464  1.00  0.00     0.183 C 
HETATM   16  C21 UNL     1      -2.718   1.274   1.346  1.00  0.00     0.207 C 
BRANCH  13  17
HETATM   17  C18 UNL     1      -4.713   1.312  -2.225  1.00  0.00     0.201 C 
BRANCH  17  18
HETATM   18  O7  UNL     1      -4.401   2.645  -2.502  1.00  0.00    -0.398 OA
ATOM     19  H7  UNL     1      -4.791   2.839  -3.346  1.00  0.00     0.209 HD
ENDBRANCH  17  18
ENDBRANCH  13  17
BRANCH  14  20
HETATM   20  O8  UNL     1      -6.109   1.497   0.169  1.00  0.00    -0.390 OA
ATOM     21  H8  UNL     1      -6.546   2.073   0.785  1.00  0.00     0.210 HD
ENDBRANCH  14  20
BRANCH  15  22
HETATM   22  O9  UNL     1      -4.856   0.864   2.290  1.00  0.00    -0.390 OA
ATOM     23  H9  UNL     1      -4.459   0.751   3.146  1.00  0.00     0.210 HD
ENDBRANCH  15  22
BRANCH  16  24
HETATM   24  O10 UNL     1      -2.165   1.605   2.603  1.00  0.00    -0.388 OA
ATOM     25  H10 UNL     1      -2.224   2.534   2.793  1.00  0.00     0.210 HD
ENDBRANCH  16  24
ENDBRANCH   9  10
ENDBRANCH   8   9
BRANCH   1  26
HETATM   26  C7  UNL     1       0.690   0.204   0.592  1.00  0.00     0.188 C 
BRANCH  26  27
HETATM   27  O2  UNL     1       1.905   0.722   0.804  1.00  0.00    -0.321 OA
BRANCH  27  28
HETATM   28  C6  UNL     1       2.975   1.193   0.177  1.00  0.00     0.258 C 
HETATM   29  O1  UNL     1       2.994   1.250  -1.068  1.00  0.00    -0.265 OA
BRANCH  28  30
HETATM   30  C5  UNL     1       4.225   1.688   0.871  1.00  0.00     0.111 C 
BRANCH  30  31
HETATM   31  C4  UNL     1       5.239   2.155  -0.113  1.00  0.00     0.010 C 
BRANCH  31  32
HETATM   32  C3  UNL     1       6.462   2.649   0.601  1.00  0.00     0.000 C 
BRANCH  32  33
HETATM   33  C2  UNL     1       7.072   1.545   1.413  1.00  0.00    -0.005 C 
HETATM   34  C1  UNL     1       7.436   0.413   0.472  1.00  0.00     0.005 C 
ENDBRANCH  32  33
ENDBRANCH  31  32
ENDBRANCH  30  31
ENDBRANCH  28  30
ENDBRANCH  27  28
ENDBRANCH  26  27
ENDBRANCH   1  26
BRANCH   2  35
HETATM   35  O3  UNL     1       0.542  -0.563  -2.297  1.00  0.00    -0.395 OA
ATOM     36  H3  UNL     1       0.897  -0.704  -3.167  1.00  0.00     0.210 HD
ENDBRANCH   2  35
TORSDOF 15
