REMARK  3 active torsions:
REMARK  status: ('A' for Active; 'I' for Inactive)
REMARK    1  A    between atoms: N1_2  and  C2_5 
REMARK    2  A    between atoms: C2_5  and  N2_6 
REMARK    3  A    between atoms: C3_8  and  C4_9 
ROOT
HETATM    1  N2  UNL     1      -0.053  -0.201   0.062  1.00  0.00    -0.380 N 
ATOM      2  H2  UNL     1       0.063   0.239  -0.851  1.00  0.00     0.160 HD
HETATM    3  C3  UNL     1       0.952  -0.716   0.643  1.00  0.00     0.061 C 
ENDROOT
BRANCH   1   4
HETATM    4  C2  UNL     1      -1.356  -0.232   0.678  1.00  0.00     0.353 C 
BRANCH   4   5
HETATM    5  N1  UNL     1      -2.371   0.081  -0.313  1.00  0.00    -0.063 N 
HETATM    6  C1  UNL     1      -3.696   0.066   0.241  1.00  0.00     0.269 C 
ATOM      7  H12 UNL     1      -2.302  -0.539  -1.120  1.00  0.00     0.278 HD
ATOM      8  H11 UNL     1      -2.174   0.969  -0.774  1.00  0.00     0.278 HD
ENDBRANCH   4   5
ENDBRANCH   1   4
BRANCH   3   9
HETATM    9  C4  UNL     1       2.274  -0.666  -0.017  1.00  0.00     0.024 A 
HETATM   10  C5  UNL     1       3.307   0.314   0.362  1.00  0.00     0.010 A 
HETATM   11  C6  UNL     1       2.484   0.601  -0.859  1.00  0.00     0.010 A 
ENDBRANCH   3   9
TORSDOF 3
