REMARK  4 active torsions:
REMARK  status: ('A' for Active; 'I' for Inactive)
REMARK    1  A    between atoms: N2_4  and  N3_6 
REMARK    2  A    between atoms: N3_6  and  C1_8 
REMARK    3  A    between atoms: C3_10  and  C4_11 
REMARK    4  A    between atoms: C4_11  and  N4_12 
ROOT
HETATM    1  C1  UNL     1       0.455  -0.714   0.172  1.00  0.00     0.135 A 
HETATM    2  C2  UNL     1      -0.093   0.068  -0.973  1.00  0.00     0.069 A 
HETATM    3  C3  UNL     1      -0.947  -0.349   0.106  1.00  0.00    -0.038 A 
ENDROOT
BRANCH   1   4
HETATM    4  N3  UNL     1       1.377  -0.029   1.053  1.00  0.00    -0.313 N 
ATOM      5  H3  UNL     1       1.176   0.087   2.046  1.00  0.00     0.182 HD
BRANCH   4   6
HETATM    6  N2  UNL     1       2.552   0.466   0.486  1.00  0.00    -0.253 N 
HETATM    7  N1  UNL     1       2.606   1.700   0.144  1.00  0.00    -0.331 N 
ATOM      8  H12 UNL     1       1.793   2.298   0.291  1.00  0.00     0.178 HD
ATOM      9  H11 UNL     1       3.465   2.062  -0.270  1.00  0.00     0.178 HD
ATOM     10  H2  UNL     1       3.356  -0.145   0.346  1.00  0.00     0.207 HD
ENDBRANCH   4   6
ENDBRANCH   1   4
BRANCH   3  11
HETATM   11  C4  UNL     1      -2.318  -0.276   0.538  1.00  0.00     0.085 C 
BRANCH  11  12
HETATM   12  N4  UNL     1      -3.236   0.321  -0.134  1.00  0.00    -0.408 N 
ATOM     13  H42 UNL     1      -2.963   0.759  -1.014  1.00  0.00     0.155 HD
ATOM     14  H41 UNL     1      -4.208   0.373   0.172  1.00  0.00     0.155 HD
ENDBRANCH  11  12
ENDBRANCH   3  11
TORSDOF 4
