REMARK  4 active torsions:
REMARK  status: ('A' for Active; 'I' for Inactive)
REMARK    1  A    between atoms: C2_2  and  N1_3 
REMARK    2  A    between atoms: C4_8  and  C5_9 
REMARK    3  A    between atoms: C5_9  and  N2_10 
REMARK    4  A    between atoms: N2_10  and  N3_12 
ROOT
HETATM    1  C1  UNL     1      -2.140   0.115  -0.446  1.00  0.00     0.046 C 
HETATM    2  C2  UNL     1      -1.182   0.046   0.718  1.00  0.00     0.126 A 
HETATM    3  C3  UNL     1      -0.198   1.177   0.774  1.00  0.00     0.047 A 
HETATM    4  C4  UNL     1       0.258  -0.196   0.514  1.00  0.00     0.042 A 
ENDROOT
BRANCH   4   5
HETATM    5  C5  UNL     1       0.810  -0.611  -0.823  1.00  0.00     0.148 C 
BRANCH   5   6
HETATM    6  N2  UNL     1       2.237  -0.762  -0.682  1.00  0.00    -0.322 N 
ATOM      7  H2  UNL     1       2.686  -1.659  -0.867  1.00  0.00     0.181 HD
BRANCH   6   8
HETATM    8  N3  UNL     1       2.991   0.341  -0.289  1.00  0.00    -0.254 N 
HETATM    9  N4  UNL     1       3.628   0.407   0.810  1.00  0.00    -0.331 N 
ATOM     10  H42 UNL     1       3.573  -0.403   1.427  1.00  0.00     0.178 HD
ATOM     11  H41 UNL     1       4.180   1.215   1.098  1.00  0.00     0.178 HD
ATOM     12  H3  UNL     1       3.035   1.142  -0.919  1.00  0.00     0.207 HD
ENDBRANCH   6   8
ENDBRANCH   5   6
ENDBRANCH   4   5
BRANCH   2  13
HETATM   13  N1  UNL     1      -1.765  -0.465   1.945  1.00  0.00    -0.070 N 
ATOM     14  H13 UNL     1      -2.593   0.075   2.197  1.00  0.00     0.275 HD
ATOM     15  H12 UNL     1      -2.194  -1.376   1.783  1.00  0.00     0.275 HD
ATOM     16  H11 UNL     1      -1.117  -0.512   2.732  1.00  0.00     0.275 HD
ENDBRANCH   2  13
TORSDOF 4
