REMARK  3 active torsions:
REMARK  status: ('A' for Active; 'I' for Inactive)
REMARK    1  A    between atoms: C2_4  and  N2_5 
REMARK    2  A    between atoms: N2_5  and  C3_7 
REMARK    3  A    between atoms: C3_7  and  C4_8 
ROOT
HETATM    1  N2  UNL     1      -0.600   0.374  -0.034  1.00  0.00    -0.386 N 
ATOM      2  H2  UNL     1      -0.755  -0.215  -0.852  1.00  0.00     0.160 HD
ENDROOT
BRANCH   1   3
HETATM    3  C2  UNL     1      -1.667   1.172   0.472  1.00  0.00     0.170 C 
HETATM    4  N1  UNL     1      -2.827   0.657   0.652  1.00  0.00    -0.391 N 
HETATM    5  C1  UNL     1      -3.099  -0.749   0.350  1.00  0.00     0.147 C 
ATOM      6  H1  UNL     1      -3.580   1.242   1.015  1.00  0.00     0.159 HD
ENDBRANCH   1   3
BRANCH   1   7
HETATM    7  C3  UNL     1       0.703   0.391   0.602  1.00  0.00     0.125 C 
BRANCH   7   8
HETATM    8  C4  UNL     1       1.610  -0.529  -0.135  1.00  0.00     0.003 A 
HETATM    9  C5  UNL     1       3.015  -0.757   0.238  1.00  0.00     0.007 A 
HETATM   10  C6  UNL     1       2.716   0.195  -0.921  1.00  0.00     0.007 A 
ENDBRANCH   7   8
ENDBRANCH   1   7
TORSDOF 3
