REMARK  3 active torsions:
REMARK  status: ('A' for Active; 'I' for Inactive)
REMARK    1  A    between atoms: C4_4  and  O1_5 
REMARK    2  A    between atoms: C5_7  and  O2_8 
REMARK    3  A    between atoms: C7_12  and  O3_14 
ROOT
HETATM    1  C1  UNL     1       1.885   2.415  -0.783  1.00  0.00     0.017 C 
HETATM    2  C2  UNL     1       0.891   1.806  -0.176  1.00  0.00    -0.048 C 
HETATM    3  C3  UNL     1       0.059   2.755   0.620  1.00  0.00     0.072 C 
HETATM    4  C4  UNL     1      -1.335   2.643   0.022  1.00  0.00     0.170 C 
HETATM    5  C5  UNL     1      -2.032   1.581   0.835  1.00  0.00     0.245 C 
HETATM    6  N1  UNL     1      -1.666   0.265   0.561  1.00  0.00    -0.375 N 
HETATM    7  C6  UNL     1      -2.730  -0.700   0.579  1.00  0.00     0.157 C 
HETATM    8  C7  UNL     1      -2.080  -1.992   0.157  1.00  0.00     0.072 C 
HETATM    9  C8  UNL     1      -2.688  -2.584  -1.082  1.00  0.00     0.047 C 
HETATM   10  C9  UNL     1      -0.623  -1.636  -0.033  1.00  0.00     0.067 C 
HETATM   11  C10 UNL     1      -0.722  -0.124  -0.331  1.00  0.00     0.126 C 
HETATM   12  C11 UNL     1       0.691   0.356  -0.305  1.00  0.00     0.129 C 
HETATM   13  C12 UNL     1       1.308  -0.083  -1.627  1.00  0.00     0.216 C 
HETATM   14  O4  UNL     1       2.567  -0.515  -1.312  1.00  0.00    -0.352 OA
HETATM   15  C13 UNL     1       2.590  -0.815   0.014  1.00  0.00     0.158 C 
HETATM   16  C14 UNL     1       3.836  -0.171   0.625  1.00  0.00     0.078 C 
HETATM   17  C15 UNL     1       2.816  -2.318   0.155  1.00  0.00     0.078 C 
HETATM   18  O5  UNL     1       1.460  -0.360   0.620  1.00  0.00    -0.336 OA
ENDROOT
BRANCH   4  19
HETATM   19  O1  UNL     1      -1.998   3.864   0.076  1.00  0.00    -0.391 OA
ATOM     20  H1  UNL     1      -2.869   3.794  -0.298  1.00  0.00     0.210 HD
ENDBRANCH   4  19
BRANCH   5  21
HETATM   21  O2  UNL     1      -1.813   1.877   2.179  1.00  0.00    -0.374 OA
ATOM     22  H2  UNL     1      -2.252   1.208   2.691  1.00  0.00     0.212 HD
ENDBRANCH   5  21
BRANCH   8  23
HETATM   23  O3  UNL     1      -2.153  -2.955   1.181  1.00  0.00    -0.389 OA
ATOM     24  H3  UNL     1      -1.743  -3.770   0.915  1.00  0.00     0.210 HD
ENDBRANCH   8  23
TORSDOF 3
