REMARK  4 active torsions:
REMARK  status: ('A' for Active; 'I' for Inactive)
REMARK    1  A    between atoms: C2_2  and  O2_4 
REMARK    2  A    between atoms: O2_4  and  C3_5 
REMARK    3  A    between atoms: C4_6  and  O3_8 
REMARK    4  A    between atoms: C15_22  and  O5_23 
ROOT
HETATM    1  C3  UNL     1       1.976  -0.284  -0.586  1.00  0.00     0.230 C 
HETATM    2  C4  UNL     1       1.564  -1.683  -0.240  1.00  0.00     0.188 C 
HETATM    3  C5  UNL     1       1.973  -2.602  -1.348  1.00  0.00     0.082 C 
HETATM    4  O4  UNL     1       0.179  -1.671  -0.046  1.00  0.00    -0.343 OA
HETATM    5  C6  UNL     1      -0.285  -0.772  -0.973  1.00  0.00     0.185 C 
HETATM    6  C7  UNL     1      -1.657  -0.287  -0.798  1.00  0.00     0.121 C 
HETATM    7  N1  UNL     1      -2.671  -1.194  -0.476  1.00  0.00    -0.389 N 
ATOM      8  H1  UNL     1      -2.636  -2.198  -0.651  1.00  0.00     0.159 HD
HETATM    9  C8  UNL     1      -3.648  -0.577   0.071  1.00  0.00    -0.021 C 
HETATM   10  C9  UNL     1      -4.891  -1.225   0.538  1.00  0.00     0.062 C 
HETATM   11  C10 UNL     1      -3.341   0.886   0.174  1.00  0.00     0.062 C 
HETATM   12  C11 UNL     1      -1.829   0.766   0.273  1.00  0.00    -0.016 C 
HETATM   13  C12 UNL     1      -1.512   0.285   1.649  1.00  0.00     0.018 C 
HETATM   14  C13 UNL     1      -1.060   1.954  -0.128  1.00  0.00     0.014 C 
HETATM   15  C14 UNL     1       0.395   1.535  -0.193  1.00  0.00     0.044 C 
HETATM   16  C15 UNL     1       0.688   0.373  -1.052  1.00  0.00     0.117 C 
ENDROOT
BRANCH   1  17
HETATM   17  O2  UNL     1       2.566   0.379   0.494  1.00  0.00    -0.308 OA
BRANCH  17  18
HETATM   18  C2  UNL     1       3.817   0.931   0.464  1.00  0.00     0.255 C 
HETATM   19  C1  UNL     1       4.355   1.623   1.687  1.00  0.00     0.126 C 
HETATM   20  O1  UNL     1       4.509   0.856  -0.588  1.00  0.00    -0.266 OA
ENDBRANCH  17  18
ENDBRANCH   1  17
BRANCH   2  21
HETATM   21  O3  UNL     1       2.231  -2.055   0.917  1.00  0.00    -0.363 OA
ATOM     22  H3  UNL     1       1.970  -2.942   1.136  1.00  0.00     0.213 HD
ENDBRANCH   2  21
BRANCH  16  23
HETATM   23  O5  UNL     1       0.812   0.808  -2.381  1.00  0.00    -0.384 OA
ATOM     24  H5  UNL     1       0.007   1.219  -2.672  1.00  0.00     0.210 HD
ENDBRANCH  16  23
TORSDOF 4
