REMARK  5 active torsions:
REMARK  status: ('A' for Active; 'I' for Inactive)
REMARK    1  A    between atoms: C2_2  and  O2_4 
REMARK    2  A    between atoms: O2_4  and  C3_5 
REMARK    3  A    between atoms: C11_14  and  O4_15 
REMARK    4  A    between atoms: C13_18  and  C15_20 
REMARK    5  A    between atoms: C16_21  and  O5_22 
ROOT
HETATM    1  C3  UNL     1       1.316  -0.915   0.090  1.00  0.00     0.173 C 
HETATM    2  C4  UNL     1       1.733  -1.312   1.513  1.00  0.00     0.067 C 
HETATM    3  C5  UNL     1       0.412  -1.382   2.195  1.00  0.00     0.121 C 
HETATM    4  C6  UNL     1       0.494  -0.955   3.660  1.00  0.00     0.040 C 
HETATM    5  O3  UNL     1      -0.445  -0.529   1.567  1.00  0.00    -0.367 OA
HETATM    6  C7  UNL     1       0.035  -0.183   0.322  1.00  0.00     0.117 C 
HETATM    7  C8  UNL     1       0.341   1.274   0.330  1.00  0.00     0.019 C 
HETATM    8  C9  UNL     1      -0.697   2.091   0.462  1.00  0.00    -0.056 C 
HETATM    9  C10 UNL     1      -0.452   3.548   0.477  1.00  0.00     0.046 C 
HETATM   10  C11 UNL     1      -2.034   1.466   0.588  1.00  0.00     0.147 C 
HETATM   11  C12 UNL     1      -2.242   0.398  -0.429  1.00  0.00     0.053 C 
HETATM   12  C13 UNL     1      -1.038  -0.481  -0.688  1.00  0.00     0.015 C 
HETATM   13  C14 UNL     1      -0.599  -0.232  -2.106  1.00  0.00     0.023 C 
ENDROOT
BRANCH   1  14
HETATM   14  O2  UNL     1       2.352  -0.073  -0.384  1.00  0.00    -0.313 OA
BRANCH  14  15
HETATM   15  C2  UNL     1       3.158  -0.423  -1.467  1.00  0.00     0.255 C 
HETATM   16  C1  UNL     1       4.243   0.456  -1.965  1.00  0.00     0.126 C 
HETATM   17  O1  UNL     1       2.908  -1.537  -2.001  1.00  0.00    -0.266 OA
ENDBRANCH  14  15
ENDBRANCH   1  14
BRANCH  12  18
HETATM   18  C15 UNL     1      -1.483  -1.898  -0.613  1.00  0.00     0.010 C 
HETATM   19  C16 UNL     1      -2.487  -2.402  -1.273  1.00  0.00     0.128 C 
BRANCH  19  20
HETATM   20  O5  UNL     1      -3.228  -1.606  -2.118  1.00  0.00    -0.373 OA
ATOM     21  H5  UNL     1      -3.960  -1.973  -2.599  1.00  0.00     0.216 HD
ENDBRANCH  19  20
ENDBRANCH  12  18
BRANCH  10  22
HETATM   22  O4  UNL     1      -2.969   2.491   0.308  1.00  0.00    -0.391 OA
ATOM     23  H4  UNL     1      -3.826   2.090   0.389  1.00  0.00     0.210 HD
ENDBRANCH  10  22
TORSDOF 5
