REMARK  5 active torsions:
REMARK  status: ('A' for Active; 'I' for Inactive)
REMARK    1  A    between atoms: C2_2  and  O2_4 
REMARK    2  A    between atoms: O2_4  and  C3_5 
REMARK    3  A    between atoms: C5_7  and  O3_9 
REMARK    4  A    between atoms: C9_14  and  O4_16 
REMARK    5  A    between atoms: C13_20  and  O5_21 
ROOT
HETATM    1  C3  UNL     1      -1.229   0.036  -0.006  1.00  0.00     0.175 C 
HETATM    2  C4  UNL     1      -2.058  -1.183   0.230  1.00  0.00     0.085 C 
HETATM    3  C5  UNL     1      -1.713  -2.195  -0.868  1.00  0.00     0.109 C 
HETATM    4  C6  UNL     1      -2.336  -3.522  -0.584  1.00  0.00     0.058 C 
HETATM    5  S1  UNL     1       0.093  -2.406  -0.937  1.00  0.00    -0.094 SA
HETATM    6  C7  UNL     1       0.922  -1.002  -0.212  1.00  0.00     0.017 C 
HETATM    7  C8  UNL     1       2.197  -0.801  -0.496  1.00  0.00     0.027 C 
HETATM    8  C9  UNL     1       2.955   0.365   0.082  1.00  0.00     0.073 C 
HETATM    9  C10 UNL     1       4.348  -0.062   0.431  1.00  0.00     0.050 C 
HETATM   10  C11 UNL     1       2.204   0.971   1.235  1.00  0.00     0.045 C 
HETATM   11  C12 UNL     1       0.785   1.233   0.770  1.00  0.00     0.049 C 
HETATM   12  C13 UNL     1       0.110  -0.122   0.684  1.00  0.00     0.117 C 
ENDROOT
BRANCH   1  13
HETATM   13  O2  UNL     1      -1.873   1.236   0.370  1.00  0.00    -0.313 OA
BRANCH  13  14
HETATM   14  C2  UNL     1      -2.135   2.273  -0.523  1.00  0.00     0.255 C 
HETATM   15  C1  UNL     1      -2.807   3.521  -0.121  1.00  0.00     0.126 C 
HETATM   16  O1  UNL     1      -1.767   2.104  -1.724  1.00  0.00    -0.266 OA
ENDBRANCH  13  14
ENDBRANCH   1  13
BRANCH  12  17
HETATM   17  O5  UNL     1      -0.083  -0.680   1.931  1.00  0.00    -0.382 OA
ATOM     18  H5  UNL     1       0.757  -0.779   2.364  1.00  0.00     0.211 HD
ENDBRANCH  12  17
BRANCH   3  19
HETATM   19  O3  UNL     1      -2.195  -1.677  -2.063  1.00  0.00    -0.379 OA
ATOM     20  H3  UNL     1      -1.981  -2.304  -2.744  1.00  0.00     0.211 HD
ENDBRANCH   3  19
BRANCH   8  21
HETATM   21  O4  UNL     1       3.003   1.325  -0.931  1.00  0.00    -0.386 OA
ATOM     22  H4  UNL     1       3.481   2.060  -0.566  1.00  0.00     0.211 HD
ENDBRANCH   8  21
TORSDOF 5
