REMARK  5 active torsions:
REMARK  status: ('A' for Active; 'I' for Inactive)
REMARK       I    between atoms: C1_2  and  N1_3 
REMARK    1  A    between atoms: C1_2  and  C9_16 
REMARK    2  A    between atoms: N1_3  and  C2_5 
REMARK    3  A    between atoms: C5_8  and  C6_9 
REMARK    4  A    between atoms: C6_9  and  O2_10 
REMARK    5  A    between atoms: C8_13  and  O3_14 
ROOT
HETATM    1  C2  UNL     1      -1.218  -0.206  -0.090  1.00  0.00     0.113 C 
HETATM    2  C3  UNL     1      -1.696  -0.023  -1.513  1.00  0.00     0.028 C 
HETATM    3  C4  UNL     1      -2.860   0.931  -1.465  1.00  0.00     0.009 C 
HETATM    4  C5  UNL     1      -3.959   0.310  -0.663  1.00  0.00     0.012 C 
HETATM    5  C7  UNL     1      -3.533  -0.220   0.666  1.00  0.00     0.040 C 
HETATM    6  C8  UNL     1      -2.270  -1.033   0.625  1.00  0.00     0.141 C 
ENDROOT
BRANCH   1   7
HETATM    7  N1  UNL     1       0.095  -0.757   0.004  1.00  0.00    -0.354 N 
HETATM    8  C1  UNL     1       1.194  -0.089   0.632  1.00  0.00     0.222 C 
HETATM    9  O1  UNL     1       1.023   1.045   1.137  1.00  0.00    -0.273 OA
ATOM     10  H1  UNL     1       0.260  -1.679  -0.399  1.00  0.00     0.163 HD
BRANCH   8  11
HETATM   11  C9  UNL     1       2.533  -0.704   0.703  1.00  0.00     0.078 C 
HETATM   12  C10 UNL     1       3.113  -0.990  -0.659  1.00  0.00     0.014 C 
HETATM   13  C11 UNL     1       3.969   0.131  -1.183  1.00  0.00     0.001 C 
HETATM   14  C12 UNL     1       5.004   0.592  -0.192  1.00  0.00     0.000 C 
HETATM   15  C13 UNL     1       4.847  -0.080   1.152  1.00  0.00     0.001 C 
HETATM   16  C14 UNL     1       3.425   0.091   1.589  1.00  0.00     0.014 C 
ENDBRANCH   8  11
ENDBRANCH   1   7
BRANCH   6  17
HETATM   17  O3  UNL     1      -1.898  -1.351   1.916  1.00  0.00    -0.394 OA
ATOM     18  H3  UNL     1      -2.557  -1.869   2.364  1.00  0.00     0.210 HD
ENDBRANCH   6  17
BRANCH   4  19
HETATM   19  C6  UNL     1      -5.025   1.371  -0.446  1.00  0.00     0.168 C 
BRANCH  19  20
HETATM   20  O2  UNL     1      -5.538   1.831  -1.666  1.00  0.00    -0.400 OA
ATOM     21  H2  UNL     1      -6.204   2.494  -1.530  1.00  0.00     0.209 HD
ENDBRANCH  19  20
ENDBRANCH   4  19
TORSDOF 5
