REMARK  6 active torsions:
REMARK  status: ('A' for Active; 'I' for Inactive)
REMARK    1  A    between atoms: C2_2  and  C3_3 
REMARK    2  A    between atoms: C3_3  and  O1_4 
REMARK    3  A    between atoms: C7_9  and  C8_10 
REMARK    4  A    between atoms: C8_10  and  C9_11 
REMARK    5  A    between atoms: C12_14  and  O2_15 
REMARK    6  A    between atoms: C15_19  and  O3_20 
ROOT
HETATM    1  C3  UNL     1      -3.201  -0.215  -0.114  1.00  0.00     0.101 C 
HETATM    2  C4  UNL     1      -2.794   1.161  -0.548  1.00  0.00     0.045 C 
HETATM    3  C5  UNL     1      -1.400   1.533  -0.166  1.00  0.00     0.009 C 
HETATM    4  C6  UNL     1      -0.430   0.487  -0.663  1.00  0.00    -0.004 C 
HETATM    5  C7  UNL     1       0.727   0.230   0.311  1.00  0.00    -0.009 C 
HETATM    6  C13 UNL     1       0.453  -1.227   0.172  1.00  0.00     0.012 C 
HETATM    7  C14 UNL     1      -0.897  -0.907  -0.393  1.00  0.00     0.022 C 
HETATM    8  C15 UNL     1      -2.052  -0.961   0.570  1.00  0.00     0.161 C 
ENDROOT
BRANCH   5   9
HETATM    9  C8  UNL     1       2.002   0.739  -0.305  1.00  0.00     0.012 C 
BRANCH   9  10
HETATM   10  C9  UNL     1       3.207   0.544   0.553  1.00  0.00     0.015 C 
HETATM   11  C10 UNL     1       3.567  -0.848   0.934  1.00  0.00     0.010 C 
HETATM   12  C11 UNL     1       5.032  -0.437   0.713  1.00  0.00     0.032 C 
HETATM   13  C12 UNL     1       4.474   0.548  -0.314  1.00  0.00     0.122 C 
BRANCH  13  14
HETATM   14  O2  UNL     1       4.186  -0.065  -1.524  1.00  0.00    -0.395 OA
ATOM     15  H2  UNL     1       4.970  -0.063  -2.060  1.00  0.00     0.210 HD
ENDBRANCH  13  14
ENDBRANCH   9  10
ENDBRANCH   5   9
BRANCH   8  16
HETATM   16  O3  UNL     1      -1.765  -0.467   1.812  1.00  0.00    -0.392 OA
ATOM     17  H3  UNL     1      -1.052  -0.930   2.236  1.00  0.00     0.210 HD
ENDBRANCH   8  16
BRANCH   1  18
HETATM   18  C2  UNL     1      -4.426  -0.241   0.682  1.00  0.00     0.003 C 
HETATM   19  C1  UNL     1      -5.582   0.071   0.128  1.00  0.00     0.010 C 
ENDBRANCH   1  18
BRANCH   1  20
HETATM   20  O1  UNL     1      -3.456  -0.950  -1.296  1.00  0.00    -0.383 OA
ATOM     21  H1  UNL     1      -2.660  -0.933  -1.814  1.00  0.00     0.211 HD
ENDBRANCH   1  20
TORSDOF 6
