REMARK  3 active torsions:
REMARK  status: ('A' for Active; 'I' for Inactive)
REMARK    1  A    between atoms: C4_4  and  C5_5 
REMARK    2  A    between atoms: C9_11  and  O3_13 
REMARK    3  A    between atoms: C11_15  and  C13_17 
ROOT
HETATM    1  C1  UNL     1      -2.372  -0.497   1.491  1.00  0.00     0.011 C 
HETATM    2  C2  UNL     1      -1.138   0.016   0.778  1.00  0.00     0.002 C 
HETATM    3  C3  UNL     1       0.047  -0.860   1.125  1.00  0.00     0.029 C 
HETATM    4  C4  UNL     1       1.232  -0.664   0.253  1.00  0.00     0.079 C 
HETATM    5  C6  UNL     1       0.850  -0.934  -1.204  1.00  0.00     0.029 C 
HETATM    6  C7  UNL     1      -0.085   0.244  -1.441  1.00  0.00     0.009 C 
HETATM    7  C8  UNL     1       0.754   1.363  -0.867  1.00  0.00     0.044 C 
HETATM    8  C9  UNL     1       1.700   0.751   0.140  1.00  0.00     0.072 C 
HETATM    9  C10 UNL     1       1.767   1.495   1.425  1.00  0.00     0.047 C 
HETATM   10  C11 UNL     1      -1.387   0.036  -0.715  1.00  0.00     0.052 C 
HETATM   11  C12 UNL     1      -1.960  -1.282  -1.201  1.00  0.00     0.027 C 
ENDROOT
BRANCH  10  12
HETATM   12  C13 UNL     1      -2.349   1.107  -1.014  1.00  0.00     0.182 C 
HETATM   13  O4  UNL     1      -3.451   0.833  -1.610  1.00  0.00    -0.647 OA
HETATM   14  O5  UNL     1      -2.188   2.447  -0.707  1.00  0.00    -0.647 OA
ENDBRANCH  10  12
BRANCH   4  15
HETATM   15  C5  UNL     1       2.305  -1.581   0.650  1.00  0.00     0.184 C 
HETATM   16  O1  UNL     1       2.162  -2.383   1.596  1.00  0.00    -0.647 OA
HETATM   17  O2  UNL     1       3.505  -1.561  -0.038  1.00  0.00    -0.647 OA
ENDBRANCH   4  15
BRANCH   8  18
HETATM   18  O3  UNL     1       2.975   0.735  -0.423  1.00  0.00    -0.389 OA
ATOM     19  H3  UNL     1       3.272   1.634  -0.495  1.00  0.00     0.210 HD
ENDBRANCH   8  18
TORSDOF 3
