REMARK  5 active torsions:
REMARK  status: ('A' for Active; 'I' for Inactive)
REMARK    1  A    between atoms: C2_2  and  C3_3 
REMARK    2  A    between atoms: C3_3  and  C4_4 
REMARK    3  A    between atoms: C8_8  and  O1_9 
REMARK    4  A    between atoms: C9_11  and  O2_13 
REMARK    5  A    between atoms: C11_15  and  O3_16 
ROOT
HETATM    1  C4  UNL     1       1.604   0.231  -0.334  1.00  0.00     0.002 C 
HETATM    2  C5  UNL     1       0.847  -0.794  -1.090  1.00  0.00    -0.006 C 
HETATM    3  C6  UNL     1       1.178  -2.232  -0.900  1.00  0.00     0.011 C 
HETATM    4  C7  UNL     1      -0.346  -0.240  -0.377  1.00  0.00     0.030 C 
HETATM    5  C8  UNL     1      -1.524  -1.045  -0.097  1.00  0.00     0.160 C 
HETATM    6  C9  UNL     1      -2.693  -0.078   0.164  1.00  0.00     0.106 C 
HETATM    7  C10 UNL     1      -3.168   0.502  -1.126  1.00  0.00     0.051 C 
HETATM    8  C11 UNL     1      -2.356   0.920   1.216  1.00  0.00     0.154 C 
HETATM    9  C12 UNL     1      -1.343   1.934   0.859  1.00  0.00     0.035 C 
HETATM   10  C13 UNL     1       0.069   1.597   1.160  1.00  0.00     0.012 C 
HETATM   11  C14 UNL     1       0.512   0.223   0.718  1.00  0.00    -0.033 C 
HETATM   12  C15 UNL     1       0.883  -0.609   1.862  1.00  0.00     0.016 C 
ENDROOT
BRANCH   1  13
HETATM   13  C3  UNL     1       2.994  -0.043   0.085  1.00  0.00     0.032 C 
BRANCH  13  14
HETATM   14  C2  UNL     1       3.810  -0.292  -1.144  1.00  0.00    -0.036 C 
HETATM   15  C1  UNL     1       4.858   0.462  -1.460  1.00  0.00     0.007 C 
ENDBRANCH  13  14
ENDBRANCH   1  13
BRANCH   5  16
HETATM   16  O1  UNL     1      -1.498  -1.907   0.959  1.00  0.00    -0.392 OA
ATOM     17  H1  UNL     1      -2.268  -2.433   1.142  1.00  0.00     0.210 HD
ENDBRANCH   5  16
BRANCH   6  18
HETATM   18  O2  UNL     1      -3.733  -0.884   0.667  1.00  0.00    -0.385 OA
ATOM     19  H2  UNL     1      -4.454  -0.287   0.828  1.00  0.00     0.210 HD
ENDBRANCH   6  18
BRANCH   8  20
HETATM   20  O3  UNL     1      -3.551   1.583   1.548  1.00  0.00    -0.392 OA
ATOM     21  H3  UNL     1      -3.336   2.220   2.219  1.00  0.00     0.210 HD
ENDBRANCH   8  20
TORSDOF 5
