REMARK  4 active torsions:
REMARK  status: ('A' for Active; 'I' for Inactive)
REMARK       I    between atoms: N1_2  and  C2_4 
REMARK       I    between atoms: C2_4  and  N2_6 
REMARK    1  A    between atoms: N2_6  and  N3_8 
REMARK    2  A    between atoms: C3_10  and  C4_11 
REMARK    3  A    between atoms: C3_10  and  C11_18 
REMARK    4  A    between atoms: C4_11  and  C5_12 
REMARK       I    between atoms: C11_18  and  N4_20 
ROOT
HETATM    1  N3  UNL     1       1.449  -0.418  -1.181  1.00  0.00    -0.295 N 
ATOM      2  H3  UNL     1       1.173  -1.358  -1.464  1.00  0.00     0.187 HD
HETATM    3  C3  UNL     1       0.473   0.400  -1.222  1.00  0.00     0.093 C 
ENDROOT
BRANCH   3   4
HETATM    4  C4  UNL     1      -0.825  -0.206  -1.670  1.00  0.00     0.069 C 
BRANCH   4   5
HETATM    5  C5  UNL     1      -1.705  -0.714  -0.581  1.00  0.00    -0.009 C 
HETATM    6  C6  UNL     1      -2.143   0.290   0.409  1.00  0.00     0.005 C 
HETATM    7  C7  UNL     1      -3.051  -0.319   1.485  1.00  0.00     0.000 C 
HETATM    8  C8  UNL     1      -4.226  -1.026   0.899  1.00  0.00     0.000 C 
HETATM    9  C9  UNL     1      -4.193  -1.079  -0.602  1.00  0.00     0.000 C 
HETATM   10  C10 UNL     1      -2.868  -1.515  -1.157  1.00  0.00     0.005 C 
ENDBRANCH   4   5
ENDBRANCH   3   4
BRANCH   3  11
HETATM   11  C11 UNL     1       0.562   1.787  -0.806  1.00  0.00     0.265 C 
HETATM   12  O2  UNL     1      -0.515   2.498  -0.956  1.00  0.00    -0.266 OA
HETATM   13  N4  UNL     1       1.676   2.447  -0.260  1.00  0.00    -0.360 N 
HETATM   14  C12 UNL     1       1.614   3.853   0.111  1.00  0.00     0.149 C 
ATOM     15  H4  UNL     1       2.545   1.931  -0.121  1.00  0.00     0.162 HD
ENDBRANCH   3  11
BRANCH   1  16
HETATM   16  N2  UNL     1       2.754  -0.351  -0.857  1.00  0.00    -0.251 N 
HETATM   17  C2  UNL     1       3.353  -1.023   0.258  1.00  0.00     0.334 C 
HETATM   18  N1  UNL     1       4.711  -0.950   0.590  1.00  0.00    -0.346 N 
HETATM   19  O1  UNL     1       2.591  -1.722   0.975  1.00  0.00    -0.246 OA
HETATM   20  C1  UNL     1       5.288  -1.640   1.721  1.00  0.00     0.151 C 
ATOM     21  H1  UNL     1       5.323  -0.382   0.005  1.00  0.00     0.163 HD
ATOM     22  H2  UNL     1       3.360   0.219  -1.447  1.00  0.00     0.191 HD
ENDBRANCH   1  16
TORSDOF 4
