REMARK  4 active torsions:
REMARK  status: ('A' for Active; 'I' for Inactive)
REMARK    1  A    between atoms: C2_2  and  C4_10 
REMARK    2  A    between atoms: N1_3  and  N2_5 
REMARK    3  A    between atoms: N2_5  and  C3_7 
REMARK       I    between atoms: C4_10  and  N3_12 
REMARK    4  A    between atoms: N3_12  and  C5_14 
ROOT
HETATM    1  C4  UNL     1       1.014   0.311  -1.100  1.00  0.00     0.265 C 
HETATM    2  O1  UNL     1       0.881   1.124  -2.048  1.00  0.00    -0.266 OA
HETATM    3  N3  UNL     1      -0.112  -0.066  -0.281  1.00  0.00    -0.351 N 
ATOM      4  H3  UNL     1       0.026  -0.728   0.483  1.00  0.00     0.163 HD
ENDROOT
BRANCH   1   5
HETATM    5  C2  UNL     1       2.339  -0.235  -0.856  1.00  0.00     0.089 C 
HETATM    6  C1  UNL     1       3.492   0.158  -1.703  1.00  0.00     0.076 C 
HETATM    7  N1  UNL     1       2.574  -1.076   0.094  1.00  0.00    -0.298 N 
ATOM      8  H1  UNL     1       1.795  -1.360   0.688  1.00  0.00     0.186 HD
BRANCH   7   9
HETATM    9  N2  UNL     1       3.821  -1.614   0.353  1.00  0.00    -0.284 N 
ATOM     10  H2  UNL     1       4.113  -2.425  -0.192  1.00  0.00     0.188 HD
BRANCH   9  11
HETATM   11  C3  UNL     1       4.719  -1.112   1.326  1.00  0.00     0.164 C 
HETATM   12  S1  UNL     1       6.161  -1.793   1.572  1.00  0.00    -0.050 SA
HETATM   13  S2  UNL     1       4.262   0.306   2.311  1.00  0.00    -0.019 SA
ENDBRANCH   9  11
ENDBRANCH   7   9
ENDBRANCH   1   5
BRANCH   3  14
HETATM   14  C5  UNL     1      -1.435   0.476  -0.520  1.00  0.00     0.084 C 
HETATM   15  C6  UNL     1      -2.428  -0.594  -0.821  1.00  0.00     0.025 C 
HETATM   16  C7  UNL     1      -3.825  -0.341  -0.403  1.00  0.00     0.002 C 
HETATM   17  C8  UNL     1      -3.997   0.365   0.901  1.00  0.00     0.000 C 
HETATM   18  C9  UNL     1      -2.683   0.545   1.635  1.00  0.00     0.002 C 
HETATM   19  C10 UNL     1      -1.792   1.325   0.672  1.00  0.00     0.025 C 
ENDBRANCH   3  14
TORSDOF 4
