REMARK  17 active torsions:
REMARK  status: ('A' for Active; 'I' for Inactive)
REMARK    1  A    between atoms: C3_7  and  N3_8 
REMARK    2  A    between atoms: N3_8  and  C4_10 
REMARK    3  A    between atoms: C4_10  and  N4_11 
REMARK    4  A    between atoms: C4_10  and  C11_35 
REMARK    5  A    between atoms: N4_11  and  O1_13 
REMARK    6  A    between atoms: O1_13  and  C5_14 
REMARK    7  A    between atoms: C5_14  and  C6_15 
REMARK    8  A    between atoms: C6_15  and  N5_16 
REMARK    9  A    between atoms: C6_15  and  N7_21 
REMARK   10  A    between atoms: N5_16  and  N6_18 
REMARK   11  A    between atoms: N7_21  and  C7_23 
REMARK   12  A    between atoms: C8_28  and  S1_29 
REMARK   13  A    between atoms: S1_29  and  C9_30 
REMARK   14  A    between atoms: C9_30  and  C10_31 
REMARK   15  A    between atoms: C14_38  and  O3_39 
REMARK   16  A    between atoms: C15_41  and  O4_42 
REMARK   17  A    between atoms: C17_45  and  O5_46 
ROOT
HETATM    1  C4  UNL     1      -2.298  -1.549   0.036  1.00  0.00     0.137 C 
ENDROOT
BRANCH   1   2
HETATM    2  N3  UNL     1      -2.552  -1.030  -1.232  1.00  0.00    -0.325 N 
ATOM      3  H3  UNL     1      -2.164  -1.532  -2.031  1.00  0.00     0.169 HD
BRANCH   2   4
HETATM    4  C3  UNL     1      -3.236   0.030  -1.476  1.00  0.00     0.147 C 
HETATM    5  N2  UNL     1      -3.421   0.454  -2.820  1.00  0.00    -0.284 N 
HETATM    6  N1  UNL     1      -3.729   1.781  -3.145  1.00  0.00    -0.288 N 
ATOM      7  H2  UNL     1      -3.326  -0.230  -3.571  1.00  0.00     0.188 HD
HETATM    8  C2  UNL     1      -3.843   2.634  -2.166  1.00  0.00     0.089 C 
ATOM      9  H1  UNL     1      -3.860   2.070  -4.114  1.00  0.00     0.188 HD
HETATM   10  C1  UNL     1      -4.169   4.071  -2.419  1.00  0.00     0.090 C 
HETATM   11  N11 UNL     1      -3.666   2.244  -0.812  1.00  0.00    -0.347 N 
HETATM   12  C17 UNL     1      -3.865   0.866  -0.411  1.00  0.00     0.289 C 
ATOM     13  H11 UNL     1      -3.397   2.940  -0.116  1.00  0.00     0.163 HD
BRANCH  12  14
HETATM   14  O5  UNL     1      -5.257   0.639  -0.497  1.00  0.00    -0.369 OA
ATOM     15  H5  UNL     1      -5.657   1.171   0.181  1.00  0.00     0.212 HD
ENDBRANCH  12  14
ENDBRANCH   2   4
ENDBRANCH   1   2
BRANCH   1  16
HETATM   16  N4  UNL     1      -1.202  -1.318   0.662  1.00  0.00    -0.249 N 
ATOM     17  H4  UNL     1      -1.085  -1.730   1.588  1.00  0.00     0.196 HD
BRANCH  16  18
HETATM   18  O1  UNL     1      -0.187  -0.559   0.170  1.00  0.00    -0.271 OA
BRANCH  18  19
HETATM   19  C5  UNL     1       1.079  -1.032  -0.221  1.00  0.00     0.279 C 
BRANCH  19  20
HETATM   20  C6  UNL     1       1.859   0.166  -0.695  1.00  0.00     0.124 C 
BRANCH  20  21
HETATM   21  N5  UNL     1       2.297   0.226  -1.896  1.00  0.00    -0.294 N 
ATOM     22  H5  UNL     1       2.818   1.061  -2.162  1.00  0.00     0.187 HD
BRANCH  21  23
HETATM   23  N6  UNL     1       2.123  -0.745  -2.860  1.00  0.00    -0.344 N 
ATOM     24  H62 UNL     1       1.600  -1.573  -2.576  1.00  0.00     0.176 HD
ATOM     25  H61 UNL     1       2.472  -0.697  -3.817  1.00  0.00     0.176 HD
ENDBRANCH  21  23
ENDBRANCH  20  21
BRANCH  20  26
HETATM   26  N7  UNL     1       2.123   1.253   0.174  1.00  0.00    -0.322 N 
ATOM     27  H7  UNL     1       1.365   1.859   0.488  1.00  0.00     0.169 HD
BRANCH  26  28
HETATM   28  C7  UNL     1       3.354   1.470   0.570  1.00  0.00     0.167 A 
HETATM   29  N8  UNL     1       4.451   0.774   0.253  1.00  0.00    -0.278 N 
HETATM   30  N9  UNL     1       5.566   1.143   0.740  1.00  0.00    -0.286 N 
ATOM     31  H8  UNL     1       4.394  -0.035  -0.366  1.00  0.00     0.189 HD
HETATM   32  C8  UNL     1       5.628   2.195   1.541  1.00  0.00     0.130 A 
ATOM     33  H9  UNL     1       6.416   0.627   0.513  1.00  0.00     0.188 HD
HETATM   34  S2  UNL     1       3.990   2.677   1.596  1.00  0.00    -0.026 SA
BRANCH  32  35
HETATM   35  S1  UNL     1       7.089   2.899   2.343  1.00  0.00    -0.095 SA
BRANCH  35  36
HETATM   36  C9  UNL     1       8.509   1.902   1.856  1.00  0.00     0.180 C 
BRANCH  36  37
HETATM   37  C10 UNL     1       8.763   2.051   0.400  1.00  0.00     0.240 C 
HETATM   38  N10 UNL     1       9.833   1.372  -0.255  1.00  0.00    -0.061 NA
HETATM   39  O2  UNL     1       8.017   2.797  -0.280  1.00  0.00    -0.276 OA
ENDBRANCH  36  37
ENDBRANCH  35  36
ENDBRANCH  32  35
ENDBRANCH  26  28
ENDBRANCH  20  26
ENDBRANCH  19  20
ENDBRANCH  18  19
ENDBRANCH  16  18
ENDBRANCH   1  16
BRANCH   1  40
HETATM   40  C11 UNL     1      -3.297  -2.379   0.686  1.00  0.00     0.013 A 
HETATM   41  C12 UNL     1      -4.369  -2.871  -0.046  1.00  0.00     0.018 A 
HETATM   42  C13 UNL     1      -5.298  -3.650   0.591  1.00  0.00     0.040 A 
HETATM   43  C14 UNL     1      -5.232  -3.977   1.923  1.00  0.00     0.098 A 
HETATM   44  C15 UNL     1      -4.147  -3.472   2.637  1.00  0.00     0.099 A 
HETATM   45  C16 UNL     1      -3.208  -2.690   2.014  1.00  0.00     0.054 A 
BRANCH  43  46
HETATM   46  O3  UNL     1      -6.165  -4.764   2.577  1.00  0.00    -0.358 OA
ATOM     47  H3  UNL     1      -6.119  -4.990   3.499  1.00  0.00     0.217 HD
ENDBRANCH  43  46
BRANCH  44  48
HETATM   48  O4  UNL     1      -4.045  -3.784   3.999  1.00  0.00    -0.358 OA
ATOM     49  H4  UNL     1      -3.305  -3.440   4.486  1.00  0.00     0.217 HD
ENDBRANCH  44  48
ENDBRANCH   1  40
TORSDOF 17
