REMARK  13 active torsions:
REMARK  status: ('A' for Active; 'I' for Inactive)
REMARK    1  A    between atoms: C2_2  and  O1_3 
REMARK    2  A    between atoms: C2_2  and  C3_5 
REMARK    3  A    between atoms: C3_5  and  O2_6 
REMARK    4  A    between atoms: C3_5  and  C4_8 
REMARK    5  A    between atoms: C4_8  and  C5_10 
REMARK    6  A    between atoms: C5_10  and  C8_13 
REMARK    7  A    between atoms: C8_13  and  C9_14 
REMARK    8  A    between atoms: C8_13  and  N9_37 
REMARK    9  A    between atoms: C9_14  and  C10_15 
REMARK   10  A    between atoms: C12_21  and  N3_22 
REMARK   11  A    between atoms: C14_26  and  N4_27 
REMARK   12  A    between atoms: C19_44  and  N12_45 
REMARK   13  A    between atoms: C20_50  and  N14_51 
ROOT
HETATM    1  C8  UNL     1       1.025  -0.061  -0.575  1.00  0.00     0.113 C 
ENDROOT
BRANCH   1   2
HETATM    2  C5  UNL     1       2.435  -0.478  -0.713  1.00  0.00     0.037 C 
HETATM    3  C6  UNL     1       3.428   0.696  -0.669  1.00  0.00     0.025 C 
HETATM    4  C7  UNL     1       2.945  -1.376   0.423  1.00  0.00     0.025 C 
BRANCH   2   5
HETATM    5  C4  UNL     1       2.745  -1.180  -1.982  1.00  0.00     0.167 C 
HETATM    6  O3  UNL     1       1.921  -1.083  -2.879  1.00  0.00    -0.294 OA
BRANCH   5   7
HETATM    7  C3  UNL     1       3.948  -1.977  -2.289  1.00  0.00     0.216 C 
BRANCH   7   8
HETATM    8  C2  UNL     1       3.752  -3.449  -1.894  1.00  0.00     0.150 C 
HETATM    9  C1  UNL     1       4.933  -4.199  -2.493  1.00  0.00     0.042 C 
BRANCH   8  10
HETATM   10  O1  UNL     1       2.596  -3.905  -2.570  1.00  0.00    -0.393 OA
ATOM     11  H1  UNL     1       1.859  -3.437  -2.196  1.00  0.00     0.210 HD
ENDBRANCH   8  10
ENDBRANCH   7   8
BRANCH   7  12
HETATM   12  O2  UNL     1       4.098  -2.088  -3.714  1.00  0.00    -0.385 OA
ATOM     13  H2  UNL     1       4.219  -1.178  -3.958  1.00  0.00     0.210 HD
ENDBRANCH   7  12
ENDBRANCH   5   7
ENDBRANCH   2   5
ENDBRANCH   1   2
BRANCH   1  14
HETATM   14  C9  UNL     1       0.046  -1.252  -0.603  1.00  0.00     0.105 C 
BRANCH  14  15
HETATM   15  C10 UNL     1      -1.365  -0.795  -0.477  1.00  0.00     0.115 A 
HETATM   16  N1  UNL     1      -2.126  -0.474  -1.535  1.00  0.00    -0.177 N 
HETATM   17  C11 UNL     1      -3.329  -0.117  -1.073  1.00  0.00     0.708 A 
ATOM     18  H1  UNL     1      -1.839  -0.498  -2.513  1.00  0.00     0.185 HD
HETATM   19  N2  UNL     1      -4.482   0.298  -1.680  1.00  0.00    -0.175 N 
HETATM   20  N7  UNL     1      -3.319  -0.215   0.263  1.00  0.00    -0.066 N 
HETATM   21  C12 UNL     1      -5.590   0.608  -0.992  1.00  0.00     0.118 A 
ATOM     22  H2  UNL     1      -4.500   0.375  -2.697  1.00  0.00     0.186 HD
HETATM   23  C13 UNL     1      -5.530   0.491   0.396  1.00  0.00     0.101 A 
HETATM   24  C14 UNL     1      -4.384   0.075   1.034  1.00  0.00     0.171 A 
HETATM   25  N8  UNL     1      -2.132  -0.623   0.607  1.00  0.00    -0.266 N 
ATOM     26  H8  UNL     1      -1.829  -0.788   1.567  1.00  0.00     0.189 HD
BRANCH  21  27
HETATM   27  N3  UNL     1      -6.646   0.992  -1.600  1.00  0.00    -0.385 N 
ATOM     28  H32 UNL     1      -6.690   1.078  -2.615  1.00  0.00     0.157 HD
ATOM     29  H31 UNL     1      -7.489   1.228  -1.077  1.00  0.00     0.157 HD
ENDBRANCH  21  27
BRANCH  24  30
HETATM   30  N4  UNL     1      -4.338  -0.039   2.449  1.00  0.00    -0.233 N 
HETATM   31  C15 UNL     1      -5.326   0.281   3.301  1.00  0.00     0.138 A 
HETATM   32  C16 UNL     1      -4.941   0.044   4.601  1.00  0.00     0.128 A 
HETATM   33  N5  UNL     1      -3.673  -0.434   4.490  1.00  0.00    -0.296 N 
HETATM   34  N6  UNL     1      -3.346  -0.471   3.204  1.00  0.00    -0.235 N 
ATOM     35  H5  UNL     1      -3.073  -0.717   5.265  1.00  0.00     0.187 HD
ATOM     36  H6  UNL     1      -2.446  -0.791   2.846  1.00  0.00     0.209 HD
ENDBRANCH  24  30
ENDBRANCH  14  15
ENDBRANCH   1  14
BRANCH   1  37
HETATM   37  N9  UNL     1       0.760   0.643   0.623  1.00  0.00    -0.331 N 
HETATM   38  C17 UNL     1       0.721   0.065   1.840  1.00  0.00     0.185 A 
HETATM   39  N10 UNL     1       0.453   0.935   2.791  1.00  0.00    -0.336 N 
HETATM   40  C18 UNL     1       0.305   2.125   2.215  1.00  0.00     0.152 A 
ATOM     41  H10 UNL     1       0.373   0.733   3.788  1.00  0.00     0.168 HD
HETATM   42  N11 UNL     1       0.019   3.344   2.722  1.00  0.00    -0.174 N 
HETATM   43  C21 UNL     1       0.495   1.944   0.863  1.00  0.00     0.125 A 
HETATM   44  C19 UNL     1      -0.079   4.388   1.888  1.00  0.00     0.679 A 
ATOM     45  H11 UNL     1      -0.120   3.468   3.725  1.00  0.00     0.186 HD
HETATM   46  N13 UNL     1       0.099   4.246   0.564  1.00  0.00    -0.175 N 
HETATM   47  C20 UNL     1       0.390   3.012   0.045  1.00  0.00     0.145 A 
ATOM     48  H13 UNL     1       0.018   5.054  -0.053  1.00  0.00     0.186 HD
BRANCH  44  49
HETATM   49  N12 UNL     1      -0.355   5.536   2.427  1.00  0.00    -0.234 N 
ATOM     50 2H12 UNL     1      -0.490   5.644   3.432  1.00  0.00     0.174 HD
ATOM     51 1H12 UNL     1      -0.430   6.331   1.792  1.00  0.00     0.174 HD
ENDBRANCH  44  49
BRANCH  47  52
HETATM   52  N14 UNL     1       0.533   2.936  -1.207  1.00  0.00    -0.383 N 
ATOM     53 2H14 UNL     1       0.454   3.743  -1.825  1.00  0.00     0.157 HD
ATOM     54 1H14 UNL     1       0.750   2.017  -1.593  1.00  0.00     0.157 HD
ENDBRANCH  47  52
ENDBRANCH   1  37
TORSDOF 13
