REMARK  5 active torsions:
REMARK  status: ('A' for Active; 'I' for Inactive)
REMARK    1  A    between atoms: N1_1  and  C1_4 
REMARK    2  A    between atoms: C3_6  and  C4_7 
REMARK    3  A    between atoms: C4_7  and  C5_8 
REMARK    4  A    between atoms: C5_8  and  C6_9 
REMARK    5  A    between atoms: C6_9  and  C7_10 
ROOT
HETATM    1  C1  UNL     1      -3.001  -1.187   0.074  1.00  0.00     0.042 A 
HETATM    2  C2  UNL     1      -1.782  -1.852  -0.049  1.00  0.00     0.055 A 
HETATM    3  C3  UNL     1      -0.586  -1.167  -0.019  1.00  0.00     0.011 A 
HETATM    4  N2  UNL     1      -0.658   0.163   0.134  1.00  0.00    -0.359 N 
ATOM      5  H2  UNL     1       0.218   0.685   0.158  1.00  0.00     0.166 HD
HETATM    6  C11 UNL     1      -1.810   0.862   0.259  1.00  0.00     0.046 A 
HETATM    7  C12 UNL     1      -1.790   2.244   0.415  1.00  0.00     0.030 A 
HETATM    8  C13 UNL     1      -2.950   2.962   0.542  1.00  0.00     0.004 A 
HETATM    9  C14 UNL     1      -4.148   2.286   0.513  1.00  0.00     0.027 A 
HETATM   10  C15 UNL     1      -4.168   0.904   0.357  1.00  0.00     0.061 A 
HETATM   11  N3  UNL     1      -5.388   0.192   0.325  1.00  0.00    -0.101 NA
HETATM   12  C16 UNL     1      -3.003   0.179   0.229  1.00  0.00     0.041 A 
ENDROOT
BRANCH   3  13
HETATM   13  C4  UNL     1       0.727  -1.873  -0.151  1.00  0.00     0.057 C 
BRANCH  13  14
HETATM   14  C5  UNL     1       1.823  -0.859  -0.079  1.00  0.00     0.012 C 
BRANCH  14  15
HETATM   15  C6  UNL     1       3.184  -1.491  -0.205  1.00  0.00     0.065 C 
BRANCH  15  16
HETATM   16  C7  UNL     1       4.219  -0.408  -0.123  1.00  0.00     0.052 A 
HETATM   17  C8  UNL     1       4.714   0.287  -1.210  1.00  0.00     0.034 A 
HETATM   18  C9  UNL     1       5.637   1.188  -0.723  1.00  0.00     0.027 A 
HETATM   19  C10 UNL     1       5.650   0.988   0.641  1.00  0.00     0.142 A 
HETATM   20  O1  UNL     1       4.806   0.046   0.945  1.00  0.00    -0.327 OA
ENDBRANCH  15  16
ENDBRANCH  14  15
ENDBRANCH  13  14
ENDBRANCH   3  13
BRANCH   1  21
HETATM   21  N1  UNL     1      -4.125  -1.824   0.047  1.00  0.00    -0.398 N 
ATOM     22  H12 UNL     1      -4.124  -2.837  -0.068  1.00  0.00     0.156 HD
ATOM     23  H11 UNL     1      -5.017  -1.337   0.137  1.00  0.00     0.156 HD
ENDBRANCH   1  21
TORSDOF 5
