REMARK  4 active torsions:
REMARK  status: ('A' for Active; 'I' for Inactive)
REMARK    1  A    between atoms: C4_4  and  C5_5 
REMARK    2  A    between atoms: C5_5  and  N1_6 
REMARK    3  A    between atoms: N1_6  and  C6_8 
REMARK    4  A    between atoms: C10_12  and  C11_13 
ROOT
HETATM    1  C6  UNL     1      -0.510  -0.821   0.272  1.00  0.00     0.029 A 
HETATM    2  C7  UNL     1      -0.531  -2.081   0.832  1.00  0.00     0.029 A 
HETATM    3  C8  UNL     1       0.648  -2.766   1.048  1.00  0.00     0.003 A 
HETATM    4  C9  UNL     1       1.888  -2.243   0.725  1.00  0.00     0.015 A 
HETATM    5  C10 UNL     1       1.903  -0.986   0.167  1.00  0.00     0.009 A 
HETATM    6  C15 UNL     1       0.714  -0.281  -0.058  1.00  0.00     0.044 A 
ENDROOT
BRANCH   1   7
HETATM    7  N1  UNL     1      -1.720  -0.110   0.046  1.00  0.00    -0.386 N 
ATOM      8  H1  UNL     1      -1.678   0.820  -0.370  1.00  0.00     0.160 HD
BRANCH   7   9
HETATM    9  C5  UNL     1      -3.006  -0.667   0.388  1.00  0.00     0.158 C 
BRANCH   9  10
HETATM   10  C4  UNL     1      -4.086   0.287   0.034  1.00  0.00    -0.041 A 
HETATM   11  C3  UNL     1      -5.179   0.470   0.845  1.00  0.00     0.009 A 
HETATM   12  C2  UNL     1      -6.152   1.369   0.462  1.00  0.00     0.001 A 
HETATM   13  C1  UNL     1      -6.091   2.104  -0.699  1.00  0.00     0.000 A 
HETATM   14  C17 UNL     1      -4.973   1.894  -1.495  1.00  0.00     0.001 A 
HETATM   15  C16 UNL     1      -3.983   0.998  -1.134  1.00  0.00     0.009 A 
ENDBRANCH   9  10
ENDBRANCH   7   9
ENDBRANCH   1   7
BRANCH   5  16
HETATM   16  C11 UNL     1       3.165  -0.362  -0.204  1.00  0.00     0.107 C 
HETATM   17  N2  UNL     1       3.188   0.833  -0.733  1.00  0.00    -0.376 N 
HETATM   18  C12 UNL     1       4.462   1.417  -1.087  1.00  0.00     0.123 C 
ATOM     19  H2  UNL     1       2.321   1.345  -0.893  1.00  0.00     0.161 HD
HETATM   20  C13 UNL     1       5.436   1.163   0.029  1.00  0.00     0.039 C 
HETATM   21  C14 UNL     1       5.598  -0.287   0.351  1.00  0.00     0.123 C 
HETATM   22  N3  UNL     1       4.390  -1.052   0.008  1.00  0.00    -0.376 N 
ATOM     23  H3  UNL     1       4.430  -2.068  -0.077  1.00  0.00     0.161 HD
ENDBRANCH   5  16
TORSDOF 4
