REMARK  5 active torsions:
REMARK  status: ('A' for Active; 'I' for Inactive)
REMARK    1  A    between atoms: N1_1  and  C1_4 
REMARK    2  A    between atoms: C3_8  and  C4_9 
REMARK    3  A    between atoms: C8_15  and  S1_16 
REMARK    4  A    between atoms: S1_16  and  C9_17 
REMARK    5  A    between atoms: C9_17  and  C10_18 
ROOT
HETATM    1  C1  UNL     1       2.355   2.284  -1.173  1.00  0.00     0.128 A 
HETATM    2  N2  UNL     1       3.422   1.485  -1.089  1.00  0.00    -0.350 N 
ATOM      3  H2  UNL     1       4.287   1.769  -1.550  1.00  0.00     0.166 HD
HETATM    4  C2  UNL     1       3.397   0.315  -0.416  1.00  0.00     0.099 A 
HETATM    5  C3  UNL     1       2.285  -0.150   0.234  1.00  0.00    -0.009 A 
HETATM    6  C7  UNL     1       1.164   0.682   0.150  1.00  0.00     0.073 A 
HETATM    7  N3  UNL     1      -0.065   0.531   0.666  1.00  0.00    -0.334 N 
ATOM      8  H3  UNL     1      -0.395  -0.254   1.227  1.00  0.00     0.168 HD
HETATM    9  C8  UNL     1      -0.777   1.609   0.304  1.00  0.00     0.145 A 
HETATM   10  N4  UNL     1      -0.038   2.447  -0.432  1.00  0.00    -0.332 N 
ATOM     11  H4  UNL     1      -0.336   3.336  -0.834  1.00  0.00     0.168 HD
HETATM   12  C13 UNL     1       1.189   1.874  -0.536  1.00  0.00     0.105 A 
ENDROOT
BRANCH   9  13
HETATM   13  S1  UNL     1      -2.486   1.951   0.714  1.00  0.00    -0.093 SA
BRANCH  13  14
HETATM   14  C9  UNL     1      -3.592   1.263  -0.529  1.00  0.00     0.087 C 
BRANCH  14  15
HETATM   15  C10 UNL     1      -3.488  -0.263  -0.470  1.00  0.00    -0.005 A 
HETATM   16  C11 UNL     1      -3.851  -0.890   0.831  1.00  0.00     0.006 A 
HETATM   17  C12 UNL     1      -4.757  -1.014  -0.354  1.00  0.00     0.006 A 
ENDBRANCH  14  15
ENDBRANCH  13  14
ENDBRANCH   9  13
BRANCH   5  18
HETATM   18  C4  UNL     1       2.197  -1.419   0.980  1.00  0.00     0.022 A 
HETATM   19  C5  UNL     1       3.441  -2.251   1.239  1.00  0.00     0.010 A 
HETATM   20  C6  UNL     1       2.408  -2.717   0.288  1.00  0.00     0.010 A 
ENDBRANCH   5  18
BRANCH   1  21
HETATM   21  N1  UNL     1       2.368   3.407  -1.811  1.00  0.00    -0.384 N 
ATOM     22  H12 UNL     1       3.223   3.708  -2.278  1.00  0.00     0.157 HD
ATOM     23  H11 UNL     1       1.553   4.017  -1.875  1.00  0.00     0.157 HD
ENDBRANCH   1  21
TORSDOF 5
