REMARK  4 active torsions:
REMARK  status: ('A' for Active; 'I' for Inactive)
REMARK    1  A    between atoms: C4_5  and  C5_6 
REMARK    2  A    between atoms: C5_6  and  C6_7 
REMARK    3  A    between atoms: C6_7  and  O1_8 
REMARK    4  A    between atoms: O1_8  and  C7_9 
ROOT
HETATM    1  C7  UNL     1      -1.712  -1.269  -0.310  1.00  0.00     0.111 A 
HETATM    2  C8  UNL     1      -2.723  -2.101   0.205  1.00  0.00     0.081 A 
HETATM    3  N2  UNL     1      -2.335  -3.359   0.799  1.00  0.00    -0.099 NA
HETATM    4  C9  UNL     1      -4.041  -1.743   0.148  1.00  0.00     0.032 A 
HETATM    5  C10 UNL     1      -4.390  -0.545  -0.426  1.00  0.00     0.032 A 
HETATM    6  C11 UNL     1      -3.406   0.288  -0.943  1.00  0.00     0.045 A 
HETATM    7  N3  UNL     1      -3.439   1.468  -1.576  1.00  0.00    -0.365 N 
ATOM      8  H3  UNL     1      -4.290   1.996  -1.770  1.00  0.00     0.165 HD
HETATM    9  C12 UNL     1      -2.207   1.862  -1.920  1.00  0.00     0.089 A 
HETATM   10  C13 UNL     1      -1.319   0.917  -1.503  1.00  0.00     0.034 A 
HETATM   11  C14 UNL     1      -2.062  -0.076  -0.885  1.00  0.00     0.028 A 
ENDROOT
BRANCH   1  12
HETATM   12  O1  UNL     1      -0.441  -1.756  -0.187  1.00  0.00    -0.320 OA
BRANCH  12  13
HETATM   13  C6  UNL     1       0.442  -1.829   0.844  1.00  0.00     0.143 C 
BRANCH  13  14
HETATM   14  C5  UNL     1       1.040  -0.760   1.618  1.00  0.00     0.036 C 
BRANCH  14  15
HETATM   15  C4  UNL     1       1.947   0.211   1.024  1.00  0.00    -0.034 A 
HETATM   16  C3  UNL     1       1.664   1.494   0.635  1.00  0.00     0.013 A 
HETATM   17  C2  UNL     1       2.582   2.359   0.074  1.00  0.00     0.027 A 
HETATM   18  C1  UNL     1       3.885   1.960  -0.134  1.00  0.00     0.046 A 
HETATM   19  N1  UNL     1       4.831   2.844  -0.710  1.00  0.00    -0.102 NA
HETATM   20  C16 UNL     1       4.191   0.674   0.250  1.00  0.00     0.027 A 
HETATM   21  C15 UNL     1       3.278  -0.183   0.807  1.00  0.00     0.013 A 
ENDBRANCH  14  15
ENDBRANCH  13  14
ENDBRANCH  12  13
ENDBRANCH   1  12
TORSDOF 4
