REMARK  4 active torsions:
REMARK  status: ('A' for Active; 'I' for Inactive)
REMARK    1  A    between atoms: C3_3  and  N1_4 
REMARK    2  A    between atoms: N1_4  and  C4_6 
REMARK    3  A    between atoms: C11_13  and  O1_14 
REMARK    4  A    between atoms: O1_14  and  C12_15 
ROOT
HETATM    1  C1  UNL     1      -4.502   4.159   0.899  1.00  0.00     0.014 C 
HETATM    2  C2  UNL     1      -4.510   2.980   0.600  1.00  0.00    -0.098 C 
HETATM    3  C3  UNL     1      -4.503   1.557   0.257  1.00  0.00     0.213 C 
ENDROOT
BRANCH   3   4
HETATM    4  N1  UNL     1      -3.123   1.050   0.231  1.00  0.00    -0.379 N 
ATOM      5  H1  UNL     1      -2.345   1.677   0.437  1.00  0.00     0.160 HD
BRANCH   4   6
HETATM    6  C4  UNL     1      -2.879  -0.284  -0.074  1.00  0.00     0.040 A 
HETATM    7  C5  UNL     1      -3.948  -1.138  -0.354  1.00  0.00     0.030 A 
HETATM    8  C6  UNL     1      -3.739  -2.465  -0.660  1.00  0.00     0.003 A 
HETATM    9  C7  UNL     1      -2.445  -2.939  -0.684  1.00  0.00     0.012 A 
HETATM   10  C8  UNL     1      -1.358  -2.140  -0.416  1.00  0.00    -0.024 A 
HETATM   11  C9  UNL     1      -0.080  -2.688  -0.459  1.00  0.00     0.015 A 
HETATM   12  C17 UNL     1      -1.594  -0.799  -0.108  1.00  0.00     0.003 A 
HETATM   13  C10 UNL     1       1.010  -1.889  -0.190  1.00  0.00     0.037 A 
HETATM   14  C11 UNL     1       0.801  -0.563   0.116  1.00  0.00     0.070 A 
HETATM   15  C16 UNL     1      -0.487  -0.024   0.156  1.00  0.00     0.051 A 
BRANCH  14  16
HETATM   16  O1  UNL     1       1.845   0.285   0.393  1.00  0.00    -0.344 OA
BRANCH  16  17
HETATM   17  C12 UNL     1       3.198   0.017   0.422  1.00  0.00     0.156 C 
HETATM   18  C13 UNL     1       3.980   0.927  -0.537  1.00  0.00     0.061 C 
HETATM   19  C14 UNL     1       5.243   1.293   0.169  1.00  0.00     0.235 C 
HETATM   20  N2  UNL     1       5.257   0.450   1.352  1.00  0.00    -0.073 N 
HETATM   21  C15 UNL     1       3.857   0.404   1.742  1.00  0.00     0.264 C 
ATOM     22  H22 UNL     1       5.691  -0.463   1.218  1.00  0.00     0.277 HD
ATOM     23  H21 UNL     1       5.893   0.760   2.087  1.00  0.00     0.277 HD
ENDBRANCH  16  17
ENDBRANCH  14  16
ENDBRANCH   4   6
ENDBRANCH   3   4
TORSDOF 4
