REMARK  4 active torsions:
REMARK  status: ('A' for Active; 'I' for Inactive)
REMARK    1  A    between atoms: N2_6  and  C3_8 
REMARK    2  A    between atoms: C6_11  and  S1_12 
REMARK    3  A    between atoms: S1_12  and  C7_15 
REMARK    4  A    between atoms: C18_32  and  C19_33 
ROOT
HETATM    1  C3  UNL     1      -0.116  -0.036   1.846  1.00  0.00     0.034 A 
HETATM    2  C4  UNL     1      -0.816  -0.889   2.683  1.00  0.00     0.031 A 
HETATM    3  C5  UNL     1      -2.138  -0.596   2.933  1.00  0.00     0.026 A 
HETATM    4  C6  UNL     1      -2.771   0.498   2.386  1.00  0.00     0.064 A 
HETATM    5  C15 UNL     1      -2.045   1.323   1.559  1.00  0.00     0.026 A 
HETATM    6  C16 UNL     1      -0.703   1.074   1.272  1.00  0.00     0.031 A 
ENDROOT
BRANCH   1   7
HETATM    7  N2  UNL     1       1.226  -0.304   1.575  1.00  0.00    -0.337 N 
HETATM    8  C2  UNL     1       1.840  -0.282   0.466  1.00  0.00     0.152 C 
HETATM    9  N1  UNL     1       1.369   0.013  -0.823  1.00  0.00    -0.302 N 
HETATM   10  S2  UNL     1       3.575  -0.638   0.257  1.00  0.00    -0.048 SA
HETATM   11  C1  UNL     1       2.315   0.201  -1.813  1.00  0.00     0.264 C 
ATOM     12  H1  UNL     1       0.371   0.086  -1.021  1.00  0.00     0.171 HD
HETATM   13  O1  UNL     1       2.039   0.477  -3.037  1.00  0.00    -0.267 OA
HETATM   14  C17 UNL     1       3.704   0.071  -1.406  1.00  0.00     0.077 C 
HETATM   15  C18 UNL     1       4.804   0.363  -2.067  1.00  0.00     0.036 C 
ATOM     16  H2  UNL     1       1.794  -0.553   2.385  1.00  0.00     0.168 HD
BRANCH  15  17
HETATM   17  C19 UNL     1       6.131   0.178  -1.521  1.00  0.00    -0.032 A 
HETATM   18  C20 UNL     1       6.383   0.572  -0.228  1.00  0.00     0.014 A 
HETATM   19  C21 UNL     1       7.618   0.412   0.373  1.00  0.00     0.040 A 
HETATM   20  C22 UNL     1       8.640  -0.166  -0.355  1.00  0.00     0.105 A 
HETATM   21  C23 UNL     1       8.422  -0.576  -1.661  1.00  0.00     0.105 A 
HETATM   22  O6  UNL     1       9.957  -0.449  -0.021  1.00  0.00    -0.323 OA
HETATM   23  C24 UNL     1       7.160  -0.399  -2.236  1.00  0.00     0.051 A 
HETATM   24  O5  UNL     1       9.627  -1.106  -2.101  1.00  0.00    -0.323 OA
HETATM   25  C25 UNL     1      10.582  -1.172  -1.064  1.00  0.00     0.352 C 
ENDBRANCH  15  17
ENDBRANCH   1   7
BRANCH   4  26
HETATM   26  S1  UNL     1      -4.426   0.834   2.729  1.00  0.00     0.208 S 
HETATM   27  O2  UNL     1      -4.778   0.418   4.151  1.00  0.00    -0.217 OA
HETATM   28  O3  UNL     1      -4.751   2.305   2.608  1.00  0.00    -0.217 OA
BRANCH  26  29
HETATM   29  C7  UNL     1      -5.534  -0.006   1.672  1.00  0.00     0.080 A 
HETATM   30  C8  UNL     1      -6.060  -1.251   2.019  1.00  0.00     0.113 A 
HETATM   31  N3  UNL     1      -6.909  -1.888   1.196  1.00  0.00    -0.350 N 
HETATM   32  C9  UNL     1      -7.305  -1.394   0.016  1.00  0.00     0.118 A 
ATOM     33  H3  UNL     1      -7.271  -2.797   1.485  1.00  0.00     0.166 HD
HETATM   34  N4  UNL     1      -8.157  -2.024  -0.824  1.00  0.00    -0.309 N 
HETATM   35  C13 UNL     1      -6.810  -0.156  -0.377  1.00  0.00     0.010 A 
HETATM   36  C10 UNL     1      -8.552  -1.530  -2.007  1.00  0.00     0.246 A 
ATOM     37  H4  UNL     1      -8.523  -2.933  -0.540  1.00  0.00     0.170 HD
HETATM   38  O4  UNL     1      -9.342  -2.198  -2.700  1.00  0.00    -0.268 OA
HETATM   39  C11 UNL     1      -8.081  -0.290  -2.443  1.00  0.00     0.075 A 
HETATM   40  C12 UNL     1      -7.211   0.353  -1.585  1.00  0.00     0.021 A 
HETATM   41  C14 UNL     1      -5.930   0.519   0.461  1.00  0.00     0.040 A 
ENDBRANCH  26  29
ENDBRANCH   4  26
TORSDOF 4
