REMARK  9 active torsions:
REMARK  status: ('A' for Active; 'I' for Inactive)
REMARK    1  A    between atoms: N1_2  and  C3_4 
REMARK    2  A    between atoms: C3_4  and  O1_5 
REMARK    3  A    between atoms: C3_4  and  C4_7 
REMARK    4  A    between atoms: C4_7  and  C5_8 
REMARK    5  A    between atoms: C5_8  and  C6_9 
REMARK    6  A    between atoms: C9_12  and  O2_13 
REMARK    7  A    between atoms: C10_15  and  C11_16 
REMARK    8  A    between atoms: C15_25  and  N3_26 
REMARK    9  A    between atoms: N3_26  and  C16_28 
ROOT
HETATM    1  C11 UNL     1       0.809  -2.724   1.066  1.00  0.00     0.097 C 
HETATM    2  N2  UNL     1       0.230  -3.688   1.704  1.00  0.00    -0.273 N 
ATOM      3  H2  UNL     1       0.768  -4.235   2.376  1.00  0.00     0.179 HD
HETATM    4  S1  UNL     1      -1.430  -4.068   1.443  1.00  0.00     0.265 S 
HETATM    5  O3  UNL     1      -1.509  -4.823   0.142  1.00  0.00    -0.200 OA
HETATM    6  O4  UNL     1      -1.977  -4.960   2.505  1.00  0.00    -0.200 OA
HETATM    7  C12 UNL     1      -2.322  -2.598   1.277  1.00  0.00     0.097 A 
HETATM    8  C13 UNL     1      -3.599  -2.427   1.822  1.00  0.00     0.029 A 
HETATM    9  C14 UNL     1      -4.258  -1.230   1.649  1.00  0.00     0.031 A 
HETATM   10  C15 UNL     1      -3.706  -0.175   0.953  1.00  0.00     0.035 A 
HETATM   11  C22 UNL     1      -2.447  -0.341   0.415  1.00  0.00     0.050 A 
HETATM   12  C23 UNL     1      -1.773  -1.543   0.582  1.00  0.00     0.032 A 
HETATM   13  S2  UNL     1      -0.121  -1.734  -0.128  1.00  0.00    -0.070 SA
ENDROOT
BRANCH   1  14
HETATM   14  C10 UNL     1       2.212  -2.432   1.312  1.00  0.00     0.032 A 
HETATM   15  C9  UNL     1       2.941  -3.168   2.217  1.00  0.00     0.078 A 
HETATM   16  C8  UNL     1       4.268  -2.922   2.475  1.00  0.00     0.038 A 
HETATM   17  C7  UNL     1       4.860  -1.892   1.784  1.00  0.00     0.014 A 
HETATM   18  C6  UNL     1       4.164  -1.122   0.860  1.00  0.00    -0.035 A 
HETATM   19  C24 UNL     1       2.844  -1.395   0.628  1.00  0.00     0.028 A 
BRANCH  15  20
HETATM   20  O2  UNL     1       2.314  -4.208   2.904  1.00  0.00    -0.360 OA
ATOM     21  H2  UNL     1       1.397  -4.378   2.726  1.00  0.00     0.217 HD
ENDBRANCH  15  20
BRANCH  18  22
HETATM   22  C5  UNL     1       4.912  -0.049   0.187  1.00  0.00     0.015 C 
BRANCH  22  23
HETATM   23  C4  UNL     1       4.390   0.746  -0.696  1.00  0.00     0.056 C 
BRANCH  23  24
HETATM   24  C3  UNL     1       4.931   1.828  -1.450  1.00  0.00     0.137 C 
BRANCH  24  25
HETATM   25  N1  UNL     1       6.211   2.366  -1.464  1.00  0.00    -0.371 N 
HETATM   26  C1  UNL     1       6.523   3.524  -2.369  1.00  0.00     0.151 C 
HETATM   27  C2  UNL     1       7.299   1.879  -0.647  1.00  0.00     0.151 C 
ENDBRANCH  24  25
BRANCH  24  28
HETATM   28  O1  UNL     1       4.115   2.452  -2.289  1.00  0.00    -0.346 OA
ATOM     29  H1  UNL     1       3.239   2.084  -2.279  1.00  0.00     0.219 HD
ENDBRANCH  24  28
ENDBRANCH  23  24
ENDBRANCH  22  23
ENDBRANCH  18  22
ENDBRANCH   1  14
BRANCH  10  30
HETATM   30  N3  UNL     1      -4.371   1.062   0.767  1.00  0.00    -0.339 N 
ATOM     31  H3  UNL     1      -4.124   1.850   1.366  1.00  0.00     0.167 HD
BRANCH  30  32
HETATM   32  C16 UNL     1      -5.286   1.226  -0.142  1.00  0.00     0.151 A 
HETATM   33  N4  UNL     1      -5.624   0.198  -0.940  1.00  0.00    -0.348 N 
HETATM   34  C17 UNL     1      -6.573   0.380  -1.878  1.00  0.00     0.107 A 
ATOM     35  H4  UNL     1      -5.167  -0.708  -0.836  1.00  0.00     0.167 HD
HETATM   36  C18 UNL     1      -7.176   1.622  -1.995  1.00  0.00     0.115 A 
HETATM   37  N5  UNL     1      -6.851   2.653  -1.208  1.00  0.00    -0.313 N 
HETATM   38  C19 UNL     1      -7.309   3.911  -1.163  1.00  0.00     0.115 A 
HETATM   39  C21 UNL     1      -5.898   2.460  -0.271  1.00  0.00     0.156 A 
HETATM   40  C20 UNL     1      -6.623   4.545  -0.160  1.00  0.00     0.107 A 
HETATM   41  N6  UNL     1      -5.775   3.641   0.362  1.00  0.00    -0.347 N 
ATOM     42  H6  UNL     1      -5.129   3.825   1.130  1.00  0.00     0.167 HD
ENDBRANCH  30  32
ENDBRANCH  10  30
TORSDOF 9
