REMARK  7 active torsions:
REMARK  status: ('A' for Active; 'I' for Inactive)
REMARK    1  A    between atoms: C2_2  and  C3_3 
REMARK    2  A    between atoms: C4_4  and  C5_5 
REMARK    3  A    between atoms: N2_13  and  C10_14 
REMARK    4  A    between atoms: C13_17  and  N3_18 
REMARK    5  A    between atoms: C17_25  and  O2_26 
REMARK    6  A    between atoms: O2_26  and  C18_27 
REMARK    7  A    between atoms: C18_27  and  C19_29 
ROOT
HETATM    1  C10 UNL     1       1.480  -0.701  -0.035  1.00  0.00     0.044 A 
HETATM    2  C11 UNL     1       0.638  -0.120  -0.949  1.00  0.00     0.032 A 
HETATM    3  C12 UNL     1      -0.172   0.958  -0.580  1.00  0.00     0.033 A 
HETATM    4  C13 UNL     1      -0.147   1.462   0.699  1.00  0.00     0.055 A 
HETATM    5  C26 UNL     1       0.706   0.858   1.589  1.00  0.00     0.033 A 
HETATM    6  C27 UNL     1       1.515  -0.207   1.248  1.00  0.00     0.032 A 
ENDROOT
BRANCH   4   7
HETATM    7  N3  UNL     1      -0.976   2.558   1.060  1.00  0.00    -0.238 N 
HETATM    8  N4  UNL     1      -0.580   3.784   1.353  1.00  0.00    -0.014 NA
HETATM    9  N5  UNL     1      -1.620   4.544   1.643  1.00  0.00    -0.281 N 
HETATM   10  C14 UNL     1      -2.714   3.786   1.534  1.00  0.00     0.074 A 
ATOM     11  H5  UNL     1      -1.593   5.530   1.903  1.00  0.00     0.184 HD
HETATM   12  C15 UNL     1      -4.078   4.004   1.707  1.00  0.00     0.036 A 
HETATM   13  C25 UNL     1      -2.302   2.530   1.165  1.00  0.00     0.085 A 
HETATM   14  C16 UNL     1      -4.970   2.975   1.509  1.00  0.00     0.040 A 
HETATM   15  C17 UNL     1      -4.572   1.707   1.138  1.00  0.00     0.081 A 
HETATM   16  C24 UNL     1      -3.222   1.490   0.967  1.00  0.00     0.071 A 
BRANCH  15  17
HETATM   17  O2  UNL     1      -5.526   0.704   0.952  1.00  0.00    -0.275 OA
BRANCH  17  18
HETATM   18  C18 UNL     1      -6.127   0.473  -0.275  1.00  0.00     0.300 C 
HETATM   19  O3  UNL     1      -5.782   1.206  -1.235  1.00  0.00    -0.259 OA
BRANCH  18  20
HETATM   20  C19 UNL     1      -7.132  -0.591  -0.456  1.00  0.00     0.055 A 
HETATM   21  C20 UNL     1      -7.533  -1.405   0.553  1.00  0.00     0.024 A 
HETATM   22  C21 UNL     1      -8.482  -2.380   0.305  1.00  0.00     0.075 A 
HETATM   23  C22 UNL     1      -9.019  -2.528  -0.957  1.00  0.00     0.245 A 
HETATM   24  O4  UNL     1      -9.893  -3.437  -1.153  1.00  0.00    -0.268 OA
HETATM   25  N6  UNL     1      -8.614  -1.714  -1.954  1.00  0.00    -0.333 N 
HETATM   26  C23 UNL     1      -7.691  -0.768  -1.705  1.00  0.00     0.108 A 
ATOM     27  H6  UNL     1      -9.005  -1.815  -2.890  1.00  0.00     0.168 HD
ENDBRANCH  18  20
ENDBRANCH  17  18
ENDBRANCH  15  17
ENDBRANCH   4   7
BRANCH   1  28
HETATM   28  N2  UNL     1       2.300  -1.792  -0.409  1.00  0.00    -0.262 N 
HETATM   29  C9  UNL     1       1.879  -3.008  -0.775  1.00  0.00     0.332 A 
HETATM   30  N1  UNL     1       2.954  -3.768  -1.055  1.00  0.00    -0.306 N 
HETATM   31  O1  UNL     1       0.701  -3.456  -0.872  1.00  0.00    -0.246 OA
HETATM   32  C8  UNL     1       4.064  -3.008  -0.858  1.00  0.00     0.064 A 
ATOM     33  H1  UNL     1       2.939  -4.741  -1.361  1.00  0.00     0.171 HD
HETATM   34  C7  UNL     1       5.400  -3.340  -1.013  1.00  0.00     0.033 A 
HETATM   35  C28 UNL     1       3.649  -1.754  -0.448  1.00  0.00     0.072 A 
HETATM   36  C6  UNL     1       6.317  -2.347  -0.735  1.00  0.00     0.023 A 
HETATM   37  C5  UNL     1       5.919  -1.091  -0.325  1.00  0.00     0.020 A 
HETATM   38  C29 UNL     1       4.596  -0.770  -0.174  1.00  0.00     0.053 A 
BRANCH  37  39
HETATM   39  C4  UNL     1       6.895  -0.053  -0.036  1.00  0.00    -0.067 C 
HETATM   40  C3  UNL     1       7.719   0.796   0.197  1.00  0.00    -0.101 C 
BRANCH  40  41
HETATM   41  C2  UNL     1       8.743   1.818   0.474  1.00  0.00     0.090 C 
HETATM   42  C1  UNL     1      10.022   1.502  -0.309  1.00  0.00     0.018 C 
ENDBRANCH  40  41
ENDBRANCH  37  39
ENDBRANCH   1  28
TORSDOF 7
