REMARK  4 active torsions:
REMARK  status: ('A' for Active; 'I' for Inactive)
REMARK    1  A    between atoms: C7_7  and  N1_8 
REMARK    2  A    between atoms: N1_8  and  C8_10 
REMARK    3  A    between atoms: C16_24  and  N5_25 
REMARK    4  A    between atoms: C26_38  and  N7_39 
ROOT
HETATM    1  C1  UNL     1      -8.916   3.479  -2.190  1.00  0.00     0.018 C 
HETATM    2  C2  UNL     1      -8.543   2.491  -1.611  1.00  0.00    -0.078 C 
HETATM    3  C3  UNL     1      -8.122   1.318  -0.910  1.00  0.00     0.019 A 
HETATM    4  C4  UNL     1      -9.063   0.554  -0.264  1.00  0.00     0.021 A 
HETATM    5  C5  UNL     1      -8.660  -0.576   0.413  1.00  0.00     0.004 A 
HETATM    6  C6  UNL     1      -7.338  -0.924   0.437  1.00  0.00     0.029 A 
HETATM    7  C7  UNL     1      -6.363  -0.177  -0.203  1.00  0.00     0.035 A 
HETATM    8  C29 UNL     1      -6.796   0.949  -0.873  1.00  0.00     0.050 A 
ENDROOT
BRANCH   7   9
HETATM    9  N1  UNL     1      -5.014  -0.580  -0.148  1.00  0.00    -0.342 N 
ATOM     10  H1  UNL     1      -4.734  -1.413  -0.667  1.00  0.00     0.167 HD
BRANCH   9  11
HETATM   11  C8  UNL     1      -4.115   0.054   0.527  1.00  0.00     0.120 A 
HETATM   12  N2  UNL     1      -4.375   1.160   1.242  1.00  0.00    -0.338 N 
HETATM   13  C9  UNL     1      -3.383   1.770   1.930  1.00  0.00     0.183 A 
ATOM     14  H2  UNL     1      -5.321   1.541   1.266  1.00  0.00     0.168 HD
HETATM   15  N3  UNL     1      -2.127   1.322   1.937  1.00  0.00    -0.338 N 
HETATM   16  C10 UNL     1      -1.817   0.225   1.241  1.00  0.00     0.120 A 
ATOM     17  H3  UNL     1      -1.409   1.813   2.470  1.00  0.00     0.168 HD
HETATM   18  N4  UNL     1      -0.553  -0.248   1.239  1.00  0.00    -0.339 N 
HETATM   19  C28 UNL     1      -2.809  -0.417   0.531  1.00  0.00     0.055 A 
HETATM   20  C11 UNL     1      -0.183  -1.350   0.559  1.00  0.00     0.077 A 
ATOM     21  H4  UNL     1       0.155   0.252   1.777  1.00  0.00     0.167 HD
HETATM   22  C12 UNL     1       1.192  -1.772   0.643  1.00  0.00    -0.005 A 
HETATM   23  C26 UNL     1      -1.120  -2.027  -0.166  1.00  0.00     0.131 A 
HETATM   24  C13 UNL     1       1.482  -3.077   0.977  1.00  0.00     0.014 A 
HETATM   25  C25 UNL     1       2.233  -0.873   0.393  1.00  0.00     0.044 A 
HETATM   26  C14 UNL     1       2.782  -3.508   1.068  1.00  0.00     0.003 A 
HETATM   27  C15 UNL     1       3.771  -2.612   0.819  1.00  0.00     0.030 A 
HETATM   28  C16 UNL     1       3.528  -1.298   0.483  1.00  0.00     0.046 A 
HETATM   29  C27 UNL     1      -2.452  -1.541  -0.170  1.00  0.00     0.057 A 
BRANCH  28  30
HETATM   30  N5  UNL     1       4.645  -0.405   0.242  1.00  0.00    -0.244 N 
HETATM   31  C17 UNL     1       4.889   0.857   0.845  1.00  0.00     0.266 A 
HETATM   32  O1  UNL     1       4.179   1.433   1.690  1.00  0.00    -0.267 OA
HETATM   33  C18 UNL     1       6.148   1.381   0.293  1.00  0.00     0.048 A 
HETATM   34  C19 UNL     1       6.856   2.557   0.526  1.00  0.00     0.020 A 
HETATM   35  C23 UNL     1       6.664   0.482  -0.615  1.00  0.00     0.050 A 
HETATM   36  C20 UNL     1       8.038   2.817  -0.130  1.00  0.00     0.027 A 
HETATM   37  C21 UNL     1       8.565   1.922  -1.043  1.00  0.00     0.047 A 
HETATM   38  N6  UNL     1       9.785   2.258  -1.675  1.00  0.00    -0.102 NA
HETATM   39  C22 UNL     1       7.856   0.769  -1.261  1.00  0.00     0.044 A 
HETATM   40  C24 UNL     1       5.728  -0.635  -0.650  1.00  0.00     0.266 A 
HETATM   41  O2  UNL     1       5.854  -1.665  -1.368  1.00  0.00    -0.267 OA
ENDBRANCH  28  30
BRANCH  23  42
HETATM   42  N7  UNL     1      -0.901  -3.182  -0.952  1.00  0.00    -0.113 N 
HETATM   43  O3  UNL     1       0.120  -3.414  -1.597  1.00  0.00    -0.532 OA
HETATM   44  O4  UNL     1      -1.933  -4.116  -1.043  1.00  0.00    -0.532 OA
ENDBRANCH  23  42
ENDBRANCH   9  11
ENDBRANCH   7   9
TORSDOF 4
