REMARK  3 active torsions:
REMARK  status: ('A' for Active; 'I' for Inactive)
REMARK    1  A    between atoms: C2_2  and  C4_4 
REMARK    2  A    between atoms: C13_13  and  O1_14 
REMARK    3  A    between atoms: O1_14  and  C14_15 
ROOT
HETATM    1  C4  UNL     1       2.725   0.629   0.004  1.00  0.00     0.059 C 
HETATM    2  C5  UNL     1       1.607   1.021  -0.879  1.00  0.00     0.013 C 
HETATM    3  C6  UNL     1       0.682  -0.034  -1.347  1.00  0.00     0.007 C 
HETATM    4  C7  UNL     1       0.374  -1.151  -0.443  1.00  0.00     0.005 C 
HETATM    5  C8  UNL     1       1.232  -1.262   0.781  1.00  0.00     0.060 C 
HETATM    6  C9  UNL     1       0.737  -0.567   1.985  1.00  0.00     0.013 C 
HETATM    7  C10 UNL     1      -0.516   0.206   1.862  1.00  0.00     0.006 C 
HETATM    8  C11 UNL     1      -1.564  -0.371   0.972  1.00  0.00    -0.004 C 
HETATM    9  C12 UNL     1      -2.351   0.811   0.386  1.00  0.00     0.038 C 
HETATM   10  C13 UNL     1      -3.469   0.367  -0.496  1.00  0.00     0.135 C 
HETATM   11  C15 UNL     1      -3.416  -1.126  -0.728  1.00  0.00     0.033 C 
HETATM   12  C16 UNL     1      -2.000  -1.425  -1.233  1.00  0.00     0.012 C 
HETATM   13  C17 UNL     1      -1.086  -1.320  -0.058  1.00  0.00    -0.036 C 
HETATM   14  C18 UNL     1      -1.151  -2.732   0.563  1.00  0.00     0.016 C 
HETATM   15  C19 UNL     1       2.615  -0.828   0.351  1.00  0.00     0.136 C 
HETATM   16  O4  UNL     1       3.557  -1.571   0.286  1.00  0.00    -0.297 OA
ENDROOT
BRANCH  10  17
HETATM   17  O1  UNL     1      -4.759   0.666   0.059  1.00  0.00    -0.290 OA
BRANCH  17  18
HETATM   18  C14 UNL     1      -5.673   1.460  -0.617  1.00  0.00     0.333 C 
HETATM   19  O2  UNL     1      -5.290   1.898  -1.752  1.00  0.00    -0.624 OA
HETATM   20  O3  UNL     1      -6.928   1.762  -0.097  1.00  0.00    -0.624 OA
ENDBRANCH  17  18
ENDBRANCH  10  17
BRANCH   1  21
HETATM   21  C2  UNL     1       4.098   0.889  -0.566  1.00  0.00    -0.011 C 
HETATM   22  C1  UNL     1       4.358   2.320  -0.879  1.00  0.00     0.010 C 
HETATM   23  C3  UNL     1       5.171   0.406   0.379  1.00  0.00     0.010 C 
ENDBRANCH   1  21
TORSDOF 3
