REMARK  3 active torsions:
REMARK  status: ('A' for Active; 'I' for Inactive)
REMARK    1  A    between atoms: C2_2  and  C3_3 
REMARK    2  A    between atoms: C14_15  and  O1_16 
REMARK    3  A    between atoms: C14_15  and  C15_18 
ROOT
HETATM    1  C3  UNL     1      -2.086  -0.352  -0.813  1.00  0.00     0.020 C 
HETATM    2  S1  UNL     1      -2.385   0.587  -2.377  1.00  0.00    -0.157 SA
HETATM    3  C4  UNL     1      -3.731   1.085  -1.302  1.00  0.00     0.085 C 
HETATM    4  C5  UNL     1      -2.864   0.662  -0.105  1.00  0.00    -0.018 C 
HETATM    5  C6  UNL     1      -3.724   0.227   1.062  1.00  0.00     0.018 C 
HETATM    6  C7  UNL     1      -2.099   1.897   0.301  1.00  0.00     0.012 C 
HETATM    7  C8  UNL     1      -0.698   1.976  -0.202  1.00  0.00     0.007 C 
HETATM    8  C9  UNL     1      -0.041   0.707   0.257  1.00  0.00    -0.000 C 
HETATM    9  C10 UNL     1      -0.610  -0.437  -0.488  1.00  0.00     0.010 C 
HETATM   10  C11 UNL     1      -0.292  -1.674   0.347  1.00  0.00     0.007 C 
HETATM   11  C12 UNL     1       1.086  -1.575   0.976  1.00  0.00     0.009 C 
HETATM   12  C13 UNL     1       1.918  -0.701   0.121  1.00  0.00     0.035 C 
HETATM   13  C14 UNL     1       3.402  -0.885   0.288  1.00  0.00     0.115 C 
HETATM   14  C16 UNL     1       4.196   0.227  -0.298  1.00  0.00     0.045 C 
HETATM   15  C17 UNL     1       3.506   1.274  -1.044  1.00  0.00     0.004 C 
HETATM   16  C18 UNL     1       2.052   1.435  -0.910  1.00  0.00     0.010 C 
HETATM   17  C19 UNL     1       1.448   0.720   0.269  1.00  0.00    -0.033 C 
HETATM   18  C20 UNL     1       1.900   1.378   1.537  1.00  0.00     0.016 C 
ENDROOT
BRANCH  13  19
HETATM   19  O1  UNL     1       3.694  -2.102  -0.385  1.00  0.00    -0.382 OA
ATOM     20  H1  UNL     1       4.631  -2.218  -0.280  1.00  0.00     0.211 HD
ENDBRANCH  13  19
BRANCH  13  21
HETATM   21  C15 UNL     1       3.751  -1.154   1.711  1.00  0.00     0.269 C 
HETATM   22  O2  UNL     1       4.177  -2.236   2.074  1.00  0.00    -0.304 OA
ENDBRANCH  13  21
BRANCH   1  23
HETATM   23  C2  UNL     1      -2.572  -1.735  -1.014  1.00  0.00     0.017 C 
HETATM   24  C1  UNL     1      -3.999  -1.944  -1.368  1.00  0.00     0.006 C 
ENDBRANCH   1  23
TORSDOF 3
