REMARK  3 active torsions:
REMARK  status: ('A' for Active; 'I' for Inactive)
REMARK    1  A    between atoms: O1_2  and  C2_3 
REMARK    2  A    between atoms: C12_13  and  C14_15 
REMARK    3  A    between atoms: C14_15  and  O2_16 
ROOT
HETATM    1  C2  UNL     1       3.426   1.110   0.260  1.00  0.00     0.259 C 
HETATM    2  C3  UNL     1       4.405   0.400  -0.635  1.00  0.00     0.061 C 
HETATM    3  C4  UNL     1       3.713  -0.221  -1.800  1.00  0.00     0.006 C 
HETATM    4  C5  UNL     1       2.867  -1.392  -1.471  1.00  0.00     0.012 C 
HETATM    5  C6  UNL     1       1.950  -1.258  -0.332  1.00  0.00    -0.013 C 
HETATM    6  C7  UNL     1       2.373  -2.047   0.889  1.00  0.00     0.018 C 
HETATM    7  C8  UNL     1       0.520  -1.654  -0.750  1.00  0.00     0.003 C 
HETATM    8  C9  UNL     1      -0.230  -2.224   0.385  1.00  0.00     0.006 C 
HETATM    9  C10 UNL     1      -1.661  -1.710   0.476  1.00  0.00     0.007 C 
HETATM   10  C11 UNL     1      -1.728  -0.205   0.447  1.00  0.00     0.004 C 
HETATM   11  C12 UNL     1      -3.107   0.259   0.666  1.00  0.00    -0.018 C 
HETATM   12  C13 UNL     1      -3.134   1.445   1.645  1.00  0.00     0.018 C 
HETATM   13  C15 UNL     1      -3.951   0.508  -0.524  1.00  0.00     0.012 C 
HETATM   14  C16 UNL     1      -3.283   0.632  -1.831  1.00  0.00     0.002 C 
HETATM   15  C17 UNL     1      -1.944   0.011  -1.958  1.00  0.00     0.010 C 
HETATM   16  C18 UNL     1      -1.049   0.327  -0.771  1.00  0.00    -0.033 C 
HETATM   17  C19 UNL     1      -0.834   1.843  -0.643  1.00  0.00     0.016 C 
HETATM   18  C20 UNL     1       0.286  -0.228  -1.043  1.00  0.00     0.029 C 
HETATM   19  C21 UNL     1       1.397   0.105  -0.073  1.00  0.00     0.138 C 
HETATM   20  O3  UNL     1       2.198   1.150  -0.396  1.00  0.00    -0.355 OA
ENDROOT
BRANCH  11  21
HETATM   21  C14 UNL     1      -3.828  -0.835   1.485  1.00  0.00     0.173 C 
BRANCH  21  22
HETATM   22  O2  UNL     1      -5.138  -0.326   1.658  1.00  0.00    -0.400 OA
ATOM     23  H2  UNL     1      -5.581  -0.999   2.162  1.00  0.00     0.209 HD
ENDBRANCH  21  22
ENDBRANCH  11  21
BRANCH   1  24
HETATM   24  O1  UNL     1       3.796   2.455   0.466  1.00  0.00    -0.366 OA
HETATM   25  C1  UNL     1       3.919   2.732   1.825  1.00  0.00     0.204 C 
ENDBRANCH   1  24
TORSDOF 3
