REMARK  2 active torsions:
REMARK  status: ('A' for Active; 'I' for Inactive)
REMARK    1  A    between atoms: C1_2  and  C2_4 
REMARK    2  A    between atoms: C2_4  and  C3_5 
ROOT
HETATM    1  C3  UNL     1       3.223   0.653  -0.469  1.00  0.00     0.095 C 
HETATM    2  C4  UNL     1       2.123  -0.359  -0.460  1.00  0.00     0.015 C 
HETATM    3  C5  UNL     1       2.726  -1.767  -0.387  1.00  0.00     0.001 C 
HETATM    4  C6  UNL     1       1.903  -2.635   0.557  1.00  0.00     0.000 C 
HETATM    5  C7  UNL     1       0.992  -3.477  -0.268  1.00  0.00     0.000 C 
HETATM    6  C8  UNL     1      -0.437  -3.474   0.207  1.00  0.00     0.000 C 
HETATM    7  C9  UNL     1      -1.033  -2.100   0.275  1.00  0.00     0.000 C 
HETATM    8  C10 UNL     1      -2.472  -2.245   0.733  1.00  0.00     0.000 C 
HETATM    9  C11 UNL     1      -3.421  -1.965  -0.433  1.00  0.00     0.000 C 
HETATM   10  C12 UNL     1      -4.260  -0.739  -0.132  1.00  0.00     0.000 C 
HETATM   11  C13 UNL     1      -3.553   0.539  -0.556  1.00  0.00     0.000 C 
HETATM   12  C14 UNL     1      -3.033   1.266   0.645  1.00  0.00     0.000 C 
HETATM   13  C15 UNL     1      -2.826   2.750   0.372  1.00  0.00     0.000 C 
HETATM   14  C16 UNL     1      -1.767   2.934  -0.671  1.00  0.00     0.002 C 
HETATM   15  C17 UNL     1      -0.441   3.378  -0.092  1.00  0.00     0.027 C 
HETATM   16  C18 UNL     1       0.568   2.227  -0.061  1.00  0.00     0.178 C 
HETATM   17  O3  UNL     1       1.790   2.655  -0.580  1.00  0.00    -0.321 OA
HETATM   18  C19 UNL     1       2.763   1.881  -1.160  1.00  0.00     0.263 C 
HETATM   19  O4  UNL     1       3.294   2.163  -2.263  1.00  0.00    -0.265 OA
ENDROOT
BRANCH   1  20
HETATM   20  C2  UNL     1       3.687   0.942   0.943  1.00  0.00     0.128 C 
BRANCH  20  21
HETATM   21  C1  UNL     1       4.772   1.936   0.973  1.00  0.00     0.173 C 
HETATM   22  O1  UNL     1       5.240   2.258   2.094  1.00  0.00    -0.648 OA
HETATM   23  O2  UNL     1       5.264   2.499  -0.177  1.00  0.00    -0.648 OA
ENDBRANCH  20  21
ENDBRANCH   1  20
TORSDOF 2
