REMARK  4 active torsions:
REMARK  status: ('A' for Active; 'I' for Inactive)
REMARK    1  A    between atoms: C7_7  and  N1_8 
REMARK    2  A    between atoms: N1_8  and  C8_10 
REMARK    3  A    between atoms: C10_13  and  C11_14 
REMARK    4  A    between atoms: C11_14  and  N3_18 
ROOT
HETATM    1  C8  UNL     1      -0.987   0.255   1.607  1.00  0.00     0.113 A 
HETATM    2  S1  UNL     1      -0.682   0.069   3.253  1.00  0.00    -0.076 SA
HETATM    3  C9  UNL     1       1.023   0.065   3.537  1.00  0.00     0.075 A 
HETATM    4  C10 UNL     1       1.687   0.217   2.336  1.00  0.00     0.057 A 
HETATM    5  S2  UNL     1       0.585   0.351   1.016  1.00  0.00    -0.061 SA
ENDROOT
BRANCH   1   6
HETATM    6  N1  UNL     1      -2.076   0.306   1.014  1.00  0.00    -0.374 N 
ATOM      7  H1  UNL     1      -2.903   0.223   1.606  1.00  0.00     0.161 HD
BRANCH   6   8
HETATM    8  C7  UNL     1      -2.331   0.464  -0.379  1.00  0.00     0.086 C 
HETATM    9  C5  UNL     1      -2.406  -0.836  -1.133  1.00  0.00     0.004 C 
HETATM   10  C4  UNL     1      -3.638  -1.632  -0.832  1.00  0.00     0.007 C 
HETATM   11  C6  UNL     1      -2.293  -0.539  -2.606  1.00  0.00     0.012 C 
HETATM   12  C3  UNL     1      -4.802  -0.802  -0.396  1.00  0.00     0.005 C 
HETATM   13  C2  UNL     1      -4.756   0.577  -1.030  1.00  0.00    -0.017 C 
HETATM   14  C1  UNL     1      -5.989   1.323  -0.566  1.00  0.00     0.010 C 
HETATM   15  C17 UNL     1      -3.541   1.327  -0.569  1.00  0.00     0.029 C 
ENDBRANCH   6   8
ENDBRANCH   1   6
BRANCH   4  16
HETATM   16  C11 UNL     1       3.129   0.262   2.157  1.00  0.00     0.114 C 
HETATM   17  N2  UNL     1       3.892   0.158   3.163  1.00  0.00    -0.384 N 
ATOM     18  H22 UNL     1       3.465   0.043   4.082  1.00  0.00     0.157 HD
ATOM     19  H21 UNL     1       4.904   0.190   3.037  1.00  0.00     0.157 HD
BRANCH  16  20
HETATM   20  N3  UNL     1       3.727   0.423   0.869  1.00  0.00    -0.367 N 
HETATM   21  C12 UNL     1       3.237  -0.274  -0.297  1.00  0.00     0.124 C 
HETATM   22  C13 UNL     1       4.410  -0.540  -1.210  1.00  0.00     0.020 C 
HETATM   23  C14 UNL     1       5.616  -0.836  -0.330  1.00  0.00     0.003 C 
HETATM   24  C15 UNL     1       6.074   0.438   0.359  1.00  0.00     0.020 C 
HETATM   25  C16 UNL     1       4.870   1.307   0.693  1.00  0.00     0.124 C 
ENDBRANCH  16  20
ENDBRANCH   4  16
TORSDOF 4
