REMARK  16 active torsions:
REMARK  status: ('A' for Active; 'I' for Inactive)
REMARK    1  A    between atoms: C2_9  and  S1_10 
REMARK    2  A    between atoms: S1_10  and  C3_11 
REMARK    3  A    between atoms: C3_11  and  C4_12 
REMARK    4  A    between atoms: C4_12  and  N5_13 
REMARK    5  A    between atoms: C4_12  and  C8_26 
REMARK       I    between atoms: N5_13  and  C5_15 
REMARK    6  A    between atoms: C5_15  and  C6_17 
REMARK    7  A    between atoms: C6_17  and  C7_18 
REMARK    8  A    between atoms: C6_17  and  N6_21 
REMARK    9  A    between atoms: C7_18  and  O2_19 
REMARK   10  A    between atoms: N6_21  and  N7_23 
REMARK   11  A    between atoms: C9_28  and  N8_29 
REMARK   12  A    between atoms: C13_38  and  N12_39 
REMARK   13  A    between atoms: C15_45  and  O4_46 
REMARK   14  A    between atoms: C15_45  and  O5_48 
REMARK   15  A    between atoms: C16_50  and  O6_51 
REMARK   16  A    between atoms: C16_50  and  C17_53 
ROOT
HETATM    1  C8  UNL     1      -0.858   0.658  -0.653  1.00  0.00     0.199 C 
HETATM    2  O3  UNL     1       0.244   0.472   0.130  1.00  0.00    -0.349 OA
HETATM    3  C9  UNL     1       1.146  -0.362  -0.546  1.00  0.00     0.297 C 
HETATM    4  C15 UNL     1       0.865  -0.063  -1.966  1.00  0.00     0.251 C 
HETATM    5  C16 UNL     1      -0.682  -0.225  -1.877  1.00  0.00     0.235 C 
ENDROOT
BRANCH   1   6
HETATM    6  C4  UNL     1      -2.186   0.613  -0.052  1.00  0.00     0.127 C 
BRANCH   6   7
HETATM    7  C3  UNL     1      -2.699   1.732   0.783  1.00  0.00     0.110 C 
BRANCH   7   8
HETATM    8  S1  UNL     1      -2.156   1.992   2.417  1.00  0.00    -0.089 SA
BRANCH   8   9
HETATM    9  C2  UNL     1      -0.530   2.520   2.770  1.00  0.00     0.178 A 
HETATM   10  N1  UNL     1      -0.055   3.793   2.796  1.00  0.00    -0.259 N 
HETATM   11  C1  UNL     1      -0.819   4.948   2.473  1.00  0.00     0.181 C 
HETATM   12  N2  UNL     1       1.194   3.722   3.175  1.00  0.00    -0.224 N 
HETATM   13  N3  UNL     1       1.535   2.467   3.392  1.00  0.00    -0.226 N 
ATOM     14  H2  UNL     1       1.816   4.523   3.287  1.00  0.00     0.210 HD
HETATM   15  N4  UNL     1       0.491   1.712   3.148  1.00  0.00    -0.263 N 
ATOM     16  H3  UNL     1       2.452   2.140   3.697  1.00  0.00     0.210 HD
ATOM     17  H4  UNL     1       0.454   0.696   3.228  1.00  0.00     0.190 HD
ENDBRANCH   8   9
ENDBRANCH   7   8
ENDBRANCH   6   7
BRANCH   6  18
HETATM   18  N5  UNL     1      -2.437  -0.637   0.619  1.00  0.00    -0.351 N 
HETATM   19  C5  UNL     1      -3.535  -1.467   0.411  1.00  0.00     0.244 C 
HETATM   20  O1  UNL     1      -4.459  -1.206  -0.417  1.00  0.00    -0.271 OA
ATOM     21  H5  UNL     1      -1.749  -0.941   1.308  1.00  0.00     0.163 HD
BRANCH  19  22
HETATM   22  C6  UNL     1      -3.680  -2.741   1.188  1.00  0.00     0.214 C 
BRANCH  22  23
HETATM   23  C7  UNL     1      -2.841  -3.788   0.422  1.00  0.00     0.200 C 
BRANCH  23  24
HETATM   24  O2  UNL     1      -3.000  -4.984   1.106  1.00  0.00    -0.398 OA
ATOM     25  H2  UNL     1      -2.484  -5.628   0.635  1.00  0.00     0.209 HD
ENDBRANCH  23  24
ENDBRANCH  22  23
BRANCH  22  26
HETATM   26  N6  UNL     1      -5.037  -3.170   1.165  1.00  0.00    -0.327 N 
ATOM     27  H6  UNL     1      -5.757  -2.665   0.648  1.00  0.00     0.180 HD
BRANCH  26  28
HETATM   28  N7  UNL     1      -5.314  -4.306   1.882  1.00  0.00    -0.349 N 
ATOM     29  H72 UNL     1      -4.583  -4.800   2.394  1.00  0.00     0.176 HD
ATOM     30  H71 UNL     1      -6.286  -4.613   1.866  1.00  0.00     0.176 HD
ENDBRANCH  26  28
ENDBRANCH  22  26
ENDBRANCH  19  22
ENDBRANCH   6  18
ENDBRANCH   1   6
BRANCH   5  31
HETATM   31  O6  UNL     1      -0.893  -1.550  -1.660  1.00  0.00    -0.372 OA
ATOM     32  H6  UNL     1      -0.783  -2.102  -2.425  1.00  0.00     0.211 HD
ENDBRANCH   5  31
BRANCH   5  33
HETATM   33  C17 UNL     1      -1.338   0.253  -3.078  1.00  0.00     0.217 C 
HETATM   34  O7  UNL     1      -1.994  -0.602  -3.777  1.00  0.00    -0.645 OA
HETATM   35  O8  UNL     1      -1.347   1.544  -3.578  1.00  0.00    -0.645 OA
ENDBRANCH   5  33
BRANCH   3  36
HETATM   36  N8  UNL     1       2.455  -0.318  -0.060  1.00  0.00    -0.294 N 
HETATM   37  C10 UNL     1       2.772  -0.844   1.165  1.00  0.00     0.188 A 
HETATM   38  N9  UNL     1       4.060  -0.672   1.385  1.00  0.00    -0.346 N 
HETATM   39  C11 UNL     1       4.620  -0.048   0.348  1.00  0.00     0.120 A 
ATOM     40  H9  UNL     1       4.555  -0.972   2.225  1.00  0.00     0.167 HD
HETATM   41  C12 UNL     1       5.887   0.382   0.024  1.00  0.00     0.162 A 
HETATM   42  C14 UNL     1       3.606   0.169  -0.552  1.00  0.00     0.157 A 
HETATM   43  N10 UNL     1       6.942   0.158   0.952  1.00  0.00    -0.080 NA
HETATM   44  N11 UNL     1       6.103   0.996  -1.146  1.00  0.00    -0.177 N 
HETATM   45  C13 UNL     1       5.093   1.197  -2.013  1.00  0.00     0.678 A 
ATOM     46  H11 UNL     1       7.043   1.315  -1.383  1.00  0.00     0.185 HD
HETATM   47  N13 UNL     1       3.874   0.780  -1.695  1.00  0.00    -0.174 N 
ATOM     48  H13 UNL     1       3.114   0.936  -2.357  1.00  0.00     0.186 HD
BRANCH  45  49
HETATM   49  N12 UNL     1       5.351   1.805  -3.149  1.00  0.00    -0.234 N 
ATOM     50 2H12 UNL     1       6.288   2.126  -3.393  1.00  0.00     0.174 HD
ATOM     51 1H12 UNL     1       4.586   1.957  -3.806  1.00  0.00     0.174 HD
ENDBRANCH  45  49
ENDBRANCH   3  36
BRANCH   4  52
HETATM   52  O4  UNL     1       1.353  -0.930  -2.895  1.00  0.00    -0.359 OA
ATOM     53  H4  UNL     1       1.172  -0.738  -3.808  1.00  0.00     0.213 HD
ENDBRANCH   4  52
BRANCH   4  54
HETATM   54  O5  UNL     1       0.989   1.278  -2.329  1.00  0.00    -0.359 OA
ATOM     55  H5  UNL     1       0.808   1.470  -3.242  1.00  0.00     0.213 HD
ENDBRANCH   4  54
TORSDOF 16
