REMARK  18 active torsions:
REMARK  status: ('A' for Active; 'I' for Inactive)
REMARK    1  A    between atoms: C2_2  and  O1_4 
REMARK    2  A    between atoms: C2_2  and  C4_6 
REMARK    3  A    between atoms: N1_8  and  C6_9 
REMARK    4  A    between atoms: C7_10  and  N2_11 
REMARK    5  A    between atoms: C8_15  and  O2_16 
REMARK    6  A    between atoms: C9_18  and  N3_19 
REMARK    7  A    between atoms: C10_22  and  C11_23 
REMARK       I    between atoms: C11_23  and  N5_25 
REMARK       I    between atoms: N5_25  and  C12_27 
REMARK    8  A    between atoms: C14_35  and  N10_36 
REMARK    9  A    between atoms: N10_36  and  C15_37 
REMARK   10  A    between atoms: N10_36  and  C17_41 
REMARK   11  A    between atoms: C15_37  and  C16_38 
REMARK   12  A    between atoms: C16_38  and  O4_39 
REMARK   13  A    between atoms: C17_41  and  C18_42 
REMARK   14  A    between atoms: C18_42  and  O5_43 
REMARK   15  A    between atoms: C19_45  and  O6_46 
REMARK   16  A    between atoms: C20_48  and  O7_49 
REMARK   17  A    between atoms: C21_51  and  N11_52 
REMARK   18  A    between atoms: N11_52  and  N12_54 
ROOT
HETATM    1  C11 UNL     1      -4.802   1.012   2.244  1.00  0.00     0.293 C 
HETATM    2  O3  UNL     1      -5.893   0.429   2.507  1.00  0.00    -0.264 OA
HETATM    3  N5  UNL     1      -4.453   2.196   2.908  1.00  0.00    -0.294 N 
ATOM      4  H5  UNL     1      -3.566   2.632   2.655  1.00  0.00     0.172 HD
HETATM    5  C12 UNL     1      -5.226   2.829   3.892  1.00  0.00     0.204 C 
HETATM    6  N6  UNL     1      -6.450   2.238   4.338  1.00  0.00    -0.062 NA
HETATM    7  N7  UNL     1      -4.860   3.953   4.455  1.00  0.00    -0.267 N 
ATOM      8  H7  UNL     1      -3.987   4.413   4.196  1.00  0.00     0.180 HD
HETATM    9  C13 UNL     1      -5.704   4.500   5.421  1.00  0.00     0.184 C 
HETATM   10  N8  UNL     1      -6.389   4.973   6.218  1.00  0.00    -0.172 NA
ENDROOT
BRANCH   1  11
HETATM   11  C10 UNL     1      -3.906   0.431   1.228  1.00  0.00     0.204 A 
HETATM   12  N4  UNL     1      -2.644   0.699   0.940  1.00  0.00    -0.263 N 
HETATM   13  N3  UNL     1      -2.221  -0.046  -0.097  1.00  0.00    -0.112 N 
ATOM     14  H4  UNL     1      -2.069   1.379   1.437  1.00  0.00     0.189 HD
HETATM   15  C14 UNL     1      -3.243  -0.809  -0.478  1.00  0.00     0.699 A 
HETATM   16  N9  UNL     1      -4.302  -0.507   0.359  1.00  0.00    -0.168 N 
ATOM     17  H9  UNL     1      -5.230  -0.929   0.320  1.00  0.00     0.186 HD
BRANCH  13  18
HETATM   18  C9  UNL     1      -0.899   0.023  -0.654  1.00  0.00     0.188 C 
HETATM   19  C8  UNL     1      -0.118   1.123   0.091  1.00  0.00     0.178 C 
HETATM   20  C7  UNL     1       1.109   1.481  -0.697  1.00  0.00     0.240 C 
HETATM   21  C6  UNL     1       1.793   0.350  -1.351  1.00  0.00     0.171 C 
HETATM   22  C20 UNL     1       1.272  -1.013  -1.080  1.00  0.00     0.175 C 
HETATM   23  C19 UNL     1      -0.050  -1.182  -0.463  1.00  0.00     0.177 C 
BRANCH  19  24
HETATM   24  O2  UNL     1       0.277   0.717   1.352  1.00  0.00    -0.391 OA
ATOM     25  H2  UNL     1      -0.499   0.490   1.851  1.00  0.00     0.210 HD
ENDBRANCH  19  24
BRANCH  20  26
HETATM   26  N2  UNL     1       2.017   2.121   0.245  1.00  0.00    -0.070 N 
ATOM     27  H23 UNL     1       2.400   1.460   0.921  1.00  0.00     0.274 HD
ATOM     28  H22 UNL     1       2.893   2.403  -0.195  1.00  0.00     0.274 HD
ATOM     29  H21 UNL     1       1.544   2.903   0.697  1.00  0.00     0.274 HD
ENDBRANCH  20  26
BRANCH  21  30
HETATM   30  N1  UNL     1       3.238   0.324  -1.024  1.00  0.00    -0.181 N 
HETATM   31  C5  UNL     1       3.765  -0.132   0.126  1.00  0.00     0.138 A 
HETATM   32  C4  UNL     1       5.126  -0.012   0.033  1.00  0.00     0.076 A 
HETATM   33  N13 UNL     1       5.442   0.515  -1.161  1.00  0.00    -0.190 N 
HETATM   34  C21 UNL     1       4.270   0.708  -1.779  1.00  0.00     0.699 A 
ATOM     35  H13 UNL     1       6.374   0.723  -1.520  1.00  0.00     0.184 HD
BRANCH  32  36
HETATM   36  C2  UNL     1       6.165  -0.390   1.042  1.00  0.00     0.094 C 
HETATM   37  C1  UNL     1       7.259   0.621   1.132  1.00  0.00     0.052 C 
HETATM   38  C3  UNL     1       5.533  -0.598   2.406  1.00  0.00     0.052 C 
BRANCH  36  39
HETATM   39  O1  UNL     1       6.714  -1.625   0.668  1.00  0.00    -0.384 OA
ATOM     40  H1  UNL     1       6.018  -2.269   0.611  1.00  0.00     0.211 HD
ENDBRANCH  36  39
ENDBRANCH  32  36
BRANCH  34  41
HETATM   41  N11 UNL     1       4.120   1.259  -3.099  1.00  0.00    -0.138 N 
ATOM     42  H11 UNL     1       4.087   0.666  -3.929  1.00  0.00     0.205 HD
BRANCH  41  43
HETATM   43  N12 UNL     1       4.022   2.645  -3.183  1.00  0.00    -0.331 N 
ATOM     44 2H12 UNL     1       4.056   3.224  -2.344  1.00  0.00     0.177 HD
ATOM     45 1H12 UNL     1       3.916   3.036  -4.119  1.00  0.00     0.177 HD
ENDBRANCH  41  43
ENDBRANCH  34  41
ENDBRANCH  21  30
BRANCH  22  46
HETATM   46  O7  UNL     1       1.333  -1.802  -2.256  1.00  0.00    -0.391 OA
ATOM     47  H7  UNL     1       1.000  -2.674  -2.083  1.00  0.00     0.210 HD
ENDBRANCH  22  46
BRANCH  23  48
HETATM   48  O6  UNL     1       0.025  -1.570   0.886  1.00  0.00    -0.391 OA
ATOM     49  H6  UNL     1       0.568  -2.340   1.008  1.00  0.00     0.210 HD
ENDBRANCH  23  48
ENDBRANCH  13  18
BRANCH  15  50
HETATM   50  N10 UNL     1      -3.404  -1.749  -1.505  1.00  0.00    -0.212 N 
BRANCH  50  51
HETATM   51  C15 UNL     1      -3.654  -1.239  -2.838  1.00  0.00     0.167 C 
BRANCH  51  52
HETATM   52  C16 UNL     1      -2.536  -1.537  -3.815  1.00  0.00     0.184 C 
BRANCH  52  53
HETATM   53  O4  UNL     1      -2.945  -0.973  -5.035  1.00  0.00    -0.399 OA
ATOM     54  H4  UNL     1      -2.244  -1.160  -5.648  1.00  0.00     0.209 HD
ENDBRANCH  52  53
ENDBRANCH  51  52
ENDBRANCH  50  51
BRANCH  50  55
HETATM   55  C17 UNL     1      -3.383  -3.156  -1.314  1.00  0.00     0.167 C 
BRANCH  55  56
HETATM   56  C18 UNL     1      -3.045  -3.696   0.019  1.00  0.00     0.184 C 
BRANCH  56  57
HETATM   57  O5  UNL     1      -3.905  -3.298   1.001  1.00  0.00    -0.399 OA
ATOM     58  H5  UNL     1      -3.688  -3.645   1.858  1.00  0.00     0.209 HD
ENDBRANCH  56  57
ENDBRANCH  55  56
ENDBRANCH  50  55
ENDBRANCH  15  50
ENDBRANCH   1  11
TORSDOF 18
