REMARK  6 active torsions:
REMARK  status: ('A' for Active; 'I' for Inactive)
REMARK    1  A    between atoms: C3_5  and  C4_6 
REMARK    2  A    between atoms: C4_6  and  C5_7 
REMARK    3  A    between atoms: C5_7  and  C6_8 
REMARK    4  A    between atoms: C6_8  and  C7_9 
REMARK    5  A    between atoms: C8_10  and  C9_11 
REMARK    6  A    between atoms: C11_14  and  N2_15 
REMARK       I    between atoms: N2_15  and  C12_17 
ROOT
HETATM    1  C1  UNL     1      -2.039  -2.987  -1.461  1.00  0.00     0.089 C 
HETATM    2  C2  UNL     1      -1.649  -1.898  -0.527  1.00  0.00     0.078 A 
HETATM    3  N1  UNL     1      -0.542  -2.049   0.211  1.00  0.00    -0.350 N 
ATOM      4  H1  UNL     1       0.006  -2.904   0.116  1.00  0.00     0.167 HD
HETATM    5  C3  UNL     1      -0.131  -1.091   1.084  1.00  0.00     0.014 A 
HETATM    6  C10 UNL     1      -0.887   0.056   1.196  1.00  0.00     0.073 A 
HETATM    7  C11 UNL     1      -2.027   0.210   0.434  1.00  0.00     0.110 A 
HETATM    8  N5  UNL     1      -2.372  -0.768  -0.401  1.00  0.00    -0.332 N 
ATOM      9  H5  UNL     1      -3.214  -0.658  -0.966  1.00  0.00     0.168 HD
ENDROOT
BRANCH   5  10
HETATM   10  C4  UNL     1       1.080  -1.293   1.878  1.00  0.00     0.058 C 
BRANCH  10  11
HETATM   11  C5  UNL     1       2.271  -0.785   1.151  1.00  0.00     0.018 C 
BRANCH  11  12
HETATM   12  C6  UNL     1       2.244   0.671   0.814  1.00  0.00     0.094 C 
BRANCH  12  13
HETATM   13  C7  UNL     1       3.478   1.079   0.096  1.00  0.00    -0.106 C 
HETATM   14  C8  UNL     1       4.468   1.421  -0.501  1.00  0.00    -0.096 C 
BRANCH  14  15
HETATM   15  C9  UNL     1       5.660   1.854  -1.237  1.00  0.00     0.178 C 
HETATM   16 BR1  UNL     1       5.133   3.351  -2.344  1.00  0.00    -0.083 Br
ENDBRANCH  14  15
ENDBRANCH  12  13
ENDBRANCH  11  12
ENDBRANCH  10  11
ENDBRANCH   5  10
BRANCH   7  17
HETATM   17  N2  UNL     1      -2.709   1.279   0.556  1.00  0.00    -0.317 N 
HETATM   18  C12 UNL     1      -3.883   1.518  -0.182  1.00  0.00     0.187 C 
HETATM   19  N3  UNL     1      -4.972   0.889   0.061  1.00  0.00    -0.373 N 
HETATM   20  N4  UNL     1      -3.862   2.478  -1.220  1.00  0.00    -0.064 NA
ATOM     21  H32 UNL     1      -4.987   0.197   0.810  1.00  0.00     0.158 HD
ATOM     22  H31 UNL     1      -5.823   1.062  -0.474  1.00  0.00     0.158 HD
ATOM     23  H2  UNL     1      -2.391   1.990   1.215  1.00  0.00     0.170 HD
ENDBRANCH   7  17
TORSDOF 6
