REMARK  6 active torsions:
REMARK  status: ('A' for Active; 'I' for Inactive)
REMARK    1  A    between atoms: C2_2  and  N1_3 
REMARK    2  A    between atoms: C2_2  and  C7_16 
REMARK    3  A    between atoms: C3_5  and  O1_6 
REMARK    4  A    between atoms: C3_5  and  C4_8 
REMARK    5  A    between atoms: C7_16  and  C9_18 
REMARK    6  A    between atoms: C13_24  and  C14_25 
ROOT
HETATM    1  C14 UNL     1      -3.847  -0.996  -0.407  1.00  0.00    -0.029 C 
HETATM    2  C15 UNL     1      -4.544  -1.995  -0.562  1.00  0.00     0.111 C 
HETATM    3  F1  UNL     1      -5.299  -3.110  -0.706  1.00  0.00    -0.143 F 
ENDROOT
BRANCH   1   4
HETATM    4  C13 UNL     1      -3.085   0.180  -0.153  1.00  0.00     0.050 A 
HETATM    5  C9  UNL     1      -1.788   0.194   0.418  1.00  0.00    -0.013 A 
HETATM    6  C10 UNL     1      -1.497   1.521   0.601  1.00  0.00     0.097 A 
HETATM    7  N4  UNL     1      -2.556   2.275   0.160  1.00  0.00    -0.368 N 
HETATM    8  C11 UNL     1      -3.507   1.472  -0.286  1.00  0.00     0.024 A 
ATOM      9  H4  UNL     1      -2.602   3.294   0.174  1.00  0.00     0.165 HD
HETATM   10  C12 UNL     1      -4.841   1.886  -0.833  1.00  0.00     0.070 C 
BRANCH   5  11
HETATM   11  C7  UNL     1      -0.999  -1.021   0.546  1.00  0.00     0.062 C 
HETATM   12  C8  UNL     1      -0.510  -1.093   2.032  1.00  0.00     0.021 C 
BRANCH  11  13
HETATM   13  C2  UNL     1       0.374  -0.909  -0.187  1.00  0.00    -0.007 C 
HETATM   14  C1  UNL     1       0.996  -2.251  -0.366  1.00  0.00     0.064 C 
BRANCH  13  15
HETATM   15  N1  UNL     1       0.948   0.113  -0.421  1.00  0.00    -0.342 N 
HETATM   16  C3  UNL     1       2.069   0.720  -0.833  1.00  0.00     0.169 C 
ATOM     17  H1  UNL     1       0.285   0.860  -0.213  1.00  0.00     0.167 HD
BRANCH  16  18
HETATM   18  O1  UNL     1       1.949   1.743  -1.676  1.00  0.00    -0.344 OA
ATOM     19  H1  UNL     1       2.744   2.173  -1.968  1.00  0.00     0.219 HD
ENDBRANCH  16  18
BRANCH  16  20
HETATM   20  C4  UNL     1       3.474   0.487  -0.514  1.00  0.00     0.103 A 
HETATM   21  C5  UNL     1       4.543   1.319  -0.867  1.00  0.00     0.127 A 
HETATM   22  N2  UNL     1       5.680   0.872  -0.337  1.00  0.00    -0.316 N 
HETATM   23  C6  UNL     1       5.395  -0.259   0.374  1.00  0.00     0.324 A 
ATOM     24  H2  UNL     1       6.600   1.299  -0.443  1.00  0.00     0.170 HD
HETATM   25  O2  UNL     1       6.179  -0.980   1.026  1.00  0.00    -0.247 OA
HETATM   26  N3  UNL     1       4.057  -0.458   0.241  1.00  0.00    -0.304 N 
ATOM     27  H3  UNL     1       3.553  -1.236   0.666  1.00  0.00     0.171 HD
ENDBRANCH  16  20
ENDBRANCH  13  15
ENDBRANCH  11  13
ENDBRANCH   5  11
ENDBRANCH   1   4
TORSDOF 6
