REMARK  4 active torsions:
REMARK  status: ('A' for Active; 'I' for Inactive)
REMARK    1  A    between atoms: C5_6  and  C6_7 
REMARK    2  A    between atoms: C6_7  and  C7_8 
REMARK    3  A    between atoms: C12_15  and  C13_16 
REMARK    4  A    between atoms: N2_17  and  N3_19 
ROOT
HETATM    1  C7  UNL     1       0.014  -0.261   0.555  1.00  0.00     0.045 A 
HETATM    2  N1  UNL     1       0.075  -0.753   1.792  1.00  0.00    -0.356 N 
ATOM      3  H1  UNL     1       0.936  -1.044   2.255  1.00  0.00     0.166 HD
HETATM    4  C8  UNL     1      -1.170  -0.818   2.362  1.00  0.00     0.030 A 
HETATM    5  C9  UNL     1      -1.462  -1.257   3.577  1.00  0.00     0.043 C 
HETATM    6  C10 UNL     1      -2.077  -0.352   1.465  1.00  0.00    -0.022 A 
HETATM    7  C11 UNL     1      -3.552  -0.241   1.656  1.00  0.00     0.051 C 
HETATM    8  C12 UNL     1      -1.363  -0.006   0.350  1.00  0.00     0.016 A 
ENDROOT
BRANCH   1   9
HETATM    9  C6  UNL     1       0.903  -0.012  -0.369  1.00  0.00     0.045 C 
BRANCH   9  10
HETATM   10  C5  UNL     1       2.331  -0.182  -0.402  1.00  0.00     0.003 A 
HETATM   11  C4  UNL     1       3.085   0.200  -1.622  1.00  0.00     0.047 A 
HETATM   12  C3  UNL     1       4.370   0.094  -1.770  1.00  0.00     0.053 A 
HETATM   13 CL1  UNL     1       2.142   0.848  -2.970  1.00  0.00    -0.083 Cl
HETATM   14  C2  UNL     1       5.182  -0.432  -0.692  1.00  0.00     0.024 A 
HETATM   15  C1  UNL     1       6.504  -0.559  -0.798  1.00  0.00     0.043 C 
HETATM   16  N4  UNL     1       4.514  -0.810   0.490  1.00  0.00    -0.366 N 
HETATM   17  C15 UNL     1       3.072  -0.655   0.565  1.00  0.00     0.101 A 
ATOM     18  H4  UNL     1       5.036  -1.187   1.281  1.00  0.00     0.165 HD
ENDBRANCH   9  10
ENDBRANCH   1   9
BRANCH   8  19
HETATM   19  C13 UNL     1      -1.977   0.543  -0.853  1.00  0.00     0.121 C 
HETATM   20  N2  UNL     1      -3.263   0.733  -0.921  1.00  0.00    -0.316 N 
ATOM     21  H2  UNL     1      -3.841   0.491  -0.116  1.00  0.00     0.185 HD
BRANCH  20  22
HETATM   22  N3  UNL     1      -3.869   1.250  -2.043  1.00  0.00    -0.341 N 
HETATM   23  C14 UNL     1      -5.178   1.841  -1.955  1.00  0.00     0.167 C 
ATOM     24  H3  UNL     1      -3.388   1.214  -2.942  1.00  0.00     0.179 HD
ENDBRANCH  20  22
ENDBRANCH   8  19
TORSDOF 4
