REMARK  5 active torsions:
REMARK  status: ('A' for Active; 'I' for Inactive)
REMARK    1  A    between atoms: C2_2  and  N1_3 
REMARK       I    between atoms: C3_5  and  N2_6 
REMARK       I    between atoms: C3_5  and  N7_23 
REMARK    2  A    between atoms: C5_11  and  N4_12 
REMARK    3  A    between atoms: N4_12  and  C6_14 
REMARK    4  A    between atoms: C6_14  and  C7_15 
REMARK    5  A    between atoms: N7_23  and  C11_25 
ROOT
HETATM    1  C7  UNL     1       6.337   0.345  -1.054  1.00  0.00     0.144 C 
HETATM    2  C8  UNL     1       6.151   1.730  -1.486  1.00  0.00     0.060 C 
HETATM    3  N5  UNL     1       6.002   2.828  -1.849  1.00  0.00    -0.197 NA
ENDROOT
BRANCH   1   4
HETATM    4  C6  UNL     1       5.088  -0.469  -1.299  1.00  0.00     0.152 C 
BRANCH   4   5
HETATM    5  N4  UNL     1       3.970   0.089  -0.564  1.00  0.00    -0.225 N 
ATOM      6  H4  UNL     1       4.091   0.964  -0.054  1.00  0.00     0.177 HD
BRANCH   5   7
HETATM    7  C5  UNL     1       2.811  -0.512  -0.545  1.00  0.00     0.679 A 
HETATM    8  N3  UNL     1       1.766  -0.024   0.120  1.00  0.00    -0.174 N 
HETATM    9  C4  UNL     1       0.543  -0.636   0.154  1.00  0.00     0.159 A 
ATOM     10  H3  UNL     1       1.883   0.851   0.630  1.00  0.00     0.186 HD
HETATM   11  N2  UNL     1      -0.383  -0.109   0.802  1.00  0.00    -0.175 N 
HETATM   12  C10 UNL     1       0.369  -1.813  -0.528  1.00  0.00     0.095 A 
HETATM   13  C3  UNL     1      -1.696  -0.405   1.065  1.00  0.00     0.675 C 
ATOM     14  H2  UNL     1      -0.090   0.760   1.248  1.00  0.00     0.186 HD
HETATM   15  N1  UNL     1      -2.085  -1.135   2.077  1.00  0.00    -0.227 N 
HETATM   16  N7  UNL     1      -2.729   0.088   0.233  1.00  0.00    -0.222 N 
ATOM     17  H1  UNL     1      -1.371  -1.504   2.705  1.00  0.00     0.177 HD
ATOM     18  H7  UNL     1      -3.435  -0.555  -0.126  1.00  0.00     0.178 HD
HETATM   19  C9  UNL     1       1.479  -2.311  -1.222  1.00  0.00     0.133 A 
HETATM   20 CL1  UNL     1      -1.151  -2.698  -0.567  1.00  0.00    -0.079 Cl
HETATM   21  N6  UNL     1       2.655  -1.665  -1.218  1.00  0.00    -0.200 N 
ATOM     22  H6  UNL     1       3.444  -2.055  -1.734  1.00  0.00     0.183 HD
BRANCH  15  23
HETATM   23  C2  UNL     1      -3.453  -1.448   2.357  1.00  0.00     0.133 C 
HETATM   24  C1  UNL     1      -4.210  -0.206   2.757  1.00  0.00     0.027 C 
ENDBRANCH  15  23
BRANCH  16  25
HETATM   25  C11 UNL     1      -2.799   1.479  -0.114  1.00  0.00     0.091 C 
HETATM   26  C12 UNL     1      -4.019   1.708  -0.988  1.00  0.00     0.032 C 
HETATM   27  C13 UNL     1      -1.563   2.002  -0.807  1.00  0.00     0.032 C 
ENDBRANCH  16  25
ENDBRANCH   5   7
ENDBRANCH   4   5
ENDBRANCH   1   4
TORSDOF 5
