REMARK  3 active torsions:
REMARK  status: ('A' for Active; 'I' for Inactive)
REMARK    1  A    between atoms: C3_7  and  N3_8 
REMARK    2  A    between atoms: N3_8  and  C4_10 
REMARK    3  A    between atoms: C4_10  and  C5_11 
ROOT
HETATM    1  C1  UNL     1      -3.367  -3.138  -1.734  1.00  0.00     0.147 C 
HETATM    2  N1  UNL     1      -2.174  -2.490  -1.977  1.00  0.00    -0.378 N 
ATOM      3  H1  UNL     1      -1.658  -2.920  -2.745  1.00  0.00     0.160 HD
HETATM    4  C2  UNL     1      -1.571  -1.524  -1.504  1.00  0.00     0.147 A 
HETATM    5  N2  UNL     1      -0.349  -1.147  -2.021  1.00  0.00    -0.175 N 
ATOM      6  H2  UNL     1       0.028  -1.691  -2.797  1.00  0.00     0.186 HD
HETATM    7  C3  UNL     1       0.368  -0.125  -1.576  1.00  0.00     0.681 A 
HETATM    8  N4  UNL     1      -0.125   0.589  -0.559  1.00  0.00    -0.174 N 
ATOM      9  H4  UNL     1       0.412   1.380  -0.203  1.00  0.00     0.186 HD
HETATM   10  C11 UNL     1      -1.322   0.293   0.016  1.00  0.00     0.155 A 
HETATM   11  C12 UNL     1      -2.082  -0.779  -0.445  1.00  0.00     0.123 A 
HETATM   12  N5  UNL     1      -3.187  -0.810   0.312  1.00  0.00    -0.340 N 
ATOM     13  H5  UNL     1      -3.954  -1.478   0.233  1.00  0.00     0.167 HD
HETATM   14  C13 UNL     1      -3.099   0.214   1.206  1.00  0.00     0.081 A 
HETATM   15  C14 UNL     1      -4.146   0.516   2.233  1.00  0.00     0.089 C 
HETATM   16  N6  UNL     1      -1.974   0.886   1.034  1.00  0.00    -0.325 N 
HETATM   17  C15 UNL     1      -1.497   2.053   1.784  1.00  0.00     0.159 C 
ENDROOT
BRANCH   7  18
HETATM   18  N3  UNL     1       1.512   0.166  -2.117  1.00  0.00    -0.222 N 
ATOM     19  H3  UNL     1       1.838  -0.415  -2.890  1.00  0.00     0.178 HD
BRANCH  18  20
HETATM   20  C4  UNL     1       2.341   1.249  -1.696  1.00  0.00     0.176 C 
BRANCH  20  21
HETATM   21  C5  UNL     1       3.316   0.818  -0.654  1.00  0.00    -0.040 A 
HETATM   22  C6  UNL     1       3.344  -0.483  -0.254  1.00  0.00     0.012 A 
HETATM   23  C7  UNL     1       4.228  -0.926   0.706  1.00  0.00     0.043 A 
HETATM   24  C8  UNL     1       5.111  -0.042   1.284  1.00  0.00     0.116 A 
HETATM   25  F1  UNL     1       5.997  -0.471   2.242  1.00  0.00    -0.206 F 
HETATM   26  C9  UNL     1       5.088   1.272   0.884  1.00  0.00     0.043 A 
HETATM   27  C10 UNL     1       4.200   1.696  -0.074  1.00  0.00     0.012 A 
ENDBRANCH  20  21
ENDBRANCH  18  20
ENDBRANCH   7  18
TORSDOF 3
