REMARK  6 active torsions:
REMARK  status: ('A' for Active; 'I' for Inactive)
REMARK    1  A    between atoms: N2_7  and  C4_8 
REMARK    2  A    between atoms: C4_8  and  C5_9 
REMARK       I    between atoms: C5_9  and  N3_11 
REMARK    3  A    between atoms: N3_11  and  C6_13 
REMARK    4  A    between atoms: C6_13  and  C9_16 
REMARK    5  A    between atoms: C13_20  and  C14_21 
REMARK    6  A    between atoms: C14_21  and  O3_22 
ROOT
HETATM    1  C4  UNL     1       1.104   0.924  -1.054  1.00  0.00     0.231 C 
ENDROOT
BRANCH   1   2
HETATM    2  N2  UNL     1       2.444   0.493  -0.839  1.00  0.00    -0.317 N 
HETATM    3  C3  UNL     1       3.097  -0.447  -1.680  1.00  0.00     0.319 C 
HETATM    4  N1  UNL     1       4.422  -0.648  -1.238  1.00  0.00    -0.337 N 
HETATM    5  O1  UNL     1       2.598  -1.044  -2.694  1.00  0.00    -0.247 OA
HETATM    6  C2  UNL     1       4.729   0.446  -0.342  1.00  0.00     0.107 C 
ATOM      7  H1  UNL     1       5.042  -1.415  -1.499  1.00  0.00     0.164 HD
HETATM    8  C1  UNL     1       5.723  -0.073   0.654  1.00  0.00     0.034 C 
HETATM    9  C13 UNL     1       3.413   0.862   0.180  1.00  0.00     0.135 C 
BRANCH   9  10
HETATM   10  C14 UNL     1       3.105   0.320   1.520  1.00  0.00     0.191 C 
BRANCH  10  11
HETATM   11  O3  UNL     1       4.055   0.756   2.437  1.00  0.00    -0.399 OA
ATOM     12  H3  UNL     1       3.857   0.408   3.298  1.00  0.00     0.209 HD
ENDBRANCH  10  11
ENDBRANCH   9  10
ENDBRANCH   1   2
BRANCH   1  13
HETATM   13  C5  UNL     1       0.070   0.125  -0.408  1.00  0.00     0.236 C 
HETATM   14  O2  UNL     1       0.405  -0.873   0.278  1.00  0.00    -0.272 OA
HETATM   15  N3  UNL     1      -1.321   0.391  -0.494  1.00  0.00    -0.350 N 
ATOM     16  H3  UNL     1      -1.614   1.197  -1.046  1.00  0.00     0.163 HD
BRANCH  15  17
HETATM   17  C6  UNL     1      -2.341  -0.387   0.135  1.00  0.00     0.032 C 
HETATM   18  C7  UNL     1      -2.170  -0.405   1.640  1.00  0.00     0.039 C 
HETATM   19  C8  UNL     1      -2.285  -1.850  -0.318  1.00  0.00     0.039 C 
BRANCH  17  20
HETATM   20  C9  UNL     1      -3.716   0.114  -0.238  1.00  0.00    -0.027 C 
HETATM   21  C10 UNL     1      -4.774  -0.721   0.436  1.00  0.00     0.017 C 
HETATM   22  C11 UNL     1      -3.940   1.551   0.078  1.00  0.00     0.017 C 
HETATM   23  C12 UNL     1      -3.877  -0.074  -1.740  1.00  0.00     0.017 C 
ENDBRANCH  17  20
ENDBRANCH  15  17
ENDBRANCH   1  13
TORSDOF 6
