REMARK  4 active torsions:
REMARK  status: ('A' for Active; 'I' for Inactive)
REMARK    1  A    between atoms: C2_2  and  N1_3 
REMARK       I    between atoms: C3_5  and  N2_6 
REMARK       I    between atoms: C3_5  and  N5_21 
REMARK    2  A    between atoms: N2_6  and  C4_8 
REMARK    3  A    between atoms: C6_12  and  S1_13 
REMARK    4  A    between atoms: S1_13  and  C7_16 
ROOT
HETATM    1  C4  UNL     1       0.205  -0.280  -0.753  1.00  0.00     0.697 A 
HETATM    2  N3  UNL     1       0.389   0.984  -0.345  1.00  0.00    -0.198 N 
ATOM      3  H3  UNL     1       1.257   1.385   0.010  1.00  0.00     0.183 HD
HETATM    4  C5  UNL     1      -0.770   1.616  -0.490  1.00  0.00     0.148 A 
HETATM    5  C6  UNL     1      -1.696   0.727  -0.999  1.00  0.00     0.160 A 
HETATM    6  N4  UNL     1      -1.057  -0.457  -1.155  1.00  0.00    -0.179 N 
ATOM      7  H4  UNL     1      -1.463  -1.322  -1.512  1.00  0.00     0.185 HD
ENDROOT
BRANCH   1   8
HETATM    8  N2  UNL     1       1.133  -1.179  -0.749  1.00  0.00    -0.022 N 
HETATM    9  C3  UNL     1       2.449  -0.940  -0.314  1.00  0.00     0.688 C 
HETATM   10  N1  UNL     1       3.328  -0.362  -1.053  1.00  0.00    -0.226 N 
HETATM   11  N5  UNL     1       2.807  -1.356   0.992  1.00  0.00    -0.230 N 
ATOM     12  H1  UNL     1       3.077  -0.058  -1.994  1.00  0.00     0.177 HD
HETATM   13  C10 UNL     1       3.297  -2.699   1.196  1.00  0.00     0.165 C 
ATOM     14  H5  UNL     1       2.720  -0.714   1.780  1.00  0.00     0.177 HD
ATOM     15  H2  UNL     1       0.898  -2.115  -1.080  1.00  0.00     0.203 HD
BRANCH  10  16
HETATM   16  C2  UNL     1       4.657  -0.141  -0.565  1.00  0.00     0.133 C 
HETATM   17  C1  UNL     1       4.651   1.026   0.393  1.00  0.00     0.027 C 
ENDBRANCH  10  16
ENDBRANCH   1   8
BRANCH   5  18
HETATM   18  S1  UNL     1      -3.344   0.970  -1.390  1.00  0.00     0.196 S 
HETATM   19  O1  UNL     1      -3.517   2.410  -1.846  1.00  0.00    -0.221 OA
HETATM   20  O2  UNL     1      -3.720   0.115  -2.567  1.00  0.00    -0.221 OA
BRANCH  18  21
HETATM   21  C7  UNL     1      -4.477   0.663  -0.097  1.00  0.00     0.107 C 
HETATM   22  C8  UNL     1      -4.284   1.483   1.128  1.00  0.00     0.026 C 
HETATM   23  C9  UNL     1      -4.452  -0.834   0.229  1.00  0.00     0.026 C 
ENDBRANCH  18  21
ENDBRANCH   5  18
TORSDOF 4
