REMARK  4 active torsions:
REMARK  status: ('A' for Active; 'I' for Inactive)
REMARK    1  A    between atoms: C2_2  and  S1_3 
REMARK    2  A    between atoms: S1_3  and  C3_4 
REMARK    3  A    between atoms: C11_14  and  C12_15 
REMARK    4  A    between atoms: C13_21  and  O1_23 
ROOT
HETATM    1  C3  UNL     1       2.881  -0.265  -0.360  1.00  0.00     0.086 A 
HETATM    2  N1  UNL     1       1.799   0.487  -0.275  1.00  0.00    -0.349 N 
ATOM      3  H1  UNL     1       1.777   1.499  -0.402  1.00  0.00     0.166 HD
HETATM    4  C4  UNL     1       0.730  -0.282   0.004  1.00  0.00     0.053 A 
HETATM    5  C5  UNL     1      -0.602   0.019   0.175  1.00  0.00    -0.004 A 
HETATM    6  C6  UNL     1      -1.489  -0.970   0.432  1.00  0.00     0.039 A 
HETATM    7  C7  UNL     1      -1.054  -2.267   0.520  1.00  0.00     0.037 A 
HETATM    8  C8  UNL     1       0.298  -2.622   0.352  1.00  0.00    -0.046 A 
HETATM    9  C9  UNL     1       0.696  -4.027   0.379  1.00  0.00     0.049 C 
HETATM   10  C10 UNL     1       1.197  -1.611   0.095  1.00  0.00     0.015 A 
HETATM   11  C11 UNL     1       2.561  -1.632  -0.128  1.00  0.00     0.094 A 
HETATM   12  N2  UNL     1      -2.854  -0.639   0.608  1.00  0.00    -0.358 N 
ATOM     13  H2  UNL     1      -3.479  -1.307   1.060  1.00  0.00     0.162 HD
HETATM   14  C13 UNL     1      -3.381   0.646   0.152  1.00  0.00     0.130 C 
HETATM   15  C14 UNL     1      -3.638   0.466  -1.344  1.00  0.00     0.071 C 
HETATM   16  C16 UNL     1      -2.400   1.734   0.430  1.00  0.00     0.065 C 
HETATM   17  C17 UNL     1      -0.997   1.442   0.062  1.00  0.00     0.048 C 
ENDROOT
BRANCH  11  18
HETATM   18  C12 UNL     1       3.493  -2.742  -0.157  1.00  0.00     0.421 C 
HETATM   19  F1  UNL     1       4.028  -3.082  -1.379  1.00  0.00    -0.166 F 
HETATM   20  F2  UNL     1       4.733  -2.038   0.309  1.00  0.00    -0.166 F 
HETATM   21  F3  UNL     1       3.529  -3.662   0.826  1.00  0.00    -0.166 F 
ENDBRANCH  11  18
BRANCH   1  22
HETATM   22  S1  UNL     1       4.569   0.238  -0.717  1.00  0.00    -0.112 SA
BRANCH  22  23
HETATM   23  C2  UNL     1       4.588   2.034  -0.914  1.00  0.00     0.076 C 
HETATM   24  C1  UNL     1       4.271   2.637   0.456  1.00  0.00     0.016 C 
ENDBRANCH  22  23
ENDBRANCH   1  22
BRANCH  14  25
HETATM   25  O1  UNL     1      -4.562   0.839   0.847  1.00  0.00    -0.366 OA
HETATM   26  C15 UNL     1      -5.206   2.011   0.545  1.00  0.00     0.204 C 
ENDBRANCH  14  25
TORSDOF 4
