REMARK  5 active torsions:
REMARK  status: ('A' for Active; 'I' for Inactive)
REMARK    1  A    between atoms: C2_2  and  C3_3 
REMARK    2  A    between atoms: C2_2  and  C6_8 
REMARK    3  A    between atoms: C4_4  and  C5_5 
REMARK    4  A    between atoms: C5_5  and  O1_6 
REMARK    5  A    between atoms: C16_19  and  O3_20 
ROOT
HETATM    1  C6  UNL     1       2.552   0.109  -0.335  1.00  0.00     0.001 C 
HETATM    2  C7  UNL     1       2.606  -0.763  -1.565  1.00  0.00     0.006 C 
HETATM    3  C8  UNL     1       1.147  -0.790  -2.094  1.00  0.00     0.006 C 
HETATM    4  C9  UNL     1       0.450  -0.745  -0.761  1.00  0.00    -0.001 C 
HETATM    5  C10 UNL     1      -1.007  -0.675  -0.755  1.00  0.00    -0.001 C 
HETATM    6  C11 UNL     1      -1.520  -2.003  -1.348  1.00  0.00     0.033 C 
HETATM    7  C12 UNL     1      -2.998  -1.845  -1.367  1.00  0.00    -0.022 C 
HETATM    8  C13 UNL     1      -3.596  -1.163  -0.424  1.00  0.00    -0.068 C 
HETATM    9  C14 UNL     1      -5.103  -1.055  -0.526  1.00  0.00     0.117 C 
HETATM   10  C15 UNL     1      -5.343   0.434  -0.604  1.00  0.00     0.179 C 
HETATM   11  O2  UNL     1      -5.980   0.927  -1.514  1.00  0.00    -0.293 OA
HETATM   12  C16 UNL     1      -4.771   1.241   0.468  1.00  0.00     0.208 C 
HETATM   13  C17 UNL     1      -4.840   2.664   0.053  1.00  0.00     0.106 C 
HETATM   14  N1  UNL     1      -4.888   3.769  -0.287  1.00  0.00    -0.194 NA
HETATM   15  C18 UNL     1      -3.375   0.946   0.871  1.00  0.00     0.076 C 
HETATM   16  C19 UNL     1      -2.956  -0.489   0.731  1.00  0.00    -0.012 C 
HETATM   17  C20 UNL     1      -3.491  -1.219   1.974  1.00  0.00     0.021 C 
HETATM   18  C21 UNL     1      -1.461  -0.664   0.689  1.00  0.00     0.003 C 
HETATM   19  C22 UNL     1      -0.703   0.241   1.579  1.00  0.00     0.007 C 
HETATM   20  C23 UNL     1       0.671   0.606   1.244  1.00  0.00     0.010 C 
HETATM   21  C24 UNL     1       1.121   0.477  -0.173  1.00  0.00    -0.036 C 
HETATM   22  C25 UNL     1       0.814   1.671  -1.024  1.00  0.00     0.016 C 
ENDROOT
BRANCH  12  23
HETATM   23  O3  UNL     1      -5.654   1.158   1.570  1.00  0.00    -0.369 OA
ATOM     24  H3  UNL     1      -5.281   1.684   2.268  1.00  0.00     0.212 HD
ENDBRANCH  12  23
BRANCH   1  25
HETATM   25  C2  UNL     1       3.545   1.171  -0.401  1.00  0.00     0.008 C 
HETATM   26  C1  UNL     1       3.512   2.151   0.777  1.00  0.00     0.014 C 
BRANCH  25  27
HETATM   27  C3  UNL     1       4.928   0.639  -0.316  1.00  0.00    -0.024 C 
HETATM   28  C4  UNL     1       5.263  -0.603  -0.125  1.00  0.00    -0.005 C 
BRANCH  28  29
HETATM   29  C5  UNL     1       6.713  -1.036  -0.059  1.00  0.00     0.191 C 
BRANCH  29  30
HETATM   30  O1  UNL     1       6.917  -1.610   1.201  1.00  0.00    -0.397 OA
ATOM     31  H1  UNL     1       7.826  -1.882   1.242  1.00  0.00     0.209 HD
ENDBRANCH  29  30
ENDBRANCH  28  29
ENDBRANCH  25  27
ENDBRANCH   1  25
TORSDOF 5
