REMARK  5 active torsions:
REMARK  status: ('A' for Active; 'I' for Inactive)
REMARK    1  A    between atoms: C11_11  and  C13_13 
REMARK    2  A    between atoms: C13_13  and  C14_14 
REMARK    3  A    between atoms: C14_14  and  C15_15 
REMARK    4  A    between atoms: C24_26  and  O3_27 
REMARK    5  A    between atoms: C25_29  and  O4_30 
ROOT
HETATM    1  C1  UNL     1      -3.191   0.287   2.565  1.00  0.00     0.018 C 
HETATM    2  C2  UNL     1      -3.253  -0.004   1.107  1.00  0.00    -0.008 C 
HETATM    3  C3  UNL     1      -2.916   1.154   0.217  1.00  0.00     0.017 C 
HETATM    4  C4  UNL     1      -1.590   1.707   0.677  1.00  0.00     0.036 C 
HETATM    5  C5  UNL     1      -0.451   0.741   0.742  1.00  0.00    -0.068 C 
HETATM    6  C6  UNL     1      -0.862  -0.631   1.047  1.00  0.00    -0.072 C 
HETATM    7  C7  UNL     1       0.162  -1.688   0.751  1.00  0.00     0.036 C 
HETATM    8  C8  UNL     1       0.904  -1.533  -0.501  1.00  0.00     0.015 C 
HETATM    9  C9  UNL     1       1.334  -0.147  -0.894  1.00  0.00    -0.025 C 
HETATM   10  C10 UNL     1       1.044  -0.106  -2.418  1.00  0.00     0.017 C 
HETATM   11  C11 UNL     1       2.854  -0.172  -0.852  1.00  0.00    -0.035 C 
HETATM   12  C12 UNL     1       3.430  -1.106  -1.922  1.00  0.00     0.016 C 
HETATM   13  C16 UNL     1       3.450   1.168  -1.200  1.00  0.00     0.010 C 
HETATM   14  C17 UNL     1       2.954   2.152  -0.217  1.00  0.00     0.002 C 
HETATM   15  C18 UNL     1       1.668   1.925   0.420  1.00  0.00     0.014 C 
HETATM   16  C19 UNL     1       0.670   0.998  -0.262  1.00  0.00    -0.012 C 
HETATM   17  C20 UNL     1       0.096   1.942  -1.345  1.00  0.00     0.021 C 
HETATM   18  C21 UNL     1      -2.266  -1.071   0.676  1.00  0.00     0.025 C 
HETATM   19  C22 UNL     1      -2.441  -1.519  -0.717  1.00  0.00     0.012 C 
HETATM   20  C23 UNL     1      -3.810  -1.663  -1.221  1.00  0.00     0.035 C 
HETATM   21  C24 UNL     1      -4.902  -0.937  -0.545  1.00  0.00     0.147 C 
HETATM   22  C25 UNL     1      -4.652  -0.536   0.855  1.00  0.00     0.155 C 
ENDROOT
BRANCH  11  23
HETATM   23  C13 UNL     1       3.441  -0.655   0.428  1.00  0.00     0.020 C 
BRANCH  23  24
HETATM   24  C14 UNL     1       4.952  -0.687   0.490  1.00  0.00     0.114 C 
BRANCH  24  25
HETATM   25  C15 UNL     1       5.304  -1.228   1.860  1.00  0.00     0.172 C 
HETATM   26  O1  UNL     1       6.535  -1.326   2.094  1.00  0.00    -0.648 OA
HETATM   27  O2  UNL     1       4.359  -1.585   2.780  1.00  0.00    -0.648 OA
ENDBRANCH  24  25
ENDBRANCH  23  24
ENDBRANCH  11  23
BRANCH  22  28
HETATM   28  O4  UNL     1      -5.600   0.443   1.205  1.00  0.00    -0.392 OA
ATOM     29  H4  UNL     1      -6.476   0.110   1.047  1.00  0.00     0.210 HD
ENDBRANCH  22  28
BRANCH  21  30
HETATM   30  O3  UNL     1      -5.293   0.208  -1.282  1.00  0.00    -0.393 OA
ATOM     31  H3  UNL     1      -5.996   0.675  -0.847  1.00  0.00     0.210 HD
ENDBRANCH  21  30
TORSDOF 5
