REMARK  5 active torsions:
REMARK  status: ('A' for Active; 'I' for Inactive)
REMARK    1  A    between atoms: C4_4  and  C5_5 
REMARK    2  A    between atoms: C12_14  and  C13_15 
REMARK    3  A    between atoms: C13_15  and  O1_16 
REMARK    4  A    between atoms: N2_20  and  C16_21 
REMARK    5  A    between atoms: C21_26  and  O2_27 
ROOT
HETATM    1  C1  UNL     1      -4.501  -4.470  -0.414  1.00  0.00     0.068 C 
HETATM    2  C2  UNL     1      -3.774  -3.225  -0.084  1.00  0.00     0.007 A 
HETATM    3  C3  UNL     1      -4.352  -1.965  -0.292  1.00  0.00     0.034 A 
HETATM    4  C4  UNL     1      -3.693  -0.801   0.021  1.00  0.00    -0.022 A 
HETATM    5  C11 UNL     1      -2.420  -0.967   0.552  1.00  0.00     0.085 A 
HETATM    6  N1  UNL     1      -1.474  -0.030   0.821  1.00  0.00    -0.340 N 
ATOM      7  H1  UNL     1      -1.600   0.981   0.769  1.00  0.00     0.167 HD
HETATM    8  C12 UNL     1      -0.371  -0.652   1.159  1.00  0.00     0.118 A 
HETATM    9  N3  UNL     1      -0.573  -1.999   1.133  1.00  0.00    -0.328 N 
ATOM     10  H3  UNL     1       0.109  -2.723   1.360  1.00  0.00     0.169 HD
HETATM   11  C24 UNL     1      -1.866  -2.189   0.744  1.00  0.00     0.134 A 
HETATM   12  N4  UNL     1      -2.544  -3.302   0.431  1.00  0.00    -0.344 N 
ATOM     13  H4  UNL     1      -2.117  -4.215   0.587  1.00  0.00     0.167 HD
ENDROOT
BRANCH   8  14
HETATM   14  C13 UNL     1       1.027  -0.145   1.342  1.00  0.00     0.119 C 
HETATM   15  C14 UNL     1       1.172   1.245   0.815  1.00  0.00     0.076 C 
HETATM   16  C15 UNL     1       2.659   1.571   0.834  1.00  0.00     0.276 C 
HETATM   17  N2  UNL     1       3.340   0.880  -0.250  1.00  0.00     0.095 N 
HETATM   18  C22 UNL     1       2.621  -0.313  -0.619  1.00  0.00     0.276 C 
HETATM   19  C23 UNL     1       1.936  -1.035   0.480  1.00  0.00     0.076 C 
BRANCH  14  20
HETATM   20  O1  UNL     1       1.438  -0.226   2.644  1.00  0.00    -0.382 OA
ATOM     21  H1  UNL     1       2.324   0.095   2.760  1.00  0.00     0.211 HD
ENDBRANCH  14  20
BRANCH  17  22
HETATM   22  C16 UNL     1       4.733   0.625  -0.005  1.00  0.00     0.251 C 
HETATM   23  C17 UNL     1       5.192  -0.778  -0.099  1.00  0.00     0.038 C 
HETATM   24  C18 UNL     1       6.647  -0.822   0.420  1.00  0.00     0.002 C 
HETATM   25  C19 UNL     1       7.540   0.095  -0.347  1.00  0.00     0.003 C 
HETATM   26  C20 UNL     1       6.999   1.499  -0.477  1.00  0.00     0.034 C 
HETATM   27  C21 UNL     1       5.555   1.497  -0.912  1.00  0.00     0.151 C 
BRANCH  27  28
HETATM   28  O2  UNL     1       5.458   1.008  -2.201  1.00  0.00    -0.393 OA
ATOM     29  H2  UNL     1       5.978   1.559  -2.774  1.00  0.00     0.210 HD
ENDBRANCH  27  28
ENDBRANCH  17  22
ENDBRANCH   8  14
BRANCH   4  30
HETATM   30  C5  UNL     1      -4.316   0.550  -0.009  1.00  0.00     0.021 C 
HETATM   31  C6  UNL     1      -4.735   0.863  -1.427  1.00  0.00     0.009 C 
HETATM   32  C7  UNL     1      -5.487   2.132  -1.536  1.00  0.00     0.001 C 
HETATM   33  C8  UNL     1      -6.656   2.247  -0.599  1.00  0.00     0.000 C 
HETATM   34  C9  UNL     1      -6.428   1.570   0.717  1.00  0.00     0.001 C 
HETATM   35  C10 UNL     1      -5.732   0.255   0.638  1.00  0.00     0.009 C 
ENDBRANCH   4  30
TORSDOF 5
