REMARK  5 active torsions:
REMARK  status: ('A' for Active; 'I' for Inactive)
REMARK    1  A    between atoms: C2_2  and  N1_4 
REMARK    2  A    between atoms: N1_4  and  C4_6 
REMARK    3  A    between atoms: C4_6  and  N2_8 
REMARK    4  A    between atoms: N2_8  and  N3_10 
REMARK       I    between atoms: N3_10  and  C5_12 
REMARK    5  A    between atoms: C5_12  and  C6_14 
ROOT
HETATM    1  C6  UNL     1      -2.312  -1.000  -0.377  1.00  0.00     0.106 A 
HETATM    2  C7  UNL     1      -2.886  -1.711  -1.463  1.00  0.00     0.057 A 
HETATM    3  C8  UNL     1      -3.998  -1.011  -1.852  1.00  0.00     0.051 A 
HETATM    4 BR1  UNL     1      -5.229  -1.424  -3.275  1.00  0.00    -0.048 Br
HETATM    5  C9  UNL     1      -4.114   0.093  -1.040  1.00  0.00     0.134 A 
HETATM    6  C10 UNL     1      -5.145   1.099  -1.107  1.00  0.00     0.119 C 
HETATM    7  N4  UNL     1      -5.965   1.916  -1.157  1.00  0.00    -0.190 NA
HETATM    8  N5  UNL     1      -3.071   0.074  -0.147  1.00  0.00    -0.337 N 
HETATM    9  C11 UNL     1      -2.917   1.100   0.859  1.00  0.00     0.157 C 
ENDROOT
BRANCH   1  10
HETATM   10  C5  UNL     1      -1.134  -1.456   0.305  1.00  0.00     0.286 C 
HETATM   11  N3  UNL     1      -0.364  -0.724   1.221  1.00  0.00    -0.262 N 
ATOM     12  H3  UNL     1      -0.628   0.234   1.451  1.00  0.00     0.190 HD
HETATM   13  O1  UNL     1      -0.739  -2.664   0.049  1.00  0.00    -0.264 OA
BRANCH  11  14
HETATM   14  N2  UNL     1       0.776  -1.302   1.829  1.00  0.00    -0.274 N 
ATOM     15  H2  UNL     1       0.678  -1.955   2.606  1.00  0.00     0.189 HD
BRANCH  14  16
HETATM   16  C4  UNL     1       2.049  -0.955   1.337  1.00  0.00     0.186 C 
HETATM   17  S1  UNL     1       3.384  -1.611   2.042  1.00  0.00    -0.040 SA
BRANCH  16  18
HETATM   18  N1  UNL     1       2.190  -0.053   0.251  1.00  0.00    -0.362 N 
ATOM     19  H1  UNL     1       1.370   0.357  -0.196  1.00  0.00     0.162 HD
BRANCH  18  20
HETATM   20  C2  UNL     1       3.539   0.277  -0.215  1.00  0.00     0.076 C 
HETATM   21  C1  UNL     1       4.306   0.960   0.886  1.00  0.00     0.032 C 
HETATM   22  C3  UNL     1       3.481   1.208  -1.409  1.00  0.00     0.032 C 
ENDBRANCH  18  20
ENDBRANCH  16  18
ENDBRANCH  14  16
ENDBRANCH  11  14
ENDBRANCH   1  10
TORSDOF 5
