REMARK  4 active torsions:
REMARK  status: ('A' for Active; 'I' for Inactive)
REMARK    1  A    between atoms: C2_2  and  N1_5 
REMARK       I    between atoms: N1_5  and  C5_7 
REMARK    2  A    between atoms: C5_7  and  C6_9 
REMARK    3  A    between atoms: C11_17  and  C12_18 
REMARK       I    between atoms: C12_18  and  N3_20 
REMARK    4  A    between atoms: N3_20  and  N4_22 
ROOT
HETATM    1  C6  UNL     1      -0.286   0.120   0.872  1.00  0.00     0.102 C 
HETATM    2 BR1  UNL     1      -0.414   1.846   1.702  1.00  0.00    -0.043 Br
HETATM    3  C7  UNL     1      -1.332  -0.669   0.752  1.00  0.00     0.045 C 
HETATM    4  N2  UNL     1      -1.186  -1.937   0.136  1.00  0.00    -0.371 N 
ATOM      5  H2  UNL     1      -0.272  -2.388   0.172  1.00  0.00     0.164 HD
HETATM    6  C8  UNL     1      -2.138  -2.549  -0.464  1.00  0.00     0.061 C 
HETATM    7  C9  UNL     1      -3.465  -1.887  -0.514  1.00  0.00     0.046 C 
HETATM    8  C10 UNL     1      -3.732  -1.275   0.833  1.00  0.00     0.025 C 
HETATM    9  C11 UNL     1      -2.673  -0.289   1.239  1.00  0.00     0.131 C 
ENDROOT
BRANCH   1  10
HETATM   10  C5  UNL     1       1.036  -0.258   0.393  1.00  0.00     0.261 C 
HETATM   11  N1  UNL     1       2.153   0.573   0.517  1.00  0.00    -0.348 N 
ATOM     12  H1  UNL     1       2.035   1.483   0.962  1.00  0.00     0.163 HD
HETATM   13  O1  UNL     1       1.167  -1.380  -0.152  1.00  0.00    -0.267 OA
BRANCH  11  14
HETATM   14  C2  UNL     1       3.455   0.206   0.048  1.00  0.00     0.022 C 
HETATM   15  C1  UNL     1       3.356  -0.035  -1.453  1.00  0.00     0.037 C 
HETATM   16  C3  UNL     1       4.448   1.334   0.238  1.00  0.00     0.037 C 
HETATM   17  C4  UNL     1       4.024  -1.012   0.729  1.00  0.00     0.037 C 
ENDBRANCH  11  14
ENDBRANCH   1  10
BRANCH   9  18
HETATM   18  C12 UNL     1      -3.106   1.068   0.914  1.00  0.00     0.245 C 
HETATM   19  O2  UNL     1      -3.582   1.811   1.841  1.00  0.00    -0.271 OA
HETATM   20  N3  UNL     1      -3.042   1.638  -0.375  1.00  0.00    -0.276 N 
ATOM     21  H3  UNL     1      -2.667   1.077  -1.140  1.00  0.00     0.189 HD
BRANCH  20  22
HETATM   22  N4  UNL     1      -3.470   2.934  -0.644  1.00  0.00    -0.343 N 
ATOM     23  H42 UNL     1      -3.842   3.480   0.133  1.00  0.00     0.176 HD
ATOM     24  H41 UNL     1      -3.424   3.346  -1.576  1.00  0.00     0.176 HD
ENDBRANCH  20  22
ENDBRANCH   9  18
TORSDOF 4
