REMARK  5 active torsions:
REMARK  status: ('A' for Active; 'I' for Inactive)
REMARK    1  A    between atoms: N2_5  and  N3_7 
REMARK    2  A    between atoms: N3_7  and  C4_9 
REMARK    3  A    between atoms: C4_9  and  N4_11 
REMARK    4  A    between atoms: N4_11  and  N5_13 
REMARK       I    between atoms: N5_13  and  C5_15 
REMARK    5  A    between atoms: C5_15  and  C6_17 
ROOT
HETATM    1  C1  UNL     1       5.003  -1.201   0.161  1.00  0.00     0.082 C 
HETATM    2  C2  UNL     1       4.946   0.173   0.685  1.00  0.00     0.101 C 
HETATM    3  C3  UNL     1       5.900   0.603   1.653  1.00  0.00     0.114 C 
HETATM    4  N1  UNL     1       6.665   0.967   2.443  1.00  0.00    -0.190 NA
HETATM    5  N2  UNL     1       4.054   0.984   0.284  1.00  0.00    -0.293 N 
ATOM      6  H2  UNL     1       4.038   1.930   0.665  1.00  0.00     0.187 HD
ENDROOT
BRANCH   5   7
HETATM    7  N3  UNL     1       3.094   0.619  -0.663  1.00  0.00    -0.274 N 
ATOM      8  H3  UNL     1       3.399   0.220  -1.551  1.00  0.00     0.189 HD
BRANCH   7   9
HETATM    9  C4  UNL     1       1.722   0.787  -0.426  1.00  0.00     0.205 C 
HETATM   10  S1  UNL     1       1.189   1.422   0.981  1.00  0.00    -0.038 SA
BRANCH   9  11
HETATM   11  N4  UNL     1       0.744   0.409  -1.403  1.00  0.00    -0.272 N 
ATOM     12  H4  UNL     1       1.057   0.010  -2.288  1.00  0.00     0.189 HD
BRANCH  11  13
HETATM   13  N5  UNL     1      -0.620   0.570  -1.181  1.00  0.00    -0.264 N 
HETATM   14  C5  UNL     1      -1.345  -0.336  -0.374  1.00  0.00     0.270 C 
HETATM   15  O1  UNL     1      -0.720  -1.300   0.144  1.00  0.00    -0.266 OA
ATOM     16  H5  UNL     1      -1.107   1.358  -1.609  1.00  0.00     0.190 HD
BRANCH  14  17
HETATM   17  C6  UNL     1      -2.783  -0.171  -0.136  1.00  0.00     0.033 A 
HETATM   18  C7  UNL     1      -3.451  -1.151   0.572  1.00  0.00     0.018 A 
HETATM   19  C8  UNL     1      -4.809  -1.058   0.834  1.00  0.00     0.020 A 
HETATM   20  C9  UNL     1      -5.537   0.022   0.391  1.00  0.00     0.011 A 
HETATM   21 BR1  UNL     1      -7.416   0.177   0.738  1.00  0.00    -0.051 Br
HETATM   22  C10 UNL     1      -4.864   0.997  -0.316  1.00  0.00     0.020 A 
HETATM   23  C11 UNL     1      -3.492   0.905  -0.581  1.00  0.00     0.018 A 
ENDBRANCH  14  17
ENDBRANCH  11  13
ENDBRANCH   9  11
ENDBRANCH   7   9
ENDBRANCH   5   7
TORSDOF 5
