REMARK  4 active torsions:
REMARK  status: ('A' for Active; 'I' for Inactive)
REMARK    1  A    between atoms: C3_3  and  C4_4 
REMARK    2  A    between atoms: C5_6  and  N1_8 
REMARK       I    between atoms: N1_8  and  C7_10 
REMARK       I    between atoms: C7_10  and  N2_12 
REMARK    3  A    between atoms: N2_12  and  N3_14 
REMARK       I    between atoms: N3_14  and  C8_16 
REMARK    4  A    between atoms: C8_16  and  C9_18 
ROOT
HETATM    1  C1  UNL     1       6.683  -1.103  -2.122  1.00  0.00     0.112 C 
HETATM    2  C2  UNL     1       6.133  -0.402  -0.961  1.00  0.00    -0.105 C 
HETATM    3  C3  UNL     1       5.693   0.162   0.010  1.00  0.00    -0.053 C 
ENDROOT
BRANCH   3   4
HETATM    4  C4  UNL     1       5.195   0.827   1.175  1.00  0.00     0.109 C 
HETATM    5 CL1  UNL     1       6.343   1.612   2.226  1.00  0.00    -0.072 Cl
HETATM    6  C5  UNL     1       3.901   0.875   1.496  1.00  0.00     0.040 C 
HETATM    7  C6  UNL     1       3.458   1.569   2.698  1.00  0.00     0.070 C 
BRANCH   6   8
HETATM    8  N1  UNL     1       3.000   0.232   0.628  1.00  0.00    -0.309 N 
HETATM    9  C7  UNL     1       1.612   0.213   0.859  1.00  0.00     0.339 C 
HETATM   10  O1  UNL     1       1.137   0.785   1.872  1.00  0.00    -0.245 OA
HETATM   11  N2  UNL     1       0.752  -0.459  -0.064  1.00  0.00    -0.249 N 
ATOM     12  H2  UNL     1       1.145  -0.919  -0.885  1.00  0.00     0.192 HD
ATOM     13  H1  UNL     1       3.366  -0.238  -0.200  1.00  0.00     0.170 HD
BRANCH  11  14
HETATM   14  N3  UNL     1      -0.623  -0.486   0.157  1.00  0.00    -0.264 N 
HETATM   15  C8  UNL     1      -1.412   0.625  -0.196  1.00  0.00     0.265 C 
HETATM   16  O2  UNL     1      -0.860   1.624  -0.710  1.00  0.00    -0.269 OA
ATOM     17  H3  UNL     1      -1.057  -1.309   0.574  1.00  0.00     0.190 HD
BRANCH  15  18
HETATM   18  C9  UNL     1      -2.888   0.617   0.036  1.00  0.00     0.220 C 
HETATM   19  O3  UNL     1      -3.451   1.789  -0.378  1.00  0.00    -0.376 OA
HETATM   20  C10 UNL     1      -4.682   1.593  -0.928  1.00  0.00     0.174 C 
HETATM   21  C11 UNL     1      -4.847   0.105  -1.157  1.00  0.00     0.026 C 
HETATM   22  C12 UNL     1      -5.925  -0.358  -0.219  1.00  0.00     0.081 C 
HETATM   23  C14 UNL     1      -3.538  -0.439  -0.809  1.00  0.00     0.040 C 
HETATM   24  S1  UNL     1      -5.429  -2.127  -0.088  1.00  0.00    -0.168 SA
HETATM   25  C13 UNL     1      -3.622  -1.775  -0.135  1.00  0.00     0.082 C 
ENDBRANCH  15  18
ENDBRANCH  11  14
ENDBRANCH   6   8
ENDBRANCH   3   4
TORSDOF 4
