REMARK  0 active torsions:
REMARK  status: ('A' for Active; 'I' for Inactive)
ROOT
HETATM    1  C1  UNL     1      -0.643  -1.537  -1.309  1.00  0.00     0.018 C 
HETATM    2  C2  UNL     1      -0.080  -0.496  -0.313  1.00  0.00    -0.003 C 
HETATM    3  C3  UNL     1       0.829   0.371  -1.114  1.00  0.00     0.021 C 
HETATM    4  C4  UNL     1       1.987   0.942  -0.436  1.00  0.00     0.003 C 
HETATM    5  C5  UNL     1       2.564   0.317   0.560  1.00  0.00     0.064 C 
HETATM    6  C6  UNL     1       3.719   0.873   1.245  1.00  0.00     0.101 C 
HETATM    7  N1  UNL     1       4.643   1.306   1.792  1.00  0.00    -0.191 NA
HETATM    8  C7  UNL     1       2.015  -0.943   0.968  1.00  0.00     0.042 C 
HETATM    9  N2  UNL     1       2.763  -1.805   1.571  1.00  0.00    -0.400 N 
ATOM     10  H21 UNL     1       2.372  -2.701   1.861  1.00  0.00     0.156 HD
ATOM     11  H22 UNL     1       3.736  -1.548   1.735  1.00  0.00     0.156 HD
HETATM   12  C8  UNL     1       0.612  -1.313   0.731  1.00  0.00     0.153 C 
HETATM   13  C9  UNL     1       0.611  -2.769   0.433  1.00  0.00     0.071 C 
HETATM   14  N3  UNL     1       0.617  -3.898   0.181  1.00  0.00    -0.196 NA
HETATM   15  C10 UNL     1       0.128   1.489  -1.841  1.00  0.00     0.015 C 
HETATM   16  C11 UNL     1      -0.680   2.250  -0.782  1.00  0.00     0.080 C 
HETATM   17  C12 UNL     1      -1.827   1.330  -0.468  1.00  0.00     0.251 C 
HETATM   18  F1  UNL     1      -2.800   1.926   0.309  1.00  0.00    -0.205 F 
HETATM   19  F2  UNL     1      -2.467   0.961  -1.643  1.00  0.00    -0.205 F 
HETATM   20  C13 UNL     1      -1.277   0.152   0.293  1.00  0.00     0.028 C 
HETATM   21  C14 UNL     1      -2.445  -0.857   0.304  1.00  0.00     0.022 C 
HETATM   22  C15 UNL     1      -1.122   0.560   1.736  1.00  0.00     0.022 C 
ENDROOT
TORSDOF 0
