REMARK  1 active torsions:
REMARK  status: ('A' for Active; 'I' for Inactive)
REMARK    1  A    between atoms: N1_12  and  O2_14 
ROOT
HETATM    1  C1  UNL     1      -3.957   0.218  -0.041  1.00  0.00     0.025 C 
HETATM    2  C2  UNL     1      -2.641   0.383  -0.132  1.00  0.00     0.013 C 
HETATM    3  C3  UNL     1      -2.034   1.189  -1.176  1.00  0.00     0.160 C 
HETATM    4  O1  UNL     1      -2.671   2.150  -1.674  1.00  0.00    -0.292 OA
HETATM    5  C4  UNL     1      -0.695   0.901  -1.657  1.00  0.00     0.129 C 
HETATM    6  C5  UNL     1       0.142  -0.008  -0.855  1.00  0.00     0.132 C 
HETATM    7  F1  UNL     1       0.796  -0.853  -1.750  1.00  0.00    -0.240 F 
HETATM    8  C6  UNL     1       1.266   0.751  -0.193  1.00  0.00     0.030 C 
HETATM    9  C7  UNL     1       2.192   1.249  -1.304  1.00  0.00     0.025 C 
HETATM   10  C8  UNL     1       0.838   1.920   0.607  1.00  0.00     0.025 C 
HETATM   11  C9  UNL     1       2.088  -0.138   0.679  1.00  0.00     0.021 C 
HETATM   12  N1  UNL     1       3.356  -0.269   0.542  1.00  0.00    -0.277 N 
ATOM     13  H1  UNL     1       3.864   0.239  -0.182  1.00  0.00     0.193 HD
HETATM   14  C10 UNL     1       1.300  -0.859   1.722  1.00  0.00     0.056 C 
HETATM   15  C11 UNL     1       0.247  -1.647   1.036  1.00  0.00     0.021 C 
HETATM   16  C12 UNL     1      -0.608  -0.907   0.082  1.00  0.00     0.029 C 
HETATM   17  C13 UNL     1      -1.287  -1.971  -0.796  1.00  0.00     0.022 C 
HETATM   18  C14 UNL     1      -1.716  -0.249   0.830  1.00  0.00     0.217 C 
HETATM   19  F2  UNL     1      -2.428  -1.254   1.484  1.00  0.00    -0.243 F 
ENDROOT
BRANCH  12  20
HETATM   20  O2  UNL     1       4.005  -1.116   1.403  1.00  0.00    -0.290 OA
ATOM     21  H2  UNL     1       4.945  -1.213   1.301  1.00  0.00     0.244 HD
ENDBRANCH  12  20
TORSDOF 1
