REMARK  1 active torsions:
REMARK  status: ('A' for Active; 'I' for Inactive)
REMARK    1  A    between atoms: N1_9  and  O2_11 
ROOT
HETATM    1  C1  UNL     1      -2.056   1.828  -0.697  1.00  0.00     0.016 C 
HETATM    2  C2  UNL     1      -1.766   0.409  -0.254  1.00  0.00    -0.032 C 
HETATM    3  C3  UNL     1      -2.984  -0.025   0.558  1.00  0.00     0.016 C 
HETATM    4  C4  UNL     1      -1.539  -0.492  -1.432  1.00  0.00     0.088 C 
HETATM    5  C5  UNL     1      -0.661  -1.635  -1.157  1.00  0.00     0.138 C 
HETATM    6  O1  UNL     1      -0.734  -2.624  -1.838  1.00  0.00    -0.297 OA
HETATM    7  C6  UNL     1       0.351  -1.648  -0.051  1.00  0.00     0.112 C 
HETATM    8  C7  UNL     1      -0.320  -0.989   1.117  1.00  0.00     0.027 C 
HETATM    9  N1  UNL     1      -0.592  -1.590   2.198  1.00  0.00    -0.276 N 
ATOM     10  H1  UNL     1      -0.333  -2.575   2.257  1.00  0.00     0.193 HD
HETATM   11  C8  UNL     1      -0.532   0.401   0.659  1.00  0.00     0.053 C 
HETATM   12  C9  UNL     1       0.651   0.674  -0.213  1.00  0.00     0.077 C 
HETATM   13  C10 UNL     1       1.595   1.629   0.461  1.00  0.00     0.248 C 
HETATM   14  F1  UNL     1       1.255   1.857   1.783  1.00  0.00    -0.206 F 
HETATM   15  F2  UNL     1       1.667   2.849  -0.183  1.00  0.00    -0.206 F 
HETATM   16  C11 UNL     1       2.933   0.914   0.473  1.00  0.00     0.080 C 
HETATM   17  C12 UNL     1       2.491  -0.532   0.629  1.00  0.00     0.017 C 
HETATM   18  C13 UNL     1       1.395  -0.630  -0.396  1.00  0.00    -0.018 C 
HETATM   19  C14 UNL     1       1.905  -0.816  -1.792  1.00  0.00     0.017 C 
ENDROOT
BRANCH   9  20
HETATM   20  O2  UNL     1      -1.195  -1.048   3.283  1.00  0.00    -0.290 OA
ATOM     21  H2  UNL     1      -1.399  -1.499   4.094  1.00  0.00     0.244 HD
ENDBRANCH   9  20
TORSDOF 1
