REMARK  8 active torsions:
REMARK  status: ('A' for Active; 'I' for Inactive)
REMARK    1  A    between atoms: C3_9  and  C4_10 
REMARK    2  A    between atoms: C6_14  and  N5_15 
REMARK    3  A    between atoms: C7_20  and  C8_21 
REMARK       I    between atoms: C8_21  and  N7_23 
REMARK    4  A    between atoms: N7_23  and  C9_25 
REMARK    5  A    between atoms: C9_25  and  O2_26 
REMARK    6  A    between atoms: C9_25  and  C10_28 
REMARK    7  A    between atoms: C11_32  and  C12_33 
REMARK    8  A    between atoms: C12_33  and  C13_34 
ROOT
HETATM    1  C4  UNL     1      -4.208  -0.140   0.136  1.00  0.00     0.150 A 
HETATM    2  N4  UNL     1      -3.437   0.938  -0.078  1.00  0.00    -0.321 N 
ATOM      3  H4  UNL     1      -3.785   1.856  -0.353  1.00  0.00     0.169 HD
HETATM    4  C5  UNL     1      -2.132   0.636   0.123  1.00  0.00     0.191 A 
HETATM    5  C6  UNL     1      -0.961   1.369   0.038  1.00  0.00     0.149 A 
HETATM    6  N6  UNL     1       0.215   0.773   0.304  1.00  0.00    -0.320 N 
ATOM      7  H6  UNL     1       1.084   1.304   0.244  1.00  0.00     0.169 HD
HETATM    8  C7  UNL     1       0.239  -0.527   0.650  1.00  0.00     0.192 A 
HETATM    9  N10 UNL     1      -0.933  -1.193   0.718  1.00  0.00    -0.258 N 
ATOM     10  H10 UNL     1      -0.903  -2.178   0.982  1.00  0.00     0.191 HD
HETATM   11  N11 UNL     1      -2.111  -0.663   0.468  1.00  0.00    -0.173 N 
HETATM   12  N12 UNL     1      -3.362  -1.127   0.475  1.00  0.00    -0.262 N 
ATOM     13  H12 UNL     1      -3.634  -2.083   0.703  1.00  0.00     0.190 HD
ENDROOT
BRANCH   8  14
HETATM   14  C8  UNL     1       1.501  -1.189   0.942  1.00  0.00     0.289 C 
HETATM   15  O1  UNL     1       1.455  -2.423   1.265  1.00  0.00    -0.264 OA
HETATM   16  N7  UNL     1       2.771  -0.585   0.901  1.00  0.00    -0.322 N 
ATOM     17  H7  UNL     1       2.835   0.401   0.647  1.00  0.00     0.165 HD
BRANCH  16  18
HETATM   18  C9  UNL     1       3.989  -1.302   1.203  1.00  0.00     0.291 C 
BRANCH  18  19
HETATM   19  O2  UNL     1       4.673  -0.673   2.260  1.00  0.00    -0.369 OA
ATOM     20  H2  UNL     1       5.474  -1.144   2.459  1.00  0.00     0.212 HD
ENDBRANCH  18  19
BRANCH  18  21
HETATM   21  C10 UNL     1       4.830  -1.260  -0.043  1.00  0.00     0.153 A 
HETATM   22  N8  UNL     1       4.405  -1.486  -1.298  1.00  0.00    -0.243 N 
HETATM   23  O3  UNL     1       5.414  -1.361  -2.107  1.00  0.00    -0.222 OA
ATOM     24  H8  UNL     1       3.449  -1.717  -1.570  1.00  0.00     0.196 HD
HETATM   25  C11 UNL     1       6.504  -1.058  -1.434  1.00  0.00     0.158 A 
HETATM   26  N9  UNL     1       6.145  -0.995  -0.152  1.00  0.00    -0.323 N 
ATOM     27  H9  UNL     1       6.769  -0.780   0.625  1.00  0.00     0.169 HD
BRANCH  25  28
HETATM   28  C12 UNL     1       7.818  -0.852  -2.089  1.00  0.00     0.199 C 
BRANCH  28  29
HETATM   29  C13 UNL     1       7.992   0.574  -2.464  1.00  0.00     0.180 C 
HETATM   30  O4  UNL     1       7.088   1.405  -2.214  1.00  0.00    -0.648 OA
HETATM   31  O5  UNL     1       9.177   0.928  -3.090  1.00  0.00    -0.648 OA
ENDBRANCH  28  29
ENDBRANCH  25  28
ENDBRANCH  18  21
ENDBRANCH  16  18
ENDBRANCH   8  14
BRANCH   5  32
HETATM   32  N5  UNL     1      -0.992   2.603  -0.291  1.00  0.00    -0.382 N 
ATOM     33  H52 UNL     1      -1.884   3.055  -0.493  1.00  0.00     0.157 HD
ATOM     34  H51 UNL     1      -0.129   3.143  -0.354  1.00  0.00     0.157 HD
ENDBRANCH   5  32
BRANCH   1  35
HETATM   35  C3  UNL     1      -5.705  -0.240   0.024  1.00  0.00     0.310 C 
HETATM   36  N3  UNL     1      -6.168  -0.951   1.166  1.00  0.00    -0.304 N 
HETATM   37  N2  UNL     1      -7.017  -0.279   2.004  1.00  0.00    -0.135 NA
ATOM     38  H3  UNL     1      -5.882  -1.912   1.351  1.00  0.00     0.179 HD
HETATM   39  C2  UNL     1      -8.056   0.469   1.337  1.00  0.00     0.218 C 
HETATM   40  C1  UNL     1      -7.517   1.303   0.233  1.00  0.00     0.131 C 
HETATM   41  N1  UNL     1      -8.261   2.173  -0.354  1.00  0.00    -0.382 N 
HETATM   42  O6  UNL     1      -6.190   1.073  -0.101  1.00  0.00    -0.305 OA
ATOM     43  H12 UNL     1      -9.236   2.342  -0.108  1.00  0.00     0.158 HD
ATOM     44  H11 UNL     1      -7.891   2.746  -1.112  1.00  0.00     0.158 HD
ENDBRANCH   1  35
TORSDOF 8
