REMARK  11 active torsions:
REMARK  status: ('A' for Active; 'I' for Inactive)
REMARK    1  A    between atoms: N1_2  and  C2_3 
REMARK    2  A    between atoms: N1_2  and  C7_23 
REMARK    3  A    between atoms: C3_6  and  N3_7 
REMARK    4  A    between atoms: C4_12  and  C5_13 
REMARK       I    between atoms: C5_13  and  N5_15 
REMARK    5  A    between atoms: N5_15  and  N6_17 
REMARK    6  A    between atoms: C6_20  and  O2_21 
REMARK    7  A    between atoms: C8_26  and  N8_27 
REMARK       I    between atoms: N8_27  and  C10_30 
REMARK    8  A    between atoms: C10_30  and  C11_32 
REMARK    9  A    between atoms: N10_33  and  O4_35 
REMARK   10  A    between atoms: C12_39  and  N12_40 
REMARK   11  A    between atoms: C13_43  and  N13_44 
ROOT
HETATM    1  N8  UNL     1      -3.550   0.982  -0.214  1.00  0.00    -0.041 N 
HETATM    2  C9  UNL     1      -3.286   1.950  -1.173  1.00  0.00     0.207 C 
HETATM    3  N9  UNL     1      -3.044   2.757  -1.968  1.00  0.00    -0.171 NA
HETATM    4  C10 UNL     1      -4.833   0.400  -0.155  1.00  0.00     0.293 C 
HETATM    5  O3  UNL     1      -5.022  -0.488   0.748  1.00  0.00    -0.265 OA
ENDROOT
BRANCH   1   6
HETATM    6  C8  UNL     1      -2.513   0.586   0.710  1.00  0.00     0.704 A 
HETATM    7  N7  UNL     1      -1.592  -0.329   0.380  1.00  0.00    -0.172 N 
HETATM    8  C7  UNL     1      -0.610  -0.726   1.208  1.00  0.00     0.161 A 
ATOM      9  H7  UNL     1      -1.638  -0.747  -0.549  1.00  0.00     0.186 HD
HETATM   10  C13 UNL     1      -0.531  -0.172   2.472  1.00  0.00     0.191 A 
HETATM   11  C12 UNL     1      -1.483   0.776   2.818  1.00  0.00     0.152 A 
HETATM   12  N11 UNL     1      -2.432   1.122   1.939  1.00  0.00    -0.173 N 
ATOM     13  H11 UNL     1      -3.122   1.821   2.214  1.00  0.00     0.186 HD
BRANCH   8  14
HETATM   14  N1  UNL     1       0.290  -1.698   0.772  1.00  0.00    -0.318 N 
HETATM   15  C1  UNL     1      -0.025  -3.094   1.139  1.00  0.00     0.159 C 
BRANCH  14  16
HETATM   16  C2  UNL     1       1.468  -1.519   0.001  1.00  0.00     0.160 A 
HETATM   17  N2  UNL     1       2.189  -2.571  -0.417  1.00  0.00    -0.174 N 
HETATM   18  C3  UNL     1       3.293  -2.395  -1.158  1.00  0.00     0.678 A 
ATOM     19  H2  UNL     1       1.894  -3.515  -0.168  1.00  0.00     0.186 HD
HETATM   20  N4  UNL     1       3.696  -1.154  -1.492  1.00  0.00    -0.183 N 
HETATM   21  C4  UNL     1       3.020  -0.030  -1.107  1.00  0.00     0.155 A 
ATOM     22  H4  UNL     1       4.540  -1.049  -2.055  1.00  0.00     0.184 HD
HETATM   23  C6  UNL     1       1.889  -0.211  -0.349  1.00  0.00     0.144 A 
BRANCH  18  24
HETATM   24  N3  UNL     1       3.985  -3.415  -1.559  1.00  0.00    -0.234 N 
ATOM     25  H32 UNL     1       3.680  -4.355  -1.306  1.00  0.00     0.174 HD
ATOM     26  H31 UNL     1       4.825  -3.281  -2.123  1.00  0.00     0.174 HD
ENDBRANCH  18  24
BRANCH  21  27
HETATM   27  C5  UNL     1       3.493   1.283  -1.488  1.00  0.00     0.289 C 
HETATM   28  O1  UNL     1       2.893   2.322  -1.142  1.00  0.00    -0.264 OA
HETATM   29  N5  UNL     1       4.661   1.487  -2.273  1.00  0.00    -0.271 N 
ATOM     30  H5  UNL     1       5.211   0.692  -2.598  1.00  0.00     0.189 HD
BRANCH  29  31
HETATM   31  N6  UNL     1       5.044   2.788  -2.592  1.00  0.00    -0.342 N 
ATOM     32  H62 UNL     1       4.483   3.572  -2.259  1.00  0.00     0.176 HD
ATOM     33  H61 UNL     1       5.882   2.934  -3.155  1.00  0.00     0.176 HD
ENDBRANCH  29  31
ENDBRANCH  21  27
BRANCH  23  34
HETATM   34  O2  UNL     1       1.121   0.789   0.104  1.00  0.00    -0.355 OA
ATOM     35  H2  UNL     1       1.403   1.665  -0.130  1.00  0.00     0.218 HD
ENDBRANCH  23  34
ENDBRANCH  14  16
ENDBRANCH   8  14
BRANCH  10  36
HETATM   36  N13 UNL     1       0.480  -0.553   3.400  1.00  0.00    -0.108 N 
HETATM   37  O5  UNL     1       1.663  -0.210   3.295  1.00  0.00    -0.531 OA
HETATM   38  O6  UNL     1       0.114  -1.340   4.457  1.00  0.00    -0.531 OA
ENDBRANCH  10  36
BRANCH  11  39
HETATM   39  N12 UNL     1      -1.410   1.295   3.997  1.00  0.00    -0.383 N 
ATOM     40 2H12 UNL     1      -2.110   1.992   4.251  1.00  0.00     0.157 HD
ATOM     41 1H12 UNL     1      -0.687   1.031   4.667  1.00  0.00     0.157 HD
ENDBRANCH  11  39
ENDBRANCH   1   6
BRANCH   4  42
HETATM   42  C11 UNL     1      -5.945   0.714  -1.017  1.00  0.00     0.189 C 
HETATM   43  N10 UNL     1      -5.929   1.575  -1.980  1.00  0.00    -0.275 N 
ATOM     44  H10 UNL     1      -5.058   2.077  -2.150  1.00  0.00     0.193 HD
BRANCH  43  45
HETATM   45  O4  UNL     1      -6.987   1.861  -2.783  1.00  0.00    -0.290 OA
ATOM     46  H4  UNL     1      -6.975   2.494  -3.491  1.00  0.00     0.244 HD
ENDBRANCH  43  45
ENDBRANCH   4  42
TORSDOF 11
