REMARK  10 active torsions:
REMARK  status: ('A' for Active; 'I' for Inactive)
REMARK    1  A    between atoms: N1_2  and  C3_4 
REMARK    2  A    between atoms: C5_8  and  N3_9 
REMARK    3  A    between atoms: C10_17  and  N5_18 
REMARK    4  A    between atoms: N6_21  and  C13_22 
REMARK    5  A    between atoms: C13_22  and  C14_23 
REMARK       I    between atoms: C14_23  and  N7_25 
REMARK    6  A    between atoms: N7_25  and  C15_26 
REMARK    7  A    between atoms: C15_26  and  C16_27 
REMARK    8  A    between atoms: C16_27  and  S1_28 
REMARK    9  A    between atoms: N10_36  and  C21_37 
REMARK   10  A    between atoms: C21_37  and  C22_38 
ROOT
HETATM    1  S1  UNL     1       9.441   0.821   0.416  1.00  0.00    -0.045 SA
HETATM    2  C17 UNL     1      10.375   0.682   1.919  1.00  0.00     0.134 C 
HETATM    3  N8  UNL     1      10.977   0.580   2.905  1.00  0.00    -0.184 NA
ENDROOT
BRANCH   1   4
HETATM    4  C16 UNL     1       9.353  -0.789  -0.361  1.00  0.00     0.149 C 
BRANCH   4   5
HETATM    5  C15 UNL     1       8.577  -0.671  -1.655  1.00  0.00     0.170 C 
BRANCH   5   6
HETATM    6  N7  UNL     1       7.259  -0.231  -1.545  1.00  0.00    -0.386 NA
HETATM    7  C14 UNL     1       5.999   0.191  -1.440  1.00  0.00     0.309 C 
HETATM    8  O2  UNL     1       5.583   1.307  -1.015  1.00  0.00    -0.255 OA
BRANCH   7   9
HETATM    9  C13 UNL     1       4.872  -0.745  -1.860  1.00  0.00     0.246 C 
BRANCH   9  10
HETATM   10  N6  UNL     1       3.575  -0.152  -1.636  1.00  0.00    -0.361 N 
HETATM   11  C12 UNL     1       3.311  -0.002  -0.265  1.00  0.00     0.084 C 
HETATM   12  C11 UNL     1       2.187  -0.799   0.315  1.00  0.00     0.186 C 
HETATM   13  N5  UNL     1       1.051  -0.727  -0.574  1.00  0.00    -0.208 N 
HETATM   14  C19 UNL     1       1.243  -0.963  -1.958  1.00  0.00     0.186 C 
HETATM   15  C18 UNL     1       2.562  -0.567  -2.519  1.00  0.00     0.084 C 
BRANCH  13  16
HETATM   16  C10 UNL     1      -0.232  -0.410  -0.064  1.00  0.00     0.684 A 
HETATM   17  N4  UNL     1      -0.339   0.686   0.707  1.00  0.00    -0.174 N 
HETATM   18  C5  UNL     1      -1.487   1.079   1.290  1.00  0.00     0.150 A 
ATOM     19  H4  UNL     1       0.496   1.251   0.859  1.00  0.00     0.186 HD
HETATM   20  C4  UNL     1      -2.580   0.257   1.037  1.00  0.00     0.139 A 
HETATM   21  N2  UNL     1      -3.832   0.347   1.444  1.00  0.00    -0.184 N 
HETATM   22  C20 UNL     1      -2.507  -0.877   0.251  1.00  0.00     0.170 A 
HETATM   23  C3  UNL     1      -4.537  -0.703   0.927  1.00  0.00     0.684 A 
ATOM     24  H2  UNL     1      -4.211   1.079   2.045  1.00  0.00     0.184 HD
HETATM   25  N10 UNL     1      -3.718  -1.465   0.184  1.00  0.00    -0.165 N 
HETATM   26  N9  UNL     1      -1.312  -1.177  -0.283  1.00  0.00    -0.173 N 
ATOM     27  H9  UNL     1      -1.223  -2.007  -0.869  1.00  0.00     0.186 HD
BRANCH  18  28
HETATM   28  N3  UNL     1      -1.545   2.226   2.080  1.00  0.00    -0.361 N 
HETATM   29  C6  UNL     1      -0.477   3.241   1.918  1.00  0.00     0.150 C 
HETATM   30  C7  UNL     1      -1.288   4.473   1.460  1.00  0.00     0.187 C 
HETATM   31  O1  UNL     1      -2.040   4.875   2.537  1.00  0.00    -0.388 OA
HETATM   32  C8  UNL     1      -3.079   3.990   2.745  1.00  0.00     0.187 C 
HETATM   33  C9  UNL     1      -2.503   2.603   3.067  1.00  0.00     0.150 C 
ENDBRANCH  18  28
BRANCH  23  34
HETATM   34  N1  UNL     1      -5.908  -0.858   1.237  1.00  0.00    -0.226 N 
HETATM   35  C1  UNL     1      -6.917  -0.156   0.520  1.00  0.00     0.168 C 
HETATM   36  C2  UNL     1      -6.245  -1.754   2.321  1.00  0.00     0.168 C 
ENDBRANCH  23  34
BRANCH  25  37
HETATM   37  C21 UNL     1      -4.107  -2.664  -0.578  1.00  0.00     0.154 C 
BRANCH  37  38
HETATM   38  C22 UNL     1      -4.405  -2.315  -2.002  1.00  0.00     0.005 A 
HETATM   39  C23 UNL     1      -4.855  -3.318  -3.000  1.00  0.00     0.007 A 
HETATM   40  C24 UNL     1      -5.847  -2.347  -2.453  1.00  0.00     0.007 A 
ENDBRANCH  37  38
ENDBRANCH  25  37
ENDBRANCH  13  16
ENDBRANCH   9  10
ENDBRANCH   7   9
ENDBRANCH   5   6
ENDBRANCH   4   5
ENDBRANCH   1   4
TORSDOF 10
