REMARK  11 active torsions:
REMARK  status: ('A' for Active; 'I' for Inactive)
REMARK    1  A    between atoms: C3_3  and  C4_4 
REMARK    2  A    between atoms: C4_4  and  O1_5 
REMARK    3  A    between atoms: O1_5  and  C5_6 
REMARK    4  A    between atoms: C8_9  and  C9_10 
REMARK    5  A    between atoms: C9_10  and  N1_11 
REMARK    6  A    between atoms: N1_11  and  C10_13 
REMARK    7  A    between atoms: N4_21  and  C13_22 
REMARK    8  A    between atoms: C13_22  and  C14_23 
REMARK    9  A    between atoms: N5_25  and  C16_26 
REMARK   10  A    between atoms: C16_26  and  C17_27 
REMARK   11  A    between atoms: C24_42  and  O5_43 
ROOT
HETATM    1  C1  UNL     1      -9.000   4.805  -0.372  1.00  0.00     0.012 C 
HETATM    2  C2  UNL     1      -8.510   3.769  -0.743  1.00  0.00    -0.115 C 
HETATM    3  C3  UNL     1      -7.926   2.476  -1.195  1.00  0.00     0.119 C 
ENDROOT
BRANCH   3   4
HETATM    4  C4  UNL     1      -7.582   1.705   0.039  1.00  0.00     0.188 C 
BRANCH   4   5
HETATM    5  O1  UNL     1      -7.021   0.459  -0.137  1.00  0.00    -0.347 OA
BRANCH   5   6
HETATM    6  C5  UNL     1      -5.820   0.150  -0.703  1.00  0.00     0.102 A 
HETATM    7  C6  UNL     1      -4.885   1.034  -1.187  1.00  0.00     0.040 A 
HETATM    8  C7  UNL     1      -3.687   0.587  -1.751  1.00  0.00     0.012 A 
HETATM    9  C8  UNL     1      -3.407  -0.759  -1.838  1.00  0.00    -0.038 A 
HETATM   10  C23 UNL     1      -4.325  -1.643  -1.361  1.00  0.00     0.048 A 
HETATM   11  C24 UNL     1      -5.507  -1.223  -0.804  1.00  0.00     0.102 A 
BRANCH   9  12
HETATM   12  C9  UNL     1      -2.102  -1.128  -2.458  1.00  0.00     0.161 C 
BRANCH  12  13
HETATM   13  N1  UNL     1      -1.116  -0.181  -1.999  1.00  0.00    -0.351 N 
ATOM     14  H1  UNL     1      -0.914   0.650  -2.554  1.00  0.00     0.163 HD
BRANCH  13  15
HETATM   15  C10 UNL     1      -0.483  -0.381  -0.881  1.00  0.00     0.231 A 
HETATM   16  N2  UNL     1      -0.682  -1.445  -0.088  1.00  0.00    -0.273 N 
HETATM   17  C11 UNL     1       0.017  -1.595   1.070  1.00  0.00     0.341 A 
ATOM     18  H2  UNL     1      -1.367  -2.151  -0.357  1.00  0.00     0.174 HD
HETATM   19  O2  UNL     1      -0.192  -2.601   1.791  1.00  0.00    -0.246 OA
HETATM   20  N3  UNL     1       0.923  -0.682   1.447  1.00  0.00    -0.175 N 
HETATM   21  C12 UNL     1       1.750  -0.544   2.498  1.00  0.00     0.355 A 
HETATM   22  C22 UNL     1       1.103   0.373   0.636  1.00  0.00     0.261 A 
HETATM   23  O3  UNL     1       1.827  -1.373   3.450  1.00  0.00    -0.244 OA
HETATM   24  N4  UNL     1       2.462   0.597   2.365  1.00  0.00    -0.233 N 
HETATM   25  N9  UNL     1       2.062   1.137   1.240  1.00  0.00    -0.257 N 
ATOM     26  H9  UNL     1       2.420   2.015   0.863  1.00  0.00     0.191 HD
HETATM   27  O4  UNL     1       0.423   0.503  -0.474  1.00  0.00    -0.244 OA
BRANCH  24  28
HETATM   28  C13 UNL     1       3.450   1.051   3.325  1.00  0.00     0.213 C 
BRANCH  28  29
HETATM   29  C14 UNL     1       4.806   0.524   2.997  1.00  0.00     0.060 A 
HETATM   30  C15 UNL     1       5.761   1.119   2.197  1.00  0.00     0.136 A 
HETATM   31  N5  UNL     1       6.858   0.328   2.147  1.00  0.00    -0.281 N 
HETATM   32  N7  UNL     1       6.601  -0.735   2.895  1.00  0.00    -0.020 NA
HETATM   33  N8  UNL     1       5.374  -0.632   3.411  1.00  0.00    -0.285 N 
ATOM     34  H8  UNL     1       4.933  -1.319   4.023  1.00  0.00     0.184 HD
BRANCH  31  35
HETATM   35  C16 UNL     1       8.084   0.589   1.417  1.00  0.00     0.185 C 
BRANCH  35  36
HETATM   36  C17 UNL     1       8.039   0.047   0.048  1.00  0.00    -0.023 A 
HETATM   37  C18 UNL     1       8.448  -1.203  -0.318  1.00  0.00     0.011 A 
HETATM   38  C19 UNL     1       8.341  -1.557  -1.640  1.00  0.00     0.018 A 
HETATM   39  C20 UNL     1       7.846  -0.734  -2.626  1.00  0.00     0.087 A 
HETATM   40  N6  UNL     1       7.449   0.497  -2.229  1.00  0.00    -0.375 N 
HETATM   41  C21 UNL     1       7.540   0.875  -0.950  1.00  0.00     0.096 A 
ATOM     42  H6  UNL     1       7.073   1.148  -2.918  1.00  0.00     0.164 HD
ENDBRANCH  35  36
ENDBRANCH  31  35
ENDBRANCH  28  29
ENDBRANCH  24  28
ENDBRANCH  13  15
ENDBRANCH  12  13
ENDBRANCH   9  12
BRANCH  11  43
HETATM   43  O5  UNL     1      -6.445  -2.133  -0.316  1.00  0.00    -0.353 OA
HETATM   44  C25 UNL     1      -6.141  -3.508  -0.412  1.00  0.00     0.210 C 
ENDBRANCH  11  43
ENDBRANCH   5   6
ENDBRANCH   4   5
ENDBRANCH   3   4
TORSDOF 11
