REMARK  10 active torsions:
REMARK  status: ('A' for Active; 'I' for Inactive)
REMARK    1  A    between atoms: C5_5  and  O1_6 
REMARK    2  A    between atoms: N1_9  and  C7_10 
REMARK    3  A    between atoms: C7_10  and  C8_11 
REMARK    4  A    between atoms: C8_11  and  C9_12 
REMARK    5  A    between atoms: C9_12  and  N2_13 
REMARK       I    between atoms: N2_13  and  C10_15 
REMARK    6  A    between atoms: C10_15  and  C11_17 
REMARK    7  A    between atoms: C11_17  and  C12_18 
REMARK    8  A    between atoms: C12_18  and  N3_19 
REMARK    9  A    between atoms: C14_21  and  N4_22 
REMARK   10  A    between atoms: C15_27  and  N6_28 
ROOT
HETATM    1  N2  UNL     1      -0.528   0.456  -1.176  1.00  0.00    -0.361 N 
ATOM      2  H2  UNL     1      -0.571   1.404  -0.803  1.00  0.00     0.162 HD
HETATM    3  C10 UNL     1       0.711  -0.227  -1.112  1.00  0.00     0.219 C 
HETATM    4  O2  UNL     1       0.761  -1.396  -1.577  1.00  0.00    -0.274 OA
ENDROOT
BRANCH   3   5
HETATM    5  C11 UNL     1       1.927   0.411  -0.514  1.00  0.00     0.124 C 
BRANCH   5   6
HETATM    6  C12 UNL     1       3.067  -0.563  -0.597  1.00  0.00     0.158 C 
BRANCH   6   7
HETATM    7  N3  UNL     1       4.284  -0.050  -0.050  1.00  0.00    -0.285 N 
HETATM    8  C13 UNL     1       5.147   0.627  -0.862  1.00  0.00     0.159 A 
HETATM    9  C14 UNL     1       6.333   1.147  -0.406  1.00  0.00     0.132 A 
HETATM   10  N5  UNL     1       6.643   0.978   0.886  1.00  0.00    -0.175 N 
HETATM   11  C15 UNL     1       5.775   0.309   1.659  1.00  0.00     0.692 A 
ATOM     12  H5  UNL     1       7.513   1.347   1.270  1.00  0.00     0.186 HD
HETATM   13  N7  UNL     1       4.625  -0.195   1.216  1.00  0.00    -0.130 N 
ATOM     14  H7  UNL     1       4.007  -0.694   1.856  1.00  0.00     0.206 HD
BRANCH   9  15
HETATM   15  N4  UNL     1       7.160   1.790  -1.161  1.00  0.00    -0.384 N 
ATOM     16  H42 UNL     1       6.924   1.919  -2.145  1.00  0.00     0.157 HD
ATOM     17  H41 UNL     1       8.041   2.176  -0.822  1.00  0.00     0.157 HD
ENDBRANCH   9  15
BRANCH  11  18
HETATM   18  N6  UNL     1       6.087   0.155   2.896  1.00  0.00    -0.233 N 
ATOM     19  H62 UNL     1       6.968   0.541   3.235  1.00  0.00     0.174 HD
ATOM     20  H61 UNL     1       5.427  -0.354   3.484  1.00  0.00     0.174 HD
ENDBRANCH  11  18
ENDBRANCH   6   7
ENDBRANCH   5   6
ENDBRANCH   3   5
BRANCH   1  21
HETATM   21  C9  UNL     1      -1.716  -0.097  -1.728  1.00  0.00     0.124 C 
BRANCH  21  22
HETATM   22  C8  UNL     1      -2.238  -1.332  -1.080  1.00  0.00     0.040 C 
BRANCH  22  23
HETATM   23  C7  UNL     1      -2.612  -1.201   0.364  1.00  0.00     0.130 C 
BRANCH  23  24
HETATM   24  N1  UNL     1      -3.661  -0.244   0.628  1.00  0.00    -0.358 N 
HETATM   25  C2  UNL     1      -4.972  -0.637   0.606  1.00  0.00     0.007 A 
HETATM   26  C1  UNL     1      -5.379  -2.032   0.319  1.00  0.00     0.068 C 
HETATM   27  C3  UNL     1      -5.996   0.278   0.863  1.00  0.00     0.027 A 
HETATM   28  C4  UNL     1      -5.748   1.580   1.142  1.00  0.00     0.040 A 
HETATM   29  C5  UNL     1      -4.418   1.978   1.165  1.00  0.00     0.081 A 
HETATM   30  C6  UNL     1      -3.430   1.051   0.908  1.00  0.00     0.127 A 
BRANCH  29  31
HETATM   31  O1  UNL     1      -4.110   3.302   1.447  1.00  0.00    -0.359 OA
ATOM     32  H1  UNL     1      -3.200   3.574   1.463  1.00  0.00     0.217 HD
ENDBRANCH  29  31
ENDBRANCH  23  24
ENDBRANCH  22  23
ENDBRANCH  21  22
ENDBRANCH   1  21
TORSDOF 10
