REMARK  10 active torsions:
REMARK  status: ('A' for Active; 'I' for Inactive)
REMARK    1  A    between atoms: C3_4  and  C4_5 
REMARK    2  A    between atoms: C4_5  and  C5_6 
REMARK    3  A    between atoms: C5_6  and  N2_7 
REMARK    4  A    between atoms: N2_7  and  C6_9 
REMARK    5  A    between atoms: C6_9  and  C7_10 
REMARK    6  A    between atoms: C7_10  and  C8_11 
REMARK    7  A    between atoms: C8_11  and  C9_12 
REMARK    8  A    between atoms: C9_12  and  N3_13 
REMARK    9  A    between atoms: N5_21  and  N6_23 
REMARK   10  A    between atoms: C15_29  and  N8_30 
ROOT
HETATM    1  C6  UNL     1       0.042  -0.441  -0.599  1.00  0.00     0.091 C 
HETATM    2  N5  UNL     1      -0.245  -1.479   0.085  1.00  0.00    -0.296 N 
ATOM      3  H5  UNL     1      -1.207  -1.623   0.391  1.00  0.00     0.187 HD
ENDROOT
BRANCH   1   4
HETATM    4  N2  UNL     1       1.395  -0.240  -1.028  1.00  0.00    -0.378 N 
ATOM      5  H2  UNL     1       2.044  -1.027  -1.038  1.00  0.00     0.160 HD
BRANCH   4   6
HETATM    6  C5  UNL     1       1.849   1.066  -1.446  1.00  0.00     0.125 C 
BRANCH   6   7
HETATM    7  C4  UNL     1       3.291   1.067  -1.847  1.00  0.00     0.061 C 
BRANCH   7   8
HETATM    8  C3  UNL     1       4.231   0.664  -0.778  1.00  0.00    -0.025 A 
HETATM    9  C2  UNL     1       4.706  -0.609  -0.569  1.00  0.00     0.117 A 
HETATM   10  N1  UNL     1       5.563  -0.912   0.446  1.00  0.00    -0.198 N 
HETATM   11  C1  UNL     1       6.025  -2.289   0.606  1.00  0.00     0.174 C 
HETATM   12  C15 UNL     1       5.973   0.053   1.286  1.00  0.00     0.677 A 
HETATM   13  N7  UNL     1       5.529   1.309   1.111  1.00  0.00    -0.201 N 
HETATM   14  C14 UNL     1       4.684   1.639   0.121  1.00  0.00     0.114 A 
ATOM     15  H7  UNL     1       5.845   2.037   1.752  1.00  0.00     0.183 HD
BRANCH  12  16
HETATM   16  N8  UNL     1       6.785  -0.279   2.233  1.00  0.00    -0.234 N 
ATOM     17  H82 UNL     1       7.122  -1.232   2.366  1.00  0.00     0.174 HD
ATOM     18  H81 UNL     1       7.096   0.454   2.871  1.00  0.00     0.174 HD
ENDBRANCH  12  16
ENDBRANCH   7   8
ENDBRANCH   6   7
ENDBRANCH   4   6
ENDBRANCH   1   4
BRANCH   1  19
HETATM   19  C7  UNL     1      -1.031   0.523  -0.928  1.00  0.00     0.079 C 
BRANCH  19  20
HETATM   20  C8  UNL     1      -2.366   0.092  -0.366  1.00  0.00     0.027 C 
BRANCH  20  21
HETATM   21  C9  UNL     1      -3.429   1.112  -0.730  1.00  0.00     0.128 C 
BRANCH  21  22
HETATM   22  N3  UNL     1      -4.721   0.766  -0.228  1.00  0.00    -0.334 N 
HETATM   23  C10 UNL     1      -5.197   1.187   1.074  1.00  0.00     0.129 C 
HETATM   24  C11 UNL     1      -5.789  -0.046   1.736  1.00  0.00     0.040 C 
HETATM   25  C12 UNL     1      -7.058  -0.377   0.959  1.00  0.00     0.126 C 
HETATM   26  N4  UNL     1      -6.769  -0.604  -0.441  1.00  0.00    -0.343 N 
HETATM   27  C13 UNL     1      -5.602  -0.024  -1.014  1.00  0.00     0.318 C 
ATOM     28  H4  UNL     1      -7.395  -1.173  -1.011  1.00  0.00     0.164 HD
HETATM   29  O1  UNL     1      -5.296  -0.182  -2.237  1.00  0.00    -0.247 OA
ENDBRANCH  21  22
ENDBRANCH  20  21
ENDBRANCH  19  20
ENDBRANCH   1  19
BRANCH   2  30
HETATM   30  N6  UNL     1       0.727  -2.422   0.424  1.00  0.00    -0.344 N 
ATOM     31  H62 UNL     1       1.684  -2.262   0.110  1.00  0.00     0.176 HD
ATOM     32  H61 UNL     1       0.498  -3.252   0.971  1.00  0.00     0.176 HD
ENDBRANCH   2  30
TORSDOF 10
