REMARK  12 active torsions:
REMARK  status: ('A' for Active; 'I' for Inactive)
REMARK    1  A    between atoms: C4_5  and  C5_6 
REMARK    2  A    between atoms: C5_6  and  N5_19 
REMARK    3  A    between atoms: N2_7  and  C6_9 
REMARK    4  A    between atoms: C6_9  and  N3_10 
REMARK    5  A    between atoms: C6_9  and  C7_14 
REMARK    6  A    between atoms: C7_14  and  N4_15 
REMARK    7  A    between atoms: N5_19  and  C8_21 
REMARK    8  A    between atoms: C8_21  and  C9_22 
REMARK    9  A    between atoms: C9_22  and  C10_23 
REMARK   10  A    between atoms: C10_23  and  C11_24 
REMARK   11  A    between atoms: C11_24  and  N6_25 
REMARK   12  A    between atoms: C13_29  and  N8_30 
ROOT
HETATM    1  C5  UNL     1      -1.944   0.568   0.367  1.00  0.00     0.109 C 
HETATM    2  N2  UNL     1      -2.394   1.651  -0.181  1.00  0.00    -0.347 N 
ATOM      3  H2  UNL     1      -3.232   1.578  -0.758  1.00  0.00     0.163 HD
ENDROOT
BRANCH   1   4
HETATM    4  C4  UNL     1      -2.622  -0.716   0.160  1.00  0.00     0.010 A 
HETATM    5  C3  UNL     1      -3.755  -0.822  -0.616  1.00  0.00     0.032 A 
HETATM    6  C2  UNL     1      -4.368  -2.050  -0.789  1.00  0.00     0.091 A 
HETATM    7  N1  UNL     1      -3.908  -3.182  -0.227  1.00  0.00    -0.371 N 
HETATM    8  C1  UNL     1      -4.594  -4.453  -0.443  1.00  0.00     0.154 C 
HETATM    9  C15 UNL     1      -2.803  -3.091   0.531  1.00  0.00     0.091 A 
HETATM   10  C14 UNL     1      -2.159  -1.881   0.730  1.00  0.00     0.032 A 
ENDBRANCH   1   4
BRANCH   1  11
HETATM   11  N5  UNL     1      -0.781   0.666   1.168  1.00  0.00    -0.376 N 
ATOM     12  H5  UNL     1      -0.872   0.842   2.169  1.00  0.00     0.161 HD
BRANCH  11  13
HETATM   13  C8  UNL     1       0.531   0.520   0.587  1.00  0.00     0.121 C 
BRANCH  13  14
HETATM   14  C9  UNL     1       1.604   0.660   1.616  1.00  0.00     0.021 C 
BRANCH  14  15
HETATM   15  C10 UNL     1       2.968   0.512   1.015  1.00  0.00     0.023 C 
BRANCH  15  16
HETATM   16  C11 UNL     1       3.165  -0.837   0.361  1.00  0.00     0.150 C 
BRANCH  16  17
HETATM   17  N6  UNL     1       4.503  -0.887  -0.185  1.00  0.00    -0.273 N 
HETATM   18  C12 UNL     1       5.609  -1.315   0.445  1.00  0.00     0.218 A 
HETATM   19  N7  UNL     1       6.634  -1.188  -0.433  1.00  0.00    -0.185 N 
HETATM   20  C13 UNL     1       6.151  -0.688  -1.583  1.00  0.00     0.691 A 
ATOM     21  H7  UNL     1       7.608  -1.431  -0.251  1.00  0.00     0.185 HD
HETATM   22  N9  UNL     1       4.815  -0.506  -1.409  1.00  0.00    -0.129 N 
ATOM     23  H9  UNL     1       4.166  -0.138  -2.105  1.00  0.00     0.206 HD
BRANCH  20  24
HETATM   24  N8  UNL     1       6.786  -0.416  -2.671  1.00  0.00    -0.233 N 
ATOM     25  H82 UNL     1       7.788  -0.553  -2.802  1.00  0.00     0.174 HD
ATOM     26  H81 UNL     1       6.419  -0.036  -3.544  1.00  0.00     0.174 HD
ENDBRANCH  20  24
ENDBRANCH  16  17
ENDBRANCH  15  16
ENDBRANCH  14  15
ENDBRANCH  13  14
ENDBRANCH  11  13
ENDBRANCH   1  11
BRANCH   2  27
HETATM   27  C6  UNL     1      -1.797   2.944  -0.033  1.00  0.00     0.308 C 
BRANCH  27  28
HETATM   28  N3  UNL     1      -1.300   3.228   1.284  1.00  0.00    -0.057 N 
ATOM     29  H33 UNL     1      -2.037   3.097   1.976  1.00  0.00     0.276 HD
ATOM     30  H32 UNL     1      -0.649   2.501   1.581  1.00  0.00     0.276 HD
ATOM     31  H31 UNL     1      -0.875   4.149   1.389  1.00  0.00     0.276 HD
ENDBRANCH  27  28
BRANCH  27  32
HETATM   32  C7  UNL     1      -2.773   4.006  -0.502  1.00  0.00     0.283 C 
BRANCH  32  33
HETATM   33  N4  UNL     1      -3.998   3.983   0.258  1.00  0.00    -0.076 N 
ATOM     34  H43 UNL     1      -4.424   3.056   0.246  1.00  0.00     0.274 HD
ATOM     35  H42 UNL     1      -3.815   4.063   1.258  1.00  0.00     0.274 HD
ATOM     36  H41 UNL     1      -4.654   4.697  -0.057  1.00  0.00     0.274 HD
ENDBRANCH  32  33
ENDBRANCH  27  32
ENDBRANCH   2  27
TORSDOF 12
