REMARK  11 active torsions:
REMARK  status: ('A' for Active; 'I' for Inactive)
REMARK    1  A    between atoms: N1_1  and  C1_4 
REMARK    2  A    between atoms: C2_7  and  C3_8 
REMARK    3  A    between atoms: C3_8  and  C4_9 
REMARK    4  A    between atoms: C4_9  and  C5_10 
REMARK    5  A    between atoms: C5_10  and  C6_11 
REMARK    6  A    between atoms: C6_11  and  C7_12 
REMARK    7  A    between atoms: C7_12  and  C8_13 
REMARK    8  A    between atoms: C8_13  and  C9_14 
REMARK    9  A    between atoms: C9_14  and  O1_15 
REMARK   10  A    between atoms: C10_17  and  C11_18 
REMARK   11  A    between atoms: C11_18  and  N3_19 
ROOT
HETATM    1  C1  UNL     1      -0.504   1.464   1.815  1.00  0.00     0.676 A 
HETATM    2  N2  UNL     1       0.540   0.627   1.793  1.00  0.00    -0.190 N 
ATOM      3  H2  UNL     1       1.422   0.765   2.286  1.00  0.00     0.184 HD
HETATM    4  C2  UNL     1       0.229  -0.442   1.002  1.00  0.00     0.074 A 
HETATM    5  C10 UNL     1      -1.050  -0.237   0.532  1.00  0.00     0.091 A 
HETATM    6  N5  UNL     1      -1.463   0.932   1.048  1.00  0.00    -0.189 N 
ATOM      7  H5  UNL     1      -2.376   1.354   0.880  1.00  0.00     0.184 HD
ENDROOT
BRANCH   5   8
HETATM    8  C11 UNL     1      -1.750  -1.012  -0.262  1.00  0.00     0.119 C 
BRANCH   8   9
HETATM    9  N3  UNL     1      -3.069  -0.687  -0.678  1.00  0.00    -0.373 N 
HETATM   10  C12 UNL     1      -3.660   0.309  -1.550  1.00  0.00     0.134 C 
HETATM   11  C13 UNL     1      -4.826  -0.632  -1.747  1.00  0.00     0.059 C 
HETATM   12  C14 UNL     1      -6.119   0.051  -1.769  1.00  0.00    -0.001 C 
HETATM   13  C17 UNL     1      -4.405  -1.186  -0.433  1.00  0.00     0.185 C 
HETATM   14  C15 UNL     1      -6.824   0.390  -0.705  1.00  0.00     0.087 C 
HETATM   15  N4  UNL     1      -6.347   0.096   0.604  1.00  0.00    -0.336 N 
HETATM   16  C16 UNL     1      -5.108  -0.562   0.716  1.00  0.00     0.245 C 
ATOM     17  H4  UNL     1      -6.885   0.353   1.432  1.00  0.00     0.168 HD
HETATM   18  O2  UNL     1      -4.557  -0.632   1.843  1.00  0.00    -0.271 OA
ENDBRANCH   8   9
ENDBRANCH   5   8
BRANCH   4  19
HETATM   19  C3  UNL     1       0.968  -1.495   0.708  1.00  0.00     0.006 C 
BRANCH  19  20
HETATM   20  C4  UNL     1       2.335  -1.660   1.244  1.00  0.00     0.029 C 
BRANCH  20  21
HETATM   21  C5  UNL     1       3.405  -1.372   0.188  1.00  0.00     0.004 C 
BRANCH  21  22
HETATM   22  C6  UNL     1       3.248   0.044  -0.286  1.00  0.00     0.000 C 
BRANCH  22  23
HETATM   23  C7  UNL     1       4.243   0.439  -1.323  1.00  0.00     0.002 C 
BRANCH  23  24
HETATM   24  C8  UNL     1       5.669   0.326  -0.851  1.00  0.00     0.026 C 
BRANCH  24  25
HETATM   25  C9  UNL     1       5.901   1.214   0.341  1.00  0.00     0.164 C 
BRANCH  25  26
HETATM   26  O1  UNL     1       7.246   1.097   0.760  1.00  0.00    -0.401 OA
ATOM     27  H1  UNL     1       7.393   1.658   1.513  1.00  0.00     0.209 HD
ENDBRANCH  25  26
ENDBRANCH  24  25
ENDBRANCH  23  24
ENDBRANCH  22  23
ENDBRANCH  21  22
ENDBRANCH  20  21
ENDBRANCH  19  20
ENDBRANCH   4  19
BRANCH   1  28
HETATM   28  N1  UNL     1      -0.577   2.566   2.448  1.00  0.00    -0.234 N 
ATOM     29  H12 UNL     1       0.154   2.971   3.033  1.00  0.00     0.174 HD
ATOM     30  H11 UNL     1      -1.373   3.204   2.465  1.00  0.00     0.174 HD
ENDBRANCH   1  28
TORSDOF 11
