REMARK  5 active torsions:
REMARK  status: ('A' for Active; 'I' for Inactive)
REMARK    1  A    between atoms: N1_2  and  C2_4 
REMARK    2  A    between atoms: C3_7  and  N3_8 
REMARK    3  A    between atoms: C4_13  and  N5_14 
REMARK       I    between atoms: N5_14  and  C5_16 
REMARK    4  A    between atoms: N7_18  and  N8_20 
REMARK    5  A    between atoms: N8_20  and  O1_22 
ROOT
HETATM    1  C2  UNL     1      -2.126  -0.281   0.060  1.00  0.00     0.706 A 
HETATM    2  N2  UNL     1      -1.743  -1.166   0.998  1.00  0.00    -0.022 N 
ATOM      3  H2  UNL     1      -2.455  -1.715   1.479  1.00  0.00     0.203 HD
HETATM    4  C3  UNL     1      -0.449  -1.349   1.321  1.00  0.00     0.705 A 
HETATM    5  N4  UNL     1       0.527  -0.639   0.704  1.00  0.00    -0.021 N 
ATOM      6  H4  UNL     1       1.509  -0.774   0.944  1.00  0.00     0.203 HD
HETATM    7  C4  UNL     1       0.156   0.247  -0.233  1.00  0.00     0.713 A 
HETATM    8  N9  UNL     1      -1.136   0.420  -0.546  1.00  0.00    -0.021 N 
ATOM      9  H9  UNL     1      -1.383   1.102  -1.264  1.00  0.00     0.203 HD
ENDROOT
BRANCH   7  10
HETATM   10  N5  UNL     1       1.107   0.915  -0.810  1.00  0.00    -0.161 N 
HETATM   11  C5  UNL     1       2.467   0.754  -0.501  1.00  0.00     0.223 C 
HETATM   12  N6  UNL     1       3.128   1.677   0.356  1.00  0.00    -0.061 NA
HETATM   13  N7  UNL     1       3.100  -0.253  -1.015  1.00  0.00    -0.253 N 
ATOM     14  H7  UNL     1       2.614  -0.908  -1.628  1.00  0.00     0.191 HD
ATOM     15  H5  UNL     1       0.853   1.594  -1.527  1.00  0.00     0.187 HD
BRANCH  13  16
HETATM   16  N8  UNL     1       4.454  -0.433  -0.722  1.00  0.00    -0.208 N 
ATOM     17  H8  UNL     1       4.924   0.190  -0.065  1.00  0.00     0.215 HD
BRANCH  16  18
HETATM   18  O1  UNL     1       5.084  -1.361  -1.269  1.00  0.00    -0.274 OA
ATOM     19  H1  UNL     1       6.005  -1.483  -1.070  1.00  0.00     0.246 HD
ENDBRANCH  16  18
ENDBRANCH  13  16
ENDBRANCH   7  10
BRANCH   4  20
HETATM   20  N3  UNL     1      -0.128  -2.215   2.233  1.00  0.00    -0.234 N 
ATOM     21  H32 UNL     1      -0.862  -2.749   2.697  1.00  0.00     0.174 HD
ATOM     22  H31 UNL     1       0.852  -2.354   2.478  1.00  0.00     0.174 HD
ENDBRANCH   4  20
BRANCH   1  23
HETATM   23  N1  UNL     1      -3.361  -0.158  -0.197  1.00  0.00    -0.229 N 
HETATM   24  C1  UNL     1      -3.936   0.734  -1.162  1.00  0.00     0.165 C 
ATOM     25  H1  UNL     1      -4.005  -0.747   0.331  1.00  0.00     0.177 HD
ENDBRANCH   1  23
TORSDOF 5
