REMARK  4 active torsions:
REMARK  status: ('A' for Active; 'I' for Inactive)
REMARK    1  A    between atoms: C2_2  and  N1_3 
REMARK    2  A    between atoms: C3_5  and  C4_7 
REMARK    3  A    between atoms: C5_8  and  C6_9 
REMARK    4  A    between atoms: C6_9  and  O1_10 
ROOT
HETATM    1  C6  UNL     1       2.217   0.614   0.969  1.00  0.00     0.299 C 
HETATM    2  N3  UNL     1       3.164   1.217   0.041  1.00  0.00    -0.065 NA
HETATM    3  N4  UNL     1       4.302   0.411   0.098  1.00  0.00    -0.272 N 
ATOM      4  H4  UNL     1       5.216   0.687  -0.261  1.00  0.00     0.185 HD
HETATM    5  C7  UNL     1       4.059  -0.725   0.659  1.00  0.00     0.204 C 
HETATM    6  N5  UNL     1       5.040  -1.745   0.851  1.00  0.00    -0.062 NA
HETATM    7  N6  UNL     1       2.690  -0.734   1.015  1.00  0.00    -0.306 N 
ATOM      8  H6  UNL     1       2.139  -1.556   1.261  1.00  0.00     0.167 HD
ENDROOT
BRANCH   1   9
HETATM    9  C5  UNL     1       0.859   0.618   0.461  1.00  0.00    -0.017 C 
HETATM   10  C4  UNL     1      -0.278   0.626   0.058  1.00  0.00    -0.027 C 
BRANCH  10  11
HETATM   11  C3  UNL     1      -1.657   0.636  -0.404  1.00  0.00     0.167 C 
HETATM   12  N1  UNL     1      -2.436  -0.321  -0.029  1.00  0.00    -0.372 N 
ATOM     13  H1  UNL     1      -2.086  -1.063   0.577  1.00  0.00     0.161 HD
HETATM   14  N2  UNL     1      -2.090   1.697  -1.248  1.00  0.00    -0.073 NA
BRANCH  12  15
HETATM   15  C2  UNL     1      -3.811  -0.330  -0.478  1.00  0.00     0.117 C 
HETATM   16  C1  UNL     1      -4.676  -1.190   0.413  1.00  0.00     0.026 C 
ENDBRANCH  12  15
ENDBRANCH  10  11
ENDBRANCH   1   9
BRANCH   1  17
HETATM   17  O1  UNL     1       2.318   1.157   2.239  1.00  0.00    -0.346 OA
ATOM     18  H1  UNL     1       3.208   1.154   2.572  1.00  0.00     0.215 HD
ENDBRANCH   1  17
TORSDOF 4
