REMARK  5 active torsions:
REMARK  status: ('A' for Active; 'I' for Inactive)
REMARK    1  A    between atoms: C2_2  and  C3_3 
REMARK    2  A    between atoms: C3_3  and  N1_4 
REMARK    3  A    between atoms: N1_4  and  C4_6 
REMARK    4  A    between atoms: C7_9  and  N2_10 
REMARK    5  A    between atoms: C13_19  and  C14_20 
ROOT
HETATM    1  C4  UNL     1       1.887   0.133  -0.417  1.00  0.00     0.058 A 
HETATM    2  C5  UNL     1       1.309  -1.106  -0.556  1.00  0.00     0.034 A 
HETATM    3  C6  UNL     1      -0.078  -1.262  -0.434  1.00  0.00     0.034 A 
HETATM    4  C7  UNL     1      -0.894  -0.199  -0.181  1.00  0.00     0.067 A 
HETATM    5  C12 UNL     1      -0.336   1.054  -0.039  1.00  0.00     0.133 A 
HETATM    6  O1  UNL     1      -0.861   2.235   0.200  1.00  0.00    -0.288 OA
HETATM    7  C13 UNL     1       0.090   3.133   0.242  1.00  0.00     0.180 A 
HETATM    8  N4  UNL     1       1.263   2.504   0.022  1.00  0.00    -0.332 N 
ATOM      9  H4  UNL     1       2.181   2.947  -0.004  1.00  0.00     0.168 HD
HETATM   10  C15 UNL     1       1.019   1.202  -0.156  1.00  0.00     0.097 A 
ENDROOT
BRANCH   4  11
HETATM   11  N2  UNL     1      -2.308  -0.382  -0.094  1.00  0.00    -0.372 N 
HETATM   12  C8  UNL     1      -3.165   0.446   0.683  1.00  0.00     0.143 C 
HETATM   13  C9  UNL     1      -4.397  -0.300   1.054  1.00  0.00     0.138 C 
HETATM   14  N3  UNL     1      -5.090  -0.929  -0.038  1.00  0.00    -0.399 N 
HETATM   15  C10 UNL     1      -4.296  -1.493  -1.049  1.00  0.00     0.075 C 
ATOM     16  H3  UNL     1      -6.109  -0.964  -0.076  1.00  0.00     0.158 HD
HETATM   17  C11 UNL     1      -2.841  -1.503  -0.830  1.00  0.00     0.167 C 
ENDBRANCH   4  11
BRANCH   1  18
HETATM   18  N1  UNL     1       3.268   0.324  -0.487  1.00  0.00    -0.388 N 
ATOM     19  H1  UNL     1       3.566   1.282  -0.301  1.00  0.00     0.159 HD
BRANCH  18  20
HETATM   20  C3  UNL     1       4.332  -0.569  -0.769  1.00  0.00     0.119 C 
BRANCH  20  21
HETATM   21  C2  UNL     1       4.496  -1.732   0.119  1.00  0.00     0.015 C 
HETATM   22  C1  UNL     1       4.690  -1.436   1.584  1.00  0.00     0.006 C 
ENDBRANCH  20  21
ENDBRANCH  18  20
ENDBRANCH   1  18
BRANCH   7  23
HETATM   23  C14 UNL     1      -0.115   4.597   0.497  1.00  0.00     0.253 C 
HETATM   24 CL1  UNL     1       1.077   5.189   1.651  1.00  0.00    -0.075 Cl
HETATM   25 CL2  UNL     1      -1.765   4.832   1.183  1.00  0.00    -0.075 Cl
HETATM   26 CL3  UNL     1      -0.026   5.541  -0.987  1.00  0.00    -0.075 Cl
ENDBRANCH   7  23
TORSDOF 5
