REMARK  6 active torsions:
REMARK  status: ('A' for Active; 'I' for Inactive)
REMARK    1  A    between atoms: C2_3  and  O2_4 
REMARK    2  A    between atoms: C3_6  and  N1_7 
REMARK    3  A    between atoms: N1_7  and  C4_9 
REMARK    4  A    between atoms: C4_9  and  C5_10 
REMARK    5  A    between atoms: C4_9  and  C14_22 
REMARK    6  A    between atoms: C8_14  and  C9_15 
ROOT
HETATM    1  C4  UNL     1      -0.910  -0.134  -0.569  1.00  0.00     0.125 C 
ENDROOT
BRANCH   1   2
HETATM    2  N1  UNL     1      -1.477   1.101   0.001  1.00  0.00    -0.375 N 
ATOM      3  H1  UNL     1      -0.823   1.777   0.395  1.00  0.00     0.160 HD
BRANCH   2   4
HETATM    4  C3  UNL     1      -2.821   1.420   0.047  1.00  0.00     0.121 A 
HETATM    5  C2  UNL     1      -3.771   2.003  -0.803  1.00  0.00     0.151 A 
HETATM    6  C1  UNL     1      -4.757   1.908   0.118  1.00  0.00     0.259 A 
HETATM    7  O1  UNL     1      -5.963   2.208   0.169  1.00  0.00    -0.281 OA
HETATM    8  C18 UNL     1      -3.864   1.336   0.984  1.00  0.00     0.253 A 
HETATM    9  O3  UNL     1      -3.844   0.878   2.149  1.00  0.00    -0.281 OA
BRANCH   5  10
HETATM   10  O2  UNL     1      -3.728   2.496  -2.099  1.00  0.00    -0.355 OA
ATOM     11  H2  UNL     1      -3.035   2.563  -2.746  1.00  0.00     0.218 HD
ENDBRANCH   5  10
ENDBRANCH   2   4
ENDBRANCH   1   2
BRANCH   1  12
HETATM   12  C5  UNL     1       0.569  -0.135  -0.236  1.00  0.00     0.044 A 
HETATM   13  C6  UNL     1       1.522   0.223  -1.171  1.00  0.00     0.128 A 
HETATM   14  F1  UNL     1       1.051   0.418  -2.454  1.00  0.00    -0.205 F 
HETATM   15  C7  UNL     1       2.853   0.378  -0.888  1.00  0.00     0.052 A 
HETATM   16  C8  UNL     1       3.325   0.183   0.381  1.00  0.00    -0.026 A 
HETATM   17  C12 UNL     1       2.420  -0.167   1.334  1.00  0.00     0.080 A 
HETATM   18 CL1  UNL     1       2.998  -0.412   2.967  1.00  0.00    -0.080 Cl
HETATM   19  C13 UNL     1       1.061  -0.324   1.033  1.00  0.00     0.150 A 
HETATM   20  F2  UNL     1       0.275  -0.588   2.065  1.00  0.00    -0.203 F 
BRANCH  16  21
HETATM   21  C9  UNL     1       4.752   0.443   0.755  1.00  0.00     0.020 A 
HETATM   22  C10 UNL     1       5.866   0.294  -0.223  1.00  0.00     0.010 A 
HETATM   23  C11 UNL     1       5.332   1.655   0.061  1.00  0.00     0.010 A 
ENDBRANCH  16  21
ENDBRANCH   1  12
BRANCH   1  24
HETATM   24  C14 UNL     1      -1.578  -1.377  -0.284  1.00  0.00     0.013 C 
HETATM   25  C15 UNL     1      -3.011  -1.635  -0.674  1.00  0.00     0.007 C 
HETATM   26  C16 UNL     1      -2.735  -3.036  -0.047  1.00  0.00     0.001 C 
HETATM   27  C17 UNL     1      -1.805  -2.184   0.888  1.00  0.00     0.007 C 
ENDBRANCH   1  24
TORSDOF 6
