REMARK  8 active torsions:
REMARK  status: ('A' for Active; 'I' for Inactive)
REMARK    1  A    between atoms: C3_3  and  N1_4 
REMARK    2  A    between atoms: N1_4  and  C4_6 
REMARK    3  A    between atoms: C5_9  and  N3_10 
REMARK    4  A    between atoms: C6_15  and  N5_16 
REMARK    5  A    between atoms: N5_16  and  C7_18 
REMARK    6  A    between atoms: C7_18  and  C8_19 
REMARK    7  A    between atoms: C8_19  and  N6_20 
REMARK    8  A    between atoms: N6_20  and  C9_23 
ROOT
HETATM    1  C1  UNL     1       6.206   1.872   0.425  1.00  0.00     0.014 C 
HETATM    2  C2  UNL     1       5.399   1.477  -0.390  1.00  0.00    -0.097 C 
HETATM    3  C3  UNL     1       4.424   1.007  -1.405  1.00  0.00     0.231 C 
ENDROOT
BRANCH   3   4
HETATM    4  N1  UNL     1       3.144   0.897  -0.808  1.00  0.00    -0.215 N 
ATOM      5  H1  UNL     1       2.674   1.785  -0.632  1.00  0.00     0.178 HD
BRANCH   4   6
HETATM    6  C4  UNL     1       2.495  -0.127  -0.460  1.00  0.00     0.708 A 
HETATM    7  N2  UNL     1       2.982  -1.363  -0.627  1.00  0.00    -0.022 N 
HETATM    8  C5  UNL     1       2.247  -2.441  -0.242  1.00  0.00     0.705 A 
ATOM      9  H2  UNL     1       3.904  -1.496  -1.043  1.00  0.00     0.203 HD
HETATM   10  N4  UNL     1       1.034  -2.242   0.303  1.00  0.00    -0.022 N 
HETATM   11  C6  UNL     1       0.511  -0.995   0.483  1.00  0.00     0.707 A 
ATOM     12  H4  UNL     1       0.486  -3.052   0.592  1.00  0.00     0.203 HD
HETATM   13  N7  UNL     1       1.256   0.051   0.096  1.00  0.00    -0.021 N 
ATOM     14  H7  UNL     1       0.893   0.996   0.218  1.00  0.00     0.203 HD
BRANCH   8  15
HETATM   15  N3  UNL     1       2.754  -3.612  -0.425  1.00  0.00    -0.234 N 
ATOM     16  H32 UNL     1       3.674  -3.763  -0.838  1.00  0.00     0.174 HD
ATOM     17  H31 UNL     1       2.203  -4.420  -0.136  1.00  0.00     0.174 HD
ENDBRANCH   8  15
BRANCH  11  18
HETATM   18  N5  UNL     1      -0.650  -0.957   1.006  1.00  0.00    -0.223 N 
ATOM     19  H5  UNL     1      -1.072  -1.857   1.237  1.00  0.00     0.177 HD
BRANCH  18  20
HETATM   20  C7  UNL     1      -1.432   0.208   1.307  1.00  0.00     0.165 C 
BRANCH  20  21
HETATM   21  C8  UNL     1      -2.621   0.239   0.360  1.00  0.00     0.252 C 
BRANCH  21  22
HETATM   22  N6  UNL     1      -3.457   1.390   0.612  1.00  0.00    -0.074 N 
ATOM     23  H62 UNL     1      -3.755   1.438   1.586  1.00  0.00     0.277 HD
ATOM     24  H61 UNL     1      -2.928   2.261   0.574  1.00  0.00     0.277 HD
BRANCH  22  25
HETATM   25  C9  UNL     1      -4.586   1.401  -0.302  1.00  0.00     0.228 C 
HETATM   26  C10 UNL     1      -5.514   0.249   0.028  1.00  0.00     0.034 C 
ENDBRANCH  22  25
ENDBRANCH  21  22
ENDBRANCH  20  21
ENDBRANCH  18  20
ENDBRANCH  11  18
ENDBRANCH   4   6
ENDBRANCH   3   4
TORSDOF 8
