REMARK  10 active torsions:
REMARK  status: ('A' for Active; 'I' for Inactive)
REMARK    1  A    between atoms: N1_1  and  C1_5 
REMARK    2  A    between atoms: C1_5  and  C2_6 
REMARK    3  A    between atoms: C2_6  and  N2_7 
REMARK    4  A    between atoms: N2_7  and  C3_9 
REMARK    5  A    between atoms: C6_14  and  N4_15 
REMARK    6  A    between atoms: N4_15  and  C7_17 
REMARK    7  A    between atoms: C8_18  and  N5_19 
REMARK    8  A    between atoms: N5_19  and  C9_21 
REMARK    9  A    between atoms: C9_21  and  C10_22 
REMARK   10  A    between atoms: C10_22  and  O1_23 
ROOT
HETATM    1  C3  UNL     1      -2.484  -0.497   0.122  1.00  0.00     0.679 A 
HETATM    2  N3  UNL     1      -2.436  -0.644  -1.204  1.00  0.00    -0.202 N 
ATOM      3  H3  UNL     1      -3.254  -1.022  -1.682  1.00  0.00     0.183 HD
HETATM    4  C4  UNL     1      -1.345  -0.312  -1.946  1.00  0.00     0.110 A 
HETATM    5  C5  UNL     1      -0.226   0.201  -1.329  1.00  0.00     0.066 A 
HETATM    6  C6  UNL     1      -0.283   0.351   0.044  1.00  0.00     0.122 A 
HETATM    7  N6  UNL     1      -1.379   0.010   0.737  1.00  0.00    -0.177 N 
ATOM      8  H6  UNL     1      -1.386   0.133   1.750  1.00  0.00     0.186 HD
ENDROOT
BRANCH   6   9
HETATM    9  N4  UNL     1       0.759   0.826   0.637  1.00  0.00    -0.351 N 
ATOM     10  H4  UNL     1       0.746   0.947   1.650  1.00  0.00     0.166 HD
BRANCH   9  11
HETATM   11  C7  UNL     1       1.925   1.184  -0.093  1.00  0.00     0.106 C 
HETATM   12  C8  UNL     1       3.128   0.736   0.154  1.00  0.00     0.100 C 
BRANCH  12  13
HETATM   13  N5  UNL     1       4.206   1.164  -0.639  1.00  0.00    -0.396 N 
ATOM     14  H5  UNL     1       4.263   2.141  -0.928  1.00  0.00     0.159 HD
BRANCH  13  15
HETATM   15  C9  UNL     1       5.225   0.246  -1.046  1.00  0.00     0.145 C 
BRANCH  15  16
HETATM   16  C10 UNL     1       6.115  -0.256   0.037  1.00  0.00     0.183 C 
BRANCH  16  17
HETATM   17  O1  UNL     1       5.486  -0.941   1.054  1.00  0.00    -0.399 OA
ATOM     18  H1  UNL     1       6.054  -1.261   1.745  1.00  0.00     0.209 HD
ENDBRANCH  16  17
ENDBRANCH  15  16
ENDBRANCH  13  15
ENDBRANCH  12  13
ENDBRANCH   9  11
ENDBRANCH   6   9
BRANCH   1  19
HETATM   19  N2  UNL     1      -3.470  -0.791   0.869  1.00  0.00    -0.224 N 
ATOM     20  H2  UNL     1      -3.339  -0.616   1.865  1.00  0.00     0.177 HD
BRANCH  19  21
HETATM   21  C2  UNL     1      -4.733  -1.333   0.497  1.00  0.00     0.165 C 
BRANCH  21  22
HETATM   22  C1  UNL     1      -5.786  -0.264   0.826  1.00  0.00     0.249 C 
BRANCH  22  23
HETATM   23  N1  UNL     1      -5.392   0.895   0.013  1.00  0.00    -0.078 N 
ATOM     24  H13 UNL     1      -4.429   1.199   0.158  1.00  0.00     0.274 HD
ATOM     25  H12 UNL     1      -5.298   0.694  -0.983  1.00  0.00     0.274 HD
ATOM     26  H11 UNL     1      -6.091   1.605   0.231  1.00  0.00     0.274 HD
ENDBRANCH  22  23
ENDBRANCH  21  22
ENDBRANCH  19  21
ENDBRANCH   1  19
TORSDOF 10
