REMARK  9 active torsions:
REMARK  status: ('A' for Active; 'I' for Inactive)
REMARK    1  A    between atoms: C3_3  and  N1_4 
REMARK    2  A    between atoms: N1_4  and  C4_6 
REMARK    3  A    between atoms: C5_9  and  N3_10 
REMARK    4  A    between atoms: C6_15  and  N5_16 
REMARK    5  A    between atoms: N5_16  and  C7_18 
REMARK    6  A    between atoms: C7_18  and  C8_19 
REMARK    7  A    between atoms: C8_19  and  C9_20 
REMARK    8  A    between atoms: C9_20  and  C10_21 
REMARK    9  A    between atoms: C10_21  and  N6_22 
ROOT
HETATM    1  C1  UNL     1       5.407   2.720  -1.383  1.00  0.00     0.014 C 
HETATM    2  C2  UNL     1       4.446   2.017  -1.121  1.00  0.00    -0.097 C 
HETATM    3  C3  UNL     1       3.300   1.172  -0.783  1.00  0.00     0.231 C 
ENDROOT
BRANCH   3   4
HETATM    4  N1  UNL     1       3.700  -0.184  -0.486  1.00  0.00    -0.215 N 
ATOM      5  H1  UNL     1       4.675  -0.462  -0.594  1.00  0.00     0.178 HD
BRANCH   4   6
HETATM    6  C4  UNL     1       2.828  -1.042  -0.085  1.00  0.00     0.708 A 
HETATM    7  N2  UNL     1       3.141  -2.313   0.205  1.00  0.00    -0.022 N 
HETATM    8  C5  UNL     1       2.220  -3.210   0.625  1.00  0.00     0.705 A 
ATOM      9  H2  UNL     1       4.110  -2.615   0.105  1.00  0.00     0.203 HD
HETATM   10  N4  UNL     1       0.941  -2.776   0.748  1.00  0.00    -0.022 N 
HETATM   11  C6  UNL     1       0.585  -1.517   0.469  1.00  0.00     0.707 A 
ATOM     12  H4  UNL     1       0.226  -3.432   1.064  1.00  0.00     0.203 HD
HETATM   13  N7  UNL     1       1.541  -0.670   0.055  1.00  0.00    -0.021 N 
ATOM     14  H7  UNL     1       1.283   0.293  -0.162  1.00  0.00     0.203 HD
BRANCH   8  15
HETATM   15  N3  UNL     1       2.580  -4.419   0.889  1.00  0.00    -0.234 N 
ATOM     16  H32 UNL     1       3.542  -4.745   0.796  1.00  0.00     0.174 HD
ATOM     17  H31 UNL     1       1.885  -5.095   1.206  1.00  0.00     0.174 HD
ENDBRANCH   8  15
BRANCH  11  18
HETATM   18  N5  UNL     1      -0.616  -1.067   0.572  1.00  0.00    -0.225 N 
ATOM     19  H5  UNL     1      -1.336  -1.717   0.887  1.00  0.00     0.177 HD
BRANCH  18  20
HETATM   20  C7  UNL     1      -1.018   0.267   0.281  1.00  0.00     0.138 C 
BRANCH  20  21
HETATM   21  C8  UNL     1      -2.532   0.335   0.374  1.00  0.00     0.022 C 
BRANCH  21  22
HETATM   22  C9  UNL     1      -2.997   1.745   0.070  1.00  0.00     0.029 C 
BRANCH  22  23
HETATM   23  C10 UNL     1      -4.504   1.781   0.170  1.00  0.00     0.229 C 
BRANCH  23  24
HETATM   24  N6  UNL     1      -5.060   0.856  -0.785  1.00  0.00    -0.079 N 
ATOM     25  H63 UNL     1      -4.729   1.032  -1.734  1.00  0.00     0.274 HD
ATOM     26  H62 UNL     1      -4.686  -0.087  -0.676  1.00  0.00     0.274 HD
ATOM     27  H61 UNL     1      -6.077   0.880  -0.717  1.00  0.00     0.274 HD
ENDBRANCH  23  24
ENDBRANCH  22  23
ENDBRANCH  21  22
ENDBRANCH  20  21
ENDBRANCH  18  20
ENDBRANCH  11  18
ENDBRANCH   4   6
ENDBRANCH   3   4
TORSDOF 9
