REMARK  8 active torsions:
REMARK  status: ('A' for Active; 'I' for Inactive)
REMARK    1  A    between atoms: N2_6  and  C4_8 
REMARK    2  A    between atoms: C4_8  and  C5_9 
REMARK    3  A    between atoms: C5_9  and  N3_10 
REMARK    4  A    between atoms: N5_17  and  C7_19 
REMARK    5  A    between atoms: C7_19  and  C8_20 
REMARK    6  A    between atoms: C8_20  and  C9_21 
REMARK    7  A    between atoms: C9_21  and  C10_22 
REMARK    8  A    between atoms: C10_22  and  N6_23 
ROOT
HETATM    1  C1  UNL     1      -1.096  -2.321   1.830  1.00  0.00     0.064 C 
HETATM    2  C2  UNL     1      -1.159  -1.267   1.036  1.00  0.00     0.127 A 
HETATM    3  N1  UNL     1      -2.408  -0.831   0.501  1.00  0.00    -0.177 N 
ATOM      4  H1  UNL     1      -3.267  -1.332   0.728  1.00  0.00     0.185 HD
HETATM    5  C3  UNL     1      -2.448   0.311  -0.354  1.00  0.00     0.694 A 
HETATM    6  N2  UNL     1      -3.585   0.699  -0.834  1.00  0.00    -0.224 N 
ATOM      7  H2  UNL     1      -3.599   1.516  -1.445  1.00  0.00     0.177 HD
HETATM    8  N4  UNL     1      -1.227   0.975  -0.643  1.00  0.00    -0.022 N 
ATOM      9  H4  UNL     1      -1.250   1.791  -1.255  1.00  0.00     0.203 HD
HETATM   10  C6  UNL     1       0.025   0.556  -0.120  1.00  0.00     0.694 A 
HETATM   11  N5  UNL     1       1.126   1.154  -0.380  1.00  0.00    -0.226 N 
ATOM     12  H5  UNL     1       1.069   1.967  -0.994  1.00  0.00     0.177 HD
HETATM   13  N7  UNL     1       0.059  -0.581   0.731  1.00  0.00    -0.177 N 
ATOM     14  H7  UNL     1       0.944  -0.905   1.121  1.00  0.00     0.185 HD
ENDROOT
BRANCH  11  15
HETATM   15  C7  UNL     1       2.420   0.807   0.095  1.00  0.00     0.138 C 
BRANCH  15  16
HETATM   16  C8  UNL     1       3.059  -0.324  -0.670  1.00  0.00     0.022 C 
BRANCH  16  17
HETATM   17  C9  UNL     1       4.421  -0.673  -0.151  1.00  0.00     0.029 C 
BRANCH  17  18
HETATM   18  C10 UNL     1       5.404   0.479  -0.221  1.00  0.00     0.229 C 
BRANCH  18  19
HETATM   19  N6  UNL     1       6.663  -0.017   0.313  1.00  0.00    -0.079 N 
ATOM     20  H63 UNL     1       6.575  -0.416   1.247  1.00  0.00     0.274 HD
ATOM     21  H62 UNL     1       6.996  -0.860  -0.155  1.00  0.00     0.274 HD
ATOM     22  H61 UNL     1       7.324   0.758   0.266  1.00  0.00     0.274 HD
ENDBRANCH  18  19
ENDBRANCH  17  18
ENDBRANCH  16  17
ENDBRANCH  15  16
ENDBRANCH  11  15
BRANCH   6  23
HETATM   23  C4  UNL     1      -4.827   0.040  -0.552  1.00  0.00     0.165 C 
BRANCH  23  24
HETATM   24  C5  UNL     1      -5.998   0.968  -0.896  1.00  0.00     0.249 C 
BRANCH  24  25
HETATM   25  N3  UNL     1      -5.946   1.310  -2.302  1.00  0.00    -0.078 N 
ATOM     26  H33 UNL     1      -5.046   1.710  -2.568  1.00  0.00     0.274 HD
ATOM     27  H32 UNL     1      -5.921   0.483  -2.899  1.00  0.00     0.274 HD
ATOM     28  H31 UNL     1      -6.725   1.927  -2.531  1.00  0.00     0.274 HD
ENDBRANCH  24  25
ENDBRANCH  23  24
ENDBRANCH   6  23
TORSDOF 8
