REMARK  6 active torsions:
REMARK  status: ('A' for Active; 'I' for Inactive)
REMARK    1  A    between atoms: C2_2  and  C3_3 
REMARK    2  A    between atoms: C4_4  and  C5_5 
REMARK    3  A    between atoms: C5_5  and  N1_6 
REMARK    4  A    between atoms: N1_6  and  N2_7 
REMARK    5  A    between atoms: N1_6  and  C6_10 
REMARK    6  A    between atoms: C10_17  and  N4_18 
REMARK       I    between atoms: N4_18  and  C11_20 
ROOT
HETATM    1  C6  UNL     1      -0.455   0.831  -0.104  1.00  0.00     0.135 C 
HETATM    2  C7  UNL     1      -0.537   2.147  -0.899  1.00  0.00     0.049 C 
HETATM    3  C8  UNL     1      -1.694   2.970  -0.438  1.00  0.00     0.125 C 
HETATM    4  N3  UNL     1      -2.105   2.725   0.933  1.00  0.00    -0.359 N 
ATOM      5  H3  UNL     1      -2.261   3.477   1.604  1.00  0.00     0.162 HD
HETATM    6  C9  UNL     1      -2.272   1.360   1.262  1.00  0.00     0.242 C 
HETATM    7  O1  UNL     1      -2.707   0.965   2.334  1.00  0.00    -0.271 OA
HETATM    8  C10 UNL     1      -1.862   0.412   0.168  1.00  0.00     0.200 C 
ENDROOT
BRANCH   1   9
HETATM    9  N1  UNL     1       0.475  -0.097  -0.584  1.00  0.00    -0.324 N 
BRANCH   9  10
HETATM   10  C5  UNL     1       1.355  -0.598   0.434  1.00  0.00     0.170 C 
BRANCH  10  11
HETATM   11  C4  UNL     1       2.516  -1.369  -0.036  1.00  0.00    -0.006 C 
HETATM   12  C3  UNL     1       3.727  -1.017   0.332  1.00  0.00    -0.003 C 
BRANCH  12  13
HETATM   13  C2  UNL     1       4.898  -1.742  -0.097  1.00  0.00    -0.011 C 
HETATM   14  C1  UNL     1       6.131  -1.375   0.295  1.00  0.00     0.011 C 
ENDBRANCH  12  13
ENDBRANCH  10  11
ENDBRANCH   9  10
BRANCH   9  15
HETATM   15  N2  UNL     1       1.094   0.129  -1.771  1.00  0.00    -0.347 N 
ATOM     16  H22 UNL     1       1.772  -0.548  -2.121  1.00  0.00     0.176 HD
ATOM     17  H21 UNL     1       0.469   0.485  -2.494  1.00  0.00     0.176 HD
ENDBRANCH   9  15
ENDBRANCH   1   9
BRANCH   8  18
HETATM   18  N4  UNL     1      -2.111  -0.949   0.415  1.00  0.00    -0.349 N 
HETATM   19  C11 UNL     1      -3.479  -1.399   0.509  1.00  0.00     0.182 C 
HETATM   20  N5  UNL     1      -4.467  -0.585   0.656  1.00  0.00    -0.374 N 
HETATM   21  N6  UNL     1      -3.798  -2.772   0.432  1.00  0.00    -0.064 NA
ATOM     22  H52 UNL     1      -4.237   0.407   0.712  1.00  0.00     0.158 HD
ATOM     23  H51 UNL     1      -5.434  -0.903   0.722  1.00  0.00     0.158 HD
ATOM     24  H4  UNL     1      -1.339  -1.607   0.526  1.00  0.00     0.163 HD
ENDBRANCH   8  18
TORSDOF 6
