REMARK  7 active torsions:
REMARK  status: ('A' for Active; 'I' for Inactive)
REMARK    1  A    between atoms: S1_2  and  C2_3 
REMARK    2  A    between atoms: C2_3  and  N1_4 
REMARK    3  A    between atoms: C3_6  and  C4_8 
REMARK    4  A    between atoms: C4_8  and  C5_9 
REMARK    5  A    between atoms: C5_9  and  N3_10 
REMARK    6  A    between atoms: N3_10  and  N4_11 
REMARK    7  A    between atoms: C6_17  and  N8_18 
ROOT
HETATM    1  C2  UNL     1      -1.307  -0.007  -0.405  1.00  0.00     0.213 C 
HETATM    2  N5  UNL     1      -1.145  -0.658  -1.689  1.00  0.00    -0.083 NA
HETATM    3  N6  UNL     1      -1.818  -1.878  -1.542  1.00  0.00    -0.034 NA
HETATM    4  N7  UNL     1      -1.369  -2.296  -0.289  1.00  0.00    -0.092 NA
HETATM    5  C6  UNL     1      -1.725  -1.153   0.528  1.00  0.00     0.349 C 
ENDROOT
BRANCH   1   6
HETATM    6  S1  UNL     1      -2.647   1.216  -0.519  1.00  0.00    -0.120 SA
HETATM    7  C1  UNL     1      -3.061   1.769   1.137  1.00  0.00     0.094 C 
ENDBRANCH   1   6
BRANCH   1   8
HETATM    8  N1  UNL     1      -0.137   0.642   0.072  1.00  0.00    -0.346 N 
HETATM    9  C3  UNL     1       0.919   0.961  -0.561  1.00  0.00     0.092 C 
HETATM   10  N2  UNL     1       1.038   0.669  -1.941  1.00  0.00    -0.088 NA
ATOM     11  H1  UNL     1      -0.145   0.887   1.062  1.00  0.00     0.163 HD
BRANCH   9  12
HETATM   12  C4  UNL     1       2.019   1.640   0.156  1.00  0.00     0.090 C 
BRANCH  12  13
HETATM   13  C5  UNL     1       3.300   0.844   0.126  1.00  0.00     0.141 C 
BRANCH  13  14
HETATM   14  N3  UNL     1       3.137  -0.454   0.745  1.00  0.00    -0.148 NA
BRANCH  14  15
HETATM   15  N4  UNL     1       4.295  -1.203   0.733  1.00  0.00    -0.348 N 
ATOM     16  H42 UNL     1       5.167  -0.863   0.327  1.00  0.00     0.172 HD
ATOM     17  H41 UNL     1       4.180  -2.118   1.169  1.00  0.00     0.172 HD
ENDBRANCH  14  15
ENDBRANCH  13  14
ENDBRANCH  12  13
ENDBRANCH   9  12
ENDBRANCH   1   8
BRANCH   5  18
HETATM   18  N8  UNL     1      -3.125  -1.066   0.798  1.00  0.00    -0.055 N 
ATOM     19  H83 UNL     1      -3.389  -0.153   1.168  1.00  0.00     0.276 HD
ATOM     20  H82 UNL     1      -3.681  -1.044  -0.057  1.00  0.00     0.276 HD
ATOM     21  H81 UNL     1      -3.403  -1.827   1.418  1.00  0.00     0.276 HD
ENDBRANCH   5  18
TORSDOF 7
