REMARK  8 active torsions:
REMARK  status: ('A' for Active; 'I' for Inactive)
REMARK    1  A    between atoms: N1_1  and  C1_4 
REMARK    2  A    between atoms: N3_7  and  C2_8 
REMARK    3  A    between atoms: C2_8  and  C3_9 
REMARK    4  A    between atoms: C3_9  and  C4_10 
REMARK    5  A    between atoms: C4_10  and  C5_11 
REMARK    6  A    between atoms: C5_11  and  O1_12 
REMARK    7  A    between atoms: C6_15  and  N5_16 
REMARK    8  A    between atoms: C7_22  and  N8_23 
ROOT
HETATM    1  C1  UNL     1      -2.430   1.475   0.825  1.00  0.00     0.163 A 
HETATM    2  N2  UNL     1      -1.241   1.488   0.204  1.00  0.00    -0.264 N 
ATOM      3  H2  UNL     1      -0.675   2.336   0.196  1.00  0.00     0.190 HD
HETATM    4  N3  UNL     1      -0.804   0.382  -0.404  1.00  0.00    -0.194 N 
HETATM    5  N4  UNL     1      -1.518  -0.732  -0.409  1.00  0.00     0.022 N 
HETATM    6  C6  UNL     1      -1.672  -2.016  -0.766  1.00  0.00     0.732 A 
HETATM    7  N6  UNL     1      -2.854  -2.027  -0.148  1.00  0.00    -0.104 N 
ATOM      8  H6  UNL     1      -3.584  -2.725  -0.003  1.00  0.00     0.208 HD
HETATM    9  N7  UNL     1      -2.691  -0.765   0.198  1.00  0.00    -0.124 N 
HETATM   10  C7  UNL     1      -3.183   0.330   0.830  1.00  0.00     0.187 A 
ENDROOT
BRANCH   4  11
HETATM   11  C2  UNL     1       0.486   0.442  -1.062  1.00  0.00     0.172 C 
BRANCH  11  12
HETATM   12  C3  UNL     1       1.591   0.052  -0.096  1.00  0.00     0.026 C 
BRANCH  12  13
HETATM   13  C4  UNL     1       2.945   0.107  -0.759  1.00  0.00     0.028 C 
BRANCH  13  14
HETATM   14  C5  UNL     1       4.041  -0.276   0.188  1.00  0.00     0.164 C 
BRANCH  14  15
HETATM   15  O1  UNL     1       4.083   0.580   1.293  1.00  0.00    -0.401 OA
ATOM     16  H1  UNL     1       4.778   0.337   1.893  1.00  0.00     0.209 HD
ENDBRANCH  14  15
ENDBRANCH  13  14
ENDBRANCH  12  13
ENDBRANCH  11  12
ENDBRANCH   4  11
BRANCH   1  17
HETATM   17  N1  UNL     1      -2.864   2.520   1.411  1.00  0.00    -0.381 N 
ATOM     18  H12 UNL     1      -2.304   3.372   1.407  1.00  0.00     0.157 HD
ATOM     19  H11 UNL     1      -3.768   2.510   1.883  1.00  0.00     0.157 HD
ENDBRANCH   1  17
BRANCH   6  20
HETATM   20  N5  UNL     1      -0.958  -2.862  -1.431  1.00  0.00    -0.230 N 
ATOM     21  H52 UNL     1      -0.054  -2.854  -1.904  1.00  0.00     0.174 HD
ATOM     22  H51 UNL     1      -1.075  -3.838  -1.702  1.00  0.00     0.174 HD
ENDBRANCH   6  20
BRANCH  10  23
HETATM   23  N8  UNL     1      -4.312   0.291   1.411  1.00  0.00    -0.380 N 
ATOM     24  H82 UNL     1      -4.682   1.114   1.886  1.00  0.00     0.158 HD
ATOM     25  H81 UNL     1      -4.872  -0.561   1.415  1.00  0.00     0.158 HD
ENDBRANCH  10  23
TORSDOF 8
