REMARK  14 active torsions:
REMARK  status: ('A' for Active; 'I' for Inactive)
REMARK    1  A    between atoms: N1_1  and  C1_4 
REMARK    2  A    between atoms: C2_7  and  N3_8 
REMARK    3  A    between atoms: N3_8  and  C3_10 
REMARK    4  A    between atoms: C3_10  and  C4_11 
REMARK    5  A    between atoms: C4_11  and  N4_12 
REMARK    6  A    between atoms: N4_12  and  O1_13 
REMARK    7  A    between atoms: N4_12  and  N5_15 
REMARK    8  A    between atoms: C6_19  and  N6_20 
REMARK    9  A    between atoms: N6_20  and  C7_22 
REMARK   10  A    between atoms: C7_22  and  N7_23 
REMARK   11  A    between atoms: N7_23  and  C8_25 
REMARK   12  A    between atoms: C11_28  and  N8_29 
REMARK   13  A    between atoms: C13_33  and  N9_34 
REMARK   14  A    between atoms: C14_39  and  N11_40 
ROOT
HETATM    1  C1  UNL     1      -4.454   2.130  -0.624  1.00  0.00     0.679 A 
HETATM    2  N2  UNL     1      -4.070   1.098   0.144  1.00  0.00    -0.176 N 
ATOM      3  H2  UNL     1      -4.800   0.489   0.513  1.00  0.00     0.186 HD
HETATM    4  C2  UNL     1      -2.803   0.806   0.463  1.00  0.00     0.134 A 
HETATM    5  C5  UNL     1      -1.850   1.682  -0.077  1.00  0.00     0.098 A 
HETATM    6  C6  UNL     1      -0.517   1.487   0.179  1.00  0.00     0.136 A 
HETATM    7  N10 UNL     1       0.369   2.342  -0.352  1.00  0.00    -0.176 N 
ATOM      8  H10 UNL     1       1.359   2.192  -0.159  1.00  0.00     0.186 HD
HETATM    9  C14 UNL     1       0.022   3.390  -1.128  1.00  0.00     0.679 A 
HETATM   10  N12 UNL     1      -1.280   3.583  -1.380  1.00  0.00    -0.175 N 
ATOM     11  H12 UNL     1      -1.569   4.367  -1.964  1.00  0.00     0.186 HD
HETATM   12  C15 UNL     1      -2.220   2.746  -0.866  1.00  0.00     0.154 A 
HETATM   13  N13 UNL     1      -3.514   2.958  -1.131  1.00  0.00    -0.175 N 
ATOM     14  H13 UNL     1      -3.792   3.746  -1.717  1.00  0.00     0.186 HD
ENDROOT
BRANCH   6  15
HETATM   15  N6  UNL     1      -0.209   0.486   0.918  1.00  0.00    -0.359 N 
ATOM     16  H6  UNL     1      -0.934  -0.127   1.291  1.00  0.00     0.162 HD
BRANCH  15  17
HETATM   17  C7  UNL     1       1.182   0.242   1.213  1.00  0.00     0.245 C 
BRANCH  17  18
HETATM   18  N7  UNL     1       1.883  -0.310   0.063  1.00  0.00    -0.372 N 
ATOM     19  H7  UNL     1       1.395  -0.477  -0.817  1.00  0.00     0.161 HD
BRANCH  18  20
HETATM   20  C8  UNL     1       3.250  -0.607   0.196  1.00  0.00     0.062 A 
HETATM   21  C9  UNL     1       3.902  -0.319   1.397  1.00  0.00     0.034 A 
HETATM   22  C10 UNL     1       5.238  -0.565   1.581  1.00  0.00     0.038 A 
HETATM   23  C11 UNL     1       5.973  -1.120   0.543  1.00  0.00     0.105 A 
HETATM   24  C12 UNL     1       5.308  -1.391  -0.618  1.00  0.00     0.074 A 
HETATM   25  C13 UNL     1       3.954  -1.151  -0.829  1.00  0.00     0.131 A 
BRANCH  23  26
HETATM   26  N8  UNL     1       7.357  -1.374   0.735  1.00  0.00    -0.116 N 
HETATM   27  O4  UNL     1       7.913  -1.108   1.815  1.00  0.00    -0.532 OA
HETATM   28  O5  UNL     1       8.086  -1.920  -0.284  1.00  0.00    -0.532 OA
ENDBRANCH  23  26
BRANCH  25  29
HETATM   29  N9  UNL     1       3.412  -1.485  -2.088  1.00  0.00    -0.113 N 
HETATM   30  O6  UNL     1       2.279  -1.906  -2.312  1.00  0.00    -0.532 OA
HETATM   31  O7  UNL     1       4.275  -1.341  -3.183  1.00  0.00    -0.532 OA
ENDBRANCH  25  29
ENDBRANCH  18  20
ENDBRANCH  17  18
ENDBRANCH  15  17
ENDBRANCH   6  15
BRANCH   4  32
HETATM   32  N3  UNL     1      -2.413  -0.167   1.190  1.00  0.00    -0.373 N 
ATOM     33  H3  UNL     1      -1.406  -0.242   1.331  1.00  0.00     0.161 HD
BRANCH  32  34
HETATM   34  C3  UNL     1      -3.201  -1.153   1.824  1.00  0.00     0.145 C 
BRANCH  34  35
HETATM   35  C4  UNL     1      -2.936  -2.559   1.331  1.00  0.00     0.202 C 
BRANCH  35  36
HETATM   36  N4  UNL     1      -3.174  -2.753  -0.052  1.00  0.00    -0.139 N 
BRANCH  36  37
HETATM   37  O1  UNL     1      -2.492  -2.047  -0.965  1.00  0.00    -0.268 OA
ATOM     38  H1  UNL     1      -2.652  -2.177  -1.892  1.00  0.00     0.246 HD
ENDBRANCH  36  37
BRANCH  36  39
HETATM   39  N5  UNL     1      -4.116  -3.676  -0.479  1.00  0.00    -0.016 N 
HETATM   40  O2  UNL     1      -3.725  -4.842  -0.707  1.00  0.00    -0.515 OA
HETATM   41  O3  UNL     1      -5.421  -3.349  -0.651  1.00  0.00    -0.515 OA
ENDBRANCH  36  39
ENDBRANCH  35  36
ENDBRANCH  34  35
ENDBRANCH  32  34
ENDBRANCH   4  32
BRANCH   9  42
HETATM   42  N11 UNL     1       0.935   4.191  -1.619  1.00  0.00    -0.234 N 
ATOM     43 2H11 UNL     1       1.926   4.044  -1.427  1.00  0.00     0.174 HD
ATOM     44 1H11 UNL     1       0.673   4.983  -2.206  1.00  0.00     0.174 HD
ENDBRANCH   9  42
BRANCH   1  45
HETATM   45  N1  UNL     1      -5.707   2.318  -0.867  1.00  0.00    -0.234 N 
ATOM     46  H12 UNL     1      -6.416   1.693  -0.484  1.00  0.00     0.174 HD
ATOM     47  H11 UNL     1      -5.999   3.102  -1.451  1.00  0.00     0.174 HD
ENDBRANCH   1  45
TORSDOF 14
