REMARK  11 active torsions:
REMARK  status: ('A' for Active; 'I' for Inactive)
REMARK    1  A    between atoms: C2_2  and  C3_3 
REMARK    2  A    between atoms: C2_2  and  C4_8 
REMARK    3  A    between atoms: C3_3  and  N1_4 
REMARK    4  A    between atoms: C4_8  and  N2_9 
REMARK    5  A    between atoms: C4_8  and  C14_31 
REMARK       I    between atoms: N2_9  and  C5_11 
REMARK    6  A    between atoms: C5_11  and  C6_13 
REMARK    7  A    between atoms: C6_13  and  O2_14 
REMARK    8  A    between atoms: C6_13  and  N3_16 
REMARK    9  A    between atoms: C8_18  and  C9_19 
REMARK   10  A    between atoms: C9_19  and  O3_20 
REMARK   11  A    between atoms: C15_36  and  C16_37 
ROOT
HETATM    1  N2  UNL     1       1.362   0.132  -0.025  1.00  0.00    -0.346 N 
ATOM      2  H2  UNL     1       1.390  -0.811   0.363  1.00  0.00     0.163 HD
HETATM    3  C5  UNL     1       0.148   0.496  -0.647  1.00  0.00     0.267 C 
HETATM    4  O1  UNL     1      -0.026   1.597  -1.196  1.00  0.00    -0.269 OA
ENDROOT
BRANCH   1   5
HETATM    5  C4  UNL     1       2.559   0.900   0.138  1.00  0.00     0.148 C 
BRANCH   5   6
HETATM    6  C2  UNL     1       2.898   1.812  -0.990  1.00  0.00     0.036 C 
HETATM    7  C1  UNL     1       4.177   2.582  -0.723  1.00  0.00     0.014 C 
BRANCH   6   8
HETATM    8  C3  UNL     1       3.037   1.186  -2.349  1.00  0.00     0.236 C 
BRANCH   8   9
HETATM    9  N1  UNL     1       3.212   2.287  -3.337  1.00  0.00    -0.079 N 
ATOM     10  H13 UNL     1       2.466   2.981  -3.294  1.00  0.00     0.274 HD
ATOM     11  H12 UNL     1       3.987   2.909  -3.105  1.00  0.00     0.274 HD
ATOM     12  H11 UNL     1       3.306   1.862  -4.259  1.00  0.00     0.274 HD
ENDBRANCH   8   9
ENDBRANCH   6   8
ENDBRANCH   5   6
BRANCH   5  13
HETATM   13  C14 UNL     1       3.715   0.027   0.496  1.00  0.00     0.091 A 
HETATM   14  N5  UNL     1       5.020   0.117   0.330  1.00  0.00    -0.295 N 
HETATM   15  N6  UNL     1       5.772  -0.829   0.687  1.00  0.00    -0.289 N 
ATOM     16  H5  UNL     1       5.422   0.955  -0.089  1.00  0.00     0.187 HD
HETATM   17  C15 UNL     1       5.273  -1.926   1.234  1.00  0.00     0.156 A 
ATOM     18  H6  UNL     1       6.780  -0.748   0.552  1.00  0.00     0.188 HD
HETATM   19  S3  UNL     1       3.594  -1.541   1.219  1.00  0.00    -0.049 SA
BRANCH  17  20
HETATM   20  C16 UNL     1       5.942  -3.130   1.687  1.00  0.00     0.289 C 
HETATM   21  N7  UNL     1       7.324  -3.302   1.524  1.00  0.00    -0.055 NA
HETATM   22  O5  UNL     1       5.267  -4.043   2.236  1.00  0.00    -0.269 OA
ENDBRANCH  17  20
ENDBRANCH   5  13
ENDBRANCH   1   5
BRANCH   3  23
HETATM   23  C6  UNL     1      -0.931  -0.501  -0.628  1.00  0.00     0.319 C 
BRANCH  23  24
HETATM   24  O2  UNL     1      -1.451  -0.614  -1.928  1.00  0.00    -0.368 OA
ATOM     25  H2  UNL     1      -2.149  -1.259  -1.916  1.00  0.00     0.212 HD
ENDBRANCH  23  24
BRANCH  23  26
HETATM   26  N3  UNL     1      -2.050  -0.103   0.283  1.00  0.00    -0.306 N 
HETATM   27  C7  UNL     1      -3.201  -0.759   0.139  1.00  0.00     0.113 A 
HETATM   28  C8  UNL     1      -4.227  -0.405   0.949  1.00  0.00     0.037 A 
HETATM   29  S1  UNL     1      -3.563   0.830   1.895  1.00  0.00    -0.060 SA
HETATM   30  C13 UNL     1      -1.967   0.832   1.180  1.00  0.00     0.147 A 
HETATM   31  S2  UNL     1      -0.761   1.852   1.679  1.00  0.00    -0.052 SA
BRANCH  28  32
HETATM   32  C9  UNL     1      -5.642  -0.935   1.042  1.00  0.00     0.117 C 
HETATM   33  C10 UNL     1      -6.273  -1.065  -0.293  1.00  0.00     0.166 C 
HETATM   34  N4  UNL     1      -6.939   0.193  -0.568  1.00  0.00    -0.358 N 
HETATM   35  C11 UNL     1      -6.879   1.047   0.574  1.00  0.00     0.221 C 
ATOM     36  H4  UNL     1      -7.387   0.434  -1.452  1.00  0.00     0.162 HD
HETATM   37  O4  UNL     1      -7.117   2.278   0.557  1.00  0.00    -0.273 OA
HETATM   38  C12 UNL     1      -6.493   0.160   1.693  1.00  0.00     0.148 C 
BRANCH  32  39
HETATM   39  O3  UNL     1      -5.694  -2.115   1.744  1.00  0.00    -0.382 OA
ATOM     40  H3  UNL     1      -6.582  -2.448   1.802  1.00  0.00     0.211 HD
ENDBRANCH  32  39
ENDBRANCH  28  32
ENDBRANCH  23  26
ENDBRANCH   3  23
TORSDOF 11
