REMARK  9 active torsions:
REMARK  status: ('A' for Active; 'I' for Inactive)
REMARK       I    between atoms: C1_4  and  N3_6 
REMARK    1  A    between atoms: C3_11  and  S1_12 
REMARK    2  A    between atoms: S1_12  and  C4_13 
REMARK    3  A    between atoms: C4_13  and  C5_14 
REMARK    4  A    between atoms: C7_18  and  C8_19 
REMARK       I    between atoms: C8_19  and  N6_21 
REMARK    5  A    between atoms: N6_21  and  N7_23 
REMARK    6  A    between atoms: C9_28  and  N9_29 
REMARK    7  A    between atoms: C11_33  and  C12_34 
REMARK    8  A    between atoms: C12_34  and  N10_35 
REMARK    9  A    between atoms: C14_39  and  N12_40 
ROOT
HETATM    1  N1  UNL     1      -2.177  -4.250   1.215  1.00  0.00    -0.373 N 
ATOM      2  H11 UNL     1      -2.202  -3.639   2.031  1.00  0.00     0.158 HD
ATOM      3  H12 UNL     1      -1.753  -5.175   1.278  1.00  0.00     0.158 HD
HETATM    4  C1  UNL     1      -2.675  -3.865   0.105  1.00  0.00     0.187 C 
HETATM    5  N2  UNL     1      -2.641  -4.708  -1.021  1.00  0.00    -0.064 NA
HETATM    6  N3  UNL     1      -3.261  -2.587   0.018  1.00  0.00    -0.316 N 
ATOM      7  H3  UNL     1      -4.270  -2.461   0.098  1.00  0.00     0.170 HD
HETATM    8  C2  UNL     1      -2.474  -1.581  -0.167  1.00  0.00     0.116 A 
HETATM    9  N4  UNL     1      -1.136  -1.699  -0.278  1.00  0.00    -0.334 N 
ATOM     10  H4  UNL     1      -0.700  -2.619  -0.216  1.00  0.00     0.168 HD
HETATM   11  C3  UNL     1      -0.374  -0.608  -0.470  1.00  0.00     0.105 A 
HETATM   12  C9  UNL     1      -0.911   0.676  -0.563  1.00  0.00     0.137 A 
HETATM   13  C10 UNL     1      -2.283   0.818  -0.451  1.00  0.00     0.051 A 
HETATM   14  C11 UNL     1      -3.029  -0.321  -0.255  1.00  0.00     0.008 A 
ENDROOT
BRANCH  11  15
HETATM   15  S1  UNL     1       1.395  -0.768  -0.617  1.00  0.00    -0.104 SA
BRANCH  15  16
HETATM   16  C4  UNL     1       2.163  -0.633   1.035  1.00  0.00     0.139 C 
BRANCH  16  17
HETATM   17  C5  UNL     1       3.636  -0.776   0.818  1.00  0.00     0.036 A 
HETATM   18  C6  UNL     1       4.395  -1.909   0.820  1.00  0.00     0.115 A 
HETATM   19  N5  UNL     1       5.677  -1.550   0.579  1.00  0.00    -0.346 N 
HETATM   20  C7  UNL     1       5.746  -0.225   0.426  1.00  0.00     0.176 A 
ATOM     21  H5  UNL     1       6.468  -2.192   0.523  1.00  0.00     0.167 HD
HETATM   22  N8  UNL     1       4.477   0.242   0.576  1.00  0.00    -0.339 N 
ATOM     23  H8  UNL     1       4.204   1.223   0.514  1.00  0.00     0.167 HD
BRANCH  20  24
HETATM   24  C8  UNL     1       6.914   0.607   0.152  1.00  0.00     0.303 C 
HETATM   25  O1  UNL     1       8.022   0.027   0.040  1.00  0.00    -0.263 OA
HETATM   26  N6  UNL     1       6.785   2.013   0.022  1.00  0.00    -0.270 N 
ATOM     27  H6  UNL     1       5.865   2.441   0.122  1.00  0.00     0.189 HD
BRANCH  26  28
HETATM   28  N7  UNL     1       7.883   2.817  -0.238  1.00  0.00    -0.342 N 
ATOM     29  H72 UNL     1       8.796   2.372  -0.335  1.00  0.00     0.176 HD
ATOM     30  H71 UNL     1       7.790   3.828  -0.332  1.00  0.00     0.176 HD
ENDBRANCH  26  28
ENDBRANCH  20  24
ENDBRANCH  16  17
ENDBRANCH  15  16
ENDBRANCH  11  15
BRANCH  12  31
HETATM   31  N9  UNL     1      -0.047   1.787  -0.767  1.00  0.00    -0.113 N 
HETATM   32  O2  UNL     1       1.018   1.736  -1.404  1.00  0.00    -0.532 OA
HETATM   33  O3  UNL     1      -0.402   3.001  -0.229  1.00  0.00    -0.532 OA
ENDBRANCH  12  31
BRANCH  14  34
HETATM   34  C12 UNL     1      -4.506  -0.187  -0.133  1.00  0.00     0.192 C 
BRANCH  34  35
HETATM   35  N10 UNL     1      -4.910   1.201  -0.252  1.00  0.00    -0.281 N 
HETATM   36  C13 UNL     1      -5.238   1.859  -1.400  1.00  0.00     0.203 A 
HETATM   37  N11 UNL     1      -5.558   3.132  -1.110  1.00  0.00    -0.317 N 
HETATM   38  C14 UNL     1      -5.434   3.285   0.217  1.00  0.00     0.265 A 
ATOM     39  H11 UNL     1      -5.843   3.850  -1.776  1.00  0.00     0.169 HD
HETATM   40  N13 UNL     1      -5.041   2.094   0.697  1.00  0.00    -0.263 N 
ATOM     41  H13 UNL     1      -4.865   1.907   1.684  1.00  0.00     0.190 HD
BRANCH  38  42
HETATM   42  N12 UNL     1      -5.664   4.454   0.999  1.00  0.00    -0.078 N 
HETATM   43  O4  UNL     1      -6.029   5.522   0.476  1.00  0.00    -0.529 OA
HETATM   44  O5  UNL     1      -5.485   4.426   2.360  1.00  0.00    -0.529 OA
ENDBRANCH  38  42
ENDBRANCH  34  35
ENDBRANCH  14  34
TORSDOF 9
