REMARK  11 active torsions:
REMARK  status: ('A' for Active; 'I' for Inactive)
REMARK    1  A    between atoms: C2_2  and  C4_4 
REMARK    2  A    between atoms: C2_2  and  C5_7 
REMARK    3  A    between atoms: C4_4  and  O1_5 
REMARK       I    between atoms: C5_7  and  N1_9 
REMARK    4  A    between atoms: N1_9  and  C6_11 
REMARK    5  A    between atoms: C9_15  and  C10_16 
REMARK    6  A    between atoms: N3_17  and  N4_19 
REMARK    7  A    between atoms: N4_19  and  C11_21 
REMARK    8  A    between atoms: C11_21  and  C12_23 
REMARK    9  A    between atoms: N7_28  and  C13_29 
REMARK   10  A    between atoms: C14_35  and  N10_36 
REMARK   11  A    between atoms: C16_42  and  C17_43 
ROOT
HETATM    1  C10 UNL     1       1.956   2.276   0.762  1.00  0.00     0.118 C 
HETATM    2  N3  UNL     1       2.823   2.525  -0.079  1.00  0.00    -0.310 N 
ATOM      3  H3  UNL     1       3.623   3.008   0.331  1.00  0.00     0.186 HD
ENDROOT
BRANCH   2   4
HETATM    4  N4  UNL     1       2.980   2.325  -1.380  1.00  0.00    -0.287 N 
ATOM      5  H4  UNL     1       2.416   2.879  -2.025  1.00  0.00     0.188 HD
BRANCH   4   6
HETATM    6  C11 UNL     1       3.905   1.367  -1.932  1.00  0.00     0.162 C 
HETATM    7  S1  UNL     1       4.064   1.156  -3.516  1.00  0.00    -0.055 SA
BRANCH   6   8
HETATM    8  C12 UNL     1       4.699   0.588  -1.005  1.00  0.00     0.177 A 
HETATM    9  N5  UNL     1       4.314   0.068   0.188  1.00  0.00    -0.266 N 
HETATM   10  N6  UNL     1       5.360  -0.558   0.680  1.00  0.00    -0.218 N 
ATOM     11  H5  UNL     1       3.393   0.147   0.619  1.00  0.00     0.190 HD
HETATM   12  N7  UNL     1       6.398  -0.472  -0.128  1.00  0.00    -0.158 N 
ATOM     13  H6  UNL     1       5.368  -1.048   1.574  1.00  0.00     0.210 HD
HETATM   14  N11 UNL     1       5.978   0.238  -1.165  1.00  0.00    -0.257 N 
ATOM     15  H11 UNL     1       6.551   0.483  -1.972  1.00  0.00     0.191 HD
BRANCH  12  16
HETATM   16  C13 UNL     1       7.698  -1.010   0.046  1.00  0.00     0.214 A 
HETATM   17  N8  UNL     1       8.889  -0.459  -0.282  1.00  0.00    -0.219 N 
HETATM   18  O3  UNL     1       9.849  -1.274   0.042  1.00  0.00    -0.153 OA
ATOM     19  H8  UNL     1       9.015   0.455  -0.717  1.00  0.00     0.198 HD
HETATM   20  N9  UNL     1       9.339  -2.358   0.579  1.00  0.00    -0.222 N 
HETATM   21  C14 UNL     1       7.983  -2.236   0.602  1.00  0.00     0.171 A 
ATOM     22  H9  UNL     1       9.870  -3.158   0.922  1.00  0.00     0.198 HD
BRANCH  21  23
HETATM   23  N10 UNL     1       7.202  -3.125   1.064  1.00  0.00    -0.381 N 
ATOM     24 2H10 UNL     1       6.186  -3.034   1.081  1.00  0.00     0.157 HD
ATOM     25 1H10 UNL     1       7.413  -4.034   1.476  1.00  0.00     0.157 HD
ENDBRANCH  21  23
ENDBRANCH  12  16
ENDBRANCH   6   8
ENDBRANCH   4   6
ENDBRANCH   2   4
BRANCH   1  26
HETATM   26  C9  UNL     1       0.687   1.607   0.574  1.00  0.00    -0.016 A 
HETATM   27  C8  UNL     1      -0.131   1.436   1.685  1.00  0.00     0.041 A 
HETATM   28  C7  UNL     1      -1.346   0.808   1.558  1.00  0.00     0.075 A 
HETATM   29  C6  UNL     1      -1.825   0.321   0.367  1.00  0.00     0.074 A 
HETATM   30  N2  UNL     1      -2.138   0.661   2.727  1.00  0.00    -0.100 NA
HETATM   31  C16 UNL     1      -1.022   0.490  -0.720  1.00  0.00     0.058 A 
HETATM   32  C15 UNL     1       0.230   1.132  -0.613  1.00  0.00     0.032 A 
BRANCH  29  33
HETATM   33  N1  UNL     1      -3.060  -0.306   0.294  1.00  0.00    -0.324 N 
HETATM   34  C5  UNL     1      -4.302   0.350   0.076  1.00  0.00     0.232 C 
HETATM   35  O2  UNL     1      -4.255   1.598  -0.067  1.00  0.00    -0.272 OA
ATOM     36  H1  UNL     1      -3.078  -1.320   0.406  1.00  0.00     0.169 HD
BRANCH  34  37
HETATM   37  C2  UNL     1      -5.618  -0.306   0.008  1.00  0.00     0.055 C 
HETATM   38  C1  UNL     1      -6.649   0.750  -0.388  1.00  0.00     0.027 C 
HETATM   39  C3  UNL     1      -5.698  -1.505  -0.870  1.00  0.00     0.027 C 
BRANCH  37  40
HETATM   40  C4  UNL     1      -5.952  -0.802   1.429  1.00  0.00     0.182 C 
BRANCH  40  41
HETATM   41  O1  UNL     1      -5.037  -1.759   1.808  1.00  0.00    -0.400 OA
ATOM     42  H1  UNL     1      -5.243  -2.065   2.684  1.00  0.00     0.209 HD
ENDBRANCH  40  41
ENDBRANCH  37  40
ENDBRANCH  34  37
ENDBRANCH  29  33
BRANCH  31  43
HETATM   43  C17 UNL     1      -1.380   0.025  -2.033  1.00  0.00     0.267 C 
HETATM   44  N12 UNL     1      -0.534   0.211  -3.178  1.00  0.00    -0.057 NA
HETATM   45  O4  UNL     1      -2.470  -0.569  -2.202  1.00  0.00    -0.271 OA
ENDBRANCH  31  43
ENDBRANCH   1  26
TORSDOF 11
