REMARK  8 active torsions:
REMARK  status: ('A' for Active; 'I' for Inactive)
REMARK    1  A    between atoms: C2_2  and  C3_6 
REMARK    2  A    between atoms: C3_6  and  N2_7 
REMARK    3  A    between atoms: C3_6  and  C4_11 
REMARK       I    between atoms: C4_11  and  N3_13 
REMARK    4  A    between atoms: N3_13  and  C5_15 
REMARK    5  A    between atoms: C5_15  and  C7_17 
REMARK       I    between atoms: C7_17  and  N4_19 
REMARK    6  A    between atoms: N4_19  and  C8_21 
REMARK    7  A    between atoms: C8_21  and  C9_22 
REMARK    8  A    between atoms: C8_21  and  C10_24 
ROOT
HETATM    1  C4  UNL     1      -1.970   0.233  -0.341  1.00  0.00     0.254 C 
HETATM    2  O1  UNL     1      -1.945   1.406  -0.782  1.00  0.00    -0.271 OA
HETATM    3  N3  UNL     1      -0.870  -0.202   0.437  1.00  0.00    -0.346 N 
ATOM      4  H3  UNL     1      -0.890  -1.157   0.796  1.00  0.00     0.163 HD
ENDROOT
BRANCH   3   5
HETATM    5  C5  UNL     1       0.265   0.603   0.754  1.00  0.00     0.172 C 
HETATM    6  C6  UNL     1       0.277   0.820   2.260  1.00  0.00     0.042 C 
BRANCH   5   7
HETATM    7  C7  UNL     1       1.543   0.014   0.276  1.00  0.00     0.241 C 
HETATM    8  O2  UNL     1       1.520  -1.094  -0.340  1.00  0.00    -0.271 OA
HETATM    9  N4  UNL     1       2.790   0.657   0.489  1.00  0.00    -0.341 N 
ATOM     10  H4  UNL     1       2.790   1.548   0.985  1.00  0.00     0.163 HD
BRANCH   9  11
HETATM   11  C8  UNL     1       4.048   0.133   0.052  1.00  0.00     0.235 C 
BRANCH  11  12
HETATM   12  C9  UNL     1       4.382  -1.205   0.618  1.00  0.00     0.265 C 
HETATM   13  O3  UNL     1       3.674  -1.816   1.397  1.00  0.00    -0.304 OA
ENDBRANCH  11  12
BRANCH  11  14
HETATM   14  C10 UNL     1       4.207   0.130  -1.421  1.00  0.00     0.260 C 
HETATM   15  N5  UNL     1       5.393  -0.357  -2.005  1.00  0.00    -0.060 NA
HETATM   16  O4  UNL     1       3.277   0.565  -2.146  1.00  0.00    -0.274 OA
ENDBRANCH  11  14
ENDBRANCH   9  11
ENDBRANCH   5   7
ENDBRANCH   3   5
BRANCH   1  17
HETATM   17  C3  UNL     1      -3.141  -0.610  -0.664  1.00  0.00     0.319 C 
BRANCH  17  18
HETATM   18  C2  UNL     1      -4.411   0.011  -0.240  1.00  0.00     0.015 C 
HETATM   19  C1  UNL     1      -4.863   1.332  -0.762  1.00  0.00     0.065 C 
HETATM   20  N1  UNL     1      -5.171  -0.573   0.598  1.00  0.00    -0.404 N 
ATOM     21  H12 UNL     1      -6.049  -0.144   0.891  1.00  0.00     0.155 HD
ATOM     22  H11 UNL     1      -4.862  -1.477   0.955  1.00  0.00     0.155 HD
ENDBRANCH  17  18
BRANCH  17  23
HETATM   23  N2  UNL     1      -3.042  -1.938  -0.095  1.00  0.00    -0.061 N 
ATOM     24  H23 UNL     1      -3.149  -1.932   0.919  1.00  0.00     0.275 HD
ATOM     25  H22 UNL     1      -3.850  -2.517  -0.323  1.00  0.00     0.275 HD
ATOM     26  H21 UNL     1      -2.164  -2.367  -0.388  1.00  0.00     0.275 HD
ENDBRANCH  17  23
ENDBRANCH   1  17
TORSDOF 8
