REMARK  8 active torsions:
REMARK  status: ('A' for Active; 'I' for Inactive)
REMARK    1  A    between atoms: C1_4  and  C2_6 
REMARK    2  A    between atoms: C2_6  and  C3_7 
REMARK    3  A    between atoms: C3_7  and  N4_11 
REMARK    4  A    between atoms: N4_11  and  C4_13 
REMARK    5  A    between atoms: C4_13  and  C5_14 
REMARK    6  A    between atoms: C5_14  and  N5_15 
REMARK    7  A    between atoms: N5_15  and  S1_17 
REMARK    8  A    between atoms: S1_17  and  N6_18 
ROOT
HETATM    1  C3  UNL     1      -0.729  -0.638  -0.058  1.00  0.00     0.086 C 
HETATM    2  N3  UNL     1      -0.260  -1.165   1.021  1.00  0.00    -0.388 N 
ATOM      3  H31 UNL     1       0.608  -1.694   0.939  1.00  0.00     0.157 HD
ATOM      4  H32 UNL     1      -0.713  -1.072   1.930  1.00  0.00     0.157 HD
ENDROOT
BRANCH   1   5
HETATM    5  C2  UNL     1      -1.996   0.134   0.061  1.00  0.00     0.073 C 
HETATM    6  C6  UNL     1      -3.106  -0.642  -0.640  1.00  0.00     0.025 C 
HETATM    7  C7  UNL     1      -3.315  -1.363   0.680  1.00  0.00     0.003 C 
HETATM    8  C8  UNL     1      -2.751  -0.126   1.350  1.00  0.00     0.025 C 
BRANCH   5   9
HETATM    9  C1  UNL     1      -1.926   1.542  -0.347  1.00  0.00     0.103 C 
HETATM   10  N1  UNL     1      -0.801   2.006  -0.766  1.00  0.00    -0.390 N 
ATOM     11  H12 UNL     1      -0.752   2.985  -1.050  1.00  0.00     0.157 HD
ATOM     12  H11 UNL     1       0.037   1.428  -0.824  1.00  0.00     0.157 HD
HETATM   13  N2  UNL     1      -3.103   2.354  -0.266  1.00  0.00    -0.087 NA
ENDBRANCH   5   9
ENDBRANCH   1   5
BRANCH   1  14
HETATM   14  N4  UNL     1      -0.098  -0.767  -1.323  1.00  0.00    -0.378 N 
ATOM     15  H4  UNL     1      -0.605  -0.478  -2.160  1.00  0.00     0.160 HD
BRANCH  14  16
HETATM   16  C4  UNL     1       1.236  -1.294  -1.462  1.00  0.00     0.141 C 
BRANCH  16  17
HETATM   17  C5  UNL     1       2.198  -0.297  -0.864  1.00  0.00     0.153 C 
BRANCH  17  18
HETATM   18  N5  UNL     1       3.578  -0.727  -0.947  1.00  0.00    -0.301 N 
ATOM     19  H5  UNL     1       3.916  -1.599  -1.355  1.00  0.00     0.173 HD
BRANCH  18  20
HETATM   20  S1  UNL     1       4.544   0.506  -0.229  1.00  0.00     0.312 S 
HETATM   21  O1  UNL     1       5.929   0.544  -0.789  1.00  0.00    -0.183 OA
HETATM   22  O2  UNL     1       3.893   1.859  -0.357  1.00  0.00    -0.183 OA
BRANCH  20  23
HETATM   23  N6  UNL     1       4.703   0.131   1.466  1.00  0.00    -0.312 N 
ATOM     24  H62 UNL     1       4.292  -0.677   1.934  1.00  0.00     0.170 HD
ATOM     25  H61 UNL     1       5.275   0.861   1.891  1.00  0.00     0.170 HD
ENDBRANCH  20  23
ENDBRANCH  18  20
ENDBRANCH  17  18
ENDBRANCH  16  17
ENDBRANCH  14  16
ENDBRANCH   1  14
TORSDOF 8
