REMARK  8 active torsions:
REMARK  status: ('A' for Active; 'I' for Inactive)
REMARK    1  A    between atoms: C2_4  and  N2_5 
REMARK    2  A    between atoms: N2_5  and  C3_7 
REMARK    3  A    between atoms: C4_8  and  N3_9 
REMARK    4  A    between atoms: C6_14  and  N4_15 
REMARK    5  A    between atoms: C7_19  and  C8_20 
REMARK       I    between atoms: C8_20  and  N5_22 
REMARK    6  A    between atoms: N5_22  and  C9_24 
REMARK    7  A    between atoms: C9_24  and  C10_25 
REMARK    8  A    between atoms: C10_25  and  C11_26 
ROOT
HETATM    1  C3  UNL     1      -1.075  -0.152  -0.615  1.00  0.00     0.127 C 
HETATM    2  C4  UNL     1      -1.116  -1.498  -0.041  1.00  0.00     0.209 C 
HETATM    3  C5  UNL     1      -1.200  -1.389   1.426  1.00  0.00     0.068 C 
HETATM    4  C6  UNL     1      -0.933   0.058   1.725  1.00  0.00     0.200 C 
HETATM    5  C7  UNL     1      -0.463   0.701   0.456  1.00  0.00     0.133 C 
ENDROOT
BRANCH   5   6
HETATM    6  C8  UNL     1       0.992   0.829   0.366  1.00  0.00     0.225 C 
HETATM    7  O1  UNL     1       1.467   1.958  -0.003  1.00  0.00    -0.273 OA
HETATM    8  N5  UNL     1       1.933  -0.184   0.648  1.00  0.00    -0.360 N 
ATOM      9  H5  UNL     1       1.585  -1.094   0.950  1.00  0.00     0.162 HD
BRANCH   8  10
HETATM   10  C9  UNL     1       3.346  -0.006   0.534  1.00  0.00     0.131 C 
BRANCH  10  11
HETATM   11  C10 UNL     1       3.857   0.337  -0.820  1.00  0.00     0.119 C 
BRANCH  11  12
HETATM   12  C11 UNL     1       5.351   0.477  -0.729  1.00  0.00     0.232 C 
HETATM   13  N6  UNL     1       6.062   0.805  -1.914  1.00  0.00    -0.062 NA
HETATM   14  O2  UNL     1       5.945   0.310   0.351  1.00  0.00    -0.277 OA
ENDBRANCH  11  12
ENDBRANCH  10  11
ENDBRANCH   8  10
ENDBRANCH   5   6
BRANCH   1  15
HETATM   15  N2  UNL     1      -2.345   0.429  -0.949  1.00  0.00    -0.379 N 
ATOM     16  H2  UNL     1      -2.601   1.303  -0.490  1.00  0.00     0.160 HD
BRANCH  15  17
HETATM   17  C2  UNL     1      -3.269  -0.125  -1.870  1.00  0.00     0.171 C 
HETATM   18  N1  UNL     1      -4.526   0.164  -1.809  1.00  0.00    -0.391 N 
HETATM   19  C1  UNL     1      -5.068   1.065  -0.801  1.00  0.00     0.147 C 
ATOM     20  H1  UNL     1      -5.161  -0.253  -2.490  1.00  0.00     0.159 HD
ENDBRANCH  15  17
ENDBRANCH   1  15
BRANCH   4  21
HETATM   21  N4  UNL     1      -2.127   0.735   2.208  1.00  0.00    -0.074 N 
ATOM     22  H43 UNL     1      -2.905   0.627   1.558  1.00  0.00     0.274 HD
ATOM     23  H42 UNL     1      -2.526   0.256   3.015  1.00  0.00     0.274 HD
ATOM     24  H41 UNL     1      -1.946   1.718   2.411  1.00  0.00     0.274 HD
ENDBRANCH   4  21
BRANCH   2  25
HETATM   25  N3  UNL     1      -2.133  -2.370  -0.616  1.00  0.00    -0.073 N 
ATOM     26  H33 UNL     1      -3.052  -1.931  -0.557  1.00  0.00     0.274 HD
ATOM     27  H32 UNL     1      -2.027  -2.419  -1.629  1.00  0.00     0.274 HD
ATOM     28  H31 UNL     1      -2.162  -3.308  -0.216  1.00  0.00     0.274 HD
ENDBRANCH   2  25
TORSDOF 8
