REMARK  4 active torsions:
REMARK  status: ('A' for Active; 'I' for Inactive)
REMARK       I    between atoms: C1_2  and  N2_4 
REMARK       I    between atoms: N2_4  and  C2_6 
REMARK    1  A    between atoms: C2_6  and  C3_8 
REMARK    2  A    between atoms: C6_11  and  N3_12 
REMARK       I    between atoms: N3_12  and  C7_14 
REMARK       I    between atoms: C7_14  and  N4_16 
REMARK    3  A    between atoms: N4_16  and  N5_18 
REMARK    4  A    between atoms: N5_18  and  C8_19 
ROOT
HETATM    1  C3  UNL     1       1.714  -0.705  -0.118  1.00  0.00     0.080 C 
HETATM    2  C4  UNL     1       1.001  -0.739  -1.456  1.00  0.00     0.016 C 
HETATM    3  C5  UNL     1      -0.430  -0.757  -1.122  1.00  0.00     0.026 C 
HETATM    4  C6  UNL     1      -0.590  -0.338   0.318  1.00  0.00     0.087 C 
HETATM    5  C9  UNL     1       0.757   0.161   0.721  1.00  0.00     0.039 C 
ENDROOT
BRANCH   4   6
HETATM    6  N3  UNL     1      -1.630   0.636   0.465  1.00  0.00    -0.336 N 
HETATM    7  C7  UNL     1      -2.970   0.139   0.257  1.00  0.00     0.345 C 
HETATM    8  O3  UNL     1      -3.196  -1.035  -0.045  1.00  0.00    -0.245 OA
HETATM    9  N4  UNL     1      -4.101   1.031   0.404  1.00  0.00    -0.182 N 
ATOM     10  H4  UNL     1      -3.895   1.989   0.688  1.00  0.00     0.207 HD
ATOM     11  H3  UNL     1      -1.438   1.610   0.700  1.00  0.00     0.164 HD
BRANCH   9  12
HETATM   12  N5  UNL     1      -5.381   0.729   0.206  1.00  0.00    -0.293 NA
BRANCH  12  13
HETATM   13  C8  UNL     1      -6.682   0.401   0.017  1.00  0.00     0.466 C 
HETATM   14  O4  UNL     1      -7.379  -0.575   0.406  1.00  0.00    -0.266 OA
ENDBRANCH  12  13
ENDBRANCH   9  12
ENDBRANCH   4   6
BRANCH   1  15
HETATM   15  C2  UNL     1       3.076  -0.195  -0.199  1.00  0.00     0.229 C 
HETATM   16  N2  UNL     1       3.947  -0.277   0.913  1.00  0.00    -0.281 N 
HETATM   17  C1  UNL     1       5.276   0.177   0.848  1.00  0.00     0.335 C 
ATOM     18  H2  UNL     1       3.601  -0.676   1.786  1.00  0.00     0.173 HD
HETATM   19  N1  UNL     1       5.799   0.768  -0.298  1.00  0.00    -0.040 NA
HETATM   20  O1  UNL     1       6.021   0.040   1.863  1.00  0.00    -0.251 OA
HETATM   21  O2  UNL     1       3.452   0.311  -1.305  1.00  0.00    -0.273 OA
ENDBRANCH   1  15
TORSDOF 4
