REMARK  6 active torsions:
REMARK  status: ('A' for Active; 'I' for Inactive)
REMARK    1  A    between atoms: C2_2  and  C4_4 
REMARK       I    between atoms: C4_4  and  N1_6 
REMARK    2  A    between atoms: N1_6  and  C5_8 
REMARK    3  A    between atoms: C7_10  and  C8_11 
REMARK    4  A    between atoms: C8_11  and  N2_12 
REMARK    5  A    between atoms: C8_11  and  C9_16 
REMARK       I    between atoms: C9_16  and  N3_18 
REMARK    6  A    between atoms: N3_18  and  N4_20 
REMARK       I    between atoms: N4_20  and  C10_22 
ROOT
HETATM    1  C8  UNL     1       1.020   0.633   0.416  1.00  0.00     0.282 C 
ENDROOT
BRANCH   1   2
HETATM    2  C7  UNL     1       0.004   0.355  -0.646  1.00  0.00     0.050 A 
HETATM    3  C5  UNL     1      -1.361   0.975  -0.406  1.00  0.00     0.091 A 
HETATM    4  C6  UNL     1      -0.513   1.391  -1.542  1.00  0.00     0.034 A 
BRANCH   3   5
HETATM    5  N1  UNL     1      -2.459   0.066  -0.572  1.00  0.00    -0.352 N 
HETATM    6  C4  UNL     1      -3.680   0.156   0.161  1.00  0.00     0.246 C 
HETATM    7  O1  UNL     1      -3.778   1.094   0.992  1.00  0.00    -0.268 OA
ATOM      8  H1  UNL     1      -2.361  -0.687  -1.253  1.00  0.00     0.163 HD
BRANCH   6   9
HETATM    9  C2  UNL     1      -4.779  -0.759  -0.008  1.00  0.00    -0.004 C 
HETATM   10  C1  UNL     1      -5.875  -0.616   0.699  1.00  0.00     0.024 C 
HETATM   11  C3  UNL     1      -4.666  -1.864  -0.977  1.00  0.00     0.053 C 
ENDBRANCH   6   9
ENDBRANCH   3   5
ENDBRANCH   1   2
BRANCH   1  12
HETATM   12  N2  UNL     1       1.224   2.052   0.519  1.00  0.00    -0.066 N 
ATOM     13  H23 UNL     1       1.475   2.472  -0.376  1.00  0.00     0.275 HD
ATOM     14  H22 UNL     1       0.352   2.557   0.677  1.00  0.00     0.275 HD
ATOM     15  H21 UNL     1       1.917   2.242   1.243  1.00  0.00     0.275 HD
ENDBRANCH   1  12
BRANCH   1  16
HETATM   16  C9  UNL     1       2.256  -0.133   0.263  1.00  0.00     0.267 C 
HETATM   17  O2  UNL     1       2.198  -1.381   0.152  1.00  0.00    -0.269 OA
HETATM   18  N3  UNL     1       3.518   0.498   0.237  1.00  0.00    -0.265 N 
ATOM     19  H3  UNL     1       3.592   1.511   0.328  1.00  0.00     0.190 HD
BRANCH  18  20
HETATM   20  N4  UNL     1       4.665  -0.286   0.085  1.00  0.00    -0.251 N 
HETATM   21  C10 UNL     1       5.642  -0.372   1.101  1.00  0.00     0.347 C 
HETATM   22  N5  UNL     1       6.788  -1.202   0.860  1.00  0.00    -0.038 NA
HETATM   23  O3  UNL     1       5.566   0.230   2.193  1.00  0.00    -0.249 OA
ATOM     24  H4  UNL     1       4.800  -0.809  -0.781  1.00  0.00     0.191 HD
ENDBRANCH  18  20
ENDBRANCH   1  16
TORSDOF 6
