REMARK  5 active torsions:
REMARK  status: ('A' for Active; 'I' for Inactive)
REMARK       I    between atoms: C1_4  and  N3_6 
REMARK    1  A    between atoms: N3_6  and  C2_8 
REMARK    2  A    between atoms: C4_10  and  O1_11 
REMARK    3  A    between atoms: O1_11  and  C5_12 
REMARK    4  A    between atoms: C5_12  and  C6_13 
REMARK    5  A    between atoms: C8_17  and  C9_18 
ROOT
HETATM    1  C2  UNL     1       1.309  -0.329  -0.029  1.00  0.00     0.099 C 
HETATM    2  C3  UNL     1      -0.013  -0.246   0.716  1.00  0.00     0.058 C 
HETATM    3  C4  UNL     1      -1.102  -0.117  -0.315  1.00  0.00     0.124 C 
HETATM    4  C7  UNL     1      -0.322  -0.207  -1.653  1.00  0.00     0.047 C 
HETATM    5  C8  UNL     1       0.933   0.534  -1.244  1.00  0.00     0.100 C 
ENDROOT
BRANCH   1   6
HETATM    6  N3  UNL     1       2.381   0.252   0.715  1.00  0.00    -0.359 N 
HETATM    7  C1  UNL     1       2.737  -0.245   1.996  1.00  0.00     0.182 C 
HETATM    8  N1  UNL     1       2.859  -1.530   2.202  1.00  0.00    -0.374 N 
HETATM    9  N2  UNL     1       2.974   0.621   3.093  1.00  0.00    -0.064 NA
ATOM     10  H12 UNL     1       3.115  -1.887   3.123  1.00  0.00     0.158 HD
ATOM     11  H11 UNL     1       2.688  -2.153   1.413  1.00  0.00     0.158 HD
ATOM     12  H3  UNL     1       2.899   1.037   0.319  1.00  0.00     0.162 HD
ENDBRANCH   1   6
BRANCH   5  13
HETATM   13  C9  UNL     1       1.977   0.516  -2.270  1.00  0.00     0.237 C 
HETATM   14  N5  UNL     1       2.364  -0.686  -2.875  1.00  0.00    -0.062 NA
HETATM   15  O3  UNL     1       2.513   1.607  -2.592  1.00  0.00    -0.276 OA
ENDBRANCH   5  13
BRANCH   3  16
HETATM   16  O1  UNL     1      -2.070  -1.082  -0.268  1.00  0.00    -0.377 OA
BRANCH  16  17
HETATM   17  C5  UNL     1      -3.324  -0.515  -0.324  1.00  0.00     0.267 C 
BRANCH  17  18
HETATM   18  C6  UNL     1      -3.595   0.362   0.823  1.00  0.00     0.254 C 
HETATM   19  N4  UNL     1      -4.851   1.057   0.863  1.00  0.00    -0.060 NA
HETATM   20  O2  UNL     1      -2.778   0.513   1.740  1.00  0.00    -0.275 OA
ENDBRANCH  17  18
ENDBRANCH  16  17
ENDBRANCH   3  16
TORSDOF 5
