REMARK  6 active torsions:
REMARK  status: ('A' for Active; 'I' for Inactive)
REMARK    1  A    between atoms: C2_2  and  N1_3 
REMARK    2  A    between atoms: C2_2  and  C7_14 
REMARK       I    between atoms: N1_3  and  C3_5 
REMARK    3  A    between atoms: C3_5  and  C4_7 
REMARK    4  A    between atoms: C4_7  and  N2_10 
REMARK    5  A    between atoms: C7_14  and  N3_15 
REMARK    6  A    between atoms: C7_14  and  C8_19 
REMARK       I    between atoms: C8_19  and  N4_21 
REMARK       I    between atoms: N4_21  and  C9_23 
ROOT
HETATM    1  C1  UNL     1       0.722  -1.866  -0.807  1.00  0.00     0.035 C 
HETATM    2  C2  UNL     1       0.493  -0.562  -0.112  1.00  0.00     0.120 C 
ENDROOT
BRANCH   2   3
HETATM    3  N1  UNL     1      -0.929  -0.282  -0.176  1.00  0.00    -0.352 N 
HETATM    4  C3  UNL     1      -1.703  -0.199   0.991  1.00  0.00     0.253 C 
HETATM    5  O1  UNL     1      -1.171  -0.366   2.101  1.00  0.00    -0.271 OA
ATOM      6  H1  UNL     1      -1.373  -0.143  -1.084  1.00  0.00     0.163 HD
BRANCH   4   7
HETATM    7  C4  UNL     1      -3.166   0.092   0.889  1.00  0.00     0.196 C 
HETATM    8  C5  UNL     1      -3.339   1.401   0.193  1.00  0.00     0.056 C 
HETATM    9  C6  UNL     1      -3.858  -1.035   0.127  1.00  0.00     0.056 C 
BRANCH   7  10
HETATM   10  N2  UNL     1      -3.743   0.129   2.204  1.00  0.00    -0.062 N 
ATOM     11  H23 UNL     1      -3.556  -0.725   2.730  1.00  0.00     0.275 HD
ATOM     12  H22 UNL     1      -3.262   0.787   2.817  1.00  0.00     0.275 HD
ATOM     13  H21 UNL     1      -4.741   0.328   2.134  1.00  0.00     0.275 HD
ENDBRANCH   7  10
ENDBRANCH   4   7
ENDBRANCH   2   3
BRANCH   2  14
HETATM   14  C7  UNL     1       1.219   0.597  -0.703  1.00  0.00     0.297 C 
BRANCH  14  15
HETATM   15  N3  UNL     1       0.866   0.857  -2.079  1.00  0.00    -0.064 N 
ATOM     16  H33 UNL     1       0.995   0.021  -2.649  1.00  0.00     0.275 HD
ATOM     17  H32 UNL     1      -0.142   0.975  -2.177  1.00  0.00     0.275 HD
ATOM     18  H31 UNL     1       1.363   1.650  -2.484  1.00  0.00     0.275 HD
ENDBRANCH  14  15
BRANCH  14  19
HETATM   19  C8  UNL     1       2.677   0.539  -0.602  1.00  0.00     0.258 C 
HETATM   20  O2  UNL     1       3.465   0.693  -1.561  1.00  0.00    -0.271 OA
HETATM   21  N4  UNL     1       3.239   0.289   0.688  1.00  0.00    -0.280 N 
HETATM   22  C9  UNL     1       4.631   0.211   0.907  1.00  0.00     0.335 C 
ATOM     23  H4  UNL     1       2.610   0.162   1.481  1.00  0.00     0.173 HD
HETATM   24  N5  UNL     1       5.527   0.391  -0.207  1.00  0.00    -0.040 NA
HETATM   25  O3  UNL     1       5.076  -0.010   2.055  1.00  0.00    -0.251 OA
ENDBRANCH  14  19
ENDBRANCH   2  14
TORSDOF 6
