REMARK  2 active torsions:
REMARK  status: ('A' for Active; 'I' for Inactive)
REMARK    1  A    between atoms: C2_2  and  C3_4 
REMARK    2  A    between atoms: C3_4  and  C6_7 
ROOT
HETATM    1  C6  UNL     1       0.416  -0.207  -0.236  1.00  0.00     0.012 A 
HETATM    2  C7  UNL     1       1.002  -0.417  -1.464  1.00  0.00     0.097 A 
HETATM    3  C8  UNL     1       0.342  -0.731  -2.734  1.00  0.00     0.107 C 
HETATM    4  N1  UNL     1      -0.156  -0.985  -3.737  1.00  0.00    -0.191 NA
HETATM    5  S1  UNL     1       2.666  -0.254  -1.143  1.00  0.00    -0.058 SA
HETATM    6  C9  UNL     1       2.591   0.073   0.523  1.00  0.00     0.105 A 
HETATM    7  N2  UNL     1       3.332   0.337   1.626  1.00  0.00    -0.325 N 
ATOM      8  H2  UNL     1       4.348   0.408   1.676  1.00  0.00     0.169 HD
HETATM    9  C10 UNL     1       2.468   0.487   2.639  1.00  0.00     0.177 A 
HETATM   10  S2  UNL     1       2.832   0.824   4.218  1.00  0.00    -0.040 SA
HETATM   11  N3  UNL     1       1.226   0.316   2.151  1.00  0.00    -0.330 N 
ATOM     12  H3  UNL     1       0.374   0.377   2.709  1.00  0.00     0.168 HD
HETATM   13  C11 UNL     1       1.255   0.049   0.803  1.00  0.00     0.078 A 
ENDROOT
BRANCH   1  14
HETATM   14  C3  UNL     1      -1.106  -0.254  -0.152  1.00  0.00     0.017 C 
HETATM   15  C4  UNL     1      -1.539  -1.648  -0.629  1.00  0.00     0.026 C 
HETATM   16  C5  UNL     1      -1.636  -0.097   1.232  1.00  0.00     0.026 C 
BRANCH  14  17
HETATM   17  C2  UNL     1      -1.733   0.791  -1.001  1.00  0.00    -0.008 C 
HETATM   18  C1  UNL     1      -1.028   1.840  -1.362  1.00  0.00     0.028 C 
HETATM   19 BR1  UNL     1      -3.549   0.657  -1.532  1.00  0.00    -0.055 Br
ENDBRANCH  14  17
ENDBRANCH   1  14
TORSDOF 2
