REMARK  2 active torsions:
REMARK  status: ('A' for Active; 'I' for Inactive)
REMARK    1  A    between atoms: C8_9  and  O1_10 
REMARK    2  A    between atoms: C13_16  and  C15_18 
ROOT
HETATM    1  C15 UNL     1       2.246  -1.622  -0.235  1.00  0.00     0.134 C 
HETATM    2  C16 UNL     1       2.760  -2.088   1.074  1.00  0.00     0.059 C 
HETATM    3  N2  UNL     1       3.162  -2.442   2.100  1.00  0.00    -0.197 NA
ENDROOT
BRANCH   1   4
HETATM    4  C13 UNL     1       1.758  -0.228  -0.042  1.00  0.00    -0.022 C 
HETATM    5  C6  UNL     1       1.201   0.376  -1.310  1.00  0.00    -0.002 C 
HETATM    6  C5  UNL     1       0.676   1.742  -1.134  1.00  0.00     0.010 C 
HETATM    7  C7  UNL     1       0.211  -0.592  -1.879  1.00  0.00     0.045 C 
HETATM    8  C4  UNL     1      -0.097   2.008   0.109  1.00  0.00    -0.012 C 
HETATM    9  C3  UNL     1      -1.593   1.995  -0.086  1.00  0.00     0.040 C 
HETATM   10  C12 UNL     1       0.342   1.204   1.306  1.00  0.00     0.012 C 
HETATM   11  C2  UNL     1      -2.231   0.666   0.067  1.00  0.00     0.226 C 
HETATM   12  N1  UNL     1      -1.722  -0.187   1.059  1.00  0.00     0.097 N 
HETATM   13  C9  UNL     1      -2.077  -0.097  -1.228  1.00  0.00     0.076 C 
HETATM   14  C1  UNL     1      -2.639  -0.998   1.762  1.00  0.00     0.311 C 
HETATM   15  C10 UNL     1      -0.600  -0.942   0.481  1.00  0.00     0.262 C 
HETATM   16  C8  UNL     1      -0.871  -1.004  -0.959  1.00  0.00     0.091 C 
HETATM   17  C11 UNL     1       0.622  -0.256   0.938  1.00  0.00     0.032 C 
HETATM   18  C14 UNL     1       2.886   0.594   0.531  1.00  0.00     0.017 C 
BRANCH  16  19
HETATM   19  O1  UNL     1      -1.298  -2.291  -1.371  1.00  0.00    -0.388 OA
ATOM     20  H1  UNL     1      -1.993  -2.556  -0.780  1.00  0.00     0.210 HD
ENDBRANCH  16  19
ENDBRANCH   1   4
TORSDOF 2
