REMARK  12 active torsions:
REMARK  status: ('A' for Active; 'I' for Inactive)
REMARK    1  A    between atoms: O1_2  and  C2_3 
REMARK    2  A    between atoms: C4_5  and  C5_6 
REMARK       I    between atoms: C5_6  and  N1_8 
REMARK    3  A    between atoms: N1_8  and  C6_10 
REMARK    4  A    between atoms: C11_15  and  O3_16 
REMARK    5  A    between atoms: O3_16  and  C12_17 
REMARK    6  A    between atoms: C13_19  and  C14_20 
REMARK    7  A    between atoms: C14_20  and  O5_21 
REMARK    8  A    between atoms: C15_23  and  O6_24 
REMARK    9  A    between atoms: C17_27  and  N2_28 
REMARK   10  A    between atoms: C18_33  and  C19_34 
REMARK   11  A    between atoms: C19_34  and  O8_35 
REMARK   12  A    between atoms: C20_37  and  O9_38 
ROOT
HETATM    1  C6  UNL     1      -0.563  -2.655  -0.032  1.00  0.00     0.113 C 
HETATM    2  C7  UNL     1      -1.101  -3.765  -0.952  1.00  0.00     0.028 C 
HETATM    3  C8  UNL     1      -1.765  -4.848  -0.143  1.00  0.00     0.002 C 
HETATM    4  C9  UNL     1      -2.716  -4.341   0.888  1.00  0.00     0.003 C 
HETATM    5  C10 UNL     1      -2.086  -3.216   1.698  1.00  0.00     0.034 C 
HETATM    6  C11 UNL     1      -1.774  -2.120   0.678  1.00  0.00     0.147 C 
ENDROOT
BRANCH   1   7
HETATM    7  N1  UNL     1       0.182  -1.740  -0.808  1.00  0.00    -0.352 N 
HETATM    8  C5  UNL     1       1.576  -1.600  -0.616  1.00  0.00     0.247 C 
HETATM    9  O2  UNL     1       2.156  -2.313   0.274  1.00  0.00    -0.271 OA
ATOM     10  H1  UNL     1      -0.290  -1.175  -1.514  1.00  0.00     0.163 HD
BRANCH   8  11
HETATM   11  C4  UNL     1       2.446  -0.682  -1.371  1.00  0.00     0.216 C 
HETATM   12  C3  UNL     1       1.935   0.742  -1.393  1.00  0.00     0.076 C 
HETATM   13  C2  UNL     1       3.137   1.613  -1.744  1.00  0.00     0.155 C 
HETATM   14  C20 UNL     1       4.010   1.597  -0.483  1.00  0.00     0.178 C 
HETATM   15  C18 UNL     1       4.144   0.151  -0.027  1.00  0.00     0.177 C 
HETATM   16  O7  UNL     1       3.771  -0.758  -0.988  1.00  0.00    -0.366 OA
BRANCH  13  17
HETATM   17  O1  UNL     1       2.795   2.925  -1.970  1.00  0.00    -0.388 OA
HETATM   18  C1  UNL     1       3.323   3.355  -3.197  1.00  0.00     0.202 C 
ENDBRANCH  13  17
BRANCH  14  19
HETATM   19  O9  UNL     1       3.367   2.359   0.517  1.00  0.00    -0.390 OA
ATOM     20  H9  UNL     1       3.908   2.349   1.298  1.00  0.00     0.210 HD
ENDBRANCH  14  19
BRANCH  15  21
HETATM   21  C19 UNL     1       5.647  -0.062   0.207  1.00  0.00     0.198 C 
BRANCH  21  22
HETATM   22  O8  UNL     1       6.088   0.822   1.166  1.00  0.00    -0.398 OA
ATOM     23  H8  UNL     1       7.018   0.690   1.311  1.00  0.00     0.209 HD
ENDBRANCH  21  22
ENDBRANCH  15  21
ENDBRANCH   8  11
ENDBRANCH   1   7
BRANCH   6  24
HETATM   24  O3  UNL     1      -1.527  -0.921   1.230  1.00  0.00    -0.352 OA
BRANCH  24  25
HETATM   25  C12 UNL     1      -2.352   0.140   0.844  1.00  0.00     0.291 C 
HETATM   26  O4  UNL     1      -3.122   0.365   1.973  1.00  0.00    -0.349 OA
HETATM   27  C13 UNL     1      -3.746   1.559   2.083  1.00  0.00     0.177 C 
HETATM   28  C15 UNL     1      -2.702   2.657   2.096  1.00  0.00     0.151 C 
HETATM   29  C16 UNL     1      -2.051   2.660   0.762  1.00  0.00     0.072 C 
HETATM   30  C17 UNL     1      -1.682   1.301   0.244  1.00  0.00     0.240 C 
BRANCH  27  31
HETATM   31  C14 UNL     1      -4.827   1.850   1.102  1.00  0.00     0.198 C 
BRANCH  31  32
HETATM   32  O5  UNL     1      -5.839   0.897   1.206  1.00  0.00    -0.398 OA
ATOM     33  H5  UNL     1      -6.529   1.083   0.580  1.00  0.00     0.209 HD
ENDBRANCH  31  32
ENDBRANCH  27  31
BRANCH  28  34
HETATM   34  O6  UNL     1      -1.816   2.529   3.136  1.00  0.00    -0.393 OA
ATOM     35  H6  UNL     1      -1.161   3.217   3.144  1.00  0.00     0.210 HD
ENDBRANCH  28  34
BRANCH  30  36
HETATM   36  N2  UNL     1      -1.830   1.405  -1.210  1.00  0.00    -0.070 N 
ATOM     37  H23 UNL     1      -1.520   0.544  -1.661  1.00  0.00     0.274 HD
ATOM     38  H22 UNL     1      -2.817   1.392  -1.468  1.00  0.00     0.274 HD
ATOM     39  H21 UNL     1      -1.365   2.211  -1.627  1.00  0.00     0.274 HD
ENDBRANCH  30  36
ENDBRANCH  24  25
ENDBRANCH   6  24
TORSDOF 12
