REMARK  10 active torsions:
REMARK  status: ('A' for Active; 'I' for Inactive)
REMARK    1  A    between atoms: C2_2  and  C3_3 
REMARK    2  A    between atoms: C5_8  and  N2_9 
REMARK    3  A    between atoms: C7_14  and  O1_15 
REMARK    4  A    between atoms: O1_15  and  C8_16 
REMARK    5  A    between atoms: C9_17  and  N3_18 
REMARK    6  A    between atoms: C11_23  and  O2_24 
REMARK    7  A    between atoms: O2_24  and  C12_25 
REMARK    8  A    between atoms: C16_29  and  C17_30 
REMARK    9  A    between atoms: C17_30  and  N4_31 
REMARK   10  A    between atoms: C19_38  and  N5_39 
ROOT
HETATM    1  C8  UNL     1      -0.805  -0.754   0.306  1.00  0.00     0.182 C 
HETATM    2  C9  UNL     1       0.141  -0.448   1.449  1.00  0.00     0.217 C 
HETATM    3  C10 UNL     1       1.545  -0.938   1.205  1.00  0.00     0.075 C 
HETATM    4  C11 UNL     1       2.143  -0.046   0.124  1.00  0.00     0.198 C 
HETATM    5  C18 UNL     1       1.111   0.174  -0.911  1.00  0.00     0.180 C 
HETATM    6  O4  UNL     1       1.227   1.114  -1.669  1.00  0.00    -0.293 OA
HETATM    7  C19 UNL     1      -0.058  -0.733  -1.035  1.00  0.00     0.187 C 
ENDROOT
BRANCH   1   8
HETATM    8  O1  UNL     1      -1.795   0.200   0.347  1.00  0.00    -0.376 OA
BRANCH   8   9
HETATM    9  C7  UNL     1      -3.066  -0.273   0.544  1.00  0.00     0.125 C 
HETATM   10  C6  UNL     1      -3.768   0.243   1.746  1.00  0.00     0.064 C 
HETATM   11  C5  UNL     1      -4.416   1.593   1.535  1.00  0.00     0.187 C 
HETATM   12  C4  UNL     1      -5.538   1.416   0.560  1.00  0.00     0.047 C 
HETATM   13  C2  UNL     1      -5.280   0.371  -0.481  1.00  0.00    -0.008 C 
HETATM   14  C1  UNL     1      -6.129  -0.869  -0.206  1.00  0.00     0.021 C 
HETATM   15  C21 UNL     1      -3.852   0.051  -0.704  1.00  0.00     0.046 C 
BRANCH  11  16
HETATM   16  N2  UNL     1      -4.987   1.989   2.818  1.00  0.00    -0.075 N 
ATOM     17  H23 UNL     1      -5.580   2.816   2.746  1.00  0.00     0.274 HD
ATOM     18  H22 UNL     1      -5.698   1.338   3.150  1.00  0.00     0.274 HD
ATOM     19  H21 UNL     1      -4.222   2.110   3.482  1.00  0.00     0.274 HD
ENDBRANCH  11  16
BRANCH  13  20
HETATM   20  C3  UNL     1      -5.807   0.946  -1.777  1.00  0.00     0.062 C 
HETATM   21  N1  UNL     1      -5.325   2.098  -2.103  1.00  0.00    -0.410 N 
ATOM     22  H12 UNL     1      -4.638   2.574  -1.518  1.00  0.00     0.155 HD
ATOM     23  H11 UNL     1      -5.680   2.486  -2.977  1.00  0.00     0.155 HD
ENDBRANCH  13  20
ENDBRANCH   8   9
ENDBRANCH   1   8
BRANCH   2  24
HETATM   24  N3  UNL     1      -0.438  -1.026   2.649  1.00  0.00    -0.072 N 
ATOM     25  H33 UNL     1      -1.392  -0.711   2.824  1.00  0.00     0.274 HD
ATOM     26  H32 UNL     1      -0.643  -2.021   2.555  1.00  0.00     0.274 HD
ATOM     27  H31 UNL     1       0.199  -0.820   3.419  1.00  0.00     0.274 HD
ENDBRANCH   2  24
BRANCH   7  28
HETATM   28  N5  UNL     1       0.457  -2.049  -1.349  1.00  0.00    -0.353 N 
HETATM   29  C20 UNL     1      -0.237  -3.037  -1.714  1.00  0.00     0.197 C 
HETATM   30  N6  UNL     1       0.375  -4.278  -1.994  1.00  0.00    -0.067 NA
HETATM   31  N7  UNL     1      -1.636  -2.923  -1.848  1.00  0.00    -0.067 NA
ATOM     32  H5  UNL     1       1.464  -2.189  -1.268  1.00  0.00     0.162 HD
ENDBRANCH   7  28
BRANCH   4  33
HETATM   33  O2  UNL     1       3.250  -0.611  -0.461  1.00  0.00    -0.348 OA
BRANCH  33  34
HETATM   34  C12 UNL     1       4.401   0.170  -0.370  1.00  0.00     0.261 C 
HETATM   35  C13 UNL     1       5.383  -0.555   0.490  1.00  0.00     0.061 C 
HETATM   36  C14 UNL     1       6.780  -0.029   0.447  1.00  0.00     0.007 C 
HETATM   37  C15 UNL     1       7.180   0.352  -0.945  1.00  0.00     0.034 C 
HETATM   38  C16 UNL     1       6.083   1.195  -1.601  1.00  0.00     0.150 C 
HETATM   39  O3  UNL     1       4.864   0.575  -1.594  1.00  0.00    -0.354 OA
BRANCH  38  40
HETATM   40  C17 UNL     1       5.996   2.467  -0.786  1.00  0.00     0.261 C 
BRANCH  40  41
HETATM   41  N4  UNL     1       5.014   3.384  -1.313  1.00  0.00    -0.077 N 
ATOM     42  H43 UNL     1       5.189   3.587  -2.297  1.00  0.00     0.274 HD
ATOM     43  H42 UNL     1       4.101   2.938  -1.400  1.00  0.00     0.274 HD
ATOM     44  H41 UNL     1       4.955   4.241  -0.764  1.00  0.00     0.274 HD
ENDBRANCH  40  41
ENDBRANCH  38  40
ENDBRANCH  33  34
ENDBRANCH   4  33
TORSDOF 10
