REMARK  10 active torsions:
REMARK  status: ('A' for Active; 'I' for Inactive)
REMARK       I    between atoms: C2_2  and  N1_4 
REMARK    1  A    between atoms: N1_4  and  C3_6 
REMARK    2  A    between atoms: C6_10  and  O3_11 
REMARK    3  A    between atoms: O3_11  and  C7_12 
REMARK    4  A    between atoms: C8_14  and  C9_15 
REMARK    5  A    between atoms: C11_18  and  O5_19 
REMARK    6  A    between atoms: C12_21  and  N2_22 
REMARK       I    between atoms: N2_22  and  C13_24 
REMARK    7  A    between atoms: C15_28  and  N3_29 
REMARK    8  A    between atoms: N3_29  and  C16_31 
REMARK    9  A    between atoms: C16_31  and  N4_33 
REMARK   10  A    between atoms: N4_33  and  O8_35 
ROOT
HETATM    1  C3  UNL     1       2.739   0.204   0.044  1.00  0.00     0.162 C 
HETATM    2  C4  UNL     1       1.583   1.132   0.411  1.00  0.00     0.150 C 
HETATM    3  C5  UNL     1       2.078   2.550   0.294  1.00  0.00     0.042 C 
HETATM    4  O2  UNL     1       0.524   0.964  -0.467  1.00  0.00    -0.332 OA
HETATM    5  C6  UNL     1       0.063  -0.303  -0.630  1.00  0.00     0.417 C 
HETATM    6  O7  UNL     1       1.004  -1.280  -0.419  1.00  0.00    -0.312 OA
HETATM    7  C15 UNL     1       2.235  -0.891  -0.874  1.00  0.00     0.253 C 
ENDROOT
BRANCH   5   8
HETATM    8  O3  UNL     1      -0.977  -0.541   0.283  1.00  0.00    -0.306 OA
BRANCH   8   9
HETATM    9  C7  UNL     1      -2.199  -0.783  -0.320  1.00  0.00     0.290 C 
HETATM   10  O4  UNL     1      -2.646  -2.072  -0.143  1.00  0.00    -0.353 OA
HETATM   11  C8  UNL     1      -3.411  -2.355   0.927  1.00  0.00     0.137 C 
HETATM   12  C10 UNL     1      -4.454  -1.364   1.309  1.00  0.00     0.067 C 
HETATM   13  C11 UNL     1      -3.885   0.036   1.340  1.00  0.00     0.148 C 
HETATM   14  C12 UNL     1      -3.255   0.250  -0.017  1.00  0.00     0.168 C 
BRANCH  11  15
HETATM   15  C9  UNL     1      -2.614  -2.747   2.172  1.00  0.00     0.118 C 
HETATM   16  S1  UNL     1      -1.613  -4.240   1.814  1.00  0.00    -0.095 SA
ENDBRANCH  11  15
BRANCH  13  17
HETATM   17  O5  UNL     1      -3.038   0.228   2.390  1.00  0.00    -0.393 OA
ATOM     18  H5  UNL     1      -2.680   1.108   2.409  1.00  0.00     0.210 HD
ENDBRANCH  13  17
BRANCH  14  19
HETATM   19  N2  UNL     1      -2.812   1.573  -0.238  1.00  0.00    -0.349 N 
HETATM   20  C13 UNL     1      -3.381   2.384  -1.247  1.00  0.00     0.214 C 
HETATM   21  C14 UNL     1      -2.942   3.777  -1.509  1.00  0.00     0.117 C 
HETATM   22  O6  UNL     1      -4.322   1.946  -1.997  1.00  0.00    -0.274 OA
ATOM     23  H2  UNL     1      -2.065   1.952   0.344  1.00  0.00     0.163 HD
ENDBRANCH  14  19
ENDBRANCH   8   9
ENDBRANCH   5   8
BRANCH   7  24
HETATM   24  N3  UNL     1       2.246  -0.552  -2.254  1.00  0.00    -0.337 N 
ATOM     25  H3  UNL     1       1.344  -0.446  -2.717  1.00  0.00     0.164 HD
BRANCH  24  26
HETATM   26  C16 UNL     1       3.405  -0.350  -3.037  1.00  0.00     0.193 C 
HETATM   27  S2  UNL     1       4.872  -0.539  -2.354  1.00  0.00    -0.039 SA
BRANCH  26  28
HETATM   28  N4  UNL     1       3.337  -0.001  -4.418  1.00  0.00    -0.244 N 
ATOM     29  H4  UNL     1       2.433   0.112  -4.876  1.00  0.00     0.196 HD
BRANCH  28  30
HETATM   30  O8  UNL     1       4.473   0.178  -5.109  1.00  0.00    -0.288 OA
ATOM     31  H8  UNL     1       4.428   0.410  -6.029  1.00  0.00     0.244 HD
ENDBRANCH  28  30
ENDBRANCH  26  28
ENDBRANCH  24  26
ENDBRANCH   7  24
BRANCH   1  32
HETATM   32  N1  UNL     1       3.250  -0.330   1.285  1.00  0.00    -0.350 N 
HETATM   33  C2  UNL     1       4.558  -0.057   1.769  1.00  0.00     0.214 C 
HETATM   34  C1  UNL     1       5.065  -0.619   3.049  1.00  0.00     0.117 C 
HETATM   35  O1  UNL     1       5.299   0.678   1.094  1.00  0.00    -0.274 OA
ATOM     36  H1  UNL     1       2.643  -0.932   1.841  1.00  0.00     0.163 HD
ENDBRANCH   1  32
TORSDOF 10
