REMARK  15 active torsions:
REMARK  status: ('A' for Active; 'I' for Inactive)
REMARK    1  A    between atoms: C6_6  and  O1_7 
REMARK    2  A    between atoms: O1_7  and  C7_8 
REMARK    3  A    between atoms: C8_10  and  C9_11 
REMARK    4  A    between atoms: C9_11  and  O3_12 
REMARK    5  A    between atoms: C10_14  and  O4_15 
REMARK    6  A    between atoms: C11_17  and  O5_18 
REMARK    7  A    between atoms: C12_20  and  O6_21 
REMARK    8  A    between atoms: C13_23  and  O7_24 
REMARK    9  A    between atoms: C14_26  and  O8_27 
REMARK   10  A    between atoms: C15_29  and  S1_30 
REMARK   11  A    between atoms: S1_30  and  C16_32 
REMARK   12  A    between atoms: C16_32  and  C17_33 
REMARK   13  A    between atoms: C17_33  and  N1_34 
REMARK   14  A    between atoms: N1_34  and  N2_36 
REMARK   15  A    between atoms: N2_36  and  N3_37 
ROOT
HETATM    1  C1  UNL     1      -4.332  -0.279   2.412  1.00  0.00     0.011 C 
HETATM    2  C2  UNL     1      -2.873  -0.485   1.985  1.00  0.00     0.000 C 
HETATM    3  C3  UNL     1      -2.027   0.302   2.945  1.00  0.00     0.005 C 
HETATM    4  C4  UNL     1      -0.772  -0.484   3.237  1.00  0.00     0.003 C 
HETATM    5  C5  UNL     1       0.419   0.164   2.565  1.00  0.00     0.035 C 
HETATM    6  C6  UNL     1       0.760  -0.632   1.339  1.00  0.00     0.156 C 
HETATM    7  C13 UNL     1      -0.441  -0.894   0.456  1.00  0.00     0.177 C 
HETATM    8  C14 UNL     1      -1.286   0.306   0.222  1.00  0.00     0.165 C 
HETATM    9  C15 UNL     1      -2.736   0.142   0.613  1.00  0.00     0.114 C 
ENDROOT
BRANCH   6  10
HETATM   10  O1  UNL     1       1.748  -0.081   0.564  1.00  0.00    -0.351 OA
BRANCH  10  11
HETATM   11  C7  UNL     1       2.873  -0.866   0.400  1.00  0.00     0.292 C 
HETATM   12  O2  UNL     1       2.986  -1.247  -0.899  1.00  0.00    -0.348 OA
HETATM   13  C8  UNL     1       3.833  -0.559  -1.710  1.00  0.00     0.179 C 
HETATM   14  C10 UNL     1       5.125  -0.111  -1.120  1.00  0.00     0.180 C 
HETATM   15  C11 UNL     1       4.890   0.597   0.177  1.00  0.00     0.183 C 
HETATM   16  C12 UNL     1       4.095  -0.335   1.063  1.00  0.00     0.204 C 
BRANCH  13  17
HETATM   17  C9  UNL     1       3.094   0.687  -2.215  1.00  0.00     0.198 C 
BRANCH  17  18
HETATM   18  O3  UNL     1       1.955   0.347  -2.938  1.00  0.00    -0.398 OA
ATOM     19  H3  UNL     1       1.497   1.119  -3.251  1.00  0.00     0.209 HD
ENDBRANCH  17  18
ENDBRANCH  13  17
BRANCH  14  20
HETATM   20  O4  UNL     1       6.058  -1.139  -1.010  1.00  0.00    -0.390 OA
ATOM     21  H4  UNL     1       6.882  -0.853  -0.634  1.00  0.00     0.210 HD
ENDBRANCH  14  20
BRANCH  15  22
HETATM   22  O5  UNL     1       6.078   0.993   0.795  1.00  0.00    -0.390 OA
ATOM     23  H5  UNL     1       5.929   1.443   1.619  1.00  0.00     0.210 HD
ENDBRANCH  15  22
BRANCH  16  24
HETATM   24  O6  UNL     1       4.973  -1.392   1.397  1.00  0.00    -0.388 OA
ATOM     25  H6  UNL     1       5.753  -1.053   1.820  1.00  0.00     0.210 HD
ENDBRANCH  16  24
ENDBRANCH  10  11
ENDBRANCH   6  10
BRANCH   7  26
HETATM   26  O7  UNL     1       0.057  -1.413  -0.753  1.00  0.00    -0.390 OA
ATOM     27  H7  UNL     1      -0.697  -1.577  -1.307  1.00  0.00     0.210 HD
ENDBRANCH   7  26
BRANCH   8  28
HETATM   28  O8  UNL     1      -1.264   0.623  -1.134  1.00  0.00    -0.392 OA
ATOM     29  H8  UNL     1      -1.804   1.390  -1.284  1.00  0.00     0.210 HD
ENDBRANCH   8  28
BRANCH   9  30
HETATM   30  S1  UNL     1      -3.599  -0.720  -0.625  1.00  0.00     0.024 S 
HETATM   31  O9  UNL     1      -3.157  -2.280  -0.874  1.00  0.00    -0.258 OA
BRANCH  30  32
HETATM   32  C16 UNL     1      -4.075   0.203  -2.017  1.00  0.00     0.131 C 
BRANCH  32  33
HETATM   33  C17 UNL     1      -4.990   1.363  -1.681  1.00  0.00     0.168 C 
BRANCH  33  34
HETATM   34  N1  UNL     1      -5.319   2.057  -2.911  1.00  0.00    -0.252 N 
ATOM     35  H1  UNL     1      -4.572   2.293  -3.564  1.00  0.00     0.197 HD
BRANCH  34  36
HETATM   36  N2  UNL     1      -6.490   2.371  -3.188  1.00  0.00    -0.249 NA
BRANCH  36  37
HETATM   37  N3  UNL     1      -7.691   2.333  -3.440  1.00  0.00    -0.261 N 
ATOM     38  H32 UNL     1      -7.754   1.318  -3.363  1.00  0.00     0.193 HD
ATOM     39  H31 UNL     1      -8.651   2.591  -3.667  1.00  0.00     0.193 HD
ENDBRANCH  36  37
ENDBRANCH  34  36
ENDBRANCH  33  34
ENDBRANCH  32  33
ENDBRANCH  30  32
ENDBRANCH   9  30
TORSDOF 15
