REMARK  11 active torsions:
REMARK  status: ('A' for Active; 'I' for Inactive)
REMARK    1  A    between atoms: C2_2  and  N1_3 
REMARK    2  A    between atoms: N1_3  and  C3_6 
REMARK    3  A    between atoms: C3_6  and  C4_7 
REMARK       I    between atoms: C4_7  and  N2_9 
REMARK    4  A    between atoms: N2_9  and  C5_11 
REMARK    5  A    between atoms: C6_12  and  N3_13 
REMARK    6  A    between atoms: C13_24  and  O3_25 
REMARK    7  A    between atoms: O3_25  and  C14_26 
REMARK    8  A    between atoms: C15_28  and  C16_29 
REMARK    9  A    between atoms: C16_29  and  O5_30 
REMARK   10  A    between atoms: C17_32  and  O6_33 
REMARK   11  A    between atoms: C20_37  and  O7_38 
ROOT
HETATM    1  C5  UNL     1       2.292  -1.161   1.374  1.00  0.00     0.146 C 
HETATM    2  C6  UNL     1       2.885  -1.750   2.609  1.00  0.00     0.208 C 
HETATM    3  C7  UNL     1       1.882  -2.631   3.356  1.00  0.00     0.037 C 
HETATM    4  C8  UNL     1       1.158  -3.424   2.297  1.00  0.00     0.037 C 
HETATM    5  C9  UNL     1       0.185  -2.487   1.606  1.00  0.00     0.154 C 
HETATM    6  O2  UNL     1      -0.180  -3.089   0.432  1.00  0.00    -0.368 OA
HETATM    7  C10 UNL     1      -0.900  -2.313  -0.443  1.00  0.00     0.104 C 
HETATM    8  C11 UNL     1      -0.762  -2.974  -1.811  1.00  0.00     0.051 C 
HETATM    9  C12 UNL     1      -2.362  -2.502  -0.036  1.00  0.00     0.051 C 
HETATM   10  C13 UNL     1      -0.573  -0.886  -0.479  1.00  0.00     0.297 C 
HETATM   11  O8  UNL     1       0.289  -0.369   0.446  1.00  0.00    -0.348 OA
HETATM   12  C21 UNL     1       0.755  -1.113   1.455  1.00  0.00     0.178 C 
ENDROOT
BRANCH  10  13
HETATM   13  O3  UNL     1      -1.733  -0.129  -0.422  1.00  0.00    -0.326 OA
BRANCH  13  14
HETATM   14  C14 UNL     1      -1.950   0.734  -1.456  1.00  0.00     0.292 C 
HETATM   15  O4  UNL     1      -1.946   2.069  -1.024  1.00  0.00    -0.349 OA
HETATM   16  C15 UNL     1      -3.045   2.452  -0.304  1.00  0.00     0.177 C 
HETATM   17  C17 UNL     1      -4.368   2.179  -0.974  1.00  0.00     0.155 C 
HETATM   18  C18 UNL     1      -4.401   0.690  -1.312  1.00  0.00     0.046 C 
HETATM   19  C19 UNL     1      -5.676   0.270  -1.983  1.00  0.00     0.015 C 
HETATM   20  C20 UNL     1      -3.206   0.504  -2.249  1.00  0.00     0.179 C 
BRANCH  16  21
HETATM   21  C16 UNL     1      -3.016   2.064   1.152  1.00  0.00     0.198 C 
BRANCH  21  22
HETATM   22  O5  UNL     1      -4.192   2.519   1.766  1.00  0.00    -0.398 OA
ATOM     23  H5  UNL     1      -4.174   2.274   2.684  1.00  0.00     0.209 HD
ENDBRANCH  21  22
ENDBRANCH  16  21
BRANCH  17  24
HETATM   24  O6  UNL     1      -5.438   2.590  -0.240  1.00  0.00    -0.392 OA
ATOM     25  H6  UNL     1      -6.272   2.418  -0.662  1.00  0.00     0.210 HD
ENDBRANCH  17  24
BRANCH  20  26
HETATM   26  O7  UNL     1      -3.245  -0.625  -3.000  1.00  0.00    -0.390 OA
ATOM     27  H7  UNL     1      -4.039  -0.770  -3.501  1.00  0.00     0.210 HD
ENDBRANCH  20  26
ENDBRANCH  13  14
ENDBRANCH  10  13
BRANCH   1  28
HETATM   28  N2  UNL     1       2.792   0.187   1.214  1.00  0.00    -0.350 N 
HETATM   29  C4  UNL     1       3.527   0.592   0.063  1.00  0.00     0.243 C 
HETATM   30  O1  UNL     1       3.738  -0.260  -0.835  1.00  0.00    -0.272 OA
ATOM     31  H2  UNL     1       2.612   0.870   1.950  1.00  0.00     0.163 HD
BRANCH  29  32
HETATM   32  C3  UNL     1       4.057   1.957  -0.137  1.00  0.00     0.334 C 
BRANCH  32  33
HETATM   33  N1  UNL     1       4.754   2.049  -1.406  1.00  0.00    -0.067 N 
ATOM     34  H12 UNL     1       4.147   1.750  -2.169  1.00  0.00     0.277 HD
ATOM     35  H11 UNL     1       5.477   1.333  -1.469  1.00  0.00     0.277 HD
BRANCH  33  36
HETATM   36  C2  UNL     1       5.303   3.340  -1.679  1.00  0.00     0.228 C 
HETATM   37  C1  UNL     1       6.441   3.714  -0.786  1.00  0.00     0.034 C 
ENDBRANCH  33  36
ENDBRANCH  32  33
ENDBRANCH  29  32
ENDBRANCH   1  28
BRANCH   2  38
HETATM   38  N3  UNL     1       4.056  -2.568   2.358  1.00  0.00    -0.073 N 
ATOM     39  H33 UNL     1       3.847  -3.297   1.676  1.00  0.00     0.274 HD
ATOM     40  H32 UNL     1       4.758  -2.043   1.836  1.00  0.00     0.274 HD
ATOM     41  H31 UNL     1       4.462  -2.971   3.203  1.00  0.00     0.274 HD
ENDBRANCH   2  38
TORSDOF 11
