REMARK  5 active torsions:
REMARK  status: ('A' for Active; 'I' for Inactive)
REMARK    1  A    between atoms: N1_1  and  C1_4 
REMARK    2  A    between atoms: C2_7  and  N3_8 
REMARK    3  A    between atoms: C5_11  and  C6_12 
REMARK    4  A    between atoms: C6_12  and  C7_13 
REMARK    5  A    between atoms: C7_13  and  N4_14 
ROOT
HETATM    1  N3  UNL     1       1.852  -0.186  -0.374  1.00  0.00    -0.365 N 
HETATM    2  C3  UNL     1       0.869   0.842  -0.696  1.00  0.00     0.125 C 
HETATM    3  C4  UNL     1      -0.151   1.023   0.385  1.00  0.00     0.024 C 
HETATM    4  C5  UNL     1      -0.453  -0.226   1.169  1.00  0.00    -0.010 C 
HETATM    5  C12 UNL     1      -0.024  -1.452   0.347  1.00  0.00     0.024 C 
HETATM    6  C13 UNL     1       1.513  -1.395   0.304  1.00  0.00     0.125 C 
ENDROOT
BRANCH   1   7
HETATM    7  C2  UNL     1       3.181   0.060  -0.799  1.00  0.00     0.147 A 
HETATM    8  N2  UNL     1       3.448   0.416  -2.095  1.00  0.00    -0.174 N 
HETATM    9  C1  UNL     1       4.760   0.599  -2.245  1.00  0.00     0.684 A 
ATOM     10  H2  UNL     1       2.751   0.524  -2.831  1.00  0.00     0.186 HD
HETATM   11  N6  UNL     1       5.356   0.362  -1.045  1.00  0.00    -0.155 N 
HETATM   12  C14 UNL     1       4.387   0.030  -0.150  1.00  0.00     0.100 A 
HETATM   13  C18 UNL     1       6.633   0.400  -0.644  1.00  0.00     0.115 A 
HETATM   14  C15 UNL     1       4.668  -0.268   1.158  1.00  0.00     0.034 A 
HETATM   15  C16 UNL     1       5.993  -0.226   1.569  1.00  0.00     0.004 A 
HETATM   16  C17 UNL     1       6.959   0.109   0.656  1.00  0.00     0.018 A 
BRANCH   9  17
HETATM   17  N1  UNL     1       5.367   0.942  -3.320  1.00  0.00    -0.234 N 
ATOM     18  H12 UNL     1       4.920   1.120  -4.220  1.00  0.00     0.174 HD
ATOM     19  H11 UNL     1       6.371   1.082  -3.435  1.00  0.00     0.174 HD
ENDBRANCH   9  17
ENDBRANCH   1   7
BRANCH   4  20
HETATM   20  C6  UNL     1      -1.927  -0.325   1.493  1.00  0.00     0.024 C 
BRANCH  20  21
HETATM   21  C7  UNL     1      -2.736  -0.421   0.252  1.00  0.00     0.122 C 
BRANCH  21  22
HETATM   22  N4  UNL     1      -4.160  -0.481   0.464  1.00  0.00    -0.390 N 
HETATM   23  C8  UNL     1      -4.767   0.722   0.934  1.00  0.00     0.141 C 
HETATM   24  C9  UNL     1      -5.131   1.516  -0.314  1.00  0.00     0.134 C 
HETATM   25  N5  UNL     1      -6.163   0.772  -0.967  1.00  0.00    -0.415 N 
HETATM   26  C10 UNL     1      -5.817  -0.548  -1.364  1.00  0.00     0.158 C 
ATOM     27  H5  UNL     1      -7.089   1.164  -1.137  1.00  0.00     0.153 HD
HETATM   28  C11 UNL     1      -4.881  -1.264  -0.444  1.00  0.00     0.077 C 
ENDBRANCH  21  22
ENDBRANCH  20  21
ENDBRANCH   4  20
TORSDOF 5
