REMARK  7 active torsions:
REMARK  status: ('A' for Active; 'I' for Inactive)
REMARK    1  A    between atoms: C9_10  and  O1_11 
REMARK    2  A    between atoms: N2_13  and  C10_14 
REMARK    3  A    between atoms: N3_18  and  C14_19 
REMARK    4  A    between atoms: C14_19  and  C15_20 
REMARK    5  A    between atoms: C16_21  and  C17_22 
REMARK    6  A    between atoms: C17_22  and  O2_23 
REMARK    7  A    between atoms: C18_25  and  O3_26 
ROOT
HETATM    1  C1  UNL     1      -4.892   0.372   1.637  1.00  0.00     0.272 C 
HETATM    2  N1  UNL     1      -3.460   0.273   1.332  1.00  0.00    -0.066 N 
HETATM    3  C2  UNL     1      -2.893   1.587   1.449  1.00  0.00     0.272 C 
HETATM    4  C3  UNL     1      -2.822  -0.667   2.264  1.00  0.00     0.246 C 
HETATM    5  C4  UNL     1      -2.455  -1.858   1.404  1.00  0.00     0.052 C 
HETATM    6  C5  UNL     1      -3.630  -1.799   0.417  1.00  0.00     0.049 C 
HETATM    7  C6  UNL     1      -3.351  -0.329   0.046  1.00  0.00     0.228 C 
HETATM    8  C7  UNL     1      -1.914  -0.447  -0.300  1.00  0.00     0.035 A 
HETATM    9  C8  UNL     1      -1.351  -1.400   0.528  1.00  0.00     0.011 A 
HETATM   10  C9  UNL     1      -0.014  -1.518   0.204  1.00  0.00     0.153 A 
HETATM   11  N2  UNL     1       0.271  -0.672  -0.795  1.00  0.00    -0.275 N 
HETATM   12  C18 UNL     1      -0.867  -0.025  -1.103  1.00  0.00     0.155 A 
ENDROOT
BRANCH  11  13
HETATM   13  C10 UNL     1       1.591  -0.483  -1.426  1.00  0.00     0.332 C 
HETATM   14  C11 UNL     1       1.635  -1.067  -2.795  1.00  0.00     0.059 C 
HETATM   15  C12 UNL     1       1.885   0.093  -3.719  1.00  0.00     0.034 C 
HETATM   16  C13 UNL     1       2.489   1.129  -2.784  1.00  0.00     0.275 C 
HETATM   17  N3  UNL     1       1.922   0.888  -1.497  1.00  0.00     0.115 N 
BRANCH  17  18
HETATM   18  C14 UNL     1       2.723   1.293  -0.384  1.00  0.00     0.302 C 
BRANCH  18  19
HETATM   19  C15 UNL     1       4.085   0.757  -0.337  1.00  0.00     0.001 C 
HETATM   20  C16 UNL     1       4.616   0.020   0.617  1.00  0.00    -0.004 C 
BRANCH  20  21
HETATM   21  C17 UNL     1       3.975  -0.439   1.854  1.00  0.00     0.191 C 
BRANCH  21  22
HETATM   22  O2  UNL     1       4.719   0.083   2.939  1.00  0.00    -0.397 OA
ATOM     23  H2  UNL     1       4.304  -0.214   3.740  1.00  0.00     0.209 HD
ENDBRANCH  21  22
ENDBRANCH  20  21
ENDBRANCH  18  19
ENDBRANCH  17  18
ENDBRANCH  11  13
BRANCH  10  24
HETATM   24  O1  UNL     1       0.903  -2.356   0.790  1.00  0.00    -0.345 OA
ATOM     25  H1  UNL     1       1.823  -2.437   0.567  1.00  0.00     0.219 HD
ENDBRANCH  10  24
BRANCH  12  26
HETATM   26  O3  UNL     1      -0.998   0.939  -2.088  1.00  0.00    -0.345 OA
ATOM     27  H3  UNL     1      -0.280   1.228  -2.639  1.00  0.00     0.219 HD
ENDBRANCH  12  26
TORSDOF 7
