REMARK  8 active torsions:
REMARK  status: ('A' for Active; 'I' for Inactive)
REMARK    1  A    between atoms: C9_9  and  O1_10 
REMARK    2  A    between atoms: C10_12  and  C11_13 
REMARK    3  A    between atoms: C11_13  and  O3_15 
REMARK    4  A    between atoms: O3_15  and  C12_16 
REMARK    5  A    between atoms: C12_16  and  C13_17 
REMARK    6  A    between atoms: C13_17  and  C14_18 
REMARK    7  A    between atoms: C14_18  and  O4_19 
REMARK    8  A    between atoms: C16_22  and  O5_23 
ROOT
HETATM    1  C1  UNL     1      -4.025   1.270  -1.418  1.00  0.00     0.015 C 
HETATM    2  C2  UNL     1      -3.467   0.274  -0.391  1.00  0.00    -0.043 C 
HETATM    3  C3  UNL     1      -3.977  -1.077  -0.765  1.00  0.00     0.015 C 
HETATM    4  C4  UNL     1      -4.013   0.727   0.947  1.00  0.00     0.009 C 
HETATM    5  C5  UNL     1      -3.524  -0.104   2.075  1.00  0.00     0.002 C 
HETATM    6  C6  UNL     1      -2.192  -0.736   1.855  1.00  0.00     0.010 C 
HETATM    7  C7  UNL     1      -1.319  -0.075   0.868  1.00  0.00    -0.032 C 
HETATM    8  C8  UNL     1      -0.532   1.102   1.462  1.00  0.00     0.043 C 
HETATM    9  C9  UNL     1       0.570   1.254   0.434  1.00  0.00     0.139 C 
HETATM   10  C10 UNL     1       0.730  -0.067  -0.251  1.00  0.00     0.100 C 
HETATM   11  C15 UNL     1      -0.144  -1.021   0.574  1.00  0.00     0.035 C 
HETATM   12  C16 UNL     1       0.117  -0.082  -1.639  1.00  0.00     0.139 C 
HETATM   13  C17 UNL     1      -1.374  -0.352  -1.571  1.00  0.00     0.039 C 
HETATM   14  C18 UNL     1      -1.980   0.400  -0.379  1.00  0.00     0.004 C 
ENDROOT
BRANCH  10  15
HETATM   15  C11 UNL     1       2.142  -0.543  -0.266  1.00  0.00     0.272 C 
HETATM   16  O2  UNL     1       2.515  -1.605   0.250  1.00  0.00    -0.264 OA
BRANCH  15  17
HETATM   17  O3  UNL     1       3.074   0.249  -0.889  1.00  0.00    -0.321 OA
BRANCH  17  18
HETATM   18  C12 UNL     1       4.434   0.006  -1.022  1.00  0.00     0.180 C 
BRANCH  18  19
HETATM   19  C13 UNL     1       5.194  -0.115   0.262  1.00  0.00     0.053 C 
BRANCH  19  20
HETATM   20  C14 UNL     1       6.668  -0.377  -0.029  1.00  0.00     0.166 C 
BRANCH  20  21
HETATM   21  O4  UNL     1       6.833  -1.553  -0.748  1.00  0.00    -0.401 OA
ATOM     22  H4  UNL     1       7.751  -1.716  -0.929  1.00  0.00     0.209 HD
ENDBRANCH  20  21
ENDBRANCH  19  20
ENDBRANCH  18  19
ENDBRANCH  17  18
ENDBRANCH  15  17
ENDBRANCH  10  15
BRANCH   9  23
HETATM   23  O1  UNL     1       1.763   1.615   1.095  1.00  0.00    -0.394 OA
ATOM     24  H1  UNL     1       2.454   1.710   0.450  1.00  0.00     0.210 HD
ENDBRANCH   9  23
BRANCH  12  25
HETATM   25  O5  UNL     1       0.681  -1.110  -2.394  1.00  0.00    -0.394 OA
ATOM     26  H5  UNL     1       0.297  -1.119  -3.263  1.00  0.00     0.210 HD
ENDBRANCH  12  25
TORSDOF 8
