REMARK  6 active torsions:
REMARK  status: ('A' for Active; 'I' for Inactive)
REMARK    1  A    between atoms: C9_11  and  C10_12 
REMARK    2  A    between atoms: C10_12  and  C11_13 
REMARK    3  A    between atoms: C11_13  and  C12_14 
REMARK    4  A    between atoms: C14_16  and  O3_17 
REMARK    5  A    between atoms: C17_21  and  O4_22 
REMARK    6  A    between atoms: C18_24  and  O5_25 
ROOT
HETATM    1  C1  UNL     1      -2.883   2.109   1.458  1.00  0.00     0.017 C 
HETATM    2  C2  UNL     1      -2.101   1.112   1.061  1.00  0.00    -0.050 C 
HETATM    3  C3  UNL     1      -0.982   0.846   1.999  1.00  0.00     0.069 C 
HETATM    4  C4  UNL     1      -0.448  -0.504   1.769  1.00  0.00     0.136 C 
HETATM    5  O1  UNL     1      -1.480  -1.358   1.350  1.00  0.00    -0.346 OA
HETATM    6  C5  UNL     1      -1.391  -1.708   0.031  1.00  0.00     0.198 C 
HETATM    7  C6  UNL     1      -2.544  -2.695  -0.222  1.00  0.00     0.082 C 
HETATM    8  O2  UNL     1      -0.245  -2.397  -0.316  1.00  0.00    -0.352 OA
HETATM    9  C7  UNL     1       0.761  -2.218   0.664  1.00  0.00     0.179 C 
HETATM   10  C8  UNL     1       0.721  -0.692   0.911  1.00  0.00     0.046 C 
HETATM   11  C9  UNL     1       0.864  -0.005  -0.364  1.00  0.00     0.032 C 
HETATM   12  C14 UNL     1      -0.354   0.268  -1.169  1.00  0.00     0.102 C 
HETATM   13  C15 UNL     1      -0.809   1.732  -1.135  1.00  0.00     0.045 C 
HETATM   14  C16 UNL     1      -2.341   1.632  -1.254  1.00  0.00     0.049 C 
HETATM   15  C17 UNL     1      -2.537   0.513  -0.213  1.00  0.00     0.120 C 
HETATM   16  C18 UNL     1      -1.573  -0.484  -0.808  1.00  0.00     0.179 C 
ENDROOT
BRANCH  11  17
HETATM   17  C10 UNL     1       1.765   1.239  -0.328  1.00  0.00     0.008 C 
BRANCH  17  18
HETATM   18  C11 UNL     1       3.167   0.929   0.097  1.00  0.00     0.000 C 
BRANCH  18  19
HETATM   19  C12 UNL     1       3.907  -0.034  -0.763  1.00  0.00    -0.005 C 
HETATM   20  C13 UNL     1       5.301  -0.191  -0.139  1.00  0.00     0.005 C 
ENDBRANCH  18  19
ENDBRANCH  17  18
ENDBRANCH  11  17
BRANCH  12  21
HETATM   21  O3  UNL     1      -0.077   0.051  -2.548  1.00  0.00    -0.386 OA
ATOM     22  H3  UNL     1      -0.856   0.226  -3.063  1.00  0.00     0.210 HD
ENDBRANCH  12  21
BRANCH  16  23
HETATM   23  O5  UNL     1      -2.219  -0.935  -1.990  1.00  0.00    -0.378 OA
ATOM     24  H5  UNL     1      -2.335  -0.157  -2.523  1.00  0.00     0.211 HD
ENDBRANCH  16  23
BRANCH  15  25
HETATM   25  O4  UNL     1      -3.835   0.068  -0.185  1.00  0.00    -0.382 OA
ATOM     26  H4  UNL     1      -4.116  -0.318  -1.006  1.00  0.00     0.211 HD
ENDBRANCH  15  25
TORSDOF 6
