REMARK  6 active torsions:
REMARK  status: ('A' for Active; 'I' for Inactive)
REMARK    1  A    between atoms: C2_2  and  N1_3 
REMARK    2  A    between atoms: C6_7  and  C7_8 
REMARK    3  A    between atoms: C7_8  and  N2_9 
REMARK    4  A    between atoms: C8_10  and  O1_11 
REMARK    5  A    between atoms: C9_13  and  C10_14 
REMARK    6  A    between atoms: C10_14  and  C11_15 
ROOT
HETATM    1  N2  UNL     1      -0.276  -1.523  -0.845  1.00  0.00    -0.290 N 
HETATM    2  C8  UNL     1      -1.296  -0.701  -1.104  1.00  0.00     0.168 A 
HETATM    3  C9  UNL     1      -2.609  -1.043  -0.769  1.00  0.00     0.063 A 
HETATM    4  N3  UNL     1      -2.865  -2.221  -0.177  1.00  0.00    -0.338 N 
ATOM      5  H3  UNL     1      -3.824  -2.469   0.066  1.00  0.00     0.167 HD
HETATM    6  C15 UNL     1      -1.862  -3.076   0.098  1.00  0.00     0.169 A 
HETATM    7  N4  UNL     1      -2.168  -4.192   0.669  1.00  0.00    -0.381 N 
ATOM      8  H41 UNL     1      -1.408  -4.840   0.877  1.00  0.00     0.157 HD
ATOM      9  H42 UNL     1      -3.120  -4.460   0.919  1.00  0.00     0.157 HD
HETATM   10  C16 UNL     1      -0.589  -2.717  -0.236  1.00  0.00     0.293 A 
HETATM   11  O2  UNL     1       0.340  -3.516   0.024  1.00  0.00    -0.264 OA
ENDROOT
BRANCH   1  12
HETATM   12  C7  UNL     1       1.080  -1.255  -1.144  1.00  0.00     0.140 C 
BRANCH  12  13
HETATM   13  C6  UNL     1       1.952  -0.698  -0.064  1.00  0.00     0.022 C 
HETATM   14  C5  UNL     1       1.558   0.612   0.496  1.00  0.00     0.009 C 
HETATM   15  C4  UNL     1       2.541   1.208   1.440  1.00  0.00     0.020 C 
HETATM   16  C3  UNL     1       3.881   0.530   1.389  1.00  0.00     0.117 C 
HETATM   17  N1  UNL     1       4.279   0.086   0.106  1.00  0.00    -0.412 N 
HETATM   18  C17 UNL     1       3.359  -0.701  -0.631  1.00  0.00     0.123 C 
BRANCH  17  19
HETATM   19  C2  UNL     1       4.907   1.029  -0.752  1.00  0.00     0.112 C 
HETATM   20  C1  UNL     1       6.271   1.480  -0.325  1.00  0.00     0.026 C 
ENDBRANCH  17  19
ENDBRANCH  12  13
ENDBRANCH   1  12
BRANCH   2  21
HETATM   21  O1  UNL     1      -1.046   0.500  -1.724  1.00  0.00    -0.344 OA
ATOM     22  H1  UNL     1      -1.772   1.085  -1.908  1.00  0.00     0.219 HD
ENDBRANCH   2  21
BRANCH   3  23
HETATM   23  C10 UNL     1      -3.762  -0.156  -0.982  1.00  0.00     0.070 C 
BRANCH  23  24
HETATM   24  C11 UNL     1      -4.071   0.795   0.120  1.00  0.00    -0.046 C 
HETATM   25  C12 UNL     1      -4.376   0.043   1.422  1.00  0.00     0.015 C 
HETATM   26  C13 UNL     1      -5.382   1.516  -0.239  1.00  0.00     0.015 C 
HETATM   27  C14 UNL     1      -3.064   1.855   0.406  1.00  0.00     0.015 C 
ENDBRANCH  23  24
ENDBRANCH   3  23
TORSDOF 6
