REMARK  13 active torsions:
REMARK  status: ('A' for Active; 'I' for Inactive)
REMARK    1  A    between atoms: C2_2  and  S1_4 
REMARK    2  A    between atoms: S1_4  and  C3_5 
REMARK    3  A    between atoms: C3_5  and  C4_6 
REMARK    4  A    between atoms: C4_6  and  C6_8 
REMARK    5  A    between atoms: C6_8  and  C7_9 
REMARK    6  A    between atoms: C7_9  and  C8_10 
REMARK    7  A    between atoms: C8_10  and  C9_11 
REMARK    8  A    between atoms: C9_11  and  C10_12 
REMARK    9  A    between atoms: C10_12  and  C11_13 
REMARK   10  A    between atoms: C12_16  and  O2_17 
REMARK   11  A    between atoms: C18_24  and  O3_25 
REMARK   12  A    between atoms: C19_29  and  C20_30 
REMARK   13  A    between atoms: C20_30  and  C21_31 
ROOT
HETATM    1  C11 UNL     1       1.244   1.670  -0.866  1.00  0.00     0.079 C 
HETATM    2  N1  UNL     1       0.565   1.408   0.329  1.00  0.00    -0.338 N 
ATOM      3  H1  UNL     1       0.494   2.280   0.854  1.00  0.00     0.167 HD
HETATM    4  C12 UNL     1      -0.041   0.416   1.058  1.00  0.00     0.133 C 
HETATM    5  C13 UNL     1      -0.638  -0.911   0.895  1.00  0.00     0.089 C 
HETATM    6  C14 UNL     1      -0.127  -1.839  -0.116  1.00  0.00     0.026 C 
HETATM    7  C15 UNL     1      -0.613  -3.214   0.388  1.00  0.00     0.002 C 
HETATM    8  C16 UNL     1      -0.574  -3.112   1.878  1.00  0.00     0.002 C 
HETATM    9  C17 UNL     1       0.020  -1.738   2.104  1.00  0.00     0.026 C 
HETATM   10  C18 UNL     1      -2.110  -0.959   1.183  1.00  0.00     0.130 C 
HETATM   11  N2  UNL     1      -3.255  -1.405   0.594  1.00  0.00    -0.352 N 
ATOM     12  H2  UNL     1      -3.410  -2.384   0.836  1.00  0.00     0.163 HD
HETATM   13  C19 UNL     1      -4.310  -0.943  -0.255  1.00  0.00     0.188 C 
HETATM   14  N3  UNL     1      -4.056   0.117  -1.162  1.00  0.00    -0.330 N 
HETATM   15  C24 UNL     1      -5.276   0.571  -1.922  1.00  0.00     0.128 C 
HETATM   16  C25 UNL     1      -4.738   1.420  -3.064  1.00  0.00     0.021 C 
HETATM   17  C26 UNL     1      -3.881   2.615  -2.687  1.00  0.00     0.023 C 
HETATM   18  C27 UNL     1      -3.160   2.324  -1.353  1.00  0.00     0.066 C 
HETATM   19  C28 UNL     1      -3.942   2.846  -0.220  1.00  0.00     0.041 C 
HETATM   20  C29 UNL     1      -5.062   3.882  -0.395  1.00  0.00     0.120 C 
HETATM   21  N4  UNL     1      -4.294   5.311  -0.635  1.00  0.00    -0.399 N 
ATOM     22  H4  UNL     1      -4.677   6.251  -0.536  1.00  0.00     0.158 HD
HETATM   23  C30 UNL     1      -3.077   4.973  -0.983  1.00  0.00     0.080 C 
HETATM   24  C31 UNL     1      -2.346   4.338  -1.176  1.00  0.00     0.016 C 
HETATM   25  C32 UNL     1      -1.748   3.085  -1.302  1.00  0.00     0.127 C 
HETATM   26  N5  UNL     1      -0.784   2.762  -2.170  1.00  0.00    -0.347 N 
ATOM     27  H5  UNL     1      -1.071   2.784  -3.148  1.00  0.00     0.163 HD
HETATM   28  C33 UNL     1       0.582   2.391  -1.961  1.00  0.00     0.264 C 
HETATM   29  O4  UNL     1       1.416   2.741  -2.893  1.00  0.00    -0.266 OA
HETATM   30  C34 UNL     1      -2.958   0.874  -1.561  1.00  0.00     0.232 C 
HETATM   31  O5  UNL     1      -1.850   0.584  -2.067  1.00  0.00    -0.272 OA
ENDROOT
BRANCH   1  32
HETATM   32  C10 UNL     1       2.083   0.601  -1.509  1.00  0.00     0.063 C 
BRANCH  32  33
HETATM   33  C9  UNL     1       3.208   0.134  -0.609  1.00  0.00     0.006 C 
BRANCH  33  34
HETATM   34  C8  UNL     1       4.033  -0.946  -1.285  1.00  0.00     0.000 C 
BRANCH  34  35
HETATM   35  C7  UNL     1       5.157  -1.448  -0.442  1.00  0.00     0.000 C 
BRANCH  35  36
HETATM   36  C6  UNL     1       6.142  -0.386  -0.061  1.00  0.00     0.005 C 
BRANCH  36  37
HETATM   37  C4  UNL     1       7.271  -0.924   0.789  1.00  0.00    -0.009 C 
HETATM   38  C5  UNL     1       6.816  -1.435   2.121  1.00  0.00     0.011 C 
BRANCH  37  39
HETATM   39  C3  UNL     1       8.047  -2.002   0.067  1.00  0.00     0.086 C 
BRANCH  39  40
HETATM   40  S1  UNL     1       9.504  -2.516   1.000  1.00  0.00    -0.093 SA
BRANCH  40  41
HETATM   41  C2  UNL     1      10.724  -1.236   1.132  1.00  0.00     0.182 C 
HETATM   42  C1  UNL     1      10.600   0.118   0.548  1.00  0.00     0.104 C 
HETATM   43  O1  UNL     1      11.747  -1.488   1.753  1.00  0.00    -0.286 OA
ENDBRANCH  40  41
ENDBRANCH  39  40
ENDBRANCH  37  39
ENDBRANCH  36  37
ENDBRANCH  35  36
ENDBRANCH  34  35
ENDBRANCH  33  34
ENDBRANCH  32  33
ENDBRANCH   1  32
BRANCH   4  44
HETATM   44  O2  UNL     1      -0.131   0.739   2.345  1.00  0.00    -0.348 OA
ATOM     45  H2  UNL     1      -0.551   0.052   2.850  1.00  0.00     0.219 HD
ENDBRANCH   4  44
BRANCH  10  46
HETATM   46  O3  UNL     1      -2.251  -0.398   2.350  1.00  0.00    -0.349 OA
ATOM     47  H3  UNL     1      -3.183  -0.428   2.532  1.00  0.00     0.219 HD
ENDBRANCH  10  46
BRANCH  13  48
HETATM   48  C20 UNL     1      -5.610  -0.744   0.472  1.00  0.00     0.050 C 
BRANCH  48  49
HETATM   49  C21 UNL     1      -6.260  -1.873   1.167  1.00  0.00    -0.019 C 
HETATM   50  C22 UNL     1      -5.532  -2.501   2.307  1.00  0.00     0.009 C 
HETATM   51  C23 UNL     1      -7.591  -1.346   1.755  1.00  0.00     0.009 C 
ENDBRANCH  48  49
ENDBRANCH  13  48
TORSDOF 13
