REMARK  13 active torsions:
REMARK  status: ('A' for Active; 'I' for Inactive)
REMARK    1  A    between atoms: C2_2  and  C3_3 
REMARK    2  A    between atoms: C3_3  and  C4_4 
REMARK    3  A    between atoms: C9_15  and  C10_16 
REMARK    4  A    between atoms: C10_16  and  C11_17 
REMARK    5  A    between atoms: C14_20  and  O3_21 
REMARK    6  A    between atoms: C15_23  and  C16_24 
REMARK    7  A    between atoms: C16_24  and  C18_26 
REMARK    8  A    between atoms: C20_29  and  C21_30 
REMARK    9  A    between atoms: N3_33  and  C24_34 
REMARK   10  A    between atoms: C24_34  and  O5_35 
REMARK   11  A    between atoms: C24_34  and  C25_37 
REMARK   12  A    between atoms: C28_40  and  C29_41 
REMARK   13  A    between atoms: C29_41  and  C30_42 
ROOT
HETATM    1  C4  UNL     1      -2.002  -2.326  -0.515  1.00  0.00     0.178 C 
HETATM    2  C5  UNL     1      -1.283  -3.616  -0.473  1.00  0.00     0.241 C 
HETATM    3  O1  UNL     1      -1.819  -4.592   0.182  1.00  0.00    -0.271 OA
HETATM    4  N1  UNL     1      -0.055  -3.946  -1.066  1.00  0.00    -0.346 N 
ATOM      5  H1  UNL     1      -0.001  -4.881  -1.470  1.00  0.00     0.163 HD
HETATM    6  C6  UNL     1       1.148  -3.146  -1.186  1.00  0.00     0.172 C 
HETATM    7  C7  UNL     1       1.009  -2.076  -2.210  1.00  0.00     0.042 C 
HETATM    8  C8  UNL     1       1.658  -2.759   0.129  1.00  0.00     0.240 C 
HETATM    9  O2  UNL     1       0.937  -3.097   1.148  1.00  0.00    -0.271 OA
HETATM   10  N2  UNL     1       2.823  -2.073   0.476  1.00  0.00    -0.352 N 
ATOM     11  H2  UNL     1       3.283  -2.420   1.318  1.00  0.00     0.163 HD
HETATM   12  C9  UNL     1       3.484  -0.963  -0.149  1.00  0.00     0.116 C 
HETATM   13  C14 UNL     1       3.459   0.231   0.787  1.00  0.00     0.170 C 
HETATM   14  C15 UNL     1       2.147   0.635   1.358  1.00  0.00     0.156 C 
HETATM   15  O4  UNL     1       1.470   1.671   0.827  1.00  0.00    -0.376 OA
HETATM   16  C20 UNL     1       0.547   1.546  -0.156  1.00  0.00     0.139 C 
HETATM   17  C23 UNL     1      -0.726   2.293   0.132  1.00  0.00     0.157 C 
HETATM   18  N3  UNL     1      -1.926   1.710  -0.420  1.00  0.00    -0.349 N 
HETATM   19  C28 UNL     1      -2.783   0.817   0.374  1.00  0.00     0.178 C 
HETATM   20  C33 UNL     1      -2.115  -0.311   1.053  1.00  0.00     0.243 C 
HETATM   21  O6  UNL     1      -1.358  -0.003   2.011  1.00  0.00    -0.271 OA
HETATM   22  N4  UNL     1      -2.220  -1.697   0.769  1.00  0.00    -0.341 N 
HETATM   23  C34 UNL     1      -2.579  -2.607   1.855  1.00  0.00     0.153 C 
ENDROOT
BRANCH  18  24
HETATM   24  C24 UNL     1      -2.399   2.040  -1.695  1.00  0.00     0.118 C 
BRANCH  24  25
HETATM   25  O5  UNL     1      -3.322   1.208  -2.165  1.00  0.00    -0.349 OA
ATOM     26  H5  UNL     1      -3.643   1.432  -3.031  1.00  0.00     0.219 HD
ENDBRANCH  24  25
BRANCH  24  27
HETATM   27  C25 UNL     1      -2.148   3.086  -2.671  1.00  0.00     0.060 A 
HETATM   28  C26 UNL     1      -1.575   4.402  -2.603  1.00  0.00     0.013 A 
HETATM   29  C27 UNL     1      -3.083   4.315  -2.406  1.00  0.00     0.013 A 
ENDBRANCH  24  27
ENDBRANCH  18  24
BRANCH  19  30
HETATM   30  C29 UNL     1      -3.504   1.552   1.473  1.00  0.00     0.039 C 
BRANCH  30  31
HETATM   31  C30 UNL     1      -4.431   2.629   1.179  1.00  0.00    -0.020 C 
HETATM   32  C31 UNL     1      -5.005   3.184   2.507  1.00  0.00     0.009 C 
HETATM   33  C32 UNL     1      -5.654   2.257   0.380  1.00  0.00     0.009 C 
ENDBRANCH  30  31
ENDBRANCH  19  30
BRANCH  16  34
HETATM   34  C21 UNL     1       1.263   2.026  -1.429  1.00  0.00     0.029 C 
HETATM   35  C22 UNL     1       1.771   3.436  -1.285  1.00  0.00     0.007 C 
ENDBRANCH  16  34
BRANCH  14  36
HETATM   36  C16 UNL     1       2.535   1.134   2.796  1.00  0.00     0.013 C 
HETATM   37  C17 UNL     1       3.165   0.061   3.607  1.00  0.00     0.012 C 
BRANCH  36  38
HETATM   38  C18 UNL     1       1.406   1.759   3.521  1.00  0.00     0.002 C 
HETATM   39  C19 UNL     1       1.949   2.198   4.889  1.00  0.00     0.005 C 
ENDBRANCH  36  38
ENDBRANCH  14  36
BRANCH   1  40
HETATM   40  C3  UNL     1      -3.398  -2.635  -1.082  1.00  0.00     0.035 C 
BRANCH  40  41
HETATM   41  C2  UNL     1      -3.123  -3.214  -2.478  1.00  0.00    -0.002 C 
HETATM   42  C1  UNL     1      -4.395  -3.591  -3.183  1.00  0.00     0.005 C 
ENDBRANCH  40  41
ENDBRANCH   1  40
BRANCH  13  43
HETATM   43  O3  UNL     1       4.215   1.287   0.296  1.00  0.00    -0.391 OA
ATOM     44  H3  UNL     1       4.199   2.035   0.882  1.00  0.00     0.210 HD
ENDBRANCH  13  43
BRANCH  12  45
HETATM   45  C10 UNL     1       4.979  -1.356  -0.191  1.00  0.00     0.031 C 
BRANCH  45  46
HETATM   46  C11 UNL     1       5.240  -2.603  -0.968  1.00  0.00    -0.021 C 
HETATM   47  C12 UNL     1       4.841  -2.471  -2.412  1.00  0.00     0.009 C 
HETATM   48  C13 UNL     1       6.738  -2.944  -0.904  1.00  0.00     0.009 C 
ENDBRANCH  45  46
ENDBRANCH  12  45
TORSDOF 13
