REMARK  13 active torsions:
REMARK  status: ('A' for Active; 'I' for Inactive)
REMARK    1  A    between atoms: N1_2  and  C3_4 
REMARK    2  A    between atoms: C3_4  and  C4_5 
REMARK    3  A    between atoms: C5_6  and  C6_7 
REMARK    4  A    between atoms: C6_7  and  N2_8 
REMARK       I    between atoms: N2_8  and  C7_10 
REMARK    5  A    between atoms: C7_10  and  C8_12 
REMARK    6  A    between atoms: C8_12  and  C9_13 
REMARK    7  A    between atoms: C14_18  and  O2_19 
REMARK    8  A    between atoms: N3_32  and  C25_33 
REMARK    9  A    between atoms: C25_33  and  C26_34 
REMARK   10  A    between atoms: C33_41  and  C34_42 
REMARK   11  A    between atoms: C34_42  and  C35_43 
REMARK   12  A    between atoms: C35_43  and  N4_44 
REMARK   13  A    between atoms: C36_49  and  O4_50 
ROOT
HETATM    1  C9  UNL     1       0.978  -0.197   2.531  1.00  0.00     0.073 C 
HETATM    2  C10 UNL     1       1.615  -1.209   3.426  1.00  0.00     0.052 C 
HETATM    3  C11 UNL     1       1.600  -2.641   3.016  1.00  0.00    -0.054 A 
HETATM    4  C12 UNL     1       2.920  -3.075   2.726  1.00  0.00     0.010 A 
HETATM    5  C13 UNL     1       3.251  -4.324   2.281  1.00  0.00     0.040 A 
HETATM    6  C14 UNL     1       2.196  -5.185   2.117  1.00  0.00     0.099 A 
HETATM    7  C15 UNL     1       0.863  -4.819   2.385  1.00  0.00     0.102 A 
HETATM    8  C16 UNL     1       0.589  -3.540   2.837  1.00  0.00     0.046 A 
HETATM    9  O3  UNL     1       0.005  -5.869   2.131  1.00  0.00    -0.348 OA
HETATM   10  C17 UNL     1      -1.187  -6.023   1.408  1.00  0.00     0.178 C 
HETATM   11  C18 UNL     1      -1.095  -5.542   0.021  1.00  0.00     0.060 C 
HETATM   12  C19 UNL     1      -2.100  -4.576  -0.471  1.00  0.00     0.190 C 
HETATM   13  C20 UNL     1      -2.648  -3.584   0.470  1.00  0.00     0.066 C 
HETATM   14  C21 UNL     1      -2.352  -2.505  -0.547  1.00  0.00     0.190 C 
HETATM   15  C22 UNL     1      -1.346  -1.487  -0.051  1.00  0.00     0.060 C 
HETATM   16  C23 UNL     1      -1.886  -0.190   0.387  1.00  0.00     0.106 C 
HETATM   17  C24 UNL     1      -1.738   0.900  -0.684  1.00  0.00     0.147 C 
HETATM   18  N3  UNL     1      -2.637   1.939  -0.287  1.00  0.00    -0.389 N 
HETATM   19  C32 UNL     1      -2.281   2.451   0.996  1.00  0.00     0.147 C 
HETATM   20  C33 UNL     1      -2.430   1.399   2.067  1.00  0.00     0.106 C 
HETATM   21  N5  UNL     1      -1.494   0.298   1.696  1.00  0.00    -0.352 N 
HETATM   22  C36 UNL     1      -0.478  -0.125   2.557  1.00  0.00     0.119 C 
HETATM   23  N6  UNL     1      -1.570  -3.513  -1.281  1.00  0.00    -0.066 N 
ATOM     24  H61 UNL     1      -1.656  -3.569  -2.296  1.00  0.00     0.278 HD
ATOM     25  H62 UNL     1      -0.559  -3.401  -1.358  1.00  0.00     0.278 HD
ENDROOT
BRANCH   1  26
HETATM   26  C8  UNL     1       1.645  -0.211   1.194  1.00  0.00     0.115 C 
BRANCH  26  27
HETATM   27  C7  UNL     1       3.080   0.153   1.188  1.00  0.00     0.218 C 
HETATM   28  N2  UNL     1       3.810   0.103  -0.047  1.00  0.00    -0.358 N 
ATOM     29  H2  UNL     1       3.315  -0.184  -0.892  1.00  0.00     0.162 HD
HETATM   30  O1  UNL     1       3.757   0.515   2.174  1.00  0.00    -0.274 OA
BRANCH  28  31
HETATM   31  C6  UNL     1       5.200   0.436  -0.151  1.00  0.00     0.149 C 
BRANCH  31  32
HETATM   32  C5  UNL     1       5.651   0.297  -1.566  1.00  0.00    -0.010 C 
HETATM   33  C4  UNL     1       6.147   1.343  -2.219  1.00  0.00     0.000 C 
BRANCH  33  34
HETATM   34  C3  UNL     1       6.616   1.308  -3.610  1.00  0.00     0.298 C 
BRANCH  34  35
HETATM   35  N1  UNL     1       8.011   1.665  -3.756  1.00  0.00     0.083 N 
HETATM   36  C1  UNL     1       8.199   3.085  -3.440  1.00  0.00     0.309 C 
HETATM   37  C2  UNL     1       8.800   0.919  -2.761  1.00  0.00     0.309 C 
ENDBRANCH  34  35
ENDBRANCH  33  34
ENDBRANCH  31  32
ENDBRANCH  28  31
ENDBRANCH  26  27
ENDBRANCH   1  26
BRANCH  22  38
HETATM   38  O4  UNL     1      -0.949  -0.575   3.696  1.00  0.00    -0.349 OA
ATOM     39  H4  UNL     1      -1.898  -0.528   3.713  1.00  0.00     0.219 HD
ENDBRANCH  22  38
BRANCH  20  40
HETATM   40  C34 UNL     1      -2.310   1.960   3.389  1.00  0.00     0.054 C 
BRANCH  40  41
HETATM   41  C35 UNL     1      -3.386   2.998   3.616  1.00  0.00     0.231 C 
BRANCH  41  42
HETATM   42  N4  UNL     1      -3.243   3.529   4.991  1.00  0.00    -0.079 N 
ATOM     43  H43 UNL     1      -3.253   2.794   5.698  1.00  0.00     0.274 HD
ATOM     44  H42 UNL     1      -2.307   3.888   5.177  1.00  0.00     0.274 HD
ATOM     45  H41 UNL     1      -3.969   4.229   5.144  1.00  0.00     0.274 HD
ENDBRANCH  41  42
ENDBRANCH  40  41
ENDBRANCH  20  40
BRANCH   6  46
HETATM   46  O2  UNL     1       2.573  -6.467   1.658  1.00  0.00    -0.358 OA
ATOM     47  H2  UNL     1       1.842  -7.063   1.544  1.00  0.00     0.217 HD
ENDBRANCH   6  46
BRANCH  18  48
HETATM   48  C25 UNL     1      -3.029   2.871  -1.242  1.00  0.00     0.063 C 
BRANCH  48  49
HETATM   49  C26 UNL     1      -3.933   2.225  -2.271  1.00  0.00     0.024 C 
HETATM   50  C27 UNL     1      -5.169   1.657  -1.630  1.00  0.00     0.010 C 
HETATM   51  C28 UNL     1      -6.100   2.713  -1.125  1.00  0.00     0.001 C 
HETATM   52  C29 UNL     1      -6.415   3.774  -2.136  1.00  0.00     0.000 C 
HETATM   53  C30 UNL     1      -5.160   4.297  -2.802  1.00  0.00     0.001 C 
HETATM   54  C31 UNL     1      -4.333   3.189  -3.370  1.00  0.00     0.010 C 
ENDBRANCH  48  49
ENDBRANCH  18  48
TORSDOF 13
