REMARK  10 active torsions:
REMARK  status: ('A' for Active; 'I' for Inactive)
REMARK    1  A    between atoms: C2_2  and  C3_3 
REMARK    2  A    between atoms: C3_3  and  C5_5 
REMARK    3  A    between atoms: C7_10  and  C8_11 
REMARK    4  A    between atoms: C8_11  and  C9_12 
REMARK    5  A    between atoms: C13_19  and  C14_20 
REMARK    6  A    between atoms: C14_20  and  C15_21 
REMARK    7  A    between atoms: C25_36  and  C26_37 
REMARK    8  A    between atoms: C26_37  and  C27_38 
REMARK    9  A    between atoms: C28_41  and  C29_42 
REMARK   10  A    between atoms: C29_42  and  C31_44 
ROOT
HETATM    1  C5  UNL     1      -0.566  -2.516   0.206  1.00  0.00     0.180 C 
HETATM    2  N1  UNL     1      -0.097  -2.971  -1.085  1.00  0.00    -0.346 N 
ATOM      3  H1  UNL     1      -0.440  -3.867  -1.431  1.00  0.00     0.163 HD
HETATM    4  C6  UNL     1       0.815  -2.242  -1.903  1.00  0.00     0.241 C 
HETATM    5  O1  UNL     1       0.620  -2.242  -3.153  1.00  0.00    -0.271 OA
HETATM    6  C7  UNL     1       1.958  -1.497  -1.363  1.00  0.00     0.177 C 
HETATM    7  N2  UNL     1       2.342  -0.450  -2.308  1.00  0.00    -0.346 N 
ATOM      8  H2  UNL     1       2.318  -0.674  -3.303  1.00  0.00     0.163 HD
HETATM    9  C12 UNL     1       2.737   0.828  -1.942  1.00  0.00     0.241 C 
HETATM   10  O2  UNL     1       3.815   1.296  -2.451  1.00  0.00    -0.271 OA
HETATM   11  C13 UNL     1       2.024   1.738  -0.999  1.00  0.00     0.177 C 
HETATM   12  N3  UNL     1       1.167   2.637  -1.737  1.00  0.00    -0.346 N 
ATOM     13  H3  UNL     1       1.476   2.896  -2.674  1.00  0.00     0.163 HD
HETATM   14  C18 UNL     1      -0.058   3.196  -1.295  1.00  0.00     0.241 C 
HETATM   15  O3  UNL     1      -1.015   3.136  -2.117  1.00  0.00    -0.271 OA
HETATM   16  C19 UNL     1      -0.318   3.823  -0.014  1.00  0.00     0.179 C 
HETATM   17  C20 UNL     1      -1.420   4.889  -0.073  1.00  0.00     0.035 C 
HETATM   18  C21 UNL     1      -1.764   5.338   1.331  1.00  0.00     0.004 C 
HETATM   19  C22 UNL     1      -0.715   5.036   2.347  1.00  0.00     0.020 C 
HETATM   20  C23 UNL     1      -0.250   3.623   2.380  1.00  0.00     0.127 C 
HETATM   21  N4  UNL     1      -0.683   2.987   1.100  1.00  0.00    -0.338 N 
HETATM   22  C24 UNL     1      -1.342   1.757   1.117  1.00  0.00     0.227 C 
HETATM   23  O4  UNL     1      -0.779   0.849   1.834  1.00  0.00    -0.273 OA
HETATM   24  C25 UNL     1      -2.585   1.318   0.450  1.00  0.00     0.111 C 
HETATM   25  C28 UNL     1      -2.435   0.076  -0.391  1.00  0.00     0.101 C 
HETATM   26  N5  UNL     1      -2.752  -1.146   0.288  1.00  0.00    -0.353 N 
ATOM     27  H5  UNL     1      -3.610  -1.142   0.839  1.00  0.00     0.163 HD
HETATM   28  C33 UNL     1      -2.027  -2.345   0.287  1.00  0.00     0.241 C 
HETATM   29  O7  UNL     1      -2.701  -3.432   0.366  1.00  0.00    -0.271 OA
ENDROOT
BRANCH   1  30
HETATM   30  C3  UNL     1      -0.163  -3.476   1.335  1.00  0.00     0.013 C 
HETATM   31  C4  UNL     1      -0.660  -4.867   1.131  1.00  0.00     0.012 C 
BRANCH  30  32
HETATM   32  C2  UNL     1      -0.716  -2.871   2.625  1.00  0.00     0.002 C 
HETATM   33  C1  UNL     1      -0.299  -3.694   3.824  1.00  0.00     0.005 C 
ENDBRANCH  30  32
ENDBRANCH   1  30
BRANCH   6  34
HETATM   34  C8  UNL     1       3.085  -2.353  -0.975  1.00  0.00     0.038 C 
BRANCH  34  35
HETATM   35  C9  UNL     1       3.773  -3.195  -1.975  1.00  0.00    -0.020 C 
HETATM   36  C10 UNL     1       4.916  -3.904  -1.188  1.00  0.00     0.009 C 
HETATM   37  C11 UNL     1       2.972  -4.325  -2.562  1.00  0.00     0.009 C 
ENDBRANCH  34  35
ENDBRANCH   6  34
BRANCH  25  38
HETATM   38  C29 UNL     1      -3.242   0.157  -1.668  1.00  0.00     0.005 C 
HETATM   39  C30 UNL     1      -4.710   0.319  -1.465  1.00  0.00     0.012 C 
BRANCH  38  40
HETATM   40  C31 UNL     1      -3.020  -1.043  -2.557  1.00  0.00     0.002 C 
HETATM   41  C32 UNL     1      -3.868  -0.874  -3.823  1.00  0.00     0.005 C 
ENDBRANCH  38  40
ENDBRANCH  25  38
BRANCH  24  42
HETATM   42  C26 UNL     1      -3.603   1.014   1.530  1.00  0.00     0.129 C 
BRANCH  42  43
HETATM   43  C27 UNL     1      -3.942   2.139   2.401  1.00  0.00     0.173 C 
HETATM   44  O5  UNL     1      -3.411   2.375   3.513  1.00  0.00    -0.648 OA
HETATM   45  O6  UNL     1      -4.934   3.054   2.007  1.00  0.00    -0.648 OA
ENDBRANCH  42  43
ENDBRANCH  24  42
BRANCH  11  46
HETATM   46  C14 UNL     1       3.088   2.534  -0.270  1.00  0.00     0.038 C 
BRANCH  46  47
HETATM   47  C15 UNL     1       4.031   1.670   0.521  1.00  0.00    -0.020 C 
HETATM   48  C16 UNL     1       3.339   0.862   1.592  1.00  0.00     0.009 C 
HETATM   49  C17 UNL     1       5.120   2.531   1.177  1.00  0.00     0.009 C 
ENDBRANCH  46  47
ENDBRANCH  11  46
TORSDOF 10
