REMARK  11 active torsions:
REMARK  status: ('A' for Active; 'I' for Inactive)
REMARK    1  A    between atoms: C2_2  and  C3_3 
REMARK    2  A    between atoms: C3_3  and  C4_4 
REMARK    3  A    between atoms: C4_4  and  C5_5 
REMARK    4  A    between atoms: C5_5  and  C7_7 
REMARK    5  A    between atoms: C11_13  and  C12_14 
REMARK       I    between atoms: C12_14  and  N1_16 
REMARK    6  A    between atoms: N1_16  and  C13_18 
REMARK    7  A    between atoms: C13_18  and  C14_19 
REMARK    8  A    between atoms: C14_19  and  C15_20 
REMARK    9  A    between atoms: C18_23  and  O4_24 
REMARK   10  A    between atoms: C23_33  and  N3_34 
REMARK   11  A    between atoms: C34_48  and  O7_49 
ROOT
HETATM    1  C7  UNL     1       0.031   2.479   0.625  1.00  0.00     0.141 C 
HETATM    2  O1  UNL     1      -0.182   1.253   0.069  1.00  0.00    -0.315 OA
HETATM    3  C8  UNL     1       0.323   0.035  -0.052  1.00  0.00     0.264 C 
HETATM    4  O2  UNL     1       0.491  -0.877   0.842  1.00  0.00    -0.265 OA
HETATM    5  C9  UNL     1       0.794  -0.440  -1.393  1.00  0.00     0.097 C 
HETATM    6  C10 UNL     1      -0.137  -0.119  -2.499  1.00  0.00     0.021 C 
HETATM    7  C11 UNL     1       1.271  -1.831  -1.479  1.00  0.00     0.121 C 
HETATM    8  C18 UNL     1       0.373  -2.967  -1.364  1.00  0.00     0.152 C 
HETATM    9  C20 UNL     1      -1.108  -2.740  -1.536  1.00  0.00     0.155 C 
HETATM   10  N2  UNL     1      -1.860  -3.880  -0.973  1.00  0.00    -0.352 N 
ATOM     11  H2  UNL     1      -1.980  -4.716  -1.546  1.00  0.00     0.162 HD
HETATM   12  C21 UNL     1      -2.425  -3.864   0.333  1.00  0.00     0.289 C 
HETATM   13  O5  UNL     1      -2.210  -4.870   1.099  1.00  0.00    -0.264 OA
HETATM   14  C22 UNL     1      -3.236  -2.784   0.873  1.00  0.00     0.239 C 
HETATM   15  O6  UNL     1      -3.011  -2.403   2.050  1.00  0.00    -0.285 OA
HETATM   16  C23 UNL     1      -4.320  -2.126   0.066  1.00  0.00     0.166 C 
HETATM   17  C25 UNL     1      -4.592  -0.730   0.481  1.00  0.00     0.088 C 
HETATM   18  C26 UNL     1      -5.364  -0.539   1.739  1.00  0.00     0.019 C 
HETATM   19  C27 UNL     1      -5.392  -0.057  -0.637  1.00  0.00     0.267 C 
HETATM   20  F1  UNL     1      -6.461  -0.904  -1.007  1.00  0.00    -0.201 F 
HETATM   21  F2  UNL     1      -4.651   0.070  -1.792  1.00  0.00    -0.201 F 
HETATM   22  C28 UNL     1      -6.041   1.192  -0.195  1.00  0.00     0.051 C 
HETATM   23  C29 UNL     1      -5.864   2.407  -0.677  1.00  0.00     0.002 C 
HETATM   24  C30 UNL     1      -5.000   2.849  -1.751  1.00  0.00    -0.004 C 
HETATM   25  C31 UNL     1      -3.702   3.064  -1.744  1.00  0.00    -0.020 C 
HETATM   26  C32 UNL     1      -2.730   2.924  -0.637  1.00  0.00     0.033 C 
HETATM   27  C33 UNL     1      -3.280   3.331   0.697  1.00  0.00     0.017 C 
HETATM   28  C34 UNL     1      -1.521   3.722  -0.998  1.00  0.00     0.131 C 
HETATM   29  C35 UNL     1      -0.317   3.683  -0.200  1.00  0.00     0.041 C 
HETATM   30  C36 UNL     1      -0.206   4.945   0.639  1.00  0.00     0.015 C 
ENDROOT
BRANCH   7  31
HETATM   31  C12 UNL     1       2.447  -2.044  -0.548  1.00  0.00     0.225 C 
HETATM   32  O3  UNL     1       2.428  -2.883   0.386  1.00  0.00    -0.273 OA
HETATM   33  N1  UNL     1       3.621  -1.272  -0.731  1.00  0.00    -0.361 N 
ATOM     34  H1  UNL     1       3.627  -0.590  -1.490  1.00  0.00     0.162 HD
BRANCH  33  35
HETATM   35  C13 UNL     1       4.797  -1.382   0.074  1.00  0.00     0.123 C 
BRANCH  35  36
HETATM   36  C14 UNL     1       5.431  -2.749   0.029  1.00  0.00     0.023 C 
BRANCH  36  37
HETATM   37  C15 UNL     1       6.669  -2.792   0.903  1.00  0.00    -0.021 C 
HETATM   38  C16 UNL     1       7.298  -4.162   0.851  1.00  0.00     0.009 C 
HETATM   39  C17 UNL     1       7.698  -1.775   0.519  1.00  0.00     0.009 C 
ENDBRANCH  36  37
ENDBRANCH  35  36
ENDBRANCH  33  35
ENDBRANCH   7  31
BRANCH   8  40
HETATM   40  O4  UNL     1       0.685  -3.901  -2.386  1.00  0.00    -0.388 OA
HETATM   41  C19 UNL     1       0.958  -5.156  -1.912  1.00  0.00     0.202 C 
ENDBRANCH   8  40
BRANCH   1  42
HETATM   42  C5  UNL     1       1.404   2.727   1.219  1.00  0.00     0.012 C 
HETATM   43  C6  UNL     1       1.657   1.898   2.466  1.00  0.00     0.012 C 
BRANCH  42  44
HETATM   44  C4  UNL     1       2.543   2.605   0.278  1.00  0.00     0.010 C 
BRANCH  44  45
HETATM   45  C3  UNL     1       3.853   3.104   0.874  1.00  0.00     0.027 C 
BRANCH  45  46
HETATM   46  C2  UNL     1       3.785   4.528   1.251  1.00  0.00    -0.037 C 
HETATM   47  C1  UNL     1       3.959   4.994   2.464  1.00  0.00     0.007 C 
ENDBRANCH  45  46
ENDBRANCH  44  45
ENDBRANCH  42  44
ENDBRANCH   1  42
BRANCH  28  48
HETATM   48  O7  UNL     1      -1.237   3.573  -2.392  1.00  0.00    -0.394 OA
ATOM     49  H7  UNL     1      -0.468   4.081  -2.622  1.00  0.00     0.210 HD
ENDBRANCH  28  48
BRANCH  16  50
HETATM   50  N3  UNL     1      -5.454  -2.964  -0.103  1.00  0.00    -0.414 N 
HETATM   51  C24 UNL     1      -6.161  -3.364   1.058  1.00  0.00     0.140 C 
ATOM     52  H3  UNL     1      -5.750  -3.268  -1.030  1.00  0.00     0.153 HD
ENDBRANCH  16  50
TORSDOF 11
