REMARK  11 active torsions:
REMARK  status: ('A' for Active; 'I' for Inactive)
REMARK    1  A    between atoms: C3_3  and  C4_4 
REMARK    2  A    between atoms: C4_4  and  N1_5 
REMARK       I    between atoms: N1_5  and  C5_7 
REMARK    3  A    between atoms: C5_7  and  C6_9 
REMARK    4  A    between atoms: C8_11  and  C9_12 
REMARK    5  A    between atoms: C11_14  and  C12_15 
REMARK    6  A    between atoms: C12_15  and  N2_16 
REMARK    7  A    between atoms: C15_19  and  C16_20 
REMARK    8  A    between atoms: C15_19  and  C21_27 
REMARK       I    between atoms: C16_20  and  N3_22 
REMARK    9  A    between atoms: C33_44  and  C34_45 
REMARK   10  A    between atoms: C34_45  and  O3_46 
REMARK   11  A    between atoms: C36_51  and  C37_52 
ROOT
HETATM    1  C6  UNL     1       3.622   3.086  -1.575  1.00  0.00     0.071 A 
HETATM    2  C7  UNL     1       2.389   2.426  -1.447  1.00  0.00     0.035 A 
HETATM    3  C8  UNL     1       1.294   2.758  -2.203  1.00  0.00     0.015 A 
HETATM    4  C28 UNL     1       1.463   3.794  -3.116  1.00  0.00     0.130 A 
HETATM    5  F1  UNL     1       0.380   4.130  -3.870  1.00  0.00    -0.205 F 
HETATM    6  C29 UNL     1       2.662   4.448  -3.252  1.00  0.00     0.086 A 
HETATM    7  C30 UNL     1       3.776   4.104  -2.477  1.00  0.00     0.135 A 
HETATM    8  F2  UNL     1       4.929   4.809  -2.647  1.00  0.00    -0.205 F 
ENDROOT
BRANCH   1   9
HETATM    9  C5  UNL     1       4.728   2.628  -0.740  1.00  0.00     0.255 C 
HETATM   10  N1  UNL     1       6.087   2.730  -1.103  1.00  0.00    -0.353 N 
ATOM     11  H1  UNL     1       6.357   3.139  -1.997  1.00  0.00     0.163 HD
HETATM   12  O1  UNL     1       4.378   2.111   0.379  1.00  0.00    -0.268 OA
BRANCH  10  13
HETATM   13  C4  UNL     1       7.086   2.245  -0.186  1.00  0.00     0.162 C 
BRANCH  13  14
HETATM   14  C3  UNL     1       7.123   0.808   0.057  1.00  0.00    -0.031 A 
HETATM   15  C2  UNL     1       8.072   0.325   0.975  1.00  0.00    -0.036 A 
HETATM   16  C1  UNL     1       8.961   1.341   1.645  1.00  0.00     0.050 C 
HETATM   17  C36 UNL     1       8.180  -0.999   1.249  1.00  0.00     0.064 A 
HETATM   18  C35 UNL     1       7.326  -1.928   0.606  1.00  0.00     0.076 A 
HETATM   19  C32 UNL     1       6.397  -1.462  -0.292  1.00  0.00     0.062 A 
HETATM   20  N6  UNL     1       7.183  -3.255   0.656  1.00  0.00    -0.341 N 
HETATM   21  C31 UNL     1       6.307  -0.105  -0.555  1.00  0.00     0.041 A 
HETATM   22  N5  UNL     1       5.723  -2.536  -0.753  1.00  0.00    -0.342 N 
HETATM   23  C33 UNL     1       6.178  -3.647  -0.195  1.00  0.00     0.106 A 
ATOM     24  H5  UNL     1       4.967  -2.497  -1.437  1.00  0.00     0.167 HD
ATOM     25  H6  UNL     1       7.737  -3.883   1.238  1.00  0.00     0.167 HD
BRANCH  17  26
HETATM   26  C37 UNL     1       9.151  -1.533   2.169  1.00  0.00     0.267 C 
HETATM   27  N7  UNL     1      10.180  -0.763   2.745  1.00  0.00    -0.057 NA
HETATM   28  O4  UNL     1       9.136  -2.771   2.524  1.00  0.00    -0.271 OA
ENDBRANCH  17  26
BRANCH  23  29
HETATM   29  C34 UNL     1       5.765  -5.083  -0.364  1.00  0.00     0.240 C 
BRANCH  29  30
HETATM   30  O3  UNL     1       6.423  -5.610  -1.447  1.00  0.00    -0.393 OA
ATOM     31  H3  UNL     1       6.162  -6.517  -1.554  1.00  0.00     0.209 HD
ENDBRANCH  29  30
ENDBRANCH  23  29
ENDBRANCH  13  14
ENDBRANCH  10  13
ENDBRANCH   1   9
BRANCH   3  32
HETATM   32  C9  UNL     1       0.006   2.089  -2.084  1.00  0.00    -0.005 A 
HETATM   33  C10 UNL     1      -1.261   2.593  -1.908  1.00  0.00     0.040 A 
HETATM   34  C11 UNL     1      -2.202   1.549  -1.886  1.00  0.00     0.040 A 
HETATM   35  N4  UNL     1      -1.500   0.427  -2.048  1.00  0.00    -0.362 N 
HETATM   36  C26 UNL     1      -2.004  -0.930  -2.118  1.00  0.00     0.155 C 
HETATM   37  C27 UNL     1      -0.181   0.713  -2.168  1.00  0.00     0.102 A 
BRANCH  34  38
HETATM   38  C12 UNL     1      -3.661   1.735  -1.723  1.00  0.00     0.329 C 
BRANCH  38  39
HETATM   39  N2  UNL     1      -4.092   2.026  -0.392  1.00  0.00     0.094 N 
HETATM   40  C13 UNL     1      -5.513   2.322  -0.427  1.00  0.00     0.274 C 
HETATM   41  C14 UNL     1      -6.310   1.684   0.654  1.00  0.00     0.050 C 
HETATM   42  C15 UNL     1      -6.104   0.189   0.778  1.00  0.00     0.048 C 
HETATM   43  C24 UNL     1      -4.657  -0.136   0.677  1.00  0.00     0.050 C 
HETATM   44  C25 UNL     1      -3.746   1.074   0.607  1.00  0.00     0.274 C 
BRANCH  42  45
HETATM   45  C16 UNL     1      -6.580  -0.201   2.151  1.00  0.00     0.229 C 
HETATM   46  O2  UNL     1      -7.125   0.756   2.826  1.00  0.00    -0.272 OA
HETATM   47  N3  UNL     1      -6.483  -1.470   2.724  1.00  0.00    -0.351 N 
HETATM   48  C17 UNL     1      -5.911  -2.676   2.194  1.00  0.00     0.126 C 
HETATM   49  C20 UNL     1      -7.012  -1.789   4.069  1.00  0.00     0.126 C 
HETATM   50  C18 UNL     1      -6.780  -3.795   2.750  1.00  0.00     0.021 C 
HETATM   51  C19 UNL     1      -7.338  -3.252   4.023  1.00  0.00     0.021 C 
ENDBRANCH  42  45
BRANCH  42  52
HETATM   52  C21 UNL     1      -6.934  -0.579  -0.233  1.00  0.00     0.003 A 
HETATM   53  C22 UNL     1      -8.404  -0.641  -0.176  1.00  0.00     0.006 A 
HETATM   54  C23 UNL     1      -7.754   0.179  -1.221  1.00  0.00     0.006 A 
ENDBRANCH  42  52
ENDBRANCH  38  39
ENDBRANCH  34  38
ENDBRANCH   3  32
TORSDOF 11
