REMARK  16 active torsions:
REMARK  status: ('A' for Active; 'I' for Inactive)
REMARK    1  A    between atoms: O1_1  and  C1_3 
REMARK    2  A    between atoms: C1_3  and  C2_4 
REMARK    3  A    between atoms: C1_3  and  N4_22 
REMARK    4  A    between atoms: C2_4  and  N1_5 
REMARK    5  A    between atoms: N1_5  and  C3_7 
REMARK    6  A    between atoms: C3_7  and  C4_8 
REMARK    7  A    between atoms: C4_8  and  C5_9 
REMARK    8  A    between atoms: C5_9  and  N2_10 
REMARK    9  A    between atoms: C8_14  and  N3_15 
REMARK   10  A    between atoms: N4_22  and  N5_24 
REMARK   11  A    between atoms: N5_24  and  C15_26 
REMARK   12  A    between atoms: C15_26  and  N6_28 
REMARK   13  A    between atoms: N6_28  and  N7_30 
REMARK   14  A    between atoms: N7_30  and  C16_31 
REMARK   15  A    between atoms: C16_31  and  C17_32 
REMARK   16  A    between atoms: C22_38  and  N8_39 
ROOT
HETATM    1  N4  UNL     1       0.597   1.113  -1.349  1.00  0.00    -0.277 N 
ATOM      2  H4  UNL     1       0.720   2.092  -1.092  1.00  0.00     0.189 HD
ENDROOT
BRANCH   1   3
HETATM    3  C1  UNL     1      -0.483   0.311  -0.918  1.00  0.00     0.170 C 
BRANCH   3   4
HETATM    4  O1  UNL     1      -0.457  -0.933  -1.351  1.00  0.00    -0.344 OA
ATOM      5  H1  UNL     1       0.277  -1.156  -1.912  1.00  0.00     0.219 HD
ENDBRANCH   3   4
BRANCH   3   6
HETATM    6  C2  UNL     1      -1.583   0.646  -0.077  1.00  0.00     0.140 C 
BRANCH   6   7
HETATM    7  N1  UNL     1      -1.773   1.970   0.328  1.00  0.00    -0.395 N 
ATOM      8  H1  UNL     1      -1.582   2.253   1.289  1.00  0.00     0.159 HD
BRANCH   7   9
HETATM    9  C3  UNL     1      -2.243   2.924  -0.638  1.00  0.00     0.120 C 
BRANCH   9  10
HETATM   10  C4  UNL     1      -3.697   2.507  -0.966  1.00  0.00     0.040 C 
BRANCH  10  11
HETATM   11  C5  UNL     1      -4.395   2.483   0.359  1.00  0.00     0.129 C 
BRANCH  11  12
HETATM   12  N2  UNL     1      -5.788   2.114   0.322  1.00  0.00    -0.363 N 
HETATM   13  C6  UNL     1      -6.865   2.938   0.204  1.00  0.00     0.112 A 
HETATM   14  C7  UNL     1      -8.003   2.150   0.240  1.00  0.00     0.054 A 
HETATM   15 BR1  UNL     1      -9.766   2.899   0.091  1.00  0.00    -0.047 Br
HETATM   16  C8  UNL     1      -7.630   0.824   0.382  1.00  0.00     0.065 A 
HETATM   17  C14 UNL     1      -6.239   0.880   0.424  1.00  0.00     0.121 A 
BRANCH  16  18
HETATM   18  N3  UNL     1      -8.505  -0.278   0.479  1.00  0.00    -0.379 N 
HETATM   19  C9  UNL     1      -9.441  -0.285   1.600  1.00  0.00     0.123 C 
HETATM   20  C10 UNL     1     -10.561  -1.253   1.410  1.00  0.00     0.020 C 
HETATM   21  C11 UNL     1     -10.983  -1.234  -0.031  1.00  0.00     0.003 C 
HETATM   22  C12 UNL     1      -9.902  -1.579  -1.003  1.00  0.00     0.020 C 
HETATM   23  C13 UNL     1      -8.542  -1.402  -0.417  1.00  0.00     0.123 C 
ENDBRANCH  16  18
ENDBRANCH  11  12
ENDBRANCH  10  11
ENDBRANCH   9  10
ENDBRANCH   7   9
ENDBRANCH   6   7
ENDBRANCH   3   6
ENDBRANCH   1   3
BRANCH   1  24
HETATM   24  N5  UNL     1       1.493   0.389  -2.186  1.00  0.00    -0.272 N 
ATOM     25  H5  UNL     1       1.134   0.072  -3.086  1.00  0.00     0.189 HD
BRANCH  24  26
HETATM   26  C15 UNL     1       2.786   0.083  -1.891  1.00  0.00     0.216 C 
HETATM   27  S1  UNL     1       3.664  -0.780  -2.986  1.00  0.00    -0.037 SA
BRANCH  26  28
HETATM   28  N6  UNL     1       3.437   0.484  -0.657  1.00  0.00    -0.208 N 
ATOM     29  H6  UNL     1       2.891   1.042  -0.001  1.00  0.00     0.204 HD
BRANCH  28  30
HETATM   30  N7  UNL     1       4.659   0.191  -0.317  1.00  0.00    -0.335 NA
BRANCH  30  31
HETATM   31  C16 UNL     1       5.747  -0.091  -0.014  1.00  0.00     0.222 C 
BRANCH  31  32
HETATM   32  C17 UNL     1       6.198  -1.491   0.170  1.00  0.00     0.022 A 
HETATM   33  C18 UNL     1       5.179  -2.454   0.096  1.00  0.00     0.035 A 
HETATM   34  C19 UNL     1       5.510  -3.761   0.276  1.00  0.00     0.011 A 
HETATM   35 BR2  UNL     1       4.189  -5.122   0.192  1.00  0.00    -0.051 Br
HETATM   36  C20 UNL     1       6.842  -4.140   0.531  1.00  0.00     0.021 A 
HETATM   37  C21 UNL     1       7.811  -3.171   0.596  1.00  0.00     0.031 A 
HETATM   38  C22 UNL     1       7.457  -1.793   0.405  1.00  0.00     0.043 A 
BRANCH  38  39
HETATM   39  N8  UNL     1       8.522  -0.860   0.458  1.00  0.00    -0.380 N 
HETATM   40  C23 UNL     1       8.912  -0.142  -0.710  1.00  0.00     0.123 C 
HETATM   41  C24 UNL     1       9.831   1.026  -0.315  1.00  0.00     0.020 C 
HETATM   42  C25 UNL     1      10.980   0.330   0.433  1.00  0.00     0.003 C 
HETATM   43  C26 UNL     1      10.449   0.002   1.793  1.00  0.00     0.020 C 
HETATM   44  C27 UNL     1       9.190  -0.763   1.761  1.00  0.00     0.123 C 
ENDBRANCH  38  39
ENDBRANCH  31  32
ENDBRANCH  30  31
ENDBRANCH  28  30
ENDBRANCH  26  28
ENDBRANCH  24  26
ENDBRANCH   1  24
TORSDOF 16
