REMARK  0 active torsions:
REMARK  status: ('A' for Active; 'I' for Inactive)
ROOT
HETATM    1  O1  UNL     1       1.509  -3.484   1.234  1.00  0.00    -0.200 OA
HETATM    2  S1  UNL     1       1.016  -2.067   1.474  1.00  0.00     0.264 S 
HETATM    3  O2  UNL     1       1.425  -1.744   2.904  1.00  0.00    -0.200 OA
HETATM    4  N1  UNL     1      -0.673  -2.081   1.292  1.00  0.00    -0.280 N 
ATOM      5  H1  UNL     1      -1.103  -2.801   1.872  1.00  0.00     0.179 HD
HETATM    6  C1  UNL     1      -1.640  -1.371   0.560  1.00  0.00     0.053 A 
HETATM    7  C2  UNL     1      -2.721  -2.210   0.379  1.00  0.00     0.031 A 
HETATM    8  C3  UNL     1      -3.819  -1.782  -0.339  1.00  0.00     0.002 A 
HETATM    9  C4  UNL     1      -3.853  -0.491  -0.896  1.00  0.00     0.001 A 
HETATM   10  C5  UNL     1      -2.790   0.362  -0.730  1.00  0.00     0.014 A 
HETATM   11  C6  UNL     1      -1.728  -0.110  -0.008  1.00  0.00     0.002 A 
HETATM   12  C7  UNL     1      -0.815   1.020   0.005  1.00  0.00    -0.013 A 
HETATM   13  C8  UNL     1      -1.613   2.117   0.119  1.00  0.00     0.013 A 
HETATM   14  C9  UNL     1      -1.034   3.360   0.155  1.00  0.00     0.001 A 
HETATM   15  C10 UNL     1       0.355   3.509   0.082  1.00  0.00     0.001 A 
HETATM   16  C11 UNL     1       1.187   2.413  -0.029  1.00  0.00     0.013 A 
HETATM   17  C12 UNL     1       0.585   1.191  -0.067  1.00  0.00    -0.013 A 
HETATM   18  C13 UNL     1       1.667   0.237  -0.165  1.00  0.00    -0.002 A 
HETATM   19  C14 UNL     1       2.552   0.848  -1.011  1.00  0.00     0.014 A 
HETATM   20  C15 UNL     1       3.721   0.145  -1.259  1.00  0.00     0.001 A 
HETATM   21  C16 UNL     1       3.987  -1.088  -0.702  1.00  0.00     0.002 A 
HETATM   22  C17 UNL     1       3.059  -1.662   0.142  1.00  0.00     0.026 A 
HETATM   23  C18 UNL     1       1.883  -1.020   0.430  1.00  0.00     0.090 A 
ENDROOT
TORSDOF 0
