REMARK  2 active torsions:
REMARK  status: ('A' for Active; 'I' for Inactive)
REMARK    1  A    between atoms: C10_11  and  C11_12 
REMARK    2  A    between atoms: C12_13  and  C13_14 
ROOT
HETATM    1  N1  UNL     1      -6.104   2.846  -0.984  1.00  0.00    -0.102 NA
HETATM    2  C1  UNL     1      -5.421   1.603  -0.802  1.00  0.00     0.047 A 
HETATM    3  C2  UNL     1      -6.115   0.409  -0.804  1.00  0.00     0.029 A 
HETATM    4  C3  UNL     1      -5.485  -0.801  -0.631  1.00  0.00     0.039 A 
HETATM    5  C4  UNL     1      -4.101  -0.864  -0.445  1.00  0.00     0.080 A 
HETATM    6  C5  UNL     1      -3.396   0.329  -0.442  1.00  0.00     0.010 A 
HETATM    7  C6  UNL     1      -4.056   1.528  -0.617  1.00  0.00     0.041 A 
HETATM    8  C7  UNL     1      -1.954   0.247  -0.247  1.00  0.00    -0.015 A 
HETATM    9  C8  UNL     1      -1.185   1.380  -0.230  1.00  0.00     0.014 A 
HETATM   10  C9  UNL     1       0.202   1.279  -0.041  1.00  0.00     0.021 A 
HETATM   11  C10 UNL     1       0.825   0.068   0.131  1.00  0.00     0.018 A 
HETATM   12  C19 UNL     1       0.046  -1.064   0.113  1.00  0.00     0.030 A 
HETATM   13  C20 UNL     1      -1.340  -0.991  -0.074  1.00  0.00    -0.021 A 
HETATM   14  C21 UNL     1      -2.080  -2.251  -0.077  1.00  0.00     0.215 A 
HETATM   15  O1  UNL     1      -3.441  -2.047  -0.271  1.00  0.00    -0.346 OA
ENDROOT
BRANCH  11  16
HETATM   16  C11 UNL     1       2.245   0.017   0.321  1.00  0.00    -0.061 C 
HETATM   17  C12 UNL     1       3.442  -0.009   0.473  1.00  0.00    -0.061 C 
BRANCH  17  18
HETATM   18  C13 UNL     1       4.863  -0.047   0.647  1.00  0.00     0.018 A 
HETATM   19  C14 UNL     1       5.519  -1.075   1.338  1.00  0.00     0.020 A 
HETATM   20  C15 UNL     1       6.889  -1.063   1.477  1.00  0.00     0.001 A 
HETATM   21  C16 UNL     1       7.643  -0.055   0.947  1.00  0.00     0.000 A 
HETATM   22  C17 UNL     1       7.038   0.967   0.265  1.00  0.00     0.001 A 
HETATM   23  C18 UNL     1       5.642   0.960   0.121  1.00  0.00     0.020 A 
ENDBRANCH  17  18
ENDBRANCH  11  16
TORSDOF 2
