REMARK  2 active torsions:
REMARK  status: ('A' for Active; 'I' for Inactive)
REMARK    1  A    between atoms: C3_3  and  C4_4 
REMARK    2  A    between atoms: C5_5  and  C6_6 
ROOT
HETATM    1  C1  UNL     1       0.955  -2.020  -0.344  1.00  0.00     0.050 C 
HETATM    2  C2  UNL     1       0.219  -0.753  -0.133  1.00  0.00    -0.029 A 
HETATM    3  C3  UNL     1       0.869   0.441   0.105  1.00  0.00     0.040 A 
HETATM    4  C9  UNL     1       0.131   1.599   0.295  1.00  0.00     0.109 A 
HETATM    5  N3  UNL     1      -1.206   1.552   0.247  1.00  0.00    -0.363 N 
ATOM      6  H3  UNL     1      -1.747   2.405   0.388  1.00  0.00     0.165 HD
HETATM    7  C10 UNL     1      -1.848   0.378   0.012  1.00  0.00     0.054 A 
HETATM    8  C11 UNL     1      -1.159  -0.802  -0.184  1.00  0.00    -0.001 A 
HETATM    9  C12 UNL     1      -1.867  -1.963  -0.418  1.00  0.00     0.015 A 
HETATM   10  C13 UNL     1      -3.250  -1.925  -0.453  1.00  0.00     0.013 A 
HETATM   11  C14 UNL     1      -3.932  -0.740  -0.256  1.00  0.00    -0.024 A 
HETATM   12  C15 UNL     1      -5.311  -0.672  -0.285  1.00  0.00     0.012 A 
HETATM   13  C16 UNL     1      -5.952   0.531  -0.083  1.00  0.00     0.001 A 
HETATM   14  C17 UNL     1      -5.261   1.709   0.154  1.00  0.00     0.001 A 
HETATM   15  C18 UNL     1      -3.885   1.641   0.182  1.00  0.00     0.014 A 
HETATM   16  C19 UNL     1      -3.239   0.434  -0.020  1.00  0.00     0.002 A 
ENDROOT
BRANCH   3  17
HETATM   17  C4  UNL     1       2.303   0.433   0.147  1.00  0.00    -0.058 C 
HETATM   18  C5  UNL     1       3.507   0.440   0.197  1.00  0.00    -0.042 C 
BRANCH  18  19
HETATM   19  C6  UNL     1       4.935   0.472   0.263  1.00  0.00     0.102 A 
HETATM   20  C7  UNL     1       5.763   1.552   0.473  1.00  0.00     0.059 A 
HETATM   21  C8  UNL     1       7.071   1.118   0.459  1.00  0.00     0.110 A 
HETATM   22  N1  UNL     1       7.015  -0.210   0.241  1.00  0.00    -0.311 N 
HETATM   23  N2  UNL     1       5.733  -0.593   0.125  1.00  0.00    -0.293 N 
ATOM     24  H1  UNL     1       7.822  -0.830   0.174  1.00  0.00     0.186 HD
ATOM     25  H2  UNL     1       5.417  -1.548  -0.042  1.00  0.00     0.187 HD
ENDBRANCH  18  19
ENDBRANCH   3  17
TORSDOF 2
