REMARK  9 active torsions:
REMARK  status: ('A' for Active; 'I' for Inactive)
REMARK    1  A    between atoms: C2_2  and  N1_3 
REMARK    2  A    between atoms: N1_3  and  C3_5 
REMARK    3  A    between atoms: C4_6  and  N2_7 
REMARK    4  A    between atoms: N2_7  and  C5_9 
REMARK    5  A    between atoms: C11_18  and  N4_19 
REMARK    6  A    between atoms: N4_19  and  C13_21 
REMARK    7  A    between atoms: C13_21  and  C14_22 
REMARK    8  A    between atoms: C14_22  and  C15_23 
REMARK    9  A    between atoms: C15_23  and  N5_24 
ROOT
HETATM    1  C3  UNL     1      -2.178  -1.437   0.269  1.00  0.00     0.090 C 
HETATM    2  C4  UNL     1      -1.420  -0.277   0.333  1.00  0.00     0.149 C 
HETATM    3  N3  UNL     1      -0.076  -0.153   0.111  1.00  0.00    -0.174 N 
ATOM      4  H3  UNL     1       0.341   0.741   0.371  1.00  0.00     0.186 HD
HETATM    5  C11 UNL     1       0.768  -1.072  -0.412  1.00  0.00     0.682 C 
HETATM    6  N6  UNL     1       0.364  -2.031  -1.284  1.00  0.00    -0.184 N 
ATOM      7  H6  UNL     1       1.039  -2.280  -2.007  1.00  0.00     0.185 HD
HETATM    8  C18 UNL     1      -0.829  -2.712  -1.326  1.00  0.00     0.104 A 
HETATM    9  S1  UNL     1      -1.139  -4.083  -2.294  1.00  0.00    -0.075 SA
HETATM   10  C19 UNL     1      -2.754  -4.362  -1.851  1.00  0.00    -0.012 A 
HETATM   11  C20 UNL     1      -3.689  -5.455  -2.337  1.00  0.00     0.057 C 
HETATM   12  C21 UNL     1      -3.025  -3.372  -0.947  1.00  0.00    -0.034 A 
HETATM   13  C22 UNL     1      -4.410  -3.277  -0.313  1.00  0.00     0.050 C 
HETATM   14  C23 UNL     1      -2.014  -2.501  -0.667  1.00  0.00     0.036 A 
ENDROOT
BRANCH   2  15
HETATM   15  N2  UNL     1      -2.009   0.798   0.625  1.00  0.00    -0.340 N 
ATOM     16  H2  UNL     1      -3.013   0.781   0.803  1.00  0.00     0.167 HD
BRANCH  15  17
HETATM   17  C5  UNL     1      -1.315   2.028   0.713  1.00  0.00     0.035 A 
HETATM   18  C6  UNL     1      -1.066   2.830  -0.373  1.00  0.00     0.029 A 
HETATM   19  C7  UNL     1      -0.388   4.011  -0.197  1.00  0.00     0.004 A 
HETATM   20  C8  UNL     1       0.063   4.439   1.034  1.00  0.00     0.024 A 
HETATM   21  C9  UNL     1      -0.190   3.626   2.134  1.00  0.00     0.036 A 
HETATM   22 CL1  UNL     1       0.385   4.175   3.698  1.00  0.00    -0.084 Cl
HETATM   23  C10 UNL     1      -0.867   2.444   1.966  1.00  0.00     0.053 A 
ENDBRANCH  15  17
ENDBRANCH   2  15
BRANCH   1  24
HETATM   24  N1  UNL     1      -3.071  -1.555   1.117  1.00  0.00    -0.366 N 
ATOM     25  H1  UNL     1      -3.570  -2.435   0.989  1.00  0.00     0.165 HD
BRANCH  24  26
HETATM   26  C2  UNL     1      -3.601  -0.847   2.196  1.00  0.00     0.057 C 
HETATM   27  C1  UNL     1      -4.934  -0.155   1.941  1.00  0.00     0.054 C 
ENDBRANCH  24  26
ENDBRANCH   1  24
BRANCH   5  28
HETATM   28  N4  UNL     1       2.132  -1.058  -0.052  1.00  0.00    -0.222 N 
HETATM   29  C12 UNL     1       3.011  -2.052  -0.640  1.00  0.00     0.168 C 
BRANCH  28  30
HETATM   30  C13 UNL     1       2.679  -0.129   0.863  1.00  0.00     0.142 C 
BRANCH  30  31
HETATM   31  C14 UNL     1       3.647   0.861   0.273  1.00  0.00     0.050 C 
BRANCH  31  32
HETATM   32  C15 UNL     1       3.090   1.729  -0.803  1.00  0.00     0.273 C 
BRANCH  32  33
HETATM   33  N5  UNL     1       4.134   2.624  -1.266  1.00  0.00     0.080 N 
HETATM   34  C16 UNL     1       4.484   3.580  -0.239  1.00  0.00     0.309 C 
HETATM   35  C17 UNL     1       5.286   1.926  -1.780  1.00  0.00     0.309 C 
ENDBRANCH  32  33
ENDBRANCH  31  32
ENDBRANCH  30  31
ENDBRANCH  28  30
ENDBRANCH   5  28
TORSDOF 9
