REMARK  8 active torsions:
REMARK  status: ('A' for Active; 'I' for Inactive)
REMARK    1  A    between atoms: C2_2  and  N1_3 
REMARK    2  A    between atoms: N1_3  and  C3_4 
REMARK    3  A    between atoms: N1_3  and  C9_14 
REMARK    4  A    between atoms: C3_4  and  C4_5 
REMARK    5  A    between atoms: C4_5  and  N2_6 
REMARK    6  A    between atoms: C9_14  and  C10_15 
REMARK    7  A    between atoms: C14_21  and  C15_22 
REMARK    8  A    between atoms: C21_29  and  O3_30 
ROOT
HETATM    1  C10 UNL     1       0.435  -1.602  -0.142  1.00  0.00     0.119 A 
HETATM    2  O1  UNL     1       0.976  -0.665   0.587  1.00  0.00    -0.308 OA
HETATM    3  C11 UNL     1       2.155  -0.171   0.362  1.00  0.00     0.107 A 
HETATM    4  C12 UNL     1       2.709   0.819   1.143  1.00  0.00     0.046 A 
HETATM    5 BR1  UNL     1       1.770   1.538   2.654  1.00  0.00    -0.048 Br
HETATM    6  C13 UNL     1       3.979   1.300   0.840  1.00  0.00     0.029 A 
HETATM    7  C14 UNL     1       4.714   0.828  -0.214  1.00  0.00    -0.052 A 
HETATM    8  C18 UNL     1       4.125  -0.164  -0.974  1.00  0.00     0.026 A 
HETATM    9  C19 UNL     1       2.888  -0.669  -0.721  1.00  0.00     0.053 A 
HETATM   10  C20 UNL     1       2.356  -1.656  -1.514  1.00  0.00     0.220 A 
HETATM   11  O2  UNL     1       2.977  -2.138  -2.501  1.00  0.00    -0.284 OA
HETATM   12  C21 UNL     1       1.112  -2.145  -1.238  1.00  0.00     0.149 A 
ENDROOT
BRANCH   1  13
HETATM   13  C9  UNL     1      -0.905  -2.114   0.182  1.00  0.00     0.340 C 
BRANCH  13  14
HETATM   14  N1  UNL     1      -1.474  -1.400   1.309  1.00  0.00     0.096 N 
BRANCH  14  15
HETATM   15  C2  UNL     1      -2.675  -2.089   1.761  1.00  0.00     0.268 C 
HETATM   16  C1  UNL     1      -2.325  -3.493   2.254  1.00  0.00     0.037 C 
ENDBRANCH  14  15
BRANCH  14  17
HETATM   17  C3  UNL     1      -1.807  -0.042   1.008  1.00  0.00     0.303 C 
BRANCH  17  18
HETATM   18  C4  UNL     1      -2.619   0.228  -0.183  1.00  0.00     0.302 C 
BRANCH  18  19
HETATM   19  N2  UNL     1      -3.954  -0.247  -0.272  1.00  0.00     0.093 N 
HETATM   20  C5  UNL     1      -4.369   0.042  -1.664  1.00  0.00     0.300 C 
HETATM   21  C6  UNL     1      -4.363   1.513  -1.946  1.00  0.00     0.262 C 
HETATM   22  N3  UNL     1      -5.083   2.301  -0.997  1.00  0.00    -0.072 N 
HETATM   23  C7  UNL     1      -4.823   1.978   0.370  1.00  0.00     0.262 C 
ATOM     24  H32 UNL     1      -4.917   3.294  -1.163  1.00  0.00     0.277 HD
ATOM     25  H31 UNL     1      -6.084   2.255  -1.187  1.00  0.00     0.277 HD
HETATM   26  C8  UNL     1      -4.871   0.498   0.593  1.00  0.00     0.300 C 
ENDBRANCH  18  19
ENDBRANCH  17  18
ENDBRANCH  14  17
ENDBRANCH  13  14
ENDBRANCH   1  13
BRANCH  12  27
HETATM   27  O3  UNL     1       0.486  -3.127  -1.962  1.00  0.00    -0.355 OA
ATOM     28  H3  UNL     1       0.946  -3.496  -2.707  1.00  0.00     0.218 HD
ENDBRANCH  12  27
BRANCH   7  29
HETATM   29  C15 UNL     1       6.063   1.332  -0.561  1.00  0.00     0.010 C 
HETATM   30  C16 UNL     1       5.862   2.622  -1.378  1.00  0.00     0.015 C 
HETATM   31  C17 UNL     1       6.941   1.581   0.617  1.00  0.00     0.015 C 
ENDBRANCH   7  29
TORSDOF 8
