REMARK  8 active torsions:
REMARK  status: ('A' for Active; 'I' for Inactive)
REMARK    1  A    between atoms: C2_2  and  N1_3 
REMARK    2  A    between atoms: C3_4  and  N2_5 
REMARK    3  A    between atoms: N2_5  and  N3_7 
REMARK       I    between atoms: N3_7  and  C4_9 
REMARK    4  A    between atoms: C4_9  and  C5_11 
REMARK    5  A    between atoms: C5_11  and  O2_12 
REMARK    6  A    between atoms: O2_12  and  C6_13 
REMARK    7  A    between atoms: C10_17  and  C11_18 
REMARK    8  A    between atoms: C15_23  and  O3_24 
ROOT
HETATM    1  C11 UNL     1       7.237  -0.112   1.706  1.00  0.00     0.022 C 
HETATM    2  C12 UNL     1       7.603  -0.615   2.840  1.00  0.00     0.094 C 
HETATM    3  C13 UNL     1       8.986  -0.474   3.289  1.00  0.00     0.087 C 
HETATM    4  N4  UNL     1      10.082  -0.381   3.646  1.00  0.00    -0.192 NA
ENDROOT
BRANCH   1   5
HETATM    5  C10 UNL     1       5.892  -0.192   1.163  1.00  0.00    -0.032 A 
HETATM    6  C9  UNL     1       4.890  -0.822   1.831  1.00  0.00     0.021 A 
HETATM    7  C7  UNL     1       3.606  -0.878   1.276  1.00  0.00    -0.025 A 
HETATM    8  C6  UNL     1       3.341  -0.302   0.056  1.00  0.00     0.108 A 
HETATM    9  C8  UNL     1       2.569  -1.587   2.073  1.00  0.00     0.051 C 
HETATM   10  C15 UNL     1       4.325   0.334  -0.631  1.00  0.00     0.102 A 
HETATM   11  C14 UNL     1       5.578   0.377  -0.067  1.00  0.00     0.051 A 
BRANCH   8  12
HETATM   12  O2  UNL     1       2.068  -0.368  -0.475  1.00  0.00    -0.339 OA
BRANCH  12  13
HETATM   13  C5  UNL     1       1.641  -1.427  -1.314  1.00  0.00     0.280 C 
BRANCH  13  14
HETATM   14  C4  UNL     1       0.212  -1.218  -1.731  1.00  0.00     0.260 C 
HETATM   15  N3  UNL     1      -0.545  -0.100  -1.309  1.00  0.00    -0.254 N 
ATOM     16  H3  UNL     1      -0.121   0.600  -0.700  1.00  0.00     0.190 HD
HETATM   17  O1  UNL     1      -0.340  -2.060  -2.480  1.00  0.00    -0.269 OA
BRANCH  15  18
HETATM   18  N2  UNL     1      -1.847   0.047  -1.716  1.00  0.00    -0.129 N 
ATOM     19  H2  UNL     1      -2.062  -0.025  -2.710  1.00  0.00     0.205 HD
BRANCH  18  20
HETATM   20  C3  UNL     1      -2.825   0.277  -0.872  1.00  0.00     0.700 A 
HETATM   21  N1  UNL     1      -4.123   0.434  -1.179  1.00  0.00    -0.180 N 
HETATM   22  C23 UNL     1      -4.856   0.654  -0.083  1.00  0.00     0.081 A 
HETATM   23  C17 UNL     1      -3.975   0.636   0.978  1.00  0.00     0.098 A 
HETATM   24  C22 UNL     1      -6.219   0.876   0.152  1.00  0.00     0.039 A 
HETATM   25  N5  UNL     1      -2.750   0.405   0.464  1.00  0.00    -0.186 N 
HETATM   26  C18 UNL     1      -4.477   0.841   2.245  1.00  0.00     0.064 A 
ATOM     27  H5  UNL     1      -1.891   0.337   1.010  1.00  0.00     0.184 HD
HETATM   28 CL1  UNL     1      -3.324   0.811   3.574  1.00  0.00    -0.082 Cl
HETATM   29  C19 UNL     1      -5.822   1.060   2.481  1.00  0.00     0.033 A 
HETATM   30  C20 UNL     1      -6.708   1.079   1.425  1.00  0.00    -0.058 A 
HETATM   31  C21 UNL     1      -8.159   1.318   1.690  1.00  0.00     0.048 C 
BRANCH  21  32
HETATM   32  C2  UNL     1      -4.669   0.374  -2.516  1.00  0.00     0.143 C 
HETATM   33  C1  UNL     1      -5.048  -1.073  -2.787  1.00  0.00     0.027 C 
ENDBRANCH  21  32
ENDBRANCH  18  20
ENDBRANCH  15  18
ENDBRANCH  13  14
ENDBRANCH  12  13
ENDBRANCH   8  12
BRANCH  10  34
HETATM   34  O3  UNL     1       4.127   0.940  -1.873  1.00  0.00    -0.353 OA
HETATM   35  C16 UNL     1       5.191   1.584  -2.535  1.00  0.00     0.210 C 
ENDBRANCH  10  34
ENDBRANCH   1   5
TORSDOF 8
