REMARK  9 active torsions:
REMARK  status: ('A' for Active; 'I' for Inactive)
REMARK    1  A    between atoms: C6_6  and  N1_8 
REMARK    2  A    between atoms: C9_13  and  C10_14 
REMARK    3  A    between atoms: C10_14  and  O1_15 
REMARK    4  A    between atoms: O1_15  and  C11_16 
REMARK    5  A    between atoms: C13_18  and  N2_19 
REMARK    6  A    between atoms: C16_25  and  O4_26 
REMARK    7  A    between atoms: O4_26  and  C17_27 
REMARK    8  A    between atoms: C17_27  and  C18_28 
REMARK    9  A    between atoms: C18_28  and  O5_29 
ROOT
HETATM    1  C10 UNL     1      -0.330  -0.655  -1.331  1.00  0.00     0.181 C 
ENDROOT
BRANCH   1   2
HETATM    2  C9  UNL     1       0.891  -0.935  -0.484  1.00  0.00     0.020 C 
HETATM    3  C8  UNL     1       1.858  -1.617  -1.459  1.00  0.00     0.046 C 
HETATM    4  C6  UNL     1       3.272  -1.627  -1.039  1.00  0.00     0.124 C 
HETATM    5  C5  UNL     1       3.505  -1.312   0.416  1.00  0.00     0.072 C 
HETATM    6  C7  UNL     1       3.799  -3.058  -1.241  1.00  0.00     0.046 C 
HETATM    7  C4  UNL     1       2.751  -0.115   0.835  1.00  0.00    -0.076 C 
HETATM    8  C3  UNL     1       2.941   0.713   1.842  1.00  0.00    -0.019 C 
HETATM    9  C19 UNL     1       1.560   0.283   0.023  1.00  0.00     0.021 C 
HETATM   10  C2  UNL     1       1.905   1.791   1.861  1.00  0.00     0.005 C 
HETATM   11  C1  UNL     1       2.464   2.992   1.158  1.00  0.00     0.014 C 
HETATM   12  C20 UNL     1       0.816   1.096   1.042  1.00  0.00     0.017 C 
BRANCH   4  13
HETATM   13  N1  UNL     1       4.119  -0.800  -1.898  1.00  0.00    -0.070 N 
ATOM     14  H13 UNL     1       3.995   0.194  -1.704  1.00  0.00     0.275 HD
ATOM     15  H12 UNL     1       5.104  -0.885  -1.648  1.00  0.00     0.275 HD
ATOM     16  H11 UNL     1       3.961  -1.013  -2.883  1.00  0.00     0.275 HD
ENDBRANCH   4  13
ENDBRANCH   1   2
BRANCH   1  17
HETATM   17  O1  UNL     1      -1.400  -0.055  -0.766  1.00  0.00    -0.348 OA
BRANCH  17  18
HETATM   18  C11 UNL     1      -2.289  -0.352   0.204  1.00  0.00     0.105 A 
HETATM   19  C12 UNL     1      -2.228  -1.553   0.868  1.00  0.00     0.075 A 
HETATM   20  C13 UNL     1      -3.151  -1.863   1.880  1.00  0.00     0.107 A 
HETATM   21  C14 UNL     1      -4.108  -0.918   2.173  1.00  0.00     0.058 A 
HETATM   22  C15 UNL     1      -4.166   0.286   1.504  1.00  0.00     0.049 A 
HETATM   23 BR1  UNL     1      -5.518   1.584   1.937  1.00  0.00    -0.048 Br
HETATM   24  C16 UNL     1      -3.284   0.597   0.527  1.00  0.00     0.119 A 
BRANCH  20  25
HETATM   25  N2  UNL     1      -3.064  -3.109   2.549  1.00  0.00    -0.116 N 
HETATM   26  O2  UNL     1      -2.181  -3.910   2.238  1.00  0.00    -0.532 OA
HETATM   27  O3  UNL     1      -3.957  -3.421   3.537  1.00  0.00    -0.532 OA
ENDBRANCH  20  25
BRANCH  24  28
HETATM   28  O4  UNL     1      -3.265   1.765  -0.189  1.00  0.00    -0.345 OA
BRANCH  28  29
HETATM   29  C17 UNL     1      -3.926   2.029  -1.378  1.00  0.00     0.201 C 
BRANCH  29  30
HETATM   30  C18 UNL     1      -3.596   3.469  -1.789  1.00  0.00     0.190 C 
BRANCH  30  31
HETATM   31  O5  UNL     1      -4.267   3.734  -2.994  1.00  0.00    -0.399 OA
ATOM     32  H5  UNL     1      -4.063   4.626  -3.249  1.00  0.00     0.209 HD
ENDBRANCH  30  31
ENDBRANCH  29  30
ENDBRANCH  28  29
ENDBRANCH  24  28
ENDBRANCH  17  18
ENDBRANCH   1  17
TORSDOF 9
