REMARK  9 active torsions:
REMARK  status: ('A' for Active; 'I' for Inactive)
REMARK    1  A    between atoms: C2_2  and  C3_3 
REMARK    2  A    between atoms: C3_3  and  N1_4 
REMARK    3  A    between atoms: C5_7  and  N3_8 
REMARK    4  A    between atoms: N3_8  and  C7_10 
REMARK    5  A    between atoms: C7_10  and  C8_11 
REMARK    6  A    between atoms: C8_11  and  N4_12 
REMARK    7  A    between atoms: N4_12  and  C9_13 
REMARK    8  A    between atoms: N4_12  and  C15_20 
REMARK    9  A    between atoms: C9_13  and  C11_16 
ROOT
HETATM    1  C8  UNL     1      -0.364  -1.103   0.149  1.00  0.00     0.090 C 
ENDROOT
BRANCH   1   2
HETATM    2  C7  UNL     1       0.741  -0.327   0.695  1.00  0.00     0.167 C 
BRANCH   2   3
HETATM    3  N3  UNL     1       1.311   0.755  -0.035  1.00  0.00    -0.373 N 
HETATM    4  C6  UNL     1       0.731   2.028  -0.323  1.00  0.00     0.150 C 
BRANCH   3   5
HETATM    5  C5  UNL     1       2.650   0.579  -0.568  1.00  0.00     0.141 A 
HETATM    6  C4  UNL     1       3.736   0.927   0.198  1.00  0.00     0.154 A 
HETATM    7  N1  UNL     1       4.964   0.749  -0.332  1.00  0.00    -0.285 N 
HETATM    8  N2  UNL     1       3.609   1.463   1.514  1.00  0.00    -0.080 NA
HETATM    9  C24 UNL     1       5.074   0.243  -1.574  1.00  0.00     0.330 A 
HETATM   10  N5  UNL     1       4.003  -0.096  -2.318  1.00  0.00    -0.273 N 
HETATM   11  O2  UNL     1       6.217   0.075  -2.078  1.00  0.00    -0.246 OA
HETATM   12  C23 UNL     1       2.749   0.065  -1.830  1.00  0.00     0.279 A 
ATOM     13  H5  UNL     1       4.137  -0.476  -3.255  1.00  0.00     0.173 HD
HETATM   14  O1  UNL     1       1.752  -0.255  -2.534  1.00  0.00    -0.265 OA
BRANCH   7  15
HETATM   15  C3  UNL     1       6.114   1.112   0.454  1.00  0.00     0.135 C 
BRANCH  15  16
HETATM   16  C2  UNL     1       6.644   0.021   1.329  1.00  0.00     0.016 C 
HETATM   17  C1  UNL     1       7.097  -1.209   0.621  1.00  0.00     0.006 C 
ENDBRANCH  15  16
ENDBRANCH   7  15
ENDBRANCH   3   5
ENDBRANCH   2   3
ENDBRANCH   1   2
BRANCH   1  18
HETATM   18  N4  UNL     1      -1.650  -0.683  -0.158  1.00  0.00    -0.325 N 
BRANCH  18  19
HETATM   19  C9  UNL     1      -2.430  -1.675  -0.913  1.00  0.00     0.050 C 
HETATM   20  C10 UNL     1      -2.049  -1.778  -2.169  1.00  0.00     0.214 C 
HETATM   21  F1  UNL     1      -2.547  -2.578  -3.114  1.00  0.00    -0.217 F 
BRANCH  19  22
HETATM   22  C11 UNL     1      -3.517  -2.469  -0.402  1.00  0.00    -0.006 C 
HETATM   23  C12 UNL     1      -3.800  -3.751  -1.183  1.00  0.00     0.021 C 
HETATM   24  C13 UNL     1      -4.804  -1.621  -0.589  1.00  0.00     0.021 C 
HETATM   25  C14 UNL     1      -3.504  -2.852   1.037  1.00  0.00     0.021 C 
ENDBRANCH  19  22
ENDBRANCH  18  19
BRANCH  18  26
HETATM   26  C15 UNL     1      -2.343   0.484   0.111  1.00  0.00     0.044 A 
HETATM   27  C16 UNL     1      -2.845   1.188  -1.010  1.00  0.00     0.031 A 
HETATM   28  C17 UNL     1      -3.574   2.341  -0.901  1.00  0.00     0.009 A 
HETATM   29  C18 UNL     1      -3.852   2.870   0.341  1.00  0.00    -0.061 A 
HETATM   30  C19 UNL     1      -4.638   4.115   0.517  1.00  0.00     0.048 C 
HETATM   31  C20 UNL     1      -3.377   2.205   1.430  1.00  0.00     0.015 A 
HETATM   32  C21 UNL     1      -2.642   1.043   1.326  1.00  0.00    -0.034 A 
HETATM   33  C22 UNL     1      -2.214   0.423   2.578  1.00  0.00     0.050 C 
ENDBRANCH  18  26
ENDBRANCH   1  18
TORSDOF 9
