REMARK  9 active torsions:
REMARK  status: ('A' for Active; 'I' for Inactive)
REMARK    1  A    between atoms: C2_2  and  C3_3 
REMARK    2  A    between atoms: C3_3  and  N1_4 
REMARK    3  A    between atoms: N1_4  and  C5_6 
REMARK    4  A    between atoms: C5_6  and  C6_7 
REMARK    5  A    between atoms: C6_7  and  C7_8 
REMARK    6  A    between atoms: C7_8  and  O1_9 
REMARK    7  A    between atoms: O1_9  and  C8_10 
REMARK    8  A    between atoms: C11_13  and  O2_14 
REMARK    9  A    between atoms: C17_23  and  O4_24 
ROOT
HETATM    1  C8  UNL     1      -0.565  -0.942  -0.287  1.00  0.00     0.095 A 
HETATM    2  C9  UNL     1      -1.100  -2.031   0.384  1.00  0.00     0.007 A 
HETATM    3  C10 UNL     1      -0.242  -3.202   0.697  1.00  0.00     0.054 C 
HETATM    4  C11 UNL     1      -2.424  -2.015   0.755  1.00  0.00     0.089 A 
HETATM    5  C12 UNL     1      -3.204  -0.906   0.451  1.00  0.00     0.064 A 
HETATM    6  C13 UNL     1      -2.688   0.176  -0.212  1.00  0.00     0.052 A 
HETATM    7  C14 UNL     1      -1.359   0.149  -0.580  1.00  0.00     0.060 A 
HETATM    8 BR1  UNL     1      -0.612   1.616  -1.492  1.00  0.00    -0.047 Br
HETATM    9  C15 UNL     1      -3.496   1.371  -0.551  1.00  0.00     0.198 A 
HETATM   10  O3  UNL     1      -2.936   2.315  -1.161  1.00  0.00    -0.286 OA
HETATM   11  C16 UNL     1      -4.901   1.431  -0.178  1.00  0.00     0.062 A 
HETATM   12  C17 UNL     1      -5.687   2.540  -0.483  1.00  0.00     0.080 A 
HETATM   13  C18 UNL     1      -7.045   2.498  -0.076  1.00  0.00     0.037 A 
HETATM   14  C19 UNL     1      -7.572   1.423   0.586  1.00  0.00     0.004 A 
HETATM   15  C20 UNL     1      -6.749   0.354   0.861  1.00  0.00     0.017 A 
HETATM   16  C21 UNL     1      -5.419   0.333   0.493  1.00  0.00     0.032 A 
HETATM   17  C22 UNL     1      -4.608  -0.852   0.826  1.00  0.00     0.197 A 
HETATM   18  O5  UNL     1      -5.110  -1.827   1.434  1.00  0.00    -0.286 OA
ENDROOT
BRANCH   1  19
HETATM   19  O1  UNL     1       0.775  -1.022  -0.633  1.00  0.00    -0.349 OA
BRANCH  19  20
HETATM   20  C7  UNL     1       1.721  -0.539   0.291  1.00  0.00     0.177 C 
BRANCH  20  21
HETATM   21  C6  UNL     1       3.147  -0.700  -0.231  1.00  0.00     0.057 C 
BRANCH  21  22
HETATM   22  C5  UNL     1       4.045  -0.143   0.851  1.00  0.00     0.274 C 
BRANCH  22  23
HETATM   23  N1  UNL     1       5.431  -0.213   0.534  1.00  0.00     0.087 N 
HETATM   24  C4  UNL     1       5.929  -1.561   0.399  1.00  0.00     0.310 C 
BRANCH  23  25
HETATM   25  C3  UNL     1       5.883   0.620  -0.528  1.00  0.00     0.298 C 
BRANCH  25  26
HETATM   26  C2  UNL     1       5.390   1.999  -0.414  1.00  0.00    -0.007 C 
HETATM   27  C1  UNL     1       6.201   3.050  -0.309  1.00  0.00     0.008 C 
ENDBRANCH  25  26
ENDBRANCH  23  25
ENDBRANCH  22  23
ENDBRANCH  21  22
ENDBRANCH  20  21
ENDBRANCH  19  20
ENDBRANCH   1  19
BRANCH   4  28
HETATM   28  O2  UNL     1      -2.997  -3.095   1.434  1.00  0.00    -0.359 OA
ATOM     29  H2  UNL     1      -3.912  -3.084   1.690  1.00  0.00     0.217 HD
ENDBRANCH   4  28
BRANCH  12  30
HETATM   30  O4  UNL     1      -5.235   3.635  -1.133  1.00  0.00    -0.360 OA
ATOM     31  H4  UNL     1      -5.771   4.391  -1.341  1.00  0.00     0.217 HD
ENDBRANCH  12  30
TORSDOF 9
