REMARK  7 active torsions:
REMARK  status: ('A' for Active; 'I' for Inactive)
REMARK    1  A    between atoms: C3_3  and  O1_4 
REMARK    2  A    between atoms: O1_4  and  C4_5 
REMARK    3  A    between atoms: C4_5  and  O2_6 
REMARK    4  A    between atoms: C4_5  and  C5_8 
REMARK    5  A    between atoms: C5_8  and  C6_9 
REMARK    6  A    between atoms: C6_9  and  C7_10 
REMARK    7  A    between atoms: C12_18  and  N1_19 
ROOT
HETATM    1  C1  UNL     1       2.135  -2.232  -0.634  1.00  0.00     0.017 C 
HETATM    2  C2  UNL     1       0.926  -1.853  -0.953  1.00  0.00    -0.055 C 
HETATM    3  C3  UNL     1       0.679  -0.503  -1.487  1.00  0.00     0.161 C 
HETATM    4  C11 UNL     1      -0.358   0.190  -0.629  1.00  0.00     0.073 C 
HETATM    5  C12 UNL     1      -1.613  -0.617  -0.473  1.00  0.00     0.233 C 
HETATM    6  C18 UNL     1      -1.405  -2.046  -0.163  1.00  0.00     0.067 C 
HETATM    7  C19 UNL     1      -0.226  -2.724  -0.811  1.00  0.00     0.029 C 
HETATM    8  C20 UNL     1      -0.198  -3.683   0.365  1.00  0.00     0.053 C 
HETATM    9  C21 UNL     1      -0.879  -2.518   1.137  1.00  0.00     0.106 C 
HETATM   10  C22 UNL     1      -1.914  -3.203   2.044  1.00  0.00     0.052 C 
HETATM   11  F1  UNL     1       0.099  -1.844   1.780  1.00  0.00    -0.243 F 
ENDROOT
BRANCH   3  12
HETATM   12  O1  UNL     1       1.836   0.259  -1.650  1.00  0.00    -0.321 OA
BRANCH  12  13
HETATM   13  C4  UNL     1       2.277   0.687  -2.877  1.00  0.00     0.178 C 
BRANCH  13  14
HETATM   14  O2  UNL     1       1.544   0.337  -3.903  1.00  0.00    -0.341 OA
ATOM     15  H2  UNL     1       1.849   0.633  -4.752  1.00  0.00     0.220 HD
ENDBRANCH  13  14
BRANCH  13  16
HETATM   16  C5  UNL     1       3.440   1.464  -3.132  1.00  0.00     0.066 C 
BRANCH  16  17
HETATM   17  C6  UNL     1       4.299   1.917  -2.302  1.00  0.00     0.042 C 
BRANCH  17  18
HETATM   18  C7  UNL     1       4.402   1.811  -0.859  1.00  0.00     0.079 A 
HETATM   19  C8  UNL     1       5.422   2.377  -0.089  1.00  0.00     0.065 A 
HETATM   20  C9  UNL     1       5.190   2.071   1.222  1.00  0.00     0.082 A 
HETATM   21 CL1  UNL     1       6.164   2.537   2.581  1.00  0.00    -0.080 Cl
HETATM   22  C10 UNL     1       4.050   1.333   1.241  1.00  0.00     0.167 A 
HETATM   23 CL2  UNL     1       3.236   0.641   2.642  1.00  0.00    -0.055 Cl
HETATM   24  O3  UNL     1       3.636   1.211   0.022  1.00  0.00    -0.297 OA
ENDBRANCH  17  18
ENDBRANCH  16  17
ENDBRANCH  13  16
ENDBRANCH  12  13
ENDBRANCH   3  12
BRANCH   5  25
HETATM   25  N1  UNL     1      -2.734   0.003   0.106  1.00  0.00     0.093 N 
HETATM   26  C13 UNL     1      -3.262   1.112  -0.706  1.00  0.00     0.273 C 
HETATM   27  C14 UNL     1      -4.274   1.923   0.063  1.00  0.00     0.030 C 
HETATM   28  C15 UNL     1      -3.529   2.775   1.088  1.00  0.00     0.003 C 
HETATM   29  C16 UNL     1      -2.323   1.958   1.496  1.00  0.00     0.030 C 
HETATM   30  C17 UNL     1      -2.708   0.471   1.436  1.00  0.00     0.273 C 
ENDBRANCH   5  25
TORSDOF 7
