REMARK  6 active torsions:
REMARK  status: ('A' for Active; 'I' for Inactive)
REMARK    1  A    between atoms: C3_3  and  C4_4 
REMARK    2  A    between atoms: C4_4  and  O2_6 
REMARK    3  A    between atoms: O2_6  and  C5_7 
REMARK    4  A    between atoms: C11_15  and  C12_16 
REMARK    5  A    between atoms: C13_17  and  C14_18 
REMARK    6  A    between atoms: C19_25  and  C21_27 
ROOT
HETATM    1  C1  UNL     1      -1.583  -1.197  -2.356  1.00  0.00     0.016 C 
HETATM    2  C2  UNL     1      -0.947  -1.391  -1.003  1.00  0.00     0.030 C 
HETATM    3  C3  UNL     1      -0.631   0.001  -0.449  1.00  0.00     0.028 C 
HETATM    4  C11 UNL     1      -1.645   0.637   0.072  1.00  0.00    -0.046 C 
HETATM    5  C17 UNL     1      -3.014  -0.032   0.103  1.00  0.00     0.040 C 
HETATM    6  C18 UNL     1      -2.766  -1.403   0.711  1.00  0.00     0.015 C 
HETATM    7  C19 UNL     1      -1.772  -2.195  -0.060  1.00  0.00    -0.024 C 
HETATM    8  C20 UNL     1      -2.493  -3.338  -0.736  1.00  0.00     0.017 C 
ENDROOT
BRANCH   3   9
HETATM    9  C4  UNL     1       0.707   0.493  -0.542  1.00  0.00     0.290 C 
HETATM   10  O1  UNL     1       1.089   1.594  -0.140  1.00  0.00    -0.260 OA
BRANCH   9  11
HETATM   11  O2  UNL     1       1.716  -0.299  -1.131  1.00  0.00    -0.309 OA
BRANCH  11  12
HETATM   12  C5  UNL     1       3.019   0.223  -1.203  1.00  0.00     0.174 C 
HETATM   13  C6  UNL     1       3.528   0.240  -2.628  1.00  0.00     0.212 C 
HETATM   14  O3  UNL     1       4.690  -0.561  -2.663  1.00  0.00    -0.318 OA
HETATM   15  C7  UNL     1       4.625  -1.414  -1.578  1.00  0.00     0.269 C 
HETATM   16  O4  UNL     1       5.014  -2.618  -1.596  1.00  0.00    -0.264 OA
HETATM   17  C8  UNL     1       4.030  -0.610  -0.484  1.00  0.00     0.069 C 
HETATM   18  C9  UNL     1       3.442  -1.465   0.604  1.00  0.00     0.028 C 
HETATM   19  C10 UNL     1       5.158   0.276   0.054  1.00  0.00     0.028 C 
ENDBRANCH  11  12
ENDBRANCH   9  11
ENDBRANCH   3   9
BRANCH   4  20
HETATM   20  C12 UNL     1      -1.537   1.951   0.636  1.00  0.00     0.004 C 
HETATM   21  C13 UNL     1      -2.503   2.665   1.171  1.00  0.00    -0.018 C 
BRANCH  21  22
HETATM   22  C14 UNL     1      -2.205   4.018   1.712  1.00  0.00     0.050 A 
HETATM   23  C15 UNL     1      -3.312   4.895   2.157  1.00  0.00     0.054 A 
HETATM   24  C16 UNL     1      -2.490   4.243   3.205  1.00  0.00     0.121 A 
HETATM   25 CL1  UNL     1      -3.112   2.821   4.061  1.00  0.00    -0.101 Cl
HETATM   26 CL2  UNL     1      -1.366   5.262   4.118  1.00  0.00    -0.101 Cl
ENDBRANCH  21  22
ENDBRANCH   4  20
BRANCH   7  27
HETATM   27  C21 UNL     1      -0.808  -2.841   0.944  1.00  0.00     0.124 C 
HETATM   28 CL3  UNL     1       0.294  -3.855  -0.020  1.00  0.00    -0.130 Cl
ENDBRANCH   7  27
TORSDOF 6
