REMARK  6 active torsions:
REMARK  status: ('A' for Active; 'I' for Inactive)
REMARK    1  A    between atoms: C8_8  and  N1_9 
REMARK    2  A    between atoms: N1_9  and  C9_10 
REMARK    3  A    between atoms: N1_9  and  C18_29 
REMARK    4  A    between atoms: C9_10  and  O1_11 
REMARK    5  A    between atoms: C9_10  and  C10_13 
REMARK    6  A    between atoms: C11_17  and  C12_18 
ROOT
HETATM    1  C10 UNL     1       1.436  -0.366  -0.580  1.00  0.00     0.179 A 
HETATM    2  N2  UNL     1       1.366   0.947  -0.498  1.00  0.00    -0.239 N 
ATOM      3  H2  UNL     1       0.488   1.438  -0.331  1.00  0.00     0.196 HD
HETATM    4  O2  UNL     1       2.469   1.557  -0.641  1.00  0.00    -0.217 OA
HETATM    5  C11 UNL     1       3.383   0.636  -0.837  1.00  0.00     0.184 A 
HETATM    6  N3  UNL     1       2.797  -0.561  -0.808  1.00  0.00    -0.316 N 
ATOM      7  H3  UNL     1       3.262  -1.460  -0.931  1.00  0.00     0.169 HD
ENDROOT
BRANCH   1   8
HETATM    8  C9  UNL     1       0.493  -1.480  -0.489  1.00  0.00     0.186 C 
BRANCH   8   9
HETATM    9  N1  UNL     1      -0.876  -1.438  -0.268  1.00  0.00    -0.349 N 
BRANCH   9  10
HETATM   10  C8  UNL     1      -1.565  -0.211  -0.087  1.00  0.00     0.092 C 
HETATM   11  C7  UNL     1      -2.040   0.124   1.309  1.00  0.00     0.017 C 
HETATM   12  C2  UNL     1      -2.790   1.435   0.948  1.00  0.00    -0.038 C 
HETATM   13  C6  UNL     1      -3.207  -0.638   1.824  1.00  0.00     0.008 C 
HETATM   14  C1  UNL     1      -3.443   2.061   2.132  1.00  0.00     0.015 C 
HETATM   15  C3  UNL     1      -1.950   2.420   0.220  1.00  0.00     0.015 C 
HETATM   16  C4  UNL     1      -3.786   0.739   0.005  1.00  0.00    -0.004 C 
HETATM   17  C5  UNL     1      -4.398  -0.249   0.932  1.00  0.00     0.006 C 
HETATM   18  C21 UNL     1      -2.806   0.007  -0.902  1.00  0.00     0.031 C 
ENDBRANCH   9  10
BRANCH   9  19
HETATM   19  C18 UNL     1      -1.634  -2.681  -0.290  1.00  0.00     0.087 A 
HETATM   20  C19 UNL     1      -1.262  -3.893  -1.048  1.00  0.00     0.027 A 
HETATM   21  C20 UNL     1      -1.141  -3.920   0.417  1.00  0.00     0.027 A 
ENDBRANCH   9  19
ENDBRANCH   8   9
BRANCH   8  22
HETATM   22  O1  UNL     1       1.029  -2.660  -0.638  1.00  0.00    -0.343 OA
ATOM     23  H1  UNL     1       1.966  -2.689  -0.789  1.00  0.00     0.219 HD
ENDBRANCH   8  22
ENDBRANCH   1   8
BRANCH   5  24
HETATM   24  C12 UNL     1       4.810   0.921  -1.050  1.00  0.00     0.041 A 
HETATM   25  C13 UNL     1       5.250   2.224  -1.050  1.00  0.00     0.043 A 
HETATM   26  C14 UNL     1       6.589   2.475  -1.250  1.00  0.00     0.056 A 
HETATM   27 CL1  UNL     1       7.250   4.094  -1.269  1.00  0.00    -0.083 Cl
HETATM   28  C15 UNL     1       7.448   1.425  -1.444  1.00  0.00     0.057 A 
HETATM   29 CL2  UNL     1       9.161   1.657  -1.705  1.00  0.00    -0.082 Cl
HETATM   30  C16 UNL     1       6.986   0.108  -1.441  1.00  0.00     0.050 A 
HETATM   31  C17 UNL     1       5.651  -0.147  -1.242  1.00  0.00     0.050 A 
HETATM   32 CL3  UNL     1       5.005  -1.763  -1.225  1.00  0.00    -0.083 Cl
ENDBRANCH   5  24
TORSDOF 6
