REMARK  4 active torsions:
REMARK  status: ('A' for Active; 'I' for Inactive)
REMARK    1  A    between atoms: C5_5  and  C6_6 
REMARK    2  A    between atoms: C6_6  and  N1_7 
REMARK    3  A    between atoms: C13_14  and  O1_15 
REMARK    4  A    between atoms: O1_15  and  C14_16 
ROOT
HETATM    1  N1  UNL     1       2.394  -0.938  -0.773  1.00  0.00     0.117 N 
HETATM    2  C7  UNL     1       2.293  -0.836   0.656  1.00  0.00     0.278 C 
HETATM    3  C8  UNL     1       1.004  -0.079   0.927  1.00  0.00     0.068 C 
HETATM    4  C9  UNL     1      -0.167  -0.770   0.236  1.00  0.00     0.067 C 
HETATM    5  C10 UNL     1      -0.486  -2.004   1.063  1.00  0.00     0.038 C 
HETATM    6  C11 UNL     1      -1.643  -2.671   0.305  1.00  0.00     0.006 C 
HETATM    7  C12 UNL     1      -2.820  -1.785   0.522  1.00  0.00     0.033 C 
HETATM    8  C13 UNL     1      -2.651  -0.398  -0.059  1.00  0.00     0.132 C 
HETATM    9  C20 UNL     1      -1.298   0.201   0.215  1.00  0.00     0.070 C 
HETATM   10  O2  UNL     1       0.104  -1.177  -1.042  1.00  0.00    -0.351 OA
HETATM   11  C21 UNL     1       1.337  -1.773  -1.240  1.00  0.00     0.441 C 
ENDROOT
BRANCH   8  12
HETATM   12  O1  UNL     1      -3.671   0.365   0.396  1.00  0.00    -0.344 OA
BRANCH  12  13
HETATM   13  C14 UNL     1      -4.751   1.040   0.089  1.00  0.00     0.092 A 
HETATM   14  C15 UNL     1      -5.445   1.686   1.144  1.00  0.00     0.064 A 
HETATM   15  C16 UNL     1      -6.573   2.415   0.964  1.00  0.00     0.058 A 
HETATM   16 CL1  UNL     1      -7.433   3.215   2.264  1.00  0.00    -0.082 Cl
HETATM   17  C17 UNL     1      -7.082   2.541  -0.303  1.00  0.00     0.057 A 
HETATM   18 CL2  UNL     1      -8.525   3.463  -0.593  1.00  0.00    -0.082 Cl
HETATM   19  C18 UNL     1      -6.434   1.927  -1.346  1.00  0.00     0.052 A 
HETATM   20  C19 UNL     1      -5.275   1.177  -1.173  1.00  0.00     0.069 A 
HETATM   21 CL3  UNL     1      -4.542   0.440  -2.609  1.00  0.00    -0.081 Cl
ENDBRANCH  12  13
ENDBRANCH   8  12
BRANCH   1  22
HETATM   22  C6  UNL     1       3.685  -1.175  -1.297  1.00  0.00     0.339 C 
BRANCH  22  23
HETATM   23  C5  UNL     1       4.580  -0.042  -0.968  1.00  0.00     0.081 A 
HETATM   24  C4  UNL     1       4.203   1.232  -0.624  1.00  0.00     0.037 A 
HETATM   25  C3  UNL     1       5.358   1.943  -0.406  1.00  0.00     0.035 A 
HETATM   26  C2  UNL     1       6.412   1.060  -0.628  1.00  0.00     0.049 A 
HETATM   27  C1  UNL     1       7.853   1.383  -0.511  1.00  0.00     0.076 C 
HETATM   28  O3  UNL     1       5.888  -0.079  -0.952  1.00  0.00    -0.318 OA
ENDBRANCH  22  23
ENDBRANCH   1  22
TORSDOF 4
