REMARK  6 active torsions:
REMARK  status: ('A' for Active; 'I' for Inactive)
REMARK    1  A    between atoms: O1_2  and  C2_3 
REMARK    2  A    between atoms: C2_3  and  C3_4 
REMARK    3  A    between atoms: C7_8  and  O2_9 
REMARK    4  A    between atoms: C9_11  and  O3_12 
REMARK    5  A    between atoms: O3_12  and  C10_13 
REMARK    6  A    between atoms: C10_13  and  C11_15 
ROOT
HETATM    1  C3  UNL     1      -1.458  -0.272   1.067  1.00  0.00     0.009 A 
HETATM    2  C4  UNL     1      -0.095  -0.424   0.649  1.00  0.00    -0.040 A 
HETATM    3  C5  UNL     1       0.361   0.085  -0.530  1.00  0.00    -0.044 A 
HETATM    4  C6  UNL     1      -0.523   0.763  -1.333  1.00  0.00     0.047 A 
HETATM    5  C7  UNL     1      -1.828   0.921  -0.951  1.00  0.00     0.103 A 
HETATM    6  C9  UNL     1      -2.320   0.399   0.269  1.00  0.00     0.121 A 
HETATM    7  C12 UNL     1       1.783  -0.135  -0.861  1.00  0.00     0.024 C 
HETATM    8  C13 UNL     1       2.364   0.804  -1.854  1.00  0.00     0.010 C 
HETATM    9  C14 UNL     1       3.731   0.231  -2.258  1.00  0.00     0.001 C 
HETATM   10  C15 UNL     1       4.384  -0.444  -1.053  1.00  0.00     0.005 C 
HETATM   11  C16 UNL     1       3.993   0.298   0.181  1.00  0.00    -0.014 C 
HETATM   12  C17 UNL     1       4.889  -0.018   1.330  1.00  0.00     0.010 C 
HETATM   13  C18 UNL     1       2.538   0.095   0.458  1.00  0.00    -0.002 C 
HETATM   14  C19 UNL     1       2.219  -1.072   1.322  1.00  0.00     0.010 C 
HETATM   15  C20 UNL     1       0.763  -1.174   1.601  1.00  0.00     0.040 C 
ENDROOT
BRANCH   6  16
HETATM   16  O3  UNL     1      -3.634   0.668   0.469  1.00  0.00    -0.272 OA
BRANCH  16  17
HETATM   17  C10 UNL     1      -4.731   0.305  -0.267  1.00  0.00     0.319 C 
HETATM   18  O4  UNL     1      -4.526  -0.421  -1.284  1.00  0.00    -0.260 OA
BRANCH  17  19
HETATM   19  C11 UNL     1      -6.068   0.760   0.130  1.00  0.00     0.276 C 
HETATM   20 CL1  UNL     1      -7.316   0.066  -0.934  1.00  0.00    -0.073 Cl
HETATM   21 CL2  UNL     1      -6.110   2.546  -0.153  1.00  0.00    -0.073 Cl
HETATM   22 CL3  UNL     1      -6.459   0.531   1.836  1.00  0.00    -0.073 Cl
ENDBRANCH  17  19
ENDBRANCH  16  17
ENDBRANCH   6  16
BRANCH   1  23
HETATM   23  C2  UNL     1      -1.772  -0.726   2.426  1.00  0.00     0.209 C 
BRANCH  23  24
HETATM   24  O1  UNL     1      -3.094  -0.792   2.737  1.00  0.00    -0.391 OA
HETATM   25  C1  UNL     1      -3.643  -2.014   2.262  1.00  0.00     0.201 C 
ENDBRANCH  23  24
ENDBRANCH   1  23
BRANCH   5  26
HETATM   26  O2  UNL     1      -2.705   1.603  -1.755  1.00  0.00    -0.353 OA
HETATM   27  C8  UNL     1      -2.255   2.144  -2.981  1.00  0.00     0.210 C 
ENDBRANCH   5  26
TORSDOF 6
