REMARK  2 active torsions:
REMARK  status: ('A' for Active; 'I' for Inactive)
REMARK       I    between atoms: C2_4  and  N2_5 
REMARK       I    between atoms: C2_4  and  N3_10 
REMARK    1  A    between atoms: N2_5  and  C3_7 
REMARK    2  A    between atoms: N3_10  and  C6_12 
ROOT
HETATM    1  C1  UNL     1       0.210   3.263   1.120  1.00  0.00     0.165 C 
HETATM    2  N1  UNL     1       0.778   1.951   1.160  1.00  0.00    -0.231 N 
ATOM      3  H1  UNL     1       1.636   1.805   1.692  1.00  0.00     0.177 HD
HETATM    4  C2  UNL     1       0.242   0.931   0.543  1.00  0.00     0.670 C 
HETATM    5  N2  UNL     1      -0.944   1.049  -0.214  1.00  0.00    -0.222 N 
ATOM      6  H2  UNL     1      -0.993   1.740  -0.962  1.00  0.00     0.178 HD
HETATM    7  N3  UNL     1       0.862  -0.339   0.629  1.00  0.00    -0.222 N 
ATOM      8  H3  UNL     1       0.453  -1.040   1.247  1.00  0.00     0.178 HD
ENDROOT
BRANCH   5   9
HETATM    9  C3  UNL     1      -2.082   0.215   0.049  1.00  0.00     0.099 A 
HETATM   10  C4  UNL     1      -1.990  -1.264  -0.056  1.00  0.00     0.028 A 
HETATM   11  C5  UNL     1      -2.789  -0.499  -1.041  1.00  0.00     0.028 A 
ENDBRANCH   5   9
BRANCH   7  12
HETATM   12  C6  UNL     1       2.040  -0.684  -0.114  1.00  0.00     0.099 A 
HETATM   13  C7  UNL     1       2.553  -2.104   0.119  1.00  0.00     0.028 A 
HETATM   14  C8  UNL     1       2.020  -1.692  -1.193  1.00  0.00     0.028 A 
ENDBRANCH   7  12
TORSDOF 2
