REMARK  2 active torsions:
REMARK  status: ('A' for Active; 'I' for Inactive)
REMARK    1  A    between atoms: C2_2  and  N1_4 
REMARK    2  A    between atoms: N1_4  and  C5_6 
ROOT
HETATM    1  C5  UNL     1       0.532  -0.267  -0.356  1.00  0.00     0.247 C 
HETATM    2  C6  UNL     1       1.461  -1.434  -0.269  1.00  0.00     0.157 C 
HETATM    3  N2  UNL     1       2.710  -0.962   0.261  1.00  0.00    -0.378 N 
ATOM      4  H2  UNL     1       3.419  -1.536   0.718  1.00  0.00     0.160 HD
HETATM    5  C7  UNL     1       2.791   0.430   0.042  1.00  0.00     0.072 C 
HETATM    6  N3  UNL     1       3.841   1.161   0.097  1.00  0.00    -0.389 N 
ATOM      7  H31 UNL     1       3.900   2.167  -0.061  1.00  0.00     0.157 HD
ATOM      8  H32 UNL     1       4.779   0.823   0.313  1.00  0.00     0.157 HD
HETATM    9  C8  UNL     1       1.438   0.918  -0.269  1.00  0.00     0.113 C 
ENDROOT
BRANCH   1  10
HETATM   10  N1  UNL     1      -0.496  -0.261   0.627  1.00  0.00     0.094 N 
HETATM   11  C4  UNL     1      -0.860  -1.542   1.146  1.00  0.00     0.310 C 
BRANCH  10  12
HETATM   12  C2  UNL     1      -1.662   0.484   0.321  1.00  0.00     0.215 C 
HETATM   13  C1  UNL     1      -1.438   1.857  -0.225  1.00  0.00     0.042 C 
HETATM   14  C3  UNL     1      -2.616  -0.232  -0.609  1.00  0.00     0.042 C 
ENDBRANCH  10  12
ENDBRANCH   1  10
TORSDOF 2
