REMARK  2 active torsions:
REMARK  status: ('A' for Active; 'I' for Inactive)
REMARK    1  A    between atoms: N1_2  and  C2_4 
REMARK    2  A    between atoms: N2_7  and  N3_9 
ROOT
HETATM    1  C2  UNL     1      -1.052   0.086   0.582  1.00  0.00     0.082 C 
HETATM    2  C3  UNL     1       0.174   0.925   0.395  1.00  0.00     0.079 C 
HETATM    3  C4  UNL     1       1.199   0.069  -0.253  1.00  0.00     0.011 C 
HETATM    4  N2  UNL     1       2.442   0.280  -0.368  1.00  0.00    -0.295 N 
ATOM      5  H2  UNL     1       2.964  -0.448  -0.855  1.00  0.00     0.187 HD
HETATM    6  C5  UNL     1       0.500  -1.137  -0.779  1.00  0.00     0.031 C 
HETATM    7  C6  UNL     1       1.384  -2.369  -0.701  1.00  0.00     0.016 C 
HETATM    8  C7  UNL     1      -0.630  -1.315   0.176  1.00  0.00     0.035 C 
ENDROOT
BRANCH   4   9
HETATM    9  N3  UNL     1       3.188   1.344   0.066  1.00  0.00    -0.249 N 
HETATM   10  N4  UNL     1       3.031   1.940   1.172  1.00  0.00    -0.331 N 
ATOM     11  H42 UNL     1       2.287   1.588   1.775  1.00  0.00     0.178 HD
ATOM     12  H41 UNL     1       3.586   2.732   1.495  1.00  0.00     0.178 HD
ATOM     13  H3  UNL     1       3.927   1.682  -0.550  1.00  0.00     0.207 HD
ENDBRANCH   4   9
BRANCH   1  14
HETATM   14  N1  UNL     1      -2.166   0.450  -0.224  1.00  0.00    -0.421 N 
HETATM   15  C1  UNL     1      -2.725   1.738  -0.011  1.00  0.00     0.140 C 
ATOM     16  H1  UNL     1      -2.547  -0.186  -0.924  1.00  0.00     0.153 HD
ENDBRANCH   1  14
TORSDOF 2
