REMARK  2 active torsions:
REMARK  status: ('A' for Active; 'I' for Inactive)
REMARK    1  A    between atoms: C1_4  and  N2_5 
REMARK    2  A    between atoms: N2_5  and  C2_7 
ROOT
HETATM    1  C2  UNL     1       1.083  -0.146  -0.489  1.00  0.00     0.085 C 
HETATM    2  C3  UNL     1       0.379  -1.217   0.271  1.00  0.00     0.053 C 
HETATM    3  C4  UNL     1      -1.093  -1.132   0.304  1.00  0.00     0.239 C 
HETATM    4  N3  UNL     1      -1.656   0.172   0.358  1.00  0.00    -0.064 N 
HETATM    5  C5  UNL     1      -0.661   1.215   0.473  1.00  0.00     0.239 C 
HETATM    6  C6  UNL     1       0.211   1.048  -0.780  1.00  0.00     0.053 C 
HETATM    7  C7  UNL     1      -2.731   0.514  -0.576  1.00  0.00     0.265 A 
HETATM    8  C8  UNL     1      -2.973   0.386   0.881  1.00  0.00     0.265 A 
ENDROOT
BRANCH   1   9
HETATM    9  N2  UNL     1       2.242   0.335   0.237  1.00  0.00    -0.382 N 
ATOM     10  H2  UNL     1       2.290   1.319   0.502  1.00  0.00     0.160 HD
BRANCH   9  11
HETATM   11  C1  UNL     1       3.316  -0.532   0.590  1.00  0.00     0.169 C 
HETATM   12  N1  UNL     1       4.417  -0.398  -0.071  1.00  0.00    -0.396 N 
ATOM     13  H12 UNL     1       4.498   0.301  -0.809  1.00  0.00     0.156 HD
ATOM     14  H11 UNL     1       5.186  -1.019   0.182  1.00  0.00     0.156 HD
ENDBRANCH   9  11
ENDBRANCH   1   9
TORSDOF 2
