REMARK  3 active torsions:
REMARK  status: ('A' for Active; 'I' for Inactive)
REMARK    1  A    between atoms: C2_2  and  N1_3 
REMARK    2  A    between atoms: C3_5  and  N2_6 
REMARK    3  A    between atoms: N2_6  and  C4_8 
ROOT
HETATM    1  C4  UNL     1       1.056  -0.640  -0.189  1.00  0.00     0.284 C 
HETATM    2  C5  UNL     1       1.099   0.744   0.389  1.00  0.00     0.054 C 
HETATM    3  C6  UNL     1       2.483   1.221   0.714  1.00  0.00     0.005 C 
HETATM    4  C7  UNL     1       3.457   0.159   0.246  1.00  0.00     0.028 C 
HETATM    5  C8  UNL     1       3.146  -0.059  -1.234  1.00  0.00     0.235 C 
HETATM    6  N3  UNL     1       1.947  -0.848  -1.292  1.00  0.00    -0.054 N 
ATOM      7  H31 UNL     1       1.462  -0.697  -2.177  1.00  0.00     0.279 HD
ATOM      8  H32 UNL     1       2.175  -1.838  -1.386  1.00  0.00     0.279 HD
ENDROOT
BRANCH   1   9
HETATM    9  N2  UNL     1      -0.293  -0.889  -0.665  1.00  0.00    -0.359 N 
ATOM     10  H2  UNL     1      -0.456  -1.100  -1.650  1.00  0.00     0.162 HD
BRANCH   9  11
HETATM   11  C3  UNL     1      -1.387  -0.839   0.243  1.00  0.00     0.172 C 
HETATM   12  N1  UNL     1      -2.500  -0.365  -0.159  1.00  0.00    -0.387 N 
ATOM     13  H1  UNL     1      -2.602  -0.028  -1.116  1.00  0.00     0.160 HD
BRANCH  12  14
HETATM   14  C2  UNL     1      -3.611  -0.311   0.756  1.00  0.00     0.116 C 
HETATM   15  C1  UNL     1      -4.810   0.309   0.069  1.00  0.00     0.026 C 
ENDBRANCH  12  14
ENDBRANCH   9  11
ENDBRANCH   1   9
TORSDOF 3
