REMARK  2 active torsions:
REMARK  status: ('A' for Active; 'I' for Inactive)
REMARK    1  A    between atoms: C2_2  and  C3_3 
REMARK    2  A    between atoms: C3_3  and  N1_4 
ROOT
HETATM    1  N1  UNL     1      -0.395   0.386   0.129  1.00  0.00     0.089 N 
HETATM    2  C4  UNL     1       0.684   0.954  -0.623  1.00  0.00     0.279 C 
HETATM    3  C5  UNL     1       1.678  -0.143  -0.896  1.00  0.00     0.047 C 
HETATM    4  C6  UNL     1       3.067   0.389  -0.646  1.00  0.00     0.239 C 
HETATM    5  N2  UNL     1       3.269   0.370   0.772  1.00  0.00    -0.074 N 
ATOM      6  H21 UNL     1       3.330   1.306   1.173  1.00  0.00     0.277 HD
ATOM      7  H22 UNL     1       4.201   0.047   1.032  1.00  0.00     0.277 HD
HETATM    8  C7  UNL     1       2.225  -0.418   1.362  1.00  0.00     0.239 C 
HETATM    9  C8  UNL     1       1.455  -1.069   0.253  1.00  0.00     0.047 C 
HETATM   10  C9  UNL     1      -0.028  -0.943   0.517  1.00  0.00     0.279 C 
ENDROOT
BRANCH   1  11
HETATM   11  C3  UNL     1      -1.645   0.478  -0.558  1.00  0.00     0.272 C 
BRANCH  11  12
HETATM   12  C2  UNL     1      -2.745  -0.138   0.284  1.00  0.00     0.026 C 
HETATM   13  C1  UNL     1      -4.034  -0.006  -0.504  1.00  0.00     0.007 C 
ENDBRANCH  11  12
ENDBRANCH   1  11
TORSDOF 2
