REMARK  8 active torsions:
REMARK  status: ('A' for Active; 'I' for Inactive)
REMARK    1  A    between atoms: N1_1  and  C1_5 
REMARK    2  A    between atoms: C1_5  and  C2_6 
REMARK    3  A    between atoms: C2_6  and  C3_7 
REMARK    4  A    between atoms: C3_7  and  C4_8 
REMARK    5  A    between atoms: C4_8  and  N2_9 
REMARK    6  A    between atoms: C6_11  and  N3_12 
REMARK    7  A    between atoms: C8_17  and  C9_18 
REMARK    8  A    between atoms: C9_18  and  N4_19 
ROOT
HETATM    1  N2  UNL     1      -0.051  -0.245   0.163  1.00  0.00     0.096 N 
HETATM    2  C5  UNL     1      -0.774  -1.501   0.145  1.00  0.00     0.305 C 
HETATM    3  C6  UNL     1      -2.242  -1.136   0.174  1.00  0.00     0.213 C 
HETATM    4  C7  UNL     1      -2.247   0.138   0.994  1.00  0.00     0.072 C 
HETATM    5  C8  UNL     1      -0.933   0.795   0.554  1.00  0.00     0.250 C 
ENDROOT
BRANCH   1   6
HETATM    6  C4  UNL     1       0.678  -0.031  -1.059  1.00  0.00     0.273 C 
BRANCH   6   7
HETATM    7  C3  UNL     1       1.793  -1.011  -1.154  1.00  0.00     0.032 C 
BRANCH   7   8
HETATM    8  C2  UNL     1       2.796  -0.993  -0.051  1.00  0.00     0.029 C 
BRANCH   8   9
HETATM    9  C1  UNL     1       3.570   0.253   0.162  1.00  0.00     0.229 C 
BRANCH   9  10
HETATM   10  N1  UNL     1       2.803   1.416   0.505  1.00  0.00    -0.079 N 
ATOM     11  H13 UNL     1       2.079   1.573  -0.196  1.00  0.00     0.274 HD
ATOM     12  H12 UNL     1       2.226   1.222   1.323  1.00  0.00     0.274 HD
ATOM     13  H11 UNL     1       3.336   2.273   0.652  1.00  0.00     0.274 HD
ENDBRANCH   9  10
ENDBRANCH   8   9
ENDBRANCH   7   8
ENDBRANCH   6   7
ENDBRANCH   1   6
BRANCH   5  14
HETATM   14  C9  UNL     1      -1.287   1.797  -0.491  1.00  0.00     0.265 C 
BRANCH  14  15
HETATM   15  N4  UNL     1      -2.195   2.762   0.133  1.00  0.00    -0.077 N 
ATOM     16  H43 UNL     1      -3.011   2.325   0.563  1.00  0.00     0.274 HD
ATOM     17  H42 UNL     1      -1.812   3.183   0.979  1.00  0.00     0.274 HD
ATOM     18  H41 UNL     1      -2.437   3.448  -0.582  1.00  0.00     0.274 HD
ENDBRANCH  14  15
ENDBRANCH   5  14
BRANCH   3  19
HETATM   19  N3  UNL     1      -3.048  -2.166   0.797  1.00  0.00    -0.073 N 
ATOM     20  H33 UNL     1      -2.901  -3.071   0.350  1.00  0.00     0.274 HD
ATOM     21  H32 UNL     1      -2.704  -2.390   1.731  1.00  0.00     0.274 HD
ATOM     22  H31 UNL     1      -4.038  -1.920   0.817  1.00  0.00     0.274 HD
ENDBRANCH   3  19
TORSDOF 8
