REMARK  7 active torsions:
REMARK  status: ('A' for Active; 'I' for Inactive)
REMARK    1  A    between atoms: N1_1  and  C1_5 
REMARK    2  A    between atoms: C1_5  and  C2_6 
REMARK    3  A    between atoms: C2_6  and  N2_7 
REMARK    4  A    between atoms: C2_6  and  C3_11 
REMARK    5  A    between atoms: N2_7  and  N3_8 
REMARK    6  A    between atoms: C6_14  and  N4_15 
REMARK    7  A    between atoms: N4_15  and  C7_17 
ROOT
HETATM    1  C3  UNL     1      -0.173   0.254  -0.064  1.00  0.00    -0.020 A 
HETATM    2  C4  UNL     1       0.130  -0.154  -1.285  1.00  0.00     0.014 A 
HETATM    3  C5  UNL     1       0.819  -1.448  -1.480  1.00  0.00     0.049 A 
HETATM    4  C6  UNL     1       1.133  -2.196  -0.450  1.00  0.00     0.106 A 
HETATM    5  N5  UNL     1       0.805  -1.752   0.854  1.00  0.00    -0.352 N 
ATOM      6  H5  UNL     1       1.049  -2.333   1.656  1.00  0.00     0.166 HD
HETATM    7  C8  UNL     1       0.195  -0.610   1.050  1.00  0.00     0.098 A 
ENDROOT
BRANCH   1   8
HETATM    8  C2  UNL     1      -0.849   1.524   0.118  1.00  0.00     0.158 C 
BRANCH   8   9
HETATM    9  C1  UNL     1      -0.109   2.530   0.944  1.00  0.00     0.257 C 
BRANCH   9  10
HETATM   10  N1  UNL     1      -0.894   3.757   0.962  1.00  0.00    -0.077 N 
ATOM     11  H13 UNL     1      -1.115   4.099   0.027  1.00  0.00     0.274 HD
ATOM     12  H12 UNL     1      -1.851   3.610   1.282  1.00  0.00     0.274 HD
ATOM     13  H11 UNL     1      -0.390   4.442   1.525  1.00  0.00     0.274 HD
ENDBRANCH   9  10
ENDBRANCH   8   9
BRANCH   8  14
HETATM   14  N2  UNL     1      -2.153   1.324   0.768  1.00  0.00    -0.137 NA
BRANCH  14  15
HETATM   15  N3  UNL     1      -2.932   0.410   0.091  1.00  0.00    -0.348 N 
ATOM     16  H32 UNL     1      -2.626  -0.063  -0.759  1.00  0.00     0.172 HD
ATOM     17  H31 UNL     1      -3.836   0.271   0.542  1.00  0.00     0.172 HD
ENDBRANCH  14  15
ENDBRANCH   8  14
ENDBRANCH   1   8
BRANCH   4  18
HETATM   18  N4  UNL     1       1.797  -3.445  -0.619  1.00  0.00    -0.320 N 
ATOM     19  H4  UNL     1       1.357  -4.184  -1.168  1.00  0.00     0.169 HD
BRANCH  18  20
HETATM   20  C7  UNL     1       3.056  -3.664  -0.033  1.00  0.00     0.354 C 
HETATM   21  O1  UNL     1       3.659  -2.802   0.655  1.00  0.00    -0.283 OA
ENDBRANCH  18  20
ENDBRANCH   4  18
TORSDOF 7
