REMARK  2 active torsions:
REMARK  status: ('A' for Active; 'I' for Inactive)
REMARK    1  A    between atoms: C3_3  and  C4_4 
REMARK    2  A    between atoms: C12_20  and  O1_21 
ROOT
HETATM    1  C1  UNL     1       1.364  -1.842  -1.562  1.00  0.00     0.071 C 
HETATM    2  C2  UNL     1       1.273  -0.796  -0.499  1.00  0.00     0.056 A 
HETATM    3  C3  UNL     1       0.163  -0.463   0.282  1.00  0.00     0.056 A 
HETATM    4  N2  UNL     1       0.631   0.454   1.135  1.00  0.00    -0.192 N 
ATOM      5  H2  UNL     1       0.073   0.908   1.858  1.00  0.00     0.184 HD
HETATM    6  C10 UNL     1       1.939   0.699   0.912  1.00  0.00     0.691 A 
HETATM    7  N3  UNL     1       2.956   1.446   1.367  1.00  0.00    -0.197 N 
ATOM      8  H3  UNL     1       2.904   2.124   2.127  1.00  0.00     0.183 HD
HETATM    9  C11 UNL     1       4.050   1.152   0.655  1.00  0.00     0.163 A 
HETATM   10  C12 UNL     1       3.653   0.206  -0.251  1.00  0.00     0.179 A 
HETATM   11  N4  UNL     1       2.348  -0.087  -0.109  1.00  0.00    -0.127 N 
ENDROOT
BRANCH   3  12
HETATM   12  C4  UNL     1      -1.203  -0.920   0.015  1.00  0.00     0.062 C 
HETATM   13  C5  UNL     1      -1.773  -1.649   1.211  1.00  0.00     0.092 C 
HETATM   14  S1  UNL     1      -3.551  -1.701   0.648  1.00  0.00    -0.116 SA
HETATM   15  C6  UNL     1      -3.488  -0.049  -0.121  1.00  0.00     0.049 C 
HETATM   16  N1  UNL     1      -4.437   0.658  -0.574  1.00  0.00    -0.396 N 
HETATM   17  C7  UNL     1      -2.070   0.340  -0.053  1.00  0.00     0.011 C 
ATOM     18  H12 UNL     1      -5.420   0.388  -0.621  1.00  0.00     0.156 HD
ATOM     19  H11 UNL     1      -4.402   1.582  -1.004  1.00  0.00     0.156 HD
HETATM   20  C8  UNL     1      -1.912   1.221   1.161  1.00  0.00     0.023 C 
HETATM   21  C9  UNL     1      -1.713   1.123  -1.265  1.00  0.00     0.023 C 
ENDBRANCH   3  12
BRANCH  10  22
HETATM   22  O1  UNL     1       4.482  -0.406  -1.212  1.00  0.00    -0.344 OA
ATOM     23  H1  UNL     1       4.206  -1.063  -1.841  1.00  0.00     0.219 HD
ENDBRANCH  10  22
TORSDOF 2
