REMARK  2 active torsions:
REMARK  status: ('A' for Active; 'I' for Inactive)
REMARK    1  A    between atoms: C4_7  and  C5_8 
REMARK    2  A    between atoms: C12_15  and  O1_16 
ROOT
HETATM    1  N1  UNL     1       5.810  -0.094  -1.905  1.00  0.00    -0.191 NA
HETATM    2  C1  UNL     1       4.839  -0.129  -1.275  1.00  0.00     0.104 C 
HETATM    3  C2  UNL     1       3.613  -0.123  -0.463  1.00  0.00     0.101 A 
HETATM    4  C3  UNL     1       3.714  -0.195   0.914  1.00  0.00     0.110 A 
HETATM    5  N2  UNL     1       4.898  -0.415   1.720  1.00  0.00    -0.093 NA
HETATM    6  S1  UNL     1       2.077  -0.019   1.410  1.00  0.00    -0.076 SA
HETATM    7  C4  UNL     1       1.329   0.126  -0.111  1.00  0.00     0.017 A 
HETATM    8  C13 UNL     1       2.392   0.031  -0.981  1.00  0.00     0.083 A 
HETATM    9  N3  UNL     1       2.134   0.167  -2.417  1.00  0.00    -0.100 NA
ENDROOT
BRANCH   7  10
HETATM   10  C5  UNL     1      -0.152   0.165  -0.451  1.00  0.00     0.056 C 
HETATM   11  C6  UNL     1      -0.776   1.283   0.309  1.00  0.00     0.012 C 
HETATM   12  C7  UNL     1      -1.576   1.083   1.501  1.00  0.00     0.001 C 
HETATM   13  C8  UNL     1      -3.065   1.016   1.286  1.00  0.00     0.000 C 
HETATM   14  C9  UNL     1      -3.491   0.758  -0.120  1.00  0.00     0.000 C 
HETATM   15  C10 UNL     1      -2.899  -0.444  -0.787  1.00  0.00     0.002 C 
HETATM   16  C11 UNL     1      -2.123  -1.348   0.076  1.00  0.00     0.032 C 
HETATM   17  C12 UNL     1      -0.643  -1.173   0.092  1.00  0.00     0.127 C 
BRANCH  17  18
HETATM   18  O1  UNL     1       0.056  -2.165  -0.573  1.00  0.00    -0.395 OA
ATOM     19  H1  UNL     1      -0.250  -2.998  -0.235  1.00  0.00     0.210 HD
ENDBRANCH  17  18
ENDBRANCH   7  10
TORSDOF 2
