REMARK  1 active torsions:
REMARK  status: ('A' for Active; 'I' for Inactive)
REMARK    1  A    between atoms: C7_17  and  C8_18 
ROOT
HETATM    1  N1  UNL     1       0.704  -0.690  -2.374  1.00  0.00    -0.388 N 
ATOM      2  H11 UNL     1       1.708  -0.871  -2.368  1.00  0.00     0.157 HD
ATOM      3  H12 UNL     1       0.242  -0.599  -3.279  1.00  0.00     0.157 HD
HETATM    4  C1  UNL     1       0.038  -0.577  -1.286  1.00  0.00     0.085 C 
HETATM    5  N2  UNL     1      -1.358  -0.325  -1.295  1.00  0.00    -0.331 N 
ATOM      6  H2  UNL     1      -1.911  -0.540  -2.125  1.00  0.00     0.168 HD
HETATM    7  C2  UNL     1      -1.981   0.225  -0.150  1.00  0.00     0.116 A 
HETATM    8  N3  UNL     1      -3.327   0.463  -0.164  1.00  0.00    -0.319 N 
ATOM      9  H3  UNL     1      -3.867   0.244  -1.001  1.00  0.00     0.170 HD
HETATM   10  C3  UNL     1      -3.948   0.981   0.907  1.00  0.00     0.177 A 
HETATM   11  S1  UNL     1      -5.558   1.247   0.840  1.00  0.00    -0.040 SA
HETATM   12  N4  UNL     1      -3.214   1.260   1.993  1.00  0.00    -0.342 N 
ATOM     13  H4  UNL     1      -3.695   1.654   2.802  1.00  0.00     0.167 HD
HETATM   14  C4  UNL     1      -1.908   1.061   2.091  1.00  0.00     0.101 A 
HETATM   15  C5  UNL     1      -1.258   0.517   0.966  1.00  0.00     0.003 A 
HETATM   16  C6  UNL     1       0.190   0.280   1.026  1.00  0.00     0.061 C 
HETATM   17  C7  UNL     1       0.715  -0.710   0.040  1.00  0.00     0.099 C 
ENDROOT
BRANCH  17  18
HETATM   18  C8  UNL     1       2.186  -0.530  -0.170  1.00  0.00     0.011 A 
HETATM   19  C9  UNL     1       3.208  -1.426   0.003  1.00  0.00     0.103 A 
HETATM   20  N5  UNL     1       4.410  -1.029  -0.246  1.00  0.00    -0.368 N 
HETATM   21  C10 UNL     1       4.629   0.213  -0.656  1.00  0.00     0.138 A 
ATOM     22  H5  UNL     1       5.193  -1.672  -0.127  1.00  0.00     0.165 HD
HETATM   23  S2  UNL     1       3.042   0.854  -0.690  1.00  0.00    -0.087 SA
ENDBRANCH  17  18
TORSDOF 1
