REMARK  2 active torsions:
REMARK  status: ('A' for Active; 'I' for Inactive)
REMARK    1  A    between atoms: C6_7  and  N2_8 
REMARK    2  A    between atoms: C7_9  and  N3_10 
ROOT
HETATM    1  C1  UNL     1      -2.409  -0.618   1.257  1.00  0.00     0.311 C 
HETATM    2  N1  UNL     1      -1.818  -0.133   0.042  1.00  0.00     0.102 N 
HETATM    3  C2  UNL     1      -1.247   1.151   0.172  1.00  0.00     0.155 C 
HETATM    4  C3  UNL     1      -1.999   1.962   1.243  1.00  0.00     0.049 C 
HETATM    5  C4  UNL     1      -1.286   2.029  -1.032  1.00  0.00     0.049 C 
HETATM    6  C5  UNL     1       0.165   1.002   0.750  1.00  0.00     0.067 C 
HETATM    7  C6  UNL     1       0.965   0.241  -0.274  1.00  0.00     0.115 C 
HETATM    8  C9  UNL     1       0.411  -1.134  -0.399  1.00  0.00     0.067 C 
HETATM    9  C10 UNL     1      -1.085  -1.156  -0.598  1.00  0.00     0.155 C 
HETATM   10  C11 UNL     1      -1.539  -2.507  -0.047  1.00  0.00     0.049 C 
HETATM   11  C12 UNL     1      -1.431  -1.290  -2.091  1.00  0.00     0.049 C 
ENDROOT
BRANCH   7  12
HETATM   12  N2  UNL     1       2.376   0.250  -0.086  1.00  0.00    -0.150 N 
HETATM   13  C7  UNL     1       3.145  -0.149   0.936  1.00  0.00     0.695 A 
HETATM   14  N4  UNL     1       4.467   0.054   0.670  1.00  0.00    -0.130 N 
HETATM   15  N5  UNL     1       4.521   0.585  -0.529  1.00  0.00    -0.261 N 
ATOM     16  H4  UNL     1       5.255  -0.163   1.280  1.00  0.00     0.205 HD
HETATM   17  C8  UNL     1       3.292   0.709  -0.996  1.00  0.00     0.208 A 
ATOM     18  H5  UNL     1       5.373   0.857  -1.020  1.00  0.00     0.190 HD
HETATM   19  S1  UNL     1       2.848   1.323  -2.460  1.00  0.00    -0.038 SA
BRANCH  13  20
HETATM   20  N3  UNL     1       2.777  -0.659   2.037  1.00  0.00    -0.233 N 
ATOM     21  H32 UNL     1       1.788  -0.811   2.236  1.00  0.00     0.174 HD
ATOM     22  H31 UNL     1       3.362  -0.963   2.815  1.00  0.00     0.174 HD
ENDBRANCH  13  20
ENDBRANCH   7  12
TORSDOF 2
