REMARK  3 active torsions:
REMARK  status: ('A' for Active; 'I' for Inactive)
REMARK    1  A    between atoms: O1_1  and  C1_3 
REMARK    2  A    between atoms: C2_6  and  N2_7 
REMARK    3  A    between atoms: C7_13  and  C8_14 
ROOT
HETATM    1  C1  UNL     1      -0.018   1.917  -0.742  1.00  0.00     0.155 A 
HETATM    2  N1  UNL     1      -1.292   1.808  -0.546  1.00  0.00    -0.317 N 
ATOM      3  H1  UNL     1      -1.897   2.615  -0.698  1.00  0.00     0.170 HD
HETATM    4  C2  UNL     1      -1.815   0.666  -0.152  1.00  0.00     0.149 A 
HETATM    5  S1  UNL     1      -0.400  -0.335  -0.050  1.00  0.00    -0.054 SA
HETATM    6  C7  UNL     1       0.792   0.829  -0.533  1.00  0.00     0.042 A 
ENDROOT
BRANCH   6   7
HETATM    7  C8  UNL     1       2.200   0.587  -0.839  1.00  0.00     0.041 C 
HETATM    8  C9  UNL     1       3.179   1.071   0.209  1.00  0.00     0.012 C 
HETATM    9  C10 UNL     1       4.464   0.492  -0.476  1.00  0.00     0.024 C 
HETATM   10  C11 UNL     1       4.016  -0.953  -0.728  1.00  0.00     0.109 C 
HETATM   11  N3  UNL     1       4.442  -1.701   0.416  1.00  0.00    -0.136 NA
HETATM   12  C13 UNL     1       2.496  -0.942  -0.633  1.00  0.00     0.055 C 
HETATM   13  N4  UNL     1       3.409  -1.772   1.334  1.00  0.00    -0.318 N 
HETATM   14  C12 UNL     1       2.300  -1.353   0.762  1.00  0.00     0.083 C 
ATOM     15  H4  UNL     1       3.493  -2.096   2.297  1.00  0.00     0.181 HD
ENDBRANCH   6   7
BRANCH   1  16
HETATM   16  O1  UNL     1       0.586   3.155  -1.166  1.00  0.00    -0.345 OA
ATOM     17  H1  UNL     1       1.522   3.235  -1.310  1.00  0.00     0.219 HD
ENDBRANCH   1  16
BRANCH   4  18
HETATM   18  N2  UNL     1      -3.178   0.300   0.088  1.00  0.00    -0.361 N 
HETATM   19  C3  UNL     1      -3.860  -0.745  -0.646  1.00  0.00     0.125 C 
HETATM   20  C4  UNL     1      -4.549  -1.500   0.473  1.00  0.00     0.021 C 
HETATM   21  C5  UNL     1      -4.759  -0.463   1.573  1.00  0.00     0.021 C 
HETATM   22  C6  UNL     1      -4.169   0.805   0.992  1.00  0.00     0.125 C 
ENDBRANCH   4  18
TORSDOF 3
