REMARK  3 active torsions:
REMARK  status: ('A' for Active; 'I' for Inactive)
REMARK    1  A    between atoms: C3_4  and  C4_5 
REMARK    2  A    between atoms: N1_10  and  O2_11 
REMARK    3  A    between atoms: C12_18  and  O3_19 
ROOT
HETATM    1  C1  UNL     1       3.107  -0.557  -1.800  1.00  0.00     0.040 C 
HETATM    2  C2  UNL     1       2.612  -1.343  -0.599  1.00  0.00     0.128 C 
HETATM    3  O1  UNL     1       1.248  -1.348  -0.550  1.00  0.00    -0.361 OA
HETATM    4  C3  UNL     1       0.716  -0.085  -0.653  1.00  0.00     0.224 C 
HETATM    5  N2  UNL     1       1.167   0.852   0.321  1.00  0.00    -0.370 N 
ATOM      6  H2  UNL     1       0.557   1.591   0.672  1.00  0.00     0.158 HD
HETATM    7  C12 UNL     1       2.503   0.712   0.782  1.00  0.00     0.221 C 
HETATM    8  C13 UNL     1       3.116  -0.632   0.638  1.00  0.00     0.059 C 
HETATM    9  C14 UNL     1       4.613  -0.462   0.493  1.00  0.00     0.017 C 
ENDROOT
BRANCH   4  10
HETATM   10  C4  UNL     1      -0.780  -0.068  -0.681  1.00  0.00     0.060 C 
HETATM   11  C5  UNL     1      -1.334   1.338  -0.794  1.00  0.00     0.038 C 
HETATM   12  C6  UNL     1      -2.777   1.076  -0.337  1.00  0.00     0.032 C 
HETATM   13  C7  UNL     1      -3.619   0.573  -1.479  1.00  0.00     0.034 C 
HETATM   14  C8  UNL     1      -3.335   2.409   0.117  1.00  0.00     0.034 C 
HETATM   15  N1  UNL     1      -2.605   0.149   0.715  1.00  0.00    -0.182 NA
HETATM   16  C9  UNL     1      -1.475  -0.713   0.439  1.00  0.00     0.040 C 
HETATM   17  C10 UNL     1      -0.708  -0.869   1.712  1.00  0.00     0.035 C 
HETATM   18  C11 UNL     1      -2.013  -2.094   0.065  1.00  0.00     0.035 C 
BRANCH  15  19
HETATM   19  O2  UNL     1      -3.691  -0.493   1.124  1.00  0.00    -0.312 OA
ATOM     20  H2  UNL     1      -3.575  -1.116   1.831  1.00  0.00     0.237 HD
ENDBRANCH  15  19
ENDBRANCH   4  10
BRANCH   7  21
HETATM   21  O3  UNL     1       2.505   1.028   2.162  1.00  0.00    -0.377 OA
ATOM     22  H3  UNL     1       3.399   0.934   2.470  1.00  0.00     0.212 HD
ENDBRANCH   7  21
TORSDOF 3
