REMARK  5 active torsions:
REMARK  status: ('A' for Active; 'I' for Inactive)
REMARK    1  A    between atoms: O1_2  and  C2_3 
REMARK       I    between atoms: C2_3  and  N1_5 
REMARK    2  A    between atoms: N1_5  and  C3_7 
REMARK    3  A    between atoms: C5_10  and  C6_11 
REMARK    4  A    between atoms: N3_14  and  C9_15 
REMARK    5  A    between atoms: C13_19  and  O3_20 
ROOT
HETATM    1  C3  UNL     1       1.445   0.201   0.188  1.00  0.00     0.115 A 
HETATM    2  C4  UNL     1       0.538   0.720   1.093  1.00  0.00     0.104 A 
HETATM    3  N2  UNL     1       0.907   1.399   2.290  1.00  0.00    -0.097 NA
HETATM    4  C5  UNL     1      -0.765   0.512   0.616  1.00  0.00     0.065 A 
HETATM    5  N3  UNL     1      -0.673  -0.110  -0.543  1.00  0.00    -0.315 N 
HETATM    6  C13 UNL     1       0.663  -0.311  -0.821  1.00  0.00     0.173 A 
ENDROOT
BRANCH   1   7
HETATM    7  N1  UNL     1       2.850   0.274   0.372  1.00  0.00    -0.297 N 
HETATM    8  C2  UNL     1       3.878  -0.384  -0.289  1.00  0.00     0.364 C 
HETATM    9  O2  UNL     1       3.784  -1.213  -1.200  1.00  0.00    -0.238 OA
ATOM     10  H1  UNL     1       3.153   0.912   1.108  1.00  0.00     0.171 HD
BRANCH   8  11
HETATM   11  O1  UNL     1       5.194  -0.082   0.111  1.00  0.00    -0.309 OA
HETATM   12  C1  UNL     1       6.282  -0.715  -0.514  1.00  0.00     0.215 C 
ENDBRANCH   8  11
ENDBRANCH   1   7
BRANCH   6  13
HETATM   13  O3  UNL     1       1.165  -0.932  -1.951  1.00  0.00    -0.344 OA
ATOM     14  H3  UNL     1       0.625  -1.286  -2.648  1.00  0.00     0.219 HD
ENDBRANCH   6  13
BRANCH   4  15
HETATM   15  C6  UNL     1      -1.885   0.852   1.508  1.00  0.00    -0.059 C 
HETATM   16  C7  UNL     1      -2.624   2.125   1.227  1.00  0.00     0.045 C 
HETATM   17  C8  UNL     1      -1.632   0.637   2.973  1.00  0.00     0.045 C 
ENDBRANCH   4  15
BRANCH   5  18
HETATM   18  C9  UNL     1      -1.785  -0.600  -1.342  1.00  0.00     0.029 C 
HETATM   19  C10 UNL     1      -2.478  -1.746  -0.545  1.00  0.00     0.038 C 
HETATM   20  C11 UNL     1      -2.754   0.430  -1.828  1.00  0.00     0.038 C 
HETATM   21  C12 UNL     1      -1.307  -1.330  -2.610  1.00  0.00     0.038 C 
ENDBRANCH   5  18
TORSDOF 5
