REMARK  4 active torsions:
REMARK  status: ('A' for Active; 'I' for Inactive)
REMARK    1  A    between atoms: N1_2  and  C2_5 
REMARK    2  A    between atoms: C2_5  and  N2_6 
REMARK    3  A    between atoms: N2_6  and  C3_9 
REMARK    4  A    between atoms: C3_9  and  C4_10 
ROOT
HETATM    1  N2  UNL     1      -0.487  -1.024   0.428  1.00  0.00    -0.051 N 
ATOM      2  H21 UNL     1      -0.572  -2.013   0.194  1.00  0.00     0.279 HD
ATOM      3  H22 UNL     1       0.140  -1.104   1.228  1.00  0.00     0.279 HD
ENDROOT
BRANCH   1   4
HETATM    4  C2  UNL     1      -1.756  -0.463   0.809  1.00  0.00     0.462 C 
BRANCH   4   5
HETATM    5  N1  UNL     1      -2.862  -0.758  -0.022  1.00  0.00    -0.055 N 
HETATM    6  C1  UNL     1      -3.678   0.479  -0.094  1.00  0.00     0.269 C 
ATOM      7  H12 UNL     1      -3.392  -1.574   0.286  1.00  0.00     0.278 HD
ATOM      8  H11 UNL     1      -2.594  -1.119  -0.938  1.00  0.00     0.278 HD
ENDBRANCH   4   5
ENDBRANCH   1   4
BRANCH   1   9
HETATM    9  C3  UNL     1       0.100  -0.305  -0.608  1.00  0.00     0.239 C 
BRANCH   9  10
HETATM   10  C4  UNL     1       1.511   0.138  -0.526  1.00  0.00     0.015 A 
HETATM   11  C5  UNL     1       1.802   1.087   0.597  1.00  0.00     0.011 A 
HETATM   12  C6  UNL     1       2.545  -0.186   0.444  1.00  0.00    -0.013 A 
HETATM   13  C7  UNL     1       3.981  -0.035  -0.069  1.00  0.00     0.010 C 
ENDBRANCH   9  10
ENDBRANCH   1   9
TORSDOF 4
