REMARK  4 active torsions:
REMARK  status: ('A' for Active; 'I' for Inactive)
REMARK    1  A    between atoms: N2_4  and  N3_6 
REMARK    2  A    between atoms: C1_8  and  N4_9 
REMARK    3  A    between atoms: N4_9  and  C2_11 
REMARK    4  A    between atoms: C2_11  and  C3_12 
ROOT
HETATM    1  N3  UNL     1       2.988  -0.101   0.048  1.00  0.00    -0.283 N 
ATOM      2  H3  UNL     1       2.594   0.810   0.282  1.00  0.00     0.189 HD
HETATM    3  C1  UNL     1       2.162  -1.074  -0.125  1.00  0.00     0.194 C 
ENDROOT
BRANCH   3   4
HETATM    4  N4  UNL     1       0.737  -0.862   0.005  1.00  0.00    -0.385 N 
ATOM      5  H4  UNL     1       0.073  -1.635  -0.044  1.00  0.00     0.160 HD
BRANCH   4   6
HETATM    6  C2  UNL     1       0.309   0.482   0.205  1.00  0.00     0.125 C 
BRANCH   6   7
HETATM    7  C3  UNL     1      -1.121   0.779   0.118  1.00  0.00     0.003 C 
HETATM    8  C4  UNL     1      -2.102   0.128   1.047  1.00  0.00     0.006 C 
HETATM    9  C5  UNL     1      -3.102   0.377  -0.108  1.00  0.00     0.001 C 
HETATM   10  C6  UNL     1      -1.901   0.096  -1.001  1.00  0.00     0.006 C 
ENDBRANCH   6   7
ENDBRANCH   4   6
ENDBRANCH   3   4
BRANCH   1  11
HETATM   11  N2  UNL     1       4.361  -0.188  -0.057  1.00  0.00    -0.248 N 
HETATM   12  N1  UNL     1       5.061   0.868  -0.018  1.00  0.00    -0.331 N 
ATOM     13  H12 UNL     1       4.596   1.769   0.091  1.00  0.00     0.178 HD
ATOM     14  H11 UNL     1       6.076   0.804  -0.096  1.00  0.00     0.178 HD
ATOM     15  H2  UNL     1       4.810  -1.097  -0.165  1.00  0.00     0.207 HD
ENDBRANCH   1  11
TORSDOF 4
