REMARK  4 active torsions:
REMARK  status: ('A' for Active; 'I' for Inactive)
REMARK    1  A    between atoms: C1_4  and  C2_5 
REMARK    2  A    between atoms: C2_5  and  C3_6 
REMARK    3  A    between atoms: C5_8  and  N2_9 
REMARK    4  A    between atoms: N2_9  and  C6_11 
ROOT
HETATM    1  C3  UNL     1      -0.286   0.282   0.616  1.00  0.00     0.015 A 
HETATM    2  C4  UNL     1       0.426   1.589   0.246  1.00  0.00     0.032 A 
HETATM    3  C5  UNL     1       0.952   0.233  -0.196  1.00  0.00     0.088 A 
ENDROOT
BRANCH   1   4
HETATM    4  C2  UNL     1      -1.649   0.163  -0.024  1.00  0.00     0.050 C 
BRANCH   4   5
HETATM    5  C1  UNL     1      -2.350  -1.076   0.312  1.00  0.00     0.053 C 
HETATM    6  N1  UNL     1      -3.582  -1.028   0.637  1.00  0.00    -0.411 N 
ATOM      7  H12 UNL     1      -4.059  -0.127   0.658  1.00  0.00     0.155 HD
ATOM      8  H11 UNL     1      -4.071  -1.892   0.871  1.00  0.00     0.155 HD
ENDBRANCH   4   5
ENDBRANCH   1   4
BRANCH   3   9
HETATM    9  N2  UNL     1       2.150  -0.163   0.526  1.00  0.00    -0.363 N 
ATOM     10  H2  UNL     1       2.272   0.112   1.501  1.00  0.00     0.162 HD
BRANCH   9  11
HETATM   11  C6  UNL     1       3.152  -0.933  -0.125  1.00  0.00     0.348 C 
HETATM   12  O1  UNL     1       2.989  -1.265  -1.327  1.00  0.00    -0.284 OA
ENDBRANCH   9  11
ENDBRANCH   3   9
TORSDOF 4
