REMARK  4 active torsions:
REMARK  status: ('A' for Active; 'I' for Inactive)
REMARK    1  A    between atoms: N1_2  and  C2_5 
REMARK    2  A    between atoms: C2_5  and  C3_6 
REMARK    3  A    between atoms: C5_8  and  N2_9 
REMARK    4  A    between atoms: N2_9  and  C6_11 
ROOT
HETATM    1  C3  UNL     1       0.392   0.499  -0.670  1.00  0.00     0.036 A 
HETATM    2  C4  UNL     1       0.715  -0.288  -1.893  1.00  0.00     0.033 A 
HETATM    3  C5  UNL     1       0.790  -0.963  -0.573  1.00  0.00     0.090 A 
ENDROOT
BRANCH   1   4
HETATM    4  C2  UNL     1      -1.018   0.844  -0.323  1.00  0.00     0.238 C 
BRANCH   4   5
HETATM    5  N1  UNL     1      -1.066   1.604   0.897  1.00  0.00    -0.079 N 
HETATM    6  C1  UNL     1      -2.437   1.923   1.208  1.00  0.00     0.267 C 
ATOM      7  H12 UNL     1      -0.476   2.435   0.858  1.00  0.00     0.276 HD
ATOM      8  H11 UNL     1      -0.596   1.128   1.667  1.00  0.00     0.276 HD
ENDBRANCH   4   5
ENDBRANCH   1   4
BRANCH   3   9
HETATM    9  N2  UNL     1       2.059  -1.181   0.076  1.00  0.00    -0.363 N 
ATOM     10  H2  UNL     1       2.819  -0.534  -0.134  1.00  0.00     0.162 HD
BRANCH   9  11
HETATM   11  C6  UNL     1       2.319  -2.226   0.979  1.00  0.00     0.348 C 
HETATM   12  O1  UNL     1       1.407  -3.058   1.274  1.00  0.00    -0.284 OA
ENDBRANCH   9  11
ENDBRANCH   3   9
TORSDOF 4
