REMARK  14 active torsions:
REMARK  status: ('A' for Active; 'I' for Inactive)
REMARK    1  A    between atoms: C2_2  and  C3_3 
REMARK    2  A    between atoms: C3_3  and  C5_5 
REMARK    3  A    between atoms: C6_9  and  N2_10 
REMARK    4  A    between atoms: N2_10  and  C7_11 
REMARK    5  A    between atoms: C8_13  and  C9_14 
REMARK    6  A    between atoms: C9_14  and  N3_16 
REMARK    7  A    between atoms: N3_16  and  C11_18 
REMARK    8  A    between atoms: C11_18  and  C12_19 
REMARK    9  A    between atoms: C11_18  and  C13_22 
REMARK   10  A    between atoms: C12_19  and  O3_20 
REMARK   11  A    between atoms: C13_22  and  O4_23 
REMARK   12  A    between atoms: C13_22  and  O5_25 
REMARK   13  A    between atoms: O5_25  and  C14_26 
REMARK   14  A    between atoms: C18_31  and  N4_32 
ROOT
HETATM    1  C7  UNL     1      -1.052  -0.799  -1.465  1.00  0.00     0.268 A 
HETATM    2  O2  UNL     1      -0.158  -0.965  -0.566  1.00  0.00    -0.279 OA
HETATM    3  C8  UNL     1       0.938  -1.497  -0.730  1.00  0.00     0.085 A 
HETATM    4  C17 UNL     1       1.224  -1.948  -2.030  1.00  0.00     0.089 A 
HETATM    5  S1  UNL     1      -0.220  -1.513  -2.824  1.00  0.00    -0.040 SA
ENDROOT
BRANCH   3   6
HETATM    6  C9  UNL     1       1.962  -1.705   0.344  1.00  0.00     0.131 C 
HETATM    7  C10 UNL     1       1.253  -1.926   1.705  1.00  0.00     0.039 C 
BRANCH   6   8
HETATM    8  N3  UNL     1       2.836  -0.593   0.575  1.00  0.00    -0.401 N 
ATOM      9  H3  UNL     1       2.810  -0.088   1.461  1.00  0.00     0.154 HD
BRANCH   8  10
HETATM   10  C11 UNL     1       3.732  -0.210  -0.443  1.00  0.00     0.156 C 
BRANCH  10  11
HETATM   11  C12 UNL     1       4.700  -1.333  -0.862  1.00  0.00     0.193 C 
BRANCH  11  12
HETATM   12  O3  UNL     1       5.484  -1.704   0.238  1.00  0.00    -0.399 OA
ATOM     13  H3  UNL     1       6.081  -2.396  -0.020  1.00  0.00     0.209 HD
ENDBRANCH  11  12
ENDBRANCH  10  11
BRANCH  10  14
HETATM   14  C13 UNL     1       4.728   0.753   0.201  1.00  0.00     0.281 C 
BRANCH  14  15
HETATM   15  O4  UNL     1       4.246   1.396   1.274  1.00  0.00    -0.369 OA
ATOM     16  H4  UNL     1       4.865   1.995   1.674  1.00  0.00     0.212 HD
ENDBRANCH  14  15
BRANCH  14  17
HETATM   17  O5  UNL     1       5.945   1.026  -0.111  1.00  0.00    -0.355 OA
BRANCH  17  18
HETATM   18  C14 UNL     1       7.046   1.756   0.239  1.00  0.00     0.116 C 
HETATM   19  C15 UNL     1       7.543   2.721  -0.821  1.00  0.00     0.039 C 
HETATM   20  C16 UNL     1       8.182   0.753   0.478  1.00  0.00     0.039 C 
ENDBRANCH  17  18
ENDBRANCH  14  17
ENDBRANCH  10  14
ENDBRANCH   8  10
ENDBRANCH   6   8
ENDBRANCH   3   6
BRANCH   1  21
HETATM   21  N2  UNL     1      -2.145  -0.290  -1.345  1.00  0.00    -0.351 NA
BRANCH  21  22
HETATM   22  C6  UNL     1      -3.311   0.250  -1.229  1.00  0.00     0.232 A 
HETATM   23  N1  UNL     1      -3.838   1.402  -1.678  1.00  0.00    -0.231 N 
HETATM   24  O1  UNL     1      -5.046   1.586  -1.323  1.00  0.00    -0.233 OA
ATOM     25  H1  UNL     1      -3.318   2.067  -2.250  1.00  0.00     0.197 HD
HETATM   26  C5  UNL     1      -5.477   0.528  -0.579  1.00  0.00     0.132 A 
HETATM   27  C18 UNL     1      -4.422  -0.281  -0.512  1.00  0.00     0.125 A 
BRANCH  26  28
HETATM   28  C3  UNL     1      -6.850   0.438  -0.055  1.00  0.00    -0.046 C 
HETATM   29  C4  UNL     1      -7.209  -0.823   0.610  1.00  0.00     0.046 C 
BRANCH  28  30
HETATM   30  C2  UNL     1      -7.319   1.677   0.644  1.00  0.00     0.032 C 
HETATM   31  C1  UNL     1      -7.078   3.013   0.095  1.00  0.00     0.010 C 
ENDBRANCH  28  30
ENDBRANCH  26  28
BRANCH  27  32
HETATM   32  N4  UNL     1      -4.284  -1.458   0.281  1.00  0.00    -0.388 N 
HETATM   33  C19 UNL     1      -3.722  -1.280   1.648  1.00  0.00     0.146 C 
ATOM     34  H4  UNL     1      -4.557  -2.376  -0.071  1.00  0.00     0.159 HD
ENDBRANCH  27  32
ENDBRANCH  21  22
ENDBRANCH   1  21
TORSDOF 14
