REMARK  13 active torsions:
REMARK  status: ('A' for Active; 'I' for Inactive)
REMARK    1  A    between atoms: C2_2  and  C3_3 
REMARK    2  A    between atoms: C3_3  and  O1_5 
REMARK    3  A    between atoms: C3_3  and  C5_7 
REMARK    4  A    between atoms: C5_7  and  O2_9 
REMARK    5  A    between atoms: O2_9  and  C7_10 
REMARK    6  A    between atoms: C7_10  and  C8_11 
REMARK    7  A    between atoms: C8_11  and  C9_12 
REMARK    8  A    between atoms: C9_12  and  C10_13 
REMARK    9  A    between atoms: C10_13  and  C11_14 
REMARK   10  A    between atoms: C11_14  and  N1_15 
REMARK   11  A    between atoms: C13_22  and  C14_23 
REMARK   12  A    between atoms: C14_23  and  O3_24 
REMARK   13  A    between atoms: C20_33  and  N5_34 
ROOT
HETATM    1  N1  UNL     1       1.235  -1.301  -0.674  1.00  0.00    -0.261 N 
HETATM    2  N2  UNL     1       1.018  -2.230   0.234  1.00  0.00    -0.238 N 
ATOM      3  H2  UNL     1       0.103  -2.671   0.326  1.00  0.00     0.208 HD
HETATM    4  N3  UNL     1       2.036  -2.580   1.035  1.00  0.00    -0.277 N 
ATOM      5  H3  UNL     1       1.900  -3.296   1.749  1.00  0.00     0.189 HD
HETATM    6  C12 UNL     1       3.256  -1.977   0.895  1.00  0.00     0.122 A 
HETATM    7  S1  UNL     1       4.803  -2.095   1.663  1.00  0.00    -0.052 SA
HETATM    8  C13 UNL     1       5.629  -0.919   0.743  1.00  0.00     0.088 A 
HETATM    9  N4  UNL     1       4.706  -0.506  -0.084  1.00  0.00    -0.346 N 
ATOM     10  H4  UNL     1       4.927   0.217  -0.769  1.00  0.00     0.166 HD
HETATM   11  C19 UNL     1       3.508  -1.010  -0.041  1.00  0.00     0.114 A 
HETATM   12  C20 UNL     1       2.411  -0.680  -0.853  1.00  0.00     0.147 A 
ENDROOT
BRANCH   1  13
HETATM   13  C11 UNL     1       0.105  -0.893  -1.545  1.00  0.00     0.152 C 
BRANCH  13  14
HETATM   14  C10 UNL     1      -0.654   0.236  -0.869  1.00  0.00     0.022 C 
BRANCH  14  15
HETATM   15  C9  UNL     1      -1.775   0.645  -1.792  1.00  0.00     0.004 C 
BRANCH  15  16
HETATM   16  C8  UNL     1      -2.558   1.773  -1.171  1.00  0.00     0.026 C 
BRANCH  16  17
HETATM   17  C7  UNL     1      -3.180   1.341   0.146  1.00  0.00     0.168 C 
BRANCH  17  18
HETATM   18  O2  UNL     1      -4.029   0.292  -0.154  1.00  0.00    -0.383 OA
BRANCH  18  19
HETATM   19  C5  UNL     1      -4.656  -0.227   0.969  1.00  0.00     0.151 C 
HETATM   20  C6  UNL     1      -4.337  -1.678   1.102  1.00  0.00     0.042 C 
BRANCH  19  21
HETATM   21  C3  UNL     1      -6.151   0.045   0.766  1.00  0.00     0.079 C 
HETATM   22  C4  UNL     1      -6.299   1.564   0.767  1.00  0.00     0.048 C 
BRANCH  21  23
HETATM   23  C2  UNL     1      -6.520  -0.521  -0.586  1.00  0.00     0.035 C 
HETATM   24  C1  UNL     1      -7.961  -0.180  -0.943  1.00  0.00     0.008 C 
ENDBRANCH  21  23
BRANCH  21  25
HETATM   25  O1  UNL     1      -6.929  -0.428   1.797  1.00  0.00    -0.388 OA
ATOM     26  H1  UNL     1      -6.697  -0.072   2.647  1.00  0.00     0.210 HD
ENDBRANCH  21  25
ENDBRANCH  19  21
ENDBRANCH  18  19
ENDBRANCH  17  18
ENDBRANCH  16  17
ENDBRANCH  15  16
ENDBRANCH  14  15
ENDBRANCH  13  14
ENDBRANCH   1  13
BRANCH  12  27
HETATM   27  N5  UNL     1       2.530   0.216  -1.795  1.00  0.00    -0.382 N 
ATOM     28  H52 UNL     1       1.733   0.456  -2.385  1.00  0.00     0.157 HD
ATOM     29  H51 UNL     1       3.424   0.688  -1.931  1.00  0.00     0.157 HD
ENDBRANCH  12  27
BRANCH   8  30
HETATM   30  C14 UNL     1       7.035  -0.439   0.812  1.00  0.00     0.106 C 
HETATM   31  C15 UNL     1       7.803  -0.705  -0.444  1.00  0.00     0.045 C 
HETATM   32  C16 UNL     1       8.393   0.628  -0.867  1.00  0.00     0.004 C 
HETATM   33  C17 UNL     1       8.299   1.510   0.367  1.00  0.00     0.004 C 
HETATM   34  C18 UNL     1       6.993   1.075   0.954  1.00  0.00     0.045 C 
BRANCH  30  35
HETATM   35  O3  UNL     1       7.663  -0.964   1.926  1.00  0.00    -0.383 OA
ATOM     36  H3  UNL     1       8.561  -0.657   1.970  1.00  0.00     0.211 HD
ENDBRANCH  30  35
ENDBRANCH   8  30
TORSDOF 13
