REMARK  6 active torsions:
REMARK  status: ('A' for Active; 'I' for Inactive)
REMARK       I    between atoms: N1_7  and  C7_8 
REMARK    1  A    between atoms: C7_8  and  C8_10 
REMARK    2  A    between atoms: C8_10  and  N2_11 
REMARK    3  A    between atoms: C8_10  and  C14_20 
REMARK    4  A    between atoms: N2_11  and  C9_14 
REMARK    5  A    between atoms: C9_14  and  C10_15 
REMARK       I    between atoms: C14_20  and  N3_22 
REMARK    6  A    between atoms: N3_22  and  C15_24 
ROOT
HETATM    1  C8  UNL     1      -0.623   0.930   0.854  1.00  0.00     0.368 C 
ENDROOT
BRANCH   1   2
HETATM    2  C7  UNL     1      -1.351   0.306  -0.270  1.00  0.00     0.260 C 
HETATM    3  N1  UNL     1      -1.786  -1.041  -0.243  1.00  0.00    -0.346 N 
HETATM    4  C2  UNL     1      -2.474  -1.667  -1.356  1.00  0.00     0.083 C 
HETATM    5  C6  UNL     1      -1.584  -1.862   0.930  1.00  0.00     0.126 C 
HETATM    6  C1  UNL     1      -3.525  -0.719  -1.886  1.00  0.00     0.032 C 
HETATM    7  C3  UNL     1      -3.165  -2.941  -0.940  1.00  0.00     0.025 C 
HETATM    8  C4  UNL     1      -2.283  -3.895  -0.208  1.00  0.00     0.004 C 
HETATM    9  C5  UNL     1      -1.084  -3.220   0.422  1.00  0.00     0.020 C 
HETATM   10  O1  UNL     1      -1.627   0.972  -1.331  1.00  0.00    -0.270 OA
ENDBRANCH   1   2
BRANCH   1  11
HETATM   11  N2  UNL     1      -0.761   2.389   0.870  1.00  0.00    -0.048 N 
ATOM     12  H22 UNL     1      -0.143   2.822   1.557  1.00  0.00     0.279 HD
ATOM     13  H21 UNL     1      -0.375   2.817   0.029  1.00  0.00     0.279 HD
BRANCH  11  14
HETATM   14  C9  UNL     1      -2.130   2.756   1.076  1.00  0.00     0.298 C 
BRANCH  14  15
HETATM   15  C10 UNL     1      -2.299   4.232   1.094  1.00  0.00     0.078 A 
HETATM   16  C11 UNL     1      -2.498   5.009  -0.029  1.00  0.00     0.036 A 
HETATM   17  C12 UNL     1      -2.610   6.322   0.378  1.00  0.00     0.027 A 
HETATM   18  C13 UNL     1      -2.472   6.294   1.747  1.00  0.00     0.142 A 
HETATM   19  O2  UNL     1      -2.294   5.055   2.107  1.00  0.00    -0.325 OA
ENDBRANCH  14  15
ENDBRANCH  11  14
ENDBRANCH   1  11
BRANCH   1  20
HETATM   20  C14 UNL     1       0.847   0.681   0.823  1.00  0.00     0.258 C 
HETATM   21  O3  UNL     1       1.550   1.500   1.516  1.00  0.00    -0.271 OA
HETATM   22  N3  UNL     1       1.492  -0.353   0.106  1.00  0.00    -0.354 N 
ATOM     23  H3  UNL     1       0.956  -1.014  -0.457  1.00  0.00     0.162 HD
BRANCH  22  24
HETATM   24  C15 UNL     1       2.937  -0.448   0.193  1.00  0.00     0.084 C 
HETATM   25  C16 UNL     1       3.568  -0.208  -1.188  1.00  0.00     0.025 C 
HETATM   26  C17 UNL     1       5.060  -0.044  -0.869  1.00  0.00     0.002 C 
HETATM   27  C18 UNL     1       5.627  -1.335  -0.379  1.00  0.00     0.000 C 
HETATM   28  C19 UNL     1       4.783  -2.133   0.529  1.00  0.00     0.002 C 
HETATM   29  C20 UNL     1       3.349  -1.809   0.624  1.00  0.00     0.025 C 
ENDBRANCH  22  24
ENDBRANCH   1  20
TORSDOF 6
