REMARK  7 active torsions:
REMARK  status: ('A' for Active; 'I' for Inactive)
REMARK    1  A    between atoms: C4_4  and  C5_5 
REMARK    2  A    between atoms: C5_5  and  N1_6 
REMARK    3  A    between atoms: N1_6  and  S1_8 
REMARK    4  A    between atoms: S1_8  and  N2_10 
REMARK    5  A    between atoms: S1_8  and  N3_15 
REMARK    6  A    between atoms: N2_10  and  C6_12 
REMARK    7  A    between atoms: N3_15  and  C8_17 
ROOT
HETATM    1  S1  UNL     1      -1.225   0.823   0.281  1.00  0.00     0.192 S 
HETATM    2  O1  UNL     1      -0.853  -0.046   1.427  1.00  0.00    -0.206 OA
ENDROOT
BRANCH   1   3
HETATM    3  N1  UNL     1      -2.907   0.660  -0.091  1.00  0.00    -0.316 N 
ATOM      4  H1  UNL     1      -3.405   1.233  -0.772  1.00  0.00     0.172 HD
BRANCH   3   5
HETATM    5  C5  UNL     1      -3.517  -0.401   0.695  1.00  0.00     0.159 C 
BRANCH   5   6
HETATM    6  C4  UNL     1      -4.961  -0.448   0.290  1.00  0.00    -0.005 C 
HETATM    7  C2  UNL     1      -5.510  -1.524  -0.235  1.00  0.00    -0.090 C 
HETATM    8  C1  UNL     1      -4.673  -2.733  -0.433  1.00  0.00     0.042 C 
HETATM    9  C3  UNL     1      -6.934  -1.571  -0.635  1.00  0.00     0.042 C 
ENDBRANCH   5   6
ENDBRANCH   3   5
ENDBRANCH   1   3
BRANCH   1  10
HETATM   10  N2  UNL     1      -1.003   2.309   0.746  1.00  0.00    -0.302 N 
ATOM     11  H2  UNL     1      -0.693   3.013   0.077  1.00  0.00     0.173 HD
BRANCH  10  12
HETATM   12  C6  UNL     1      -1.241   2.676   2.131  1.00  0.00     0.185 C 
HETATM   13  C7  UNL     1      -0.414   3.911   2.416  1.00  0.00     0.050 C 
HETATM   14 CL1  UNL     1      -2.949   3.131   2.354  1.00  0.00    -0.102 Cl
ENDBRANCH  10  12
ENDBRANCH   1  10
BRANCH   1  15
HETATM   15  N3  UNL     1      -0.325   0.535  -1.136  1.00  0.00    -0.313 N 
ATOM     16  H3  UNL     1      -0.734   0.145  -1.985  1.00  0.00     0.172 HD
BRANCH  15  17
HETATM   17  C8  UNL     1       1.068   0.892  -1.026  1.00  0.00     0.121 C 
HETATM   18  C9  UNL     1       1.726   0.582  -2.346  1.00  0.00     0.029 C 
HETATM   19  C10 UNL     1       3.230   0.555  -2.257  1.00  0.00     0.038 C 
HETATM   20  C11 UNL     1       3.577  -0.478  -1.177  1.00  0.00     0.223 C 
HETATM   21  C12 UNL     1       5.066  -0.580  -1.132  1.00  0.00     0.036 C 
HETATM   22  N4  UNL     1       3.098   0.068   0.062  1.00  0.00     0.095 N 
HETATM   23  C13 UNL     1       5.580  -1.412   0.008  1.00  0.00     0.004 C 
HETATM   24  C14 UNL     1       4.470  -1.752   0.976  1.00  0.00     0.030 C 
HETATM   25  C15 UNL     1       3.658  -0.516   1.228  1.00  0.00     0.273 C 
HETATM   26  C16 UNL     1       1.659   0.166   0.131  1.00  0.00     0.298 C 
ENDBRANCH  15  17
ENDBRANCH   1  15
TORSDOF 7
