REMARK  7 active torsions:
REMARK  status: ('A' for Active; 'I' for Inactive)
REMARK    1  A    between atoms: C2_2  and  C3_3 
REMARK    2  A    between atoms: C3_3  and  N1_6 
REMARK       I    between atoms: N1_6  and  C6_8 
REMARK    3  A    between atoms: C6_8  and  C7_10 
REMARK    4  A    between atoms: C7_10  and  N2_11 
REMARK    5  A    between atoms: N2_11  and  N3_12 
REMARK       I    between atoms: N2_11  and  C16_23 
REMARK       I    between atoms: N3_12  and  C8_14 
REMARK    6  A    between atoms: C8_14  and  C9_16 
REMARK    7  A    between atoms: C16_23  and  C17_25 
ROOT
HETATM    1  N2  UNL     1      -0.363   1.079  -0.074  1.00  0.00    -0.249 N 
HETATM    2  C16 UNL     1      -0.313   2.170   0.798  1.00  0.00     0.242 C 
HETATM    3  O3  UNL     1      -0.800   2.018   1.971  1.00  0.00    -0.271 OA
ENDROOT
BRANCH   1   4
HETATM    4  C7  UNL     1       0.188   1.159  -1.402  1.00  0.00     0.255 C 
BRANCH   4   5
HETATM    5  C6  UNL     1       1.620   0.756  -1.439  1.00  0.00     0.238 C 
HETATM    6  N1  UNL     1       2.329   0.357  -0.278  1.00  0.00    -0.351 N 
ATOM      7  H1  UNL     1       1.837   0.346   0.616  1.00  0.00     0.163 HD
HETATM    8  O1  UNL     1       2.199   0.779  -2.549  1.00  0.00    -0.272 OA
BRANCH   6   9
HETATM    9  C3  UNL     1       3.712  -0.033  -0.308  1.00  0.00     0.025 C 
HETATM   10  C4  UNL     1       4.618   1.085  -0.807  1.00  0.00     0.038 C 
HETATM   11  C5  UNL     1       3.885  -1.251  -1.224  1.00  0.00     0.038 C 
BRANCH   9  12
HETATM   12  C2  UNL     1       4.202  -0.410   1.050  1.00  0.00     0.026 C 
HETATM   13  C1  UNL     1       5.636  -0.885   0.985  1.00  0.00     0.007 C 
ENDBRANCH   9  12
ENDBRANCH   6   9
ENDBRANCH   4   5
ENDBRANCH   1   4
BRANCH   1  14
HETATM   14  N3  UNL     1      -0.950  -0.141   0.293  1.00  0.00    -0.264 N 
HETATM   15  C8  UNL     1      -2.093  -0.675  -0.348  1.00  0.00     0.245 C 
HETATM   16  O2  UNL     1      -2.603  -0.003  -1.302  1.00  0.00    -0.271 OA
ATOM     17  H3  UNL     1      -0.533  -0.669   1.059  1.00  0.00     0.190 HD
BRANCH  15  18
HETATM   18  C9  UNL     1      -2.706  -1.963   0.042  1.00  0.00     0.042 C 
HETATM   19  C10 UNL     1      -1.638  -3.027  -0.041  1.00  0.00     0.026 C 
HETATM   20  C11 UNL     1      -3.267  -1.869   1.430  1.00  0.00     0.019 C 
HETATM   21  C12 UNL     1      -4.587  -2.587   1.333  1.00  0.00     0.002 C 
HETATM   22  C13 UNL     1      -5.117  -2.110  -0.019  1.00  0.00     0.005 C 
HETATM   23  C14 UNL     1      -3.865  -2.316  -0.871  1.00  0.00    -0.001 C 
HETATM   24  C15 UNL     1      -3.831  -3.787  -1.228  1.00  0.00     0.011 C 
ENDBRANCH  15  18
ENDBRANCH   1  14
BRANCH   2  25
HETATM   25  C17 UNL     1       0.251   3.478   0.479  1.00  0.00     0.080 C 
HETATM   26  C18 UNL     1      -0.537   4.362  -0.465  1.00  0.00     0.014 C 
HETATM   27  C19 UNL     1      -0.829   5.325   0.677  1.00  0.00     0.002 C 
HETATM   28  C20 UNL     1       0.130   4.529   1.531  1.00  0.00     0.014 C 
ENDBRANCH   2  25
TORSDOF 7
