REMARK  8 active torsions:
REMARK  status: ('A' for Active; 'I' for Inactive)
REMARK    1  A    between atoms: C2_2  and  C3_3 
REMARK    2  A    between atoms: C4_4  and  C5_5 
REMARK    3  A    between atoms: C5_5  and  N1_6 
REMARK    4  A    between atoms: C9_12  and  N3_13 
REMARK    5  A    between atoms: N3_13  and  S1_15 
REMARK    6  A    between atoms: S1_15  and  N4_18 
REMARK    7  A    between atoms: C12_21  and  O3_22 
REMARK    8  A    between atoms: C13_24  and  O4_25 
ROOT
HETATM    1  C3  UNL     1      -1.272  -1.830  -0.465  1.00  0.00     0.063 C 
HETATM    2  C4  UNL     1      -1.291  -0.522   0.291  1.00  0.00     0.115 C 
HETATM    3  N2  UNL     1       0.023   0.038   0.298  1.00  0.00    -0.392 N 
ATOM      4  H2  UNL     1       0.166   1.041   0.180  1.00  0.00     0.155 HD
HETATM    5  C9  UNL     1       1.109  -0.828   0.472  1.00  0.00     0.220 C 
HETATM    6  C12 UNL     1       0.822  -2.232   0.859  1.00  0.00     0.190 C 
HETATM    7  C13 UNL     1      -0.464  -2.792   0.338  1.00  0.00     0.160 C 
ENDROOT
BRANCH   5   8
HETATM    8  N3  UNL     1       1.929  -0.806  -0.731  1.00  0.00    -0.283 N 
ATOM      9  H3  UNL     1       1.602  -1.139  -1.638  1.00  0.00     0.175 HD
BRANCH   8  10
HETATM   10  S1  UNL     1       3.492  -0.167  -0.473  1.00  0.00     0.299 S 
HETATM   11  O1  UNL     1       4.041  -0.470   0.872  1.00  0.00    -0.188 OA
HETATM   12  O2  UNL     1       4.419  -0.803  -1.492  1.00  0.00    -0.188 OA
BRANCH  10  13
HETATM   13  N4  UNL     1       3.540   1.548  -0.720  1.00  0.00    -0.202 NA
HETATM   14  C10 UNL     1       3.253   2.219   0.539  1.00  0.00     0.130 C 
HETATM   15  C11 UNL     1       4.894   1.933  -1.091  1.00  0.00     0.130 C 
ENDBRANCH  10  13
ENDBRANCH   8  10
ENDBRANCH   5   8
BRANCH   6  16
HETATM   16  O3  UNL     1       1.855  -3.039   0.382  1.00  0.00    -0.389 OA
ATOM     17  H3  UNL     1       1.671  -3.938   0.630  1.00  0.00     0.210 HD
ENDBRANCH   6  16
BRANCH   2  18
HETATM   18  C5  UNL     1      -2.199   0.431  -0.441  1.00  0.00     0.261 C 
BRANCH  18  19
HETATM   19  N1  UNL     1      -2.327   1.729   0.145  1.00  0.00    -0.077 N 
HETATM   20  C6  UNL     1      -1.927   2.735  -0.855  1.00  0.00     0.271 C 
HETATM   21  C7  UNL     1      -3.728   2.073   0.450  1.00  0.00     0.271 C 
HETATM   22  C8  UNL     1      -1.562   1.978   1.320  1.00  0.00     0.271 C 
ENDBRANCH  18  19
ENDBRANCH   2  18
BRANCH   7  23
HETATM   23  O4  UNL     1      -0.238  -3.918  -0.475  1.00  0.00    -0.392 OA
ATOM     24  H4  UNL     1       0.277  -4.531   0.037  1.00  0.00     0.210 HD
ENDBRANCH   7  23
BRANCH   1  25
HETATM   25  C2  UNL     1      -2.620  -2.397  -0.689  1.00  0.00    -0.028 C 
HETATM   26  C1  UNL     1      -3.048  -3.561  -0.247  1.00  0.00     0.007 C 
ENDBRANCH   1  25
TORSDOF 8
