REMARK  8 active torsions:
REMARK  status: ('A' for Active; 'I' for Inactive)
REMARK    1  A    between atoms: C3_4  and  C4_5 
REMARK    2  A    between atoms: C4_5  and  S1_6 
REMARK    3  A    between atoms: S1_6  and  C5_8 
REMARK    4  A    between atoms: N1_11  and  C9_13 
REMARK    5  A    between atoms: C9_13  and  C10_14 
REMARK    6  A    between atoms: C10_14  and  N2_15 
REMARK    7  A    between atoms: C13_21  and  O3_22 
REMARK    8  A    between atoms: C14_24  and  O4_25 
ROOT
HETATM    1  C5  UNL     1       0.616  -0.195   0.543  1.00  0.00     0.082 C 
HETATM    2  C6  UNL     1       1.581  -0.888   1.470  1.00  0.00     0.045 C 
HETATM    3  C7  UNL     1       2.778  -1.457   0.754  1.00  0.00     0.238 C 
HETATM    4  N1  UNL     1       3.468  -0.445  -0.049  1.00  0.00    -0.069 N 
HETATM    5  C8  UNL     1       4.434  -1.151  -0.857  1.00  0.00     0.272 C 
HETATM    6  C11 UNL     1       2.555   0.222  -0.950  1.00  0.00     0.238 C 
HETATM    7  C12 UNL     1       1.147  -0.334  -0.864  1.00  0.00     0.045 C 
ENDROOT
BRANCH   1   8
HETATM    8  S1  UNL     1      -1.004  -0.917   0.598  1.00  0.00     0.021 S 
HETATM    9  O2  UNL     1      -0.888  -2.495   0.013  1.00  0.00    -0.258 OA
BRANCH   8  10
HETATM   10  C4  UNL     1      -2.045  -0.022  -0.528  1.00  0.00     0.143 C 
BRANCH  10  11
HETATM   11  C3  UNL     1      -3.426  -0.638  -0.616  1.00  0.00     0.165 C 
HETATM   12  O1  UNL     1      -4.169   0.117  -1.511  1.00  0.00    -0.375 OA
HETATM   13  C2  UNL     1      -4.897   1.030  -0.776  1.00  0.00     0.149 C 
HETATM   14  C1  UNL     1      -6.039   1.587  -1.575  1.00  0.00     0.042 C 
HETATM   15  C14 UNL     1      -5.360   0.229   0.413  1.00  0.00     0.178 C 
HETATM   16  C13 UNL     1      -4.149  -0.644   0.688  1.00  0.00     0.179 C 
BRANCH  15  17
HETATM   17  O4  UNL     1      -6.483  -0.538   0.132  1.00  0.00    -0.390 OA
ATOM     18  H4  UNL     1      -6.775  -1.043   0.882  1.00  0.00     0.210 HD
ENDBRANCH  15  17
BRANCH  16  19
HETATM   19  O3  UNL     1      -3.415  -0.076   1.724  1.00  0.00    -0.390 OA
ATOM     20  H3  UNL     1      -3.876  -0.080   2.555  1.00  0.00     0.210 HD
ENDBRANCH  16  19
ENDBRANCH  10  11
ENDBRANCH   8  10
ENDBRANCH   1   8
BRANCH   4  21
HETATM   21  C9  UNL     1       4.038   0.497   0.856  1.00  0.00     0.264 C 
BRANCH  21  22
HETATM   22  C10 UNL     1       4.870   1.564   0.225  1.00  0.00     0.257 C 
BRANCH  22  23
HETATM   23  N2  UNL     1       6.000   1.086  -0.512  1.00  0.00    -0.078 N 
ATOM     24  H23 UNL     1       6.579   0.488   0.077  1.00  0.00     0.274 HD
ATOM     25  H22 UNL     1       5.703   0.408  -1.214  1.00  0.00     0.274 HD
ATOM     26  H21 UNL     1       6.568   1.815  -0.943  1.00  0.00     0.274 HD
ENDBRANCH  22  23
ENDBRANCH  21  22
ENDBRANCH   4  21
TORSDOF 8
