REMARK  8 active torsions:
REMARK  status: ('A' for Active; 'I' for Inactive)
REMARK    1  A    between atoms: C2_2  and  N1_3 
REMARK    2  A    between atoms: N1_3  and  C3_4 
REMARK    3  A    between atoms: N1_3  and  C5_6 
REMARK    4  A    between atoms: C9_10  and  N2_11 
REMARK    5  A    between atoms: N2_11  and  C10_13 
REMARK    6  A    between atoms: C10_13  and  C11_14 
REMARK    7  A    between atoms: C11_14  and  N3_15 
REMARK    8  A    between atoms: C13_22  and  N7_23 
ROOT
HETATM    1  C5  UNL     1       2.511   0.742   1.129  1.00  0.00     0.326 A 
HETATM    2  C6  UNL     1       1.405   1.658   0.971  1.00  0.00     0.085 A 
HETATM    3  C7  UNL     1       0.176   1.004   0.475  1.00  0.00    -0.004 A 
HETATM    4  C8  UNL     1       0.059  -0.281   0.195  1.00  0.00     0.049 A 
HETATM    5  C9  UNL     1      -1.131  -0.827  -0.268  1.00  0.00     0.130 A 
HETATM    6  N6  UNL     1      -1.207  -2.155  -0.544  1.00  0.00    -0.176 N 
ATOM      7  H6  UNL     1      -2.084  -2.548  -0.884  1.00  0.00     0.186 HD
HETATM    8  C13 UNL     1      -0.142  -2.958  -0.375  1.00  0.00     0.680 A 
HETATM    9  N8  UNL     1       0.983  -2.401   0.071  1.00  0.00    -0.176 N 
ATOM     10  H8  UNL     1       1.789  -3.013   0.198  1.00  0.00     0.186 HD
HETATM   11  C15 UNL     1       1.145  -1.089   0.370  1.00  0.00     0.132 A 
HETATM   12  N9  UNL     1       2.232  -0.609   0.789  1.00  0.00    -0.345 N 
ATOM     13  H9  UNL     1       3.003  -1.268   0.897  1.00  0.00     0.163 HD
ENDROOT
BRANCH   5  14
HETATM   14  N2  UNL     1      -2.122  -0.047  -0.416  1.00  0.00    -0.373 N 
ATOM     15  H2  UNL     1      -1.957   0.931  -0.179  1.00  0.00     0.161 HD
BRANCH  14  16
HETATM   16  C10 UNL     1      -3.433  -0.363  -0.870  1.00  0.00     0.141 C 
BRANCH  16  17
HETATM   17  C11 UNL     1      -4.234   0.876  -1.232  1.00  0.00     0.141 C 
BRANCH  17  18
HETATM   18  N3  UNL     1      -4.382   1.766  -0.120  1.00  0.00    -0.365 N 
HETATM   19  C12 UNL     1      -5.346   1.834   0.702  1.00  0.00     0.197 C 
HETATM   20  N4  UNL     1      -6.507   1.022   0.689  1.00  0.00    -0.067 NA
HETATM   21  N5  UNL     1      -5.258   2.816   1.741  1.00  0.00    -0.067 NA
ATOM     22  H3  UNL     1      -3.619   2.426   0.030  1.00  0.00     0.161 HD
ENDBRANCH  17  18
ENDBRANCH  16  17
ENDBRANCH  14  16
ENDBRANCH   5  14
BRANCH   8  23
HETATM   23  N7  UNL     1      -0.240  -4.219  -0.643  1.00  0.00    -0.230 N 
HETATM   24  C14 UNL     1      -1.462  -4.824  -1.125  1.00  0.00     0.165 C 
ATOM     25  H7  UNL     1       0.579  -4.812  -0.509  1.00  0.00     0.177 HD
ENDBRANCH   8  23
BRANCH   1  26
HETATM   26  N1  UNL     1       3.814   1.072   0.564  1.00  0.00     0.110 N 
BRANCH  26  27
HETATM   27  C2  UNL     1       3.934   1.157  -0.832  1.00  0.00     0.270 C 
HETATM   28  C1  UNL     1       3.396   2.409  -1.445  1.00  0.00     0.037 C 
ENDBRANCH  26  27
BRANCH  26  29
HETATM   29  C3  UNL     1       4.627  -0.110   1.016  1.00  0.00     0.270 C 
HETATM   30  C4  UNL     1       6.088   0.142   0.845  1.00  0.00     0.037 C 
ENDBRANCH  26  29
ENDBRANCH   1  26
TORSDOF 8
