REMARK  13 active torsions:
REMARK  status: ('A' for Active; 'I' for Inactive)
REMARK    1  A    between atoms: C5_5  and  C6_6 
REMARK    2  A    between atoms: C6_6  and  S1_7 
REMARK    3  A    between atoms: S1_7  and  C7_8 
REMARK    4  A    between atoms: C7_8  and  N1_9 
REMARK    5  A    between atoms: N1_9  and  O1_10 
REMARK    6  A    between atoms: N1_9  and  C8_12 
REMARK    7  A    between atoms: C8_12  and  C9_13 
REMARK    8  A    between atoms: C9_13  and  N2_14 
REMARK    9  A    between atoms: C10_18  and  O2_19 
REMARK   10  A    between atoms: C11_21  and  O3_22 
REMARK   11  A    between atoms: C12_24  and  O4_25 
REMARK   12  A    between atoms: C12_24  and  C13_27 
REMARK   13  A    between atoms: N3_28  and  N4_30 
ROOT
HETATM    1  C1  UNL     1      -4.188  -0.836   2.247  1.00  0.00     0.046 C 
HETATM    2  C2  UNL     1      -3.185  -0.280   1.265  1.00  0.00    -0.046 C 
HETATM    3  C3  UNL     1      -2.360   0.615   1.777  1.00  0.00    -0.020 C 
HETATM    4  C4  UNL     1      -1.258   1.396   1.211  1.00  0.00     0.035 C 
HETATM    5  C5  UNL     1      -0.302   0.568   0.351  1.00  0.00     0.030 C 
HETATM    6  C10 UNL     1      -0.965   0.072  -0.882  1.00  0.00     0.155 C 
HETATM    7  C11 UNL     1      -1.862  -1.116  -0.671  1.00  0.00     0.191 C 
HETATM    8  C12 UNL     1      -3.221  -0.775  -0.116  1.00  0.00     0.142 C 
ENDROOT
BRANCH   5   9
HETATM    9  C6  UNL     1       0.793   1.541  -0.026  1.00  0.00     0.083 C 
BRANCH   9  10
HETATM   10  S1  UNL     1       2.074   0.804  -1.026  1.00  0.00    -0.146 SA
BRANCH  10  11
HETATM   11  C7  UNL     1       2.952  -0.436  -0.010  1.00  0.00     0.228 C 
BRANCH  11  12
HETATM   12  N1  UNL     1       3.976  -1.026  -0.796  1.00  0.00    -0.265 N 
BRANCH  12  13
HETATM   13  O1  UNL     1       3.937  -2.235  -0.982  1.00  0.00    -0.287 OA
ATOM     14  H1  UNL     1       4.622  -2.630  -1.508  1.00  0.00     0.244 HD
ENDBRANCH  12  13
BRANCH  12  15
HETATM   15  C8  UNL     1       5.055  -0.342  -1.392  1.00  0.00     0.117 C 
BRANCH  15  16
HETATM   16  C9  UNL     1       6.072   0.128  -0.407  1.00  0.00     0.276 C 
BRANCH  16  17
HETATM   17  N2  UNL     1       5.557   1.056   0.523  1.00  0.00    -0.075 N 
ATOM     18  H23 UNL     1       5.122   1.845   0.045  1.00  0.00     0.274 HD
ATOM     19  H22 UNL     1       4.739   0.677   0.999  1.00  0.00     0.274 HD
ATOM     20  H21 UNL     1       6.252   1.377   1.196  1.00  0.00     0.274 HD
ENDBRANCH  16  17
ENDBRANCH  15  16
ENDBRANCH  12  15
ENDBRANCH  11  12
ENDBRANCH  10  11
ENDBRANCH   9  10
ENDBRANCH   5   9
BRANCH   6  21
HETATM   21  O2  UNL     1      -0.014  -0.308  -1.816  1.00  0.00    -0.392 OA
ATOM     22  H2  UNL     1      -0.438  -0.625  -2.605  1.00  0.00     0.210 HD
ENDBRANCH   6  21
BRANCH   7  23
HETATM   23  O3  UNL     1      -1.284  -2.147   0.031  1.00  0.00    -0.389 OA
ATOM     24  H3  UNL     1      -1.851  -2.898   0.164  1.00  0.00     0.210 HD
ENDBRANCH   7  23
BRANCH   8  25
HETATM   25  O4  UNL     1      -3.911  -2.014  -0.065  1.00  0.00    -0.377 OA
ATOM     26  H4  UNL     1      -3.934  -2.334  -0.959  1.00  0.00     0.211 HD
ENDBRANCH   8  25
BRANCH   8  27
HETATM   27  C13 UNL     1      -4.016   0.069  -1.031  1.00  0.00     0.124 C 
HETATM   28  N3  UNL     1      -4.439   1.252  -0.760  1.00  0.00    -0.319 N 
ATOM     29  H3  UNL     1      -4.214   1.646   0.153  1.00  0.00     0.185 HD
BRANCH  28  30
HETATM   30  N4  UNL     1      -5.188   2.027  -1.643  1.00  0.00    -0.346 N 
ATOM     31  H42 UNL     1      -5.404   1.617  -2.552  1.00  0.00     0.176 HD
ATOM     32  H41 UNL     1      -5.524   2.966  -1.428  1.00  0.00     0.176 HD
ENDBRANCH  28  30
ENDBRANCH   8  27
TORSDOF 13
