REMARK  8 active torsions:
REMARK  status: ('A' for Active; 'I' for Inactive)
REMARK    1  A    between atoms: C2_2  and  C3_3 
REMARK    2  A    between atoms: C3_3  and  N1_4 
REMARK    3  A    between atoms: C6_7  and  C7_8 
REMARK    4  A    between atoms: N3_11  and  C8_12 
REMARK    5  A    between atoms: C8_12  and  S1_13 
REMARK    6  A    between atoms: S1_13  and  N4_14 
REMARK    7  A    between atoms: C10_21  and  N6_22 
REMARK    8  A    between atoms: N6_22  and  O4_24 
ROOT
HETATM    1  N1  UNL     1      -1.243   0.553  -0.012  1.00  0.00    -0.327 N 
HETATM    2  C4  UNL     1      -0.296   1.204   0.711  1.00  0.00     0.042 A 
HETATM    3  C5  UNL     1      -0.662   2.520   1.267  1.00  0.00     0.071 C 
HETATM    4  C6  UNL     1       0.984   0.675   0.961  1.00  0.00     0.129 A 
HETATM    5  N3  UNL     1       1.303  -0.531   0.470  1.00  0.00    -0.289 N 
HETATM    6  C9  UNL     1       0.356  -1.183  -0.251  1.00  0.00     0.170 A 
HETATM    7  N5  UNL     1       0.603  -2.492  -0.814  1.00  0.00    -0.078 NA
HETATM    8  C10 UNL     1      -0.903  -0.643  -0.488  1.00  0.00     0.172 A 
ENDROOT
BRANCH   5   9
HETATM    9  C8  UNL     1       2.575  -1.167   0.609  1.00  0.00     0.229 C 
BRANCH   9  10
HETATM   10  S1  UNL     1       3.722  -0.831  -0.692  1.00  0.00     0.261 S 
HETATM   11  O2  UNL     1       5.035  -1.566  -0.434  1.00  0.00    -0.200 OA
HETATM   12  O3  UNL     1       3.241  -1.374  -2.014  1.00  0.00    -0.200 OA
BRANCH  10  13
HETATM   13  N4  UNL     1       4.111   0.801  -0.919  1.00  0.00    -0.324 N 
ATOM     14  H42 UNL     1       3.702   1.530  -0.335  1.00  0.00     0.169 HD
ATOM     15  H41 UNL     1       4.773   0.995  -1.670  1.00  0.00     0.169 HD
ENDBRANCH  10  13
ENDBRANCH   9  10
ENDBRANCH   5   9
BRANCH   4  16
HETATM   16  C7  UNL     1       1.934   1.504   1.722  1.00  0.00     0.283 C 
HETATM   17  N2  UNL     1       2.983   0.953   2.489  1.00  0.00    -0.056 NA
HETATM   18  O1  UNL     1       1.870   2.771   1.746  1.00  0.00    -0.269 OA
ENDBRANCH   4  16
BRANCH   8  19
HETATM   19  N6  UNL     1      -1.851  -1.383  -1.264  1.00  0.00    -0.246 N 
HETATM   20  C11 UNL     1      -2.046  -1.217  -2.688  1.00  0.00     0.187 C 
BRANCH  19  21
HETATM   21  O4  UNL     1      -2.599  -2.320  -0.646  1.00  0.00    -0.286 OA
ATOM     22  H4  UNL     1      -3.228  -2.811  -1.161  1.00  0.00     0.244 HD
ENDBRANCH  19  21
ENDBRANCH   8  19
BRANCH   1  23
HETATM   23  C3  UNL     1      -2.539   1.142  -0.260  1.00  0.00     0.157 C 
BRANCH  23  24
HETATM   24  C2  UNL     1      -3.565   0.875   0.749  1.00  0.00    -0.017 C 
HETATM   25  C1  UNL     1      -4.726   0.286   0.496  1.00  0.00     0.008 C 
ENDBRANCH  23  24
ENDBRANCH   1  23
TORSDOF 8
