REMARK  6 active torsions:
REMARK  status: ('A' for Active; 'I' for Inactive)
REMARK    1  A    between atoms: C1_2  and  C2_3 
REMARK       I    between atoms: C1_2  and  N1_9 
REMARK    2  A    between atoms: C2_3  and  C3_4 
REMARK    3  A    between atoms: C3_4  and  C4_5 
REMARK    4  A    between atoms: N1_9  and  C7_11 
REMARK    5  A    between atoms: C7_11  and  C8_12 
REMARK       I    between atoms: C8_12  and  N2_14 
REMARK    6  A    between atoms: N2_14  and  C9_16 
ROOT
HETATM    1  C7  UNL     1      -0.312  -2.096  -0.291  1.00  0.00     0.225 C 
ENDROOT
BRANCH   1   2
HETATM    2  N1  UNL     1      -1.024  -0.937   0.179  1.00  0.00    -0.352 N 
HETATM    3  C1  UNL     1      -2.424  -1.118   0.480  1.00  0.00     0.217 C 
HETATM    4  O1  UNL     1      -2.921  -2.248   0.316  1.00  0.00    -0.274 OA
ATOM      5  H1  UNL     1      -0.563  -0.034   0.293  1.00  0.00     0.162 HD
BRANCH   3   6
HETATM    6  C2  UNL     1      -3.170   0.065   0.964  1.00  0.00     0.103 C 
BRANCH   6   7
HETATM    7  C3  UNL     1      -4.619  -0.257   1.240  1.00  0.00     0.017 C 
BRANCH   7   8
HETATM    8  C4  UNL     1      -5.284   1.022   1.729  1.00  0.00     0.023 A 
HETATM    9  C5  UNL     1      -6.716   0.966   2.069  1.00  0.00     0.045 A 
HETATM   10  C6  UNL     1      -6.329   1.586   0.774  1.00  0.00     0.174 A 
HETATM   11  F1  UNL     1      -6.560   0.884  -0.400  1.00  0.00    -0.249 F 
ENDBRANCH   7   8
ENDBRANCH   6   7
ENDBRANCH   3   6
ENDBRANCH   1   2
BRANCH   1  12
HETATM   12  C8  UNL     1       1.087  -1.814  -0.564  1.00  0.00     0.235 C 
HETATM   13  O2  UNL     1       1.786  -2.808  -0.989  1.00  0.00    -0.272 OA
HETATM   14  N2  UNL     1       1.720  -0.590  -0.410  1.00  0.00    -0.355 N 
ATOM     15  H2  UNL     1       1.189   0.214  -0.075  1.00  0.00     0.162 HD
BRANCH  14  16
HETATM   16  C9  UNL     1       3.140  -0.440  -0.723  1.00  0.00     0.084 C 
HETATM   17  C10 UNL     1       3.936  -0.054   0.482  1.00  0.00     0.025 C 
HETATM   18  C11 UNL     1       5.282   0.503   0.250  1.00  0.00     0.002 C 
HETATM   19  C12 UNL     1       5.552   1.108  -1.086  1.00  0.00     0.000 C 
HETATM   20  C13 UNL     1       4.821   0.457  -2.210  1.00  0.00     0.002 C 
HETATM   21  C14 UNL     1       3.342   0.513  -1.882  1.00  0.00     0.025 C 
ENDBRANCH  14  16
ENDBRANCH   1  12
TORSDOF 6
