REMARK  6 active torsions:
REMARK  status: ('A' for Active; 'I' for Inactive)
REMARK    1  A    between atoms: C2_2  and  C4_4 
REMARK    2  A    between atoms: N1_9  and  C8_10 
REMARK    3  A    between atoms: C8_10  and  C9_11 
REMARK    4  A    between atoms: C9_11  and  N2_13 
REMARK       I    between atoms: N2_13  and  C11_15 
REMARK    5  A    between atoms: C11_15  and  C12_17 
REMARK    6  A    between atoms: C12_17  and  N3_18 
ROOT
HETATM    1  C8  UNL     1      -0.102  -1.165   1.088  1.00  0.00     0.141 C 
ENDROOT
BRANCH   1   2
HETATM    2  N1  UNL     1      -0.530  -0.426  -0.045  1.00  0.00    -0.407 N 
HETATM    3  C7  UNL     1      -0.773  -1.175  -1.227  1.00  0.00     0.117 C 
HETATM    4  C6  UNL     1      -1.816  -0.405  -2.052  1.00  0.00     0.023 C 
HETATM    5  C5  UNL     1      -3.116  -0.588  -1.286  1.00  0.00     0.052 C 
HETATM    6  C4  UNL     1      -2.931   0.099   0.047  1.00  0.00     0.141 C 
HETATM    7  F1  UNL     1      -3.225  -0.773   1.098  1.00  0.00    -0.236 F 
HETATM    8  C14 UNL     1      -1.518   0.565   0.265  1.00  0.00     0.165 C 
BRANCH   6   9
HETATM    9  C2  UNL     1      -3.849   1.251   0.096  1.00  0.00    -0.052 C 
HETATM   10  C1  UNL     1      -4.768   1.330   1.027  1.00  0.00     0.017 C 
HETATM   11  C3  UNL     1      -3.733   2.328  -0.909  1.00  0.00     0.046 C 
ENDBRANCH   6   9
ENDBRANCH   1   2
BRANCH   1  12
HETATM   12  C9  UNL     1       1.271  -1.764   0.980  1.00  0.00     0.098 C 
HETATM   13  C10 UNL     1       1.564  -2.510   2.258  1.00  0.00     0.034 C 
BRANCH  12  14
HETATM   14  N2  UNL     1       2.282  -0.761   0.696  1.00  0.00    -0.354 N 
HETATM   15  C11 UNL     1       3.134  -0.843  -0.454  1.00  0.00     0.243 C 
HETATM   16  O1  UNL     1       3.049  -1.788  -1.278  1.00  0.00    -0.272 OA
ATOM     17  H2  UNL     1       2.389   0.027   1.335  1.00  0.00     0.162 HD
BRANCH  15  18
HETATM   18  C12 UNL     1       4.150   0.191  -0.713  1.00  0.00     0.334 C 
BRANCH  18  19
HETATM   19  N3  UNL     1       4.150   1.224   0.305  1.00  0.00    -0.071 N 
HETATM   20  C13 UNL     1       5.172   2.195  -0.026  1.00  0.00     0.267 C 
ATOM     21  H32 UNL     1       3.232   1.650   0.431  1.00  0.00     0.277 HD
ATOM     22  H31 UNL     1       4.259   0.846   1.246  1.00  0.00     0.277 HD
ENDBRANCH  18  19
ENDBRANCH  15  18
ENDBRANCH  12  14
ENDBRANCH   1  12
TORSDOF 6
