REMARK  5 active torsions:
REMARK  status: ('A' for Active; 'I' for Inactive)
REMARK    1  A    between atoms: C2_2  and  C3_3 
REMARK    2  A    between atoms: C3_3  and  N1_4 
REMARK    3  A    between atoms: C3_3  and  C12_19 
REMARK       I    between atoms: N1_4  and  C4_6 
REMARK    4  A    between atoms: C4_6  and  C5_8 
REMARK    5  A    between atoms: C9_13  and  C10_14 
REMARK       I    between atoms: C10_14  and  N2_16 
ROOT
HETATM    1  C5  UNL     1       1.336   0.445  -0.722  1.00  0.00     0.093 C 
HETATM    2  C6  UNL     1       1.723  -0.835  -1.411  1.00  0.00     0.052 C 
HETATM    3  C7  UNL     1       1.976  -1.860  -0.363  1.00  0.00     0.171 C 
HETATM    4  F1  UNL     1       3.197  -2.451  -0.621  1.00  0.00    -0.249 F 
HETATM    5  C8  UNL     1       1.916  -1.205   0.977  1.00  0.00     0.052 C 
HETATM    6  C9  UNL     1       1.823   0.262   0.697  1.00  0.00     0.093 C 
ENDROOT
BRANCH   1   7
HETATM    7  C4  UNL     1      -0.093   0.749  -0.804  1.00  0.00     0.223 C 
HETATM    8  N1  UNL     1      -1.051  -0.127  -0.287  1.00  0.00    -0.356 N 
ATOM      9  H1  UNL     1      -0.697  -0.980   0.145  1.00  0.00     0.162 HD
HETATM   10  O1  UNL     1      -0.442   1.808  -1.346  1.00  0.00    -0.273 OA
BRANCH   8  11
HETATM   11  C3  UNL     1      -2.470   0.037  -0.295  1.00  0.00     0.087 C 
BRANCH  11  12
HETATM   12  C2  UNL     1      -3.074  -1.057  -1.151  1.00  0.00     0.021 C 
HETATM   13  C1  UNL     1      -2.568  -1.000  -2.572  1.00  0.00     0.007 C 
ENDBRANCH  11  12
BRANCH  11  14
HETATM   14  C12 UNL     1      -3.142   0.011   1.032  1.00  0.00     0.000 C 
HETATM   15  C13 UNL     1      -2.999  -1.274   1.775  1.00  0.00     0.011 C 
HETATM   16  C14 UNL     1      -2.714   1.150   1.938  1.00  0.00     0.011 C 
ENDBRANCH  11  14
ENDBRANCH   8  11
ENDBRANCH   1   7
BRANCH   6  17
HETATM   17  C10 UNL     1       3.213   0.830   0.783  1.00  0.00     0.222 C 
HETATM   18  O2  UNL     1       4.195   0.101   1.118  1.00  0.00    -0.273 OA
HETATM   19  N2  UNL     1       3.455   2.198   0.489  1.00  0.00    -0.365 N 
HETATM   20  C11 UNL     1       4.789   2.740   0.572  1.00  0.00     0.149 C 
ATOM     21  H2  UNL     1       2.679   2.802   0.217  1.00  0.00     0.161 HD
ENDBRANCH   6  17
TORSDOF 5
