REMARK  4 active torsions:
REMARK  status: ('A' for Active; 'I' for Inactive)
REMARK    1  A    between atoms: C2_2  and  N1_3 
REMARK    2  A    between atoms: N1_3  and  C3_4 
REMARK    3  A    between atoms: N1_3  and  C10_15 
REMARK    4  A    between atoms: C6_9  and  C7_10 
ROOT
HETATM    1  C3  UNL     1       1.042  -0.143  -0.235  1.00  0.00     0.673 C 
HETATM    2  N2  UNL     1       0.964  -1.172  -1.008  1.00  0.00    -0.226 N 
ATOM      3  H2  UNL     1       1.835  -1.498  -1.428  1.00  0.00     0.177 HD
HETATM    4  C4  UNL     1      -0.229  -1.907  -1.338  1.00  0.00     0.140 C 
HETATM    5  C5  UNL     1      -1.400  -1.573  -0.447  1.00  0.00     0.046 C 
HETATM    6  C6  UNL     1      -1.393  -0.039  -0.355  1.00  0.00     0.104 C 
HETATM    7  N3  UNL     1      -0.193   0.298   0.345  1.00  0.00    -0.221 N 
ATOM      8  H3  UNL     1      -0.214   0.828   1.217  1.00  0.00     0.178 HD
ENDROOT
BRANCH   1   9
HETATM    9  N1  UNL     1       2.267   0.520   0.033  1.00  0.00    -0.201 N 
BRANCH   9  10
HETATM   10  C2  UNL     1       3.362  -0.227   0.608  1.00  0.00     0.138 C 
HETATM   11  C1  UNL     1       3.030  -1.669   0.851  1.00  0.00     0.027 C 
ENDBRANCH   9  10
BRANCH   9  12
HETATM   12  C10 UNL     1       2.559   1.906  -0.211  1.00  0.00     0.195 C 
HETATM   13  C11 UNL     1       1.425   2.677  -0.805  1.00  0.00     0.050 C 
HETATM   14 CL1  UNL     1       4.024   1.992  -1.203  1.00  0.00    -0.102 Cl
ENDBRANCH   9  12
ENDBRANCH   1   9
BRANCH   6  15
HETATM   15  C7  UNL     1      -2.645   0.452   0.320  1.00  0.00     0.001 C 
HETATM   16  C8  UNL     1      -3.870   0.026  -0.454  1.00  0.00     0.011 C 
HETATM   17  C9  UNL     1      -2.768   0.026   1.739  1.00  0.00     0.011 C 
ENDBRANCH   6  15
TORSDOF 4
