REMARK  4 active torsions:
REMARK  status: ('A' for Active; 'I' for Inactive)
REMARK    1  A    between atoms: C2_2  and  C5_5 
REMARK    2  A    between atoms: C6_7  and  C7_8 
REMARK    3  A    between atoms: C7_8  and  C8_9 
REMARK    4  A    between atoms: C10_11  and  O1_12 
ROOT
HETATM    1  C8  UNL     1       2.057  -0.035   0.579  1.00  0.00    -0.010 C 
HETATM    2  C9  UNL     1       1.950   0.716  -0.503  1.00  0.00     0.016 C 
HETATM    3  C10 UNL     1       3.289   0.960  -1.070  1.00  0.00     0.148 C 
HETATM    4  C11 UNL     1       4.213   0.682   0.090  1.00  0.00     0.119 C 
HETATM    5  C12 UNL     1       3.454  -0.351   0.834  1.00  0.00     0.158 C 
HETATM    6  O2  UNL     1       3.862  -1.298   1.536  1.00  0.00    -0.293 OA
ENDROOT
BRANCH   1   7
HETATM    7  C7  UNL     1       0.884  -0.472   1.402  1.00  0.00     0.070 C 
BRANCH   7   8
HETATM    8  C6  UNL     1      -0.381   0.047   0.837  1.00  0.00    -0.002 C 
HETATM    9  C5  UNL     1      -1.337  -0.755   0.442  1.00  0.00     0.016 C 
HETATM   10 CL1  UNL     1      -1.106  -2.489   0.588  1.00  0.00    -0.088 Cl
BRANCH   9  11
HETATM   11  C2  UNL     1      -2.629  -0.281  -0.133  1.00  0.00    -0.013 C 
HETATM   12  C1  UNL     1      -2.711   1.214  -0.208  1.00  0.00     0.020 C 
HETATM   13  C3  UNL     1      -3.738  -0.775   0.765  1.00  0.00     0.020 C 
HETATM   14  C4  UNL     1      -2.748  -0.840  -1.530  1.00  0.00     0.020 C 
ENDBRANCH   9  11
ENDBRANCH   7   8
ENDBRANCH   1   7
BRANCH   3  15
HETATM   15  O1  UNL     1       3.574   0.107  -2.136  1.00  0.00    -0.391 OA
ATOM     16  H1  UNL     1       4.437   0.264  -2.501  1.00  0.00     0.210 HD
ENDBRANCH   3  15
TORSDOF 4
