REMARK  4 active torsions:
REMARK  status: ('A' for Active; 'I' for Inactive)
REMARK    1  A    between atoms: N1_4  and  N2_6 
REMARK       I    between atoms: N2_6  and  C3_8 
REMARK    2  A    between atoms: C3_8  and  C4_10 
REMARK    3  A    between atoms: C4_10  and  C7_13 
REMARK    4  A    between atoms: C7_13  and  C8_14 
ROOT
HETATM    1  N2  UNL     1       2.041   0.095  -0.038  1.00  0.00    -0.269 N 
ATOM      2  H2  UNL     1       1.660   1.035   0.070  1.00  0.00     0.190 HD
HETATM    3  C3  UNL     1       1.240  -1.055   0.188  1.00  0.00     0.244 C 
HETATM    4  O1  UNL     1       1.702  -2.218   0.057  1.00  0.00    -0.271 OA
ENDROOT
BRANCH   3   5
HETATM    5  C4  UNL     1      -0.187  -0.792   0.590  1.00  0.00     0.036 C 
HETATM    6  C5  UNL     1      -0.793  -2.152   0.830  1.00  0.00     0.025 C 
HETATM    7  C6  UNL     1      -0.111  -0.066   1.889  1.00  0.00     0.025 C 
BRANCH   5   8
HETATM    8  C7  UNL     1      -0.781  -0.043  -0.532  1.00  0.00     0.026 C 
BRANCH   8   9
HETATM    9  C8  UNL     1      -2.185   0.382  -0.467  1.00  0.00    -0.050 C 
HETATM   10  C9  UNL     1      -3.222  -0.681  -0.328  1.00  0.00     0.014 C 
HETATM   11  C10 UNL     1      -2.481   1.454   0.552  1.00  0.00     0.014 C 
HETATM   12  C11 UNL     1      -2.480   1.036  -1.835  1.00  0.00     0.014 C 
ENDBRANCH   8   9
ENDBRANCH   5   8
ENDBRANCH   3   5
BRANCH   1  13
HETATM   13  N1  UNL     1       3.373  -0.110  -0.415  1.00  0.00    -0.291 N 
HETATM   14  C2  UNL     1       4.297   0.754  -0.271  1.00  0.00     0.091 C 
HETATM   15  C1  UNL     1       5.667   0.426  -0.706  1.00  0.00     0.083 C 
HETATM   16 CL1  UNL     1       3.985   2.313   0.426  1.00  0.00    -0.068 Cl
ATOM     17  H1  UNL     1       3.619  -1.008  -0.831  1.00  0.00     0.187 HD
ENDBRANCH   1  13
TORSDOF 4
