REMARK  3 active torsions:
REMARK  status: ('A' for Active; 'I' for Inactive)
REMARK    1  A    between atoms: C3_3  and  C5_5 
REMARK    2  A    between atoms: C8_9  and  C9_10 
REMARK    3  A    between atoms: C10_11  and  C11_12 
ROOT
HETATM    1  C1  UNL     1       3.907  -1.717  -1.220  1.00  0.00     0.102 C 
HETATM    2  C2  UNL     1       3.124  -0.906  -0.746  1.00  0.00    -0.150 C 
HETATM    3  C3  UNL     1       2.187   0.051  -0.204  1.00  0.00     0.017 C 
HETATM    4  C4  UNL     1       2.119   1.191  -0.863  1.00  0.00     0.031 C 
ENDROOT
BRANCH   3   5
HETATM    5  C5  UNL     1       1.377  -0.221   0.991  1.00  0.00     0.161 C 
HETATM    6  F1  UNL     1       1.973  -1.213   1.759  1.00  0.00    -0.232 F 
HETATM    7  C6  UNL     1       1.343   1.055   1.901  1.00  0.00     0.058 C 
HETATM    8  C7  UNL     1      -0.095   1.231   1.444  1.00  0.00     0.043 C 
HETATM    9  C8  UNL     1      -0.088  -0.145   0.977  1.00  0.00    -0.021 C 
BRANCH   9  10
HETATM   10  C9  UNL     1      -1.014  -0.709   0.022  1.00  0.00     0.026 A 
HETATM   11  C10 UNL     1      -2.260  -0.153  -0.295  1.00  0.00     0.045 A 
HETATM   12  N1  UNL     1      -2.852  -1.075  -1.100  1.00  0.00    -0.264 N 
HETATM   13  O1  UNL     1      -2.079  -2.075  -1.267  1.00  0.00    -0.242 OA
ATOM     14  H1  UNL     1      -3.781  -0.980  -1.511  1.00  0.00     0.194 HD
HETATM   15  C13 UNL     1      -0.941  -1.921  -0.611  1.00  0.00     0.085 A 
HETATM   16  C14 UNL     1       0.127  -2.982  -0.654  1.00  0.00     0.079 C 
BRANCH  11  17
HETATM   17  C11 UNL     1      -2.864   1.133   0.028  1.00  0.00     0.055 C 
HETATM   18  C12 UNL     1      -2.446   2.244  -0.939  1.00  0.00     0.011 C 
ENDBRANCH  11  17
ENDBRANCH   9  10
ENDBRANCH   3   5
TORSDOF 3
