REMARK  5 active torsions:
REMARK  status: ('A' for Active; 'I' for Inactive)
REMARK    1  A    between atoms: C2_2  and  N1_4 
REMARK    2  A    between atoms: C2_2  and  C4_8 
REMARK    3  A    between atoms: C4_8  and  N2_9 
REMARK    4  A    between atoms: C4_8  and  N3_13 
REMARK    5  A    between atoms: N3_13  and  N4_14 
REMARK       I    between atoms: N4_14  and  C5_16 
ROOT
HETATM    1  C4  UNL     1      -0.267   0.565   0.054  1.00  0.00     0.330 C 
ENDROOT
BRANCH   1   2
HETATM    2  C2  UNL     1      -1.673   0.054   0.046  1.00  0.00     0.160 C 
HETATM    3  C1  UNL     1      -2.173  -0.285  -1.325  1.00  0.00     0.049 C 
HETATM    4  C3  UNL     1      -2.570   1.050   0.727  1.00  0.00     0.049 C 
BRANCH   2   5
HETATM    5  N1  UNL     1      -1.794  -1.180   0.828  1.00  0.00    -0.068 N 
ATOM      6  H13 UNL     1      -2.733  -1.578   0.822  1.00  0.00     0.275 HD
ATOM      7  H12 UNL     1      -1.321  -1.979   0.406  1.00  0.00     0.275 HD
ATOM      8  H11 UNL     1      -1.454  -0.949   1.761  1.00  0.00     0.275 HD
ENDBRANCH   2   5
ENDBRANCH   1   2
BRANCH   1   9
HETATM    9  N2  UNL     1       0.159   0.918   1.416  1.00  0.00    -0.057 N 
ATOM     10  H23 UNL     1      -0.484   1.580   1.851  1.00  0.00     0.276 HD
ATOM     11  H22 UNL     1       0.039   0.137   2.061  1.00  0.00     0.276 HD
ATOM     12  H21 UNL     1       1.118   1.266   1.421  1.00  0.00     0.276 HD
ENDBRANCH   1   9
BRANCH   1  13
HETATM   13  N3  UNL     1       0.673  -0.494  -0.391  1.00  0.00    -0.102 NA
BRANCH  13  14
HETATM   14  N4  UNL     1       1.955   0.051  -0.201  1.00  0.00    -0.256 N 
HETATM   15  C5  UNL     1       3.088  -0.827  -0.230  1.00  0.00     0.344 C 
HETATM   16  N5  UNL     1       4.411  -0.318  -0.044  1.00  0.00    -0.039 NA
HETATM   17  O1  UNL     1       2.979  -2.057  -0.417  1.00  0.00    -0.250 OA
ATOM     18  H4  UNL     1       2.077   1.052  -0.046  1.00  0.00     0.186 HD
ENDBRANCH  13  14
ENDBRANCH   1  13
TORSDOF 5
