REMARK  5 active torsions:
REMARK  status: ('A' for Active; 'I' for Inactive)
REMARK    1  A    between atoms: C2_2  and  N1_3 
REMARK    2  A    between atoms: C2_2  and  C3_8 
REMARK    3  A    between atoms: N1_3  and  N2_5 
REMARK       I    between atoms: C3_8  and  N3_10 
REMARK    4  A    between atoms: N3_10  and  N4_12 
REMARK    5  A    between atoms: N4_12  and  C4_14 
ROOT
HETATM    1  C3  UNL     1       0.405   0.349   0.074  1.00  0.00     0.260 C 
HETATM    2  O1  UNL     1       0.737   1.319   0.771  1.00  0.00    -0.269 OA
HETATM    3  N3  UNL     1       1.316  -0.677  -0.220  1.00  0.00    -0.266 N 
ATOM      4  H3  UNL     1       1.066  -1.465  -0.818  1.00  0.00     0.190 HD
ENDROOT
BRANCH   1   5
HETATM    5  C2  UNL     1      -1.022   0.286  -0.428  1.00  0.00     0.188 C 
HETATM    6  C1  UNL     1      -1.612   1.620   0.130  1.00  0.00     0.044 C 
BRANCH   5   7
HETATM    7  N1  UNL     1      -1.651  -0.752   0.370  1.00  0.00    -0.329 N 
ATOM      8  H1  UNL     1      -1.138  -1.568   0.704  1.00  0.00     0.180 HD
BRANCH   7   9
HETATM    9  N2  UNL     1      -2.939  -0.568   0.636  1.00  0.00    -0.349 N 
ATOM     10  H22 UNL     1      -3.439   0.253   0.295  1.00  0.00     0.176 HD
ATOM     11  H21 UNL     1      -3.381  -1.297   1.196  1.00  0.00     0.176 HD
ENDBRANCH   7   9
ENDBRANCH   5   7
ENDBRANCH   1   5
BRANCH   3  12
HETATM   12  N4  UNL     1       2.569  -0.560   0.346  1.00  0.00    -0.275 N 
ATOM     13  H4  UNL     1       2.497  -0.366   1.345  1.00  0.00     0.189 HD
BRANCH  12  14
HETATM   14  C4  UNL     1       3.896  -0.629  -0.044  1.00  0.00     0.368 C 
HETATM   15  O2  UNL     1       4.396  -0.831  -1.129  1.00  0.00    -0.282 OA
ENDBRANCH  12  14
ENDBRANCH   3  12
TORSDOF 5
