REMARK  3 active torsions:
REMARK  status: ('A' for Active; 'I' for Inactive)
REMARK    1  A    between atoms: C2_2  and  N1_3 
REMARK    2  A    between atoms: C2_2  and  C3_7 
REMARK       I    between atoms: C3_7  and  N2_9 
REMARK    3  A    between atoms: N2_9  and  N3_11 
ROOT
HETATM    1  C3  UNL     1      -0.601  -0.598  -0.411  1.00  0.00     0.266 C 
HETATM    2  O1  UNL     1      -0.333  -1.532  -1.207  1.00  0.00    -0.269 OA
HETATM    3  N2  UNL     1       0.393  -0.094   0.472  1.00  0.00    -0.266 N 
ATOM      4  H2  UNL     1       0.150   0.665   1.109  1.00  0.00     0.190 HD
ENDROOT
BRANCH   1   5
HETATM    5  C2  UNL     1      -1.977  -0.056  -0.435  1.00  0.00     0.272 C 
HETATM    6  C1  UNL     1      -2.630  -0.298   0.930  1.00  0.00     0.050 C 
BRANCH   5   7
HETATM    7  N1  UNL     1      -2.787  -0.728  -1.407  1.00  0.00    -0.067 N 
ATOM      8  H13 UNL     1      -2.928  -1.716  -1.199  1.00  0.00     0.275 HD
ATOM      9  H12 UNL     1      -3.767  -0.449  -1.375  1.00  0.00     0.275 HD
ATOM     10  H11 UNL     1      -2.352  -0.567  -2.316  1.00  0.00     0.275 HD
ENDBRANCH   5   7
ENDBRANCH   1   5
BRANCH   3  11
HETATM   11  N3  UNL     1       1.692  -0.606   0.494  1.00  0.00    -0.273 N 
HETATM   12  C4  UNL     1       2.680   0.219   0.483  1.00  0.00     0.215 C 
HETATM   13  N4  UNL     1       2.512   1.631   0.449  1.00  0.00    -0.065 NA
HETATM   14  N5  UNL     1       3.997  -0.322   0.505  1.00  0.00    -0.065 NA
ATOM     15  H3  UNL     1       1.855  -1.613   0.518  1.00  0.00     0.189 HD
ENDBRANCH   3  11
TORSDOF 3
