REMARK  8 active torsions:
REMARK  status: ('A' for Active; 'I' for Inactive)
REMARK    1  A    between atoms: C2_2  and  N1_3 
REMARK    2  A    between atoms: C5_6  and  O1_7 
REMARK    3  A    between atoms: O1_7  and  C6_8 
REMARK    4  A    between atoms: C6_8  and  C7_9 
REMARK    5  A    between atoms: C7_9  and  N2_10 
REMARK       I    between atoms: N2_10  and  C8_12 
REMARK       I    between atoms: C8_12  and  N4_16 
REMARK    6  A    between atoms: N4_16  and  C9_18 
REMARK    7  A    between atoms: C9_18  and  C10_19 
REMARK    8  A    between atoms: C10_19  and  N5_20 
ROOT
HETATM    1  N2  UNL     1      -1.144   0.727  -0.613  1.00  0.00    -0.225 N 
ATOM      2  H2  UNL     1      -1.417   1.700  -0.472  1.00  0.00     0.177 HD
HETATM    3  C8  UNL     1      -1.704  -0.289   0.197  1.00  0.00     0.667 C 
HETATM    4  N3  UNL     1      -1.419  -1.545   0.132  1.00  0.00    -0.235 N 
ATOM      5  H31 UNL     1      -1.823  -2.277   0.716  1.00  0.00     0.174 HD
ATOM      6  H32 UNL     1      -0.700  -1.781  -0.552  1.00  0.00     0.174 HD
HETATM    7  N4  UNL     1      -2.714   0.043   1.159  1.00  0.00    -0.225 N 
ATOM      8  H4  UNL     1      -2.889  -0.584   1.945  1.00  0.00     0.177 HD
ENDROOT
BRANCH   1   9
HETATM    9  C7  UNL     1      -0.196   0.392  -1.629  1.00  0.00     0.164 C 
BRANCH   9  10
HETATM   10  C6  UNL     1       1.119   0.018  -1.077  1.00  0.00     0.188 C 
BRANCH  10  11
HETATM   11  O1  UNL     1       1.687   1.097  -0.349  1.00  0.00    -0.384 OA
BRANCH  11  12
HETATM   12  C5  UNL     1       2.961   0.645   0.041  1.00  0.00     0.131 C 
HETATM   13  C4  UNL     1       3.970   1.388  -0.872  1.00  0.00     0.077 C 
HETATM   14  C3  UNL     1       5.358   0.971  -0.546  1.00  0.00     0.065 C 
HETATM   15  N1  UNL     1       5.566   0.227   0.629  1.00  0.00    -0.374 N 
HETATM   16  C16 UNL     1       4.709   0.344   1.721  1.00  0.00     0.065 C 
HETATM   17  C15 UNL     1       3.346   0.904   1.436  1.00  0.00     0.077 C 
BRANCH  15  18
HETATM   18  C2  UNL     1       6.400  -0.910   0.545  1.00  0.00     0.122 C 
HETATM   19  C1  UNL     1       5.854  -2.064  -0.246  1.00  0.00     0.027 C 
ENDBRANCH  15  18
ENDBRANCH  11  12
ENDBRANCH  10  11
ENDBRANCH   9  10
ENDBRANCH   1   9
BRANCH   7  20
HETATM   20  C9  UNL     1      -3.472   1.233   1.029  1.00  0.00     0.157 C 
BRANCH  20  21
HETATM   21  C10 UNL     1      -4.402   1.314  -0.118  1.00  0.00     0.142 C 
BRANCH  21  22
HETATM   22  N5  UNL     1      -5.403   0.302  -0.109  1.00  0.00    -0.392 N 
HETATM   23  C11 UNL     1      -6.638   0.583   0.109  1.00  0.00     0.058 C 
HETATM   24  C12 UNL     1      -7.501  -0.619   0.071  1.00  0.00     0.046 C 
HETATM   25  C13 UNL     1      -6.522  -1.757   0.137  1.00  0.00     0.025 C 
HETATM   26  C14 UNL     1      -5.231  -1.078  -0.333  1.00  0.00     0.122 C 
ENDBRANCH  21  22
ENDBRANCH  20  21
ENDBRANCH   7  20
TORSDOF 8
