REMARK  3 active torsions:
REMARK  status: ('A' for Active; 'I' for Inactive)
REMARK    1  A    between atoms: C4_4  and  C5_5 
REMARK    2  A    between atoms: C4_4  and  C10_13 
REMARK       I    between atoms: C5_5  and  N1_7 
REMARK    3  A    between atoms: N1_7  and  C6_9 
ROOT
HETATM    1  C1  UNL     1      -3.484  -1.501  -2.007  1.00  0.00     0.039 C 
HETATM    2  C2  UNL     1      -2.753  -0.368  -1.305  1.00  0.00     0.120 C 
HETATM    3  C3  UNL     1      -1.294  -0.549  -1.519  1.00  0.00     0.061 C 
HETATM    4  C4  UNL     1      -0.423   0.336  -0.641  1.00  0.00     0.159 C 
HETATM    5  C11 UNL     1      -0.956   0.496   0.731  1.00  0.00     0.153 C 
HETATM    6  C12 UNL     1      -0.441  -0.589   1.607  1.00  0.00     0.068 C 
HETATM    7  N2  UNL     1      -0.064  -1.433   2.302  1.00  0.00    -0.197 NA
HETATM    8  C13 UNL     1      -2.467   0.481   0.848  1.00  0.00     0.071 C 
HETATM    9  C14 UNL     1      -3.103   1.830   0.765  1.00  0.00     0.047 C 
HETATM   10  C15 UNL     1      -2.742  -0.042   2.275  1.00  0.00     0.047 C 
HETATM   11  O2  UNL     1      -3.058  -0.444   0.022  1.00  0.00    -0.375 OA
ENDROOT
BRANCH   4  12
HETATM   12  C5  UNL     1       0.940  -0.245  -0.570  1.00  0.00     0.237 C 
HETATM   13  O1  UNL     1       1.217  -1.223  -1.308  1.00  0.00    -0.272 OA
HETATM   14  N1  UNL     1       1.952   0.247   0.283  1.00  0.00    -0.352 N 
ATOM     15  H1  UNL     1       1.736   1.033   0.897  1.00  0.00     0.163 HD
BRANCH  14  16
HETATM   16  C6  UNL     1       3.274  -0.315   0.321  1.00  0.00     0.022 C 
HETATM   17  C7  UNL     1       3.976  -0.222  -1.023  1.00  0.00     0.037 C 
HETATM   18  C8  UNL     1       4.142   0.472   1.286  1.00  0.00     0.037 C 
HETATM   19  C9  UNL     1       3.336  -1.750   0.757  1.00  0.00     0.037 C 
ENDBRANCH  14  16
ENDBRANCH   4  12
BRANCH   4  20
HETATM   20  C10 UNL     1      -0.216   1.689  -1.356  1.00  0.00     0.405 C 
HETATM   21  F1  UNL     1       0.555   2.539  -0.603  1.00  0.00    -0.170 F 
HETATM   22  F2  UNL     1      -1.374   2.239  -1.803  1.00  0.00    -0.170 F 
HETATM   23  F3  UNL     1       0.544   1.460  -2.521  1.00  0.00    -0.170 F 
ENDBRANCH   4  20
TORSDOF 3
