REMARK  1 active torsions:
REMARK  status: ('A' for Active; 'I' for Inactive)
REMARK    1  A    between atoms: N1_2  and  C1_4 
ROOT
HETATM    1  C1  UNL     1      -0.797  -0.201  -0.038  1.00  0.00     0.137 A 
HETATM    2  C2  UNL     1      -0.149  -1.405  -0.209  1.00  0.00     0.126 A 
HETATM    3  N2  UNL     1       1.195  -1.448  -0.198  1.00  0.00    -0.356 N 
ATOM      4  H2  UNL     1       1.652  -2.351  -0.326  1.00  0.00     0.166 HD
HETATM    5  C3  UNL     1       1.960  -0.370  -0.028  1.00  0.00     0.103 A 
HETATM    6 BR1  UNL     1       3.869  -0.434  -0.015  1.00  0.00    -0.029 Br
HETATM    7  C4  UNL     1       1.329   0.836   0.143  1.00  0.00     0.087 A 
HETATM    8 CL1  UNL     1       2.320   2.284   0.370  1.00  0.00    -0.080 Cl
HETATM    9  C5  UNL     1      -0.057   0.923   0.138  1.00  0.00     0.070 A 
HETATM   10 BR2  UNL     1      -0.910   2.607   0.378  1.00  0.00    -0.046 Br
ENDROOT
BRANCH   1  11
HETATM   11  N1  UNL     1      -2.228  -0.172  -0.053  1.00  0.00    -0.113 N 
HETATM   12  O1  UNL     1      -2.846  -1.199   0.295  1.00  0.00    -0.532 OA
HETATM   13  O2  UNL     1      -2.960   0.913  -0.427  1.00  0.00    -0.532 OA
ENDBRANCH   1  11
TORSDOF 1
