REMARK  1 active torsions:
REMARK  status: ('A' for Active; 'I' for Inactive)
REMARK    1  A    between atoms: C2_5  and  C3_6 
ROOT
HETATM    1  C3  UNL     1       0.299  -0.310   0.583  1.00  0.00     0.216 C 
HETATM    2  C4  UNL     1      -0.066   0.561   1.750  1.00  0.00     0.058 C 
HETATM    3  C5  UNL     1      -1.536   0.888   1.451  1.00  0.00     0.123 C 
HETATM    4 CL2  UNL     1      -2.573   0.208   2.750  1.00  0.00    -0.122 Cl
HETATM    5  C6  UNL     1      -1.812   0.255   0.132  1.00  0.00     0.177 C 
HETATM    6  C7  UNL     1      -2.512  -1.079   0.163  1.00  0.00     0.047 C 
HETATM    7  C8  UNL     1      -3.301  -0.632  -1.058  1.00  0.00     0.048 C 
HETATM    8  C9  UNL     1      -2.906   0.807  -0.698  1.00  0.00     0.148 C 
HETATM    9 CL3  UNL     1      -4.163   1.547   0.356  1.00  0.00    -0.099 Cl
HETATM   10 CL4  UNL     1      -2.460   1.808  -2.072  1.00  0.00    -0.099 Cl
HETATM   11  N2  UNL     1      -0.488   0.219  -0.481  1.00  0.00    -0.055 N 
ATOM     12  H21 UNL     1      -0.429  -0.291  -1.362  1.00  0.00     0.278 HD
ATOM     13  H22 UNL     1      -0.161   1.105  -0.866  1.00  0.00     0.278 HD
ENDROOT
BRANCH   1  14
HETATM   14  C2  UNL     1       1.771  -0.285   0.355  1.00  0.00     0.151 C 
HETATM   15  N1  UNL     1       2.287   1.014   0.074  1.00  0.00    -0.371 N 
HETATM   16  C1  UNL     1       3.511   1.081  -0.328  1.00  0.00     0.094 C 
ATOM     17  H1  UNL     1       1.715   1.851   0.186  1.00  0.00     0.161 HD
HETATM   18 CL1  UNL     1       4.263   2.625  -0.707  1.00  0.00    -0.068 Cl
HETATM   19  C11 UNL     1       4.322  -0.168  -0.482  1.00  0.00     0.188 C 
HETATM   20  N3  UNL     1       3.435  -1.139  -1.104  1.00  0.00    -0.394 N 
HETATM   21  C10 UNL     1       2.221  -1.195  -0.706  1.00  0.00     0.083 C 
ATOM     22  H3  UNL     1       3.773  -1.760  -1.839  1.00  0.00     0.159 HD
ENDBRANCH   1  14
TORSDOF 1
