REMARK  3 active torsions:
REMARK  status: ('A' for Active; 'I' for Inactive)
REMARK    1  A    between atoms: C1_2  and  N1_3 
REMARK    2  A    between atoms: N1_3  and  C2_5 
REMARK    3  A    between atoms: C2_5  and  C3_6 
ROOT
HETATM    1  C3  UNL     1      -0.123  -0.675   0.520  1.00  0.00     0.207 C 
HETATM    2  N2  UNL     1      -1.049  -0.228   1.511  1.00  0.00    -0.320 N 
ATOM      3  H2  UNL     1      -0.872  -0.401   2.501  1.00  0.00     0.166 HD
HETATM    4  C4  UNL     1      -2.230   0.467   1.093  1.00  0.00     0.325 C 
HETATM    5  O2  UNL     1      -2.945   1.086   1.931  1.00  0.00    -0.247 OA
HETATM    6  N3  UNL     1      -2.637   0.489  -0.253  1.00  0.00    -0.261 N 
ATOM      7  H3  UNL     1      -3.482   0.991  -0.525  1.00  0.00     0.175 HD
HETATM    8  C5  UNL     1      -1.873  -0.185  -1.221  1.00  0.00     0.325 C 
HETATM    9  O3  UNL     1      -2.185  -0.205  -2.452  1.00  0.00    -0.247 OA
HETATM   10  N4  UNL     1      -0.695  -0.874  -0.775  1.00  0.00    -0.320 N 
ATOM     11  H4  UNL     1      -0.247  -1.534  -1.410  1.00  0.00     0.166 HD
ENDROOT
BRANCH   1  12
HETATM   12  C2  UNL     1       1.105   0.240   0.462  1.00  0.00     0.169 C 
BRANCH  12  13
HETATM   13  N1  UNL     1       2.043  -0.201  -0.531  1.00  0.00    -0.365 N 
ATOM     14  H1  UNL     1       1.836  -1.033  -1.084  1.00  0.00     0.161 HD
BRANCH  13  15
HETATM   15  C1  UNL     1       3.247   0.500  -0.752  1.00  0.00     0.348 C 
HETATM   16  O1  UNL     1       3.533   1.535  -0.081  1.00  0.00    -0.284 OA
ENDBRANCH  13  15
ENDBRANCH  12  13
ENDBRANCH   1  12
TORSDOF 3
