REMARK  6 active torsions:
REMARK  status: ('A' for Active; 'I' for Inactive)
REMARK    1  A    between atoms: C2_5  and  C3_6 
REMARK    2  A    between atoms: C3_6  and  N2_7 
REMARK    3  A    between atoms: C4_11  and  N3_12 
REMARK    4  A    between atoms: N4_17  and  C6_18 
REMARK    5  A    between atoms: C6_18  and  C7_19 
REMARK    6  A    between atoms: C7_19  and  N5_20 
ROOT
HETATM    1  N1  UNL     1      -0.316   0.998   2.015  1.00  0.00    -0.389 N 
ATOM      2  H11 UNL     1       0.381   1.008   2.759  1.00  0.00     0.157 HD
ATOM      3  H12 UNL     1      -1.039   1.651   2.318  1.00  0.00     0.157 HD
HETATM    4  C1  UNL     1      -0.281   0.302   0.915  1.00  0.00     0.080 C 
HETATM    5  C2  UNL     1      -1.295   0.287  -0.167  1.00  0.00     0.110 C 
HETATM    6  C4  UNL     1      -1.255  -1.138  -0.637  1.00  0.00     0.214 C 
HETATM    7  C5  UNL     1       0.196  -1.499  -0.515  1.00  0.00     0.157 C 
HETATM    8  N4  UNL     1       0.735  -0.615   0.489  1.00  0.00    -0.367 N 
ENDROOT
BRANCH   8   9
HETATM    9  C6  UNL     1       2.090  -0.636   0.998  1.00  0.00     0.151 C 
BRANCH   9  10
HETATM   10  C7  UNL     1       3.078  -0.208  -0.064  1.00  0.00     0.249 C 
BRANCH  10  11
HETATM   11  N5  UNL     1       2.851   1.103  -0.551  1.00  0.00    -0.078 N 
ATOM     12  H53 UNL     1       1.893   1.202  -0.888  1.00  0.00     0.274 HD
ATOM     13  H52 UNL     1       2.832   1.775   0.216  1.00  0.00     0.274 HD
ATOM     14  H51 UNL     1       3.517   1.392  -1.267  1.00  0.00     0.274 HD
ENDBRANCH  10  11
ENDBRANCH   9  10
ENDBRANCH   8   9
BRANCH   5  15
HETATM   15  C3  UNL     1      -2.660   0.704   0.328  1.00  0.00     0.243 C 
BRANCH  15  16
HETATM   16  N2  UNL     1      -2.554   2.053   0.855  1.00  0.00    -0.079 N 
ATOM     17  H23 UNL     1      -1.831   2.142   1.569  1.00  0.00     0.274 HD
ATOM     18  H22 UNL     1      -2.161   2.710   0.181  1.00  0.00     0.274 HD
ATOM     19  H21 UNL     1      -3.476   2.335   1.189  1.00  0.00     0.274 HD
ENDBRANCH  15  16
ENDBRANCH   5  15
BRANCH   6  20
HETATM   20  N3  UNL     1      -1.723  -1.201  -2.011  1.00  0.00    -0.073 N 
ATOM     21  H33 UNL     1      -2.646  -0.781  -2.126  1.00  0.00     0.274 HD
ATOM     22  H32 UNL     1      -1.203  -0.576  -2.626  1.00  0.00     0.274 HD
ATOM     23  H31 UNL     1      -1.696  -2.169  -2.330  1.00  0.00     0.274 HD
ENDBRANCH   6  20
TORSDOF 6
