REMARK  3 active torsions:
REMARK  status: ('A' for Active; 'I' for Inactive)
REMARK       I    between atoms: C1_4  and  N2_5 
REMARK       I    between atoms: C1_4  and  N4_11 
REMARK    1  A    between atoms: N2_5  and  N3_7 
REMARK    2  A    between atoms: N3_7  and  C2_9 
REMARK    3  A    between atoms: N4_11  and  C3_13 
ROOT
HETATM    1  N1  UNL     1       0.830  -0.807   1.727  1.00  0.00    -0.234 N 
ATOM      2  H11 UNL     1       0.076  -0.271   2.157  1.00  0.00     0.174 HD
ATOM      3  H12 UNL     1       1.390  -1.441   2.296  1.00  0.00     0.174 HD
HETATM    4  C1  UNL     1       1.113  -0.699   0.453  1.00  0.00     0.687 C 
HETATM    5  N2  UNL     1       2.160  -1.444  -0.144  1.00  0.00    -0.131 N 
ATOM      6  H2  UNL     1       1.905  -2.302  -0.633  1.00  0.00     0.205 HD
HETATM    7  N4  UNL     1       0.326   0.192  -0.347  1.00  0.00    -0.212 N 
ATOM      8  H4  UNL     1       0.718   0.616  -1.188  1.00  0.00     0.178 HD
ENDROOT
BRANCH   5   9
HETATM    9  N3  UNL     1       3.494  -1.104  -0.118  1.00  0.00    -0.263 N 
ATOM     10  H3  UNL     1       4.177  -1.724  -0.554  1.00  0.00     0.190 HD
BRANCH   9  11
HETATM   11  C2  UNL     1       3.933   0.083   0.499  1.00  0.00     0.369 C 
HETATM   12  O1  UNL     1       3.161   0.908   1.058  1.00  0.00    -0.282 OA
ENDBRANCH   9  11
ENDBRANCH   5   9
BRANCH   7  13
HETATM   13  C3  UNL     1      -1.020   0.478   0.053  1.00  0.00     0.193 C 
HETATM   14  C4  UNL     1      -1.739   1.396  -0.900  1.00  0.00     0.055 C 
HETATM   15  C5  UNL     1      -3.176   1.256  -0.388  1.00  0.00     0.125 C 
HETATM   16  N5  UNL     1      -3.236  -0.162  -0.018  1.00  0.00    -0.359 N 
HETATM   17  C6  UNL     1      -1.913  -0.706   0.039  1.00  0.00     0.241 C 
ATOM     18  H5  UNL     1      -4.093  -0.683   0.171  1.00  0.00     0.162 HD
HETATM   19  O2  UNL     1      -1.623  -1.913   0.070  1.00  0.00    -0.271 OA
ENDBRANCH   7  13
TORSDOF 3
