REMARK  6 active torsions:
REMARK  status: ('A' for Active; 'I' for Inactive)
REMARK    1  A    between atoms: C2_2  and  C3_3 
REMARK    2  A    between atoms: C3_3  and  C5_5 
REMARK    3  A    between atoms: C8_8  and  C9_9 
REMARK    4  A    between atoms: C9_9  and  O1_10 
REMARK    5  A    between atoms: C9_9  and  C10_12 
REMARK    6  A    between atoms: C13_16  and  C14_17 
ROOT
HETATM    1  C10 UNL     1      -0.257   0.145   0.060  1.00  0.00     0.036 A 
HETATM    2  C11 UNL     1      -0.377   1.080   1.046  1.00  0.00     0.063 A 
HETATM    3  C12 UNL     1       0.703   1.673   1.883  1.00  0.00     0.077 C 
HETATM    4  O2  UNL     1      -1.651   1.429   1.181  1.00  0.00    -0.313 OA
HETATM    5  C13 UNL     1      -2.410   0.763   0.314  1.00  0.00     0.093 A 
HETATM    6  C22 UNL     1      -1.567  -0.042  -0.401  1.00  0.00    -0.012 A 
HETATM    7  C23 UNL     1      -1.935  -0.897  -1.583  1.00  0.00     0.052 C 
ENDROOT
BRANCH   1   8
HETATM    8  C9  UNL     1       0.877  -0.531  -0.482  1.00  0.00     0.089 C 
BRANCH   8   9
HETATM    9  C8  UNL     1       2.270  -0.534  -0.158  1.00  0.00    -0.002 A 
HETATM   10  C7  UNL     1       3.136  -0.453  -1.280  1.00  0.00     0.015 A 
HETATM   11  C6  UNL     1       4.498  -0.487  -1.155  1.00  0.00     0.013 A 
HETATM   12  C5  UNL     1       5.097  -0.605   0.094  1.00  0.00    -0.027 A 
HETATM   13  C25 UNL     1       4.257  -0.685   1.161  1.00  0.00     0.013 A 
HETATM   14  C24 UNL     1       2.873  -0.652   1.042  1.00  0.00     0.015 A 
BRANCH  12  15
HETATM   15  C3  UNL     1       6.545  -0.650   0.185  1.00  0.00    -0.036 C 
HETATM   16  C4  UNL     1       7.206  -1.783  -0.101  1.00  0.00     0.024 C 
BRANCH  15  17
HETATM   17  C2  UNL     1       7.337   0.513   0.531  1.00  0.00     0.001 C 
HETATM   18  C1  UNL     1       6.912   1.701   0.849  1.00  0.00     0.012 C 
ENDBRANCH  15  17
ENDBRANCH  12  15
ENDBRANCH   8   9
BRANCH   8  19
HETATM   19  O1  UNL     1       0.648  -1.329  -1.508  1.00  0.00    -0.359 OA
ATOM     20  H1  UNL     1      -0.277  -1.327  -1.723  1.00  0.00     0.217 HD
ENDBRANCH   8  19
ENDBRANCH   1   8
BRANCH   5  21
HETATM   21  C14 UNL     1      -3.841   0.984   0.266  1.00  0.00     0.005 C 
HETATM   22  C15 UNL     1      -4.367   2.145   0.727  1.00  0.00     0.014 C 
HETATM   23  C16 UNL     1      -5.782   2.342   0.636  1.00  0.00    -0.003 C 
HETATM   24  C17 UNL     1      -6.623   1.482   0.110  1.00  0.00    -0.022 C 
HETATM   25  C18 UNL     1      -6.133   0.199  -0.460  1.00  0.00     0.066 C 
HETATM   26  C19 UNL     1      -4.774  -0.109   0.029  1.00  0.00    -0.046 C 
HETATM   27  C20 UNL     1      -4.483  -1.373   0.354  1.00  0.00    -0.023 C 
HETATM   28  C21 UNL     1      -5.441  -2.454   0.096  1.00  0.00     0.036 C 
ENDBRANCH   5  21
TORSDOF 6
