REMARK  16 active torsions:
REMARK  status: ('A' for Active; 'I' for Inactive)
REMARK    1  A    between atoms: C4_4  and  O1_5 
REMARK    2  A    between atoms: O1_5  and  C5_6 
REMARK    3  A    between atoms: C5_6  and  C6_7 
REMARK    4  A    between atoms: C6_7  and  C7_8 
REMARK    5  A    between atoms: C7_8  and  C8_9 
REMARK    6  A    between atoms: C8_9  and  N1_10 
REMARK    7  A    between atoms: N1_10  and  C9_13 
REMARK    8  A    between atoms: C9_13  and  C10_14 
REMARK    9  A    between atoms: C10_14  and  C11_15 
REMARK   10  A    between atoms: C11_15  and  S1_16 
REMARK   11  A    between atoms: S1_16  and  C12_17 
REMARK   12  A    between atoms: C12_17  and  C13_18 
REMARK   13  A    between atoms: C13_18  and  N2_19 
REMARK   14  A    between atoms: N2_19  and  C14_22 
REMARK   15  A    between atoms: C14_22  and  C15_23 
REMARK   16  A    between atoms: C15_23  and  C16_24 
ROOT
HETATM    1  N1  UNL     1       0.685   0.709  -1.423  1.00  0.00    -0.075 N 
ATOM      2  H11 UNL     1       0.760   0.125  -2.256  1.00  0.00     0.277 HD
ATOM      3  H12 UNL     1       0.613   1.619  -1.879  1.00  0.00     0.277 HD
ENDROOT
BRANCH   1   4
HETATM    4  C8  UNL     1       1.880   0.617  -0.591  1.00  0.00     0.232 C 
BRANCH   4   5
HETATM    5  C7  UNL     1       3.078   0.898  -1.478  1.00  0.00     0.029 C 
BRANCH   5   6
HETATM    6  C6  UNL     1       4.379   0.898  -0.740  1.00  0.00     0.028 C 
BRANCH   6   7
HETATM    7  C5  UNL     1       4.686  -0.423  -0.073  1.00  0.00     0.175 C 
BRANCH   7   8
HETATM    8  O1  UNL     1       5.837  -0.449   0.641  1.00  0.00    -0.351 OA
BRANCH   8   9
HETATM    9  C4  UNL     1       7.157  -0.314   0.449  1.00  0.00     0.068 A 
HETATM   10  C3  UNL     1       8.038  -0.396   1.562  1.00  0.00     0.037 A 
HETATM   11  C2  UNL     1       9.385  -0.271   1.448  1.00  0.00     0.003 A 
HETATM   12  C1  UNL     1       9.961  -0.056   0.219  1.00  0.00     0.000 A 
HETATM   13  C20 UNL     1       9.151   0.029  -0.881  1.00  0.00     0.003 A 
HETATM   14  C19 UNL     1       7.771  -0.098  -0.769  1.00  0.00     0.037 A 
ENDBRANCH   8   9
ENDBRANCH   7   8
ENDBRANCH   6   7
ENDBRANCH   5   6
ENDBRANCH   4   5
ENDBRANCH   1   4
BRANCH   1  15
HETATM   15  C9  UNL     1      -0.517   0.395  -0.649  1.00  0.00     0.233 C 
BRANCH  15  16
HETATM   16  C10 UNL     1      -0.789   1.420   0.405  1.00  0.00     0.037 C 
BRANCH  16  17
HETATM   17  C11 UNL     1      -2.076   1.134   1.113  1.00  0.00     0.075 C 
BRANCH  17  18
HETATM   18  S1  UNL     1      -2.139  -0.486   1.786  1.00  0.00    -0.167 SA
BRANCH  18  19
HETATM   19  C12 UNL     1      -2.528  -1.848   0.742  1.00  0.00     0.101 C 
BRANCH  19  20
HETATM   20  C13 UNL     1      -3.977  -1.857   0.269  1.00  0.00     0.242 C 
BRANCH  20  21
HETATM   21  N2  UNL     1      -4.315  -0.681  -0.461  1.00  0.00    -0.074 N 
ATOM     22  H22 UNL     1      -4.050   0.153   0.063  1.00  0.00     0.277 HD
ATOM     23  H21 UNL     1      -3.706  -0.577  -1.272  1.00  0.00     0.277 HD
BRANCH  21  24
HETATM   24  C14 UNL     1      -5.708  -0.610  -0.859  1.00  0.00     0.232 C 
BRANCH  24  25
HETATM   25  C15 UNL     1      -6.563  -0.436   0.381  1.00  0.00     0.032 C 
BRANCH  25  26
HETATM   26  C16 UNL     1      -8.007  -0.355  -0.065  1.00  0.00    -0.013 A 
HETATM   27  C17 UNL     1      -8.428   0.716  -0.969  1.00  0.00     0.005 A 
HETATM   28  C18 UNL     1      -8.798   0.834   0.475  1.00  0.00     0.005 A 
ENDBRANCH  25  26
ENDBRANCH  24  25
ENDBRANCH  21  24
ENDBRANCH  20  21
ENDBRANCH  19  20
ENDBRANCH  18  19
ENDBRANCH  17  18
ENDBRANCH  16  17
ENDBRANCH  15  16
ENDBRANCH   1  15
TORSDOF 16
