REMARK  4 active torsions:
REMARK  status: ('A' for Active; 'I' for Inactive)
REMARK    1  A    between atoms: N1_1  and  C1_5 
REMARK    2  A    between atoms: C4_8  and  N2_9 
REMARK       I    between atoms: N2_9  and  C5_11 
REMARK    3  A    between atoms: C5_11  and  C6_13 
REMARK    4  A    between atoms: C7_16  and  N4_17 
ROOT
HETATM    1  C6  UNL     1      -0.864  -0.145  -0.189  1.00  0.00     0.204 A 
HETATM    2  N3  UNL     1      -2.051   0.395   0.127  1.00  0.00    -0.168 N 
ATOM      3  H3  UNL     1      -2.178   1.287   0.605  1.00  0.00     0.186 HD
HETATM    4  C7  UNL     1      -3.049  -0.409  -0.277  1.00  0.00     0.696 A 
HETATM    5  N5  UNL     1      -2.470  -1.461  -0.852  1.00  0.00    -0.130 N 
ATOM      6  H5  UNL     1      -2.962  -2.254  -1.263  1.00  0.00     0.205 HD
HETATM    7  N6  UNL     1      -1.154  -1.314  -0.805  1.00  0.00    -0.266 N 
ATOM      8  H6  UNL     1      -0.470  -1.975  -1.174  1.00  0.00     0.189 HD
ENDROOT
BRANCH   1   9
HETATM    9  C5  UNL     1       0.422   0.447   0.095  1.00  0.00     0.287 C 
HETATM   10  N2  UNL     1       1.608  -0.210  -0.284  1.00  0.00    -0.350 N 
ATOM     11  H2  UNL     1       1.565  -1.110  -0.763  1.00  0.00     0.163 HD
HETATM   12  O1  UNL     1       0.484   1.544   0.678  1.00  0.00    -0.264 OA
BRANCH  10  13
HETATM   13  C4  UNL     1       2.884   0.394   0.007  1.00  0.00     0.085 C 
HETATM   14  C3  UNL     1       3.614  -0.526   0.958  1.00  0.00     0.027 C 
HETATM   15  C2  UNL     1       4.855  -1.031   0.269  1.00  0.00     0.035 C 
HETATM   16  C1  UNL     1       5.759   0.169   0.041  1.00  0.00     0.183 C 
HETATM   17  C14 UNL     1       5.065   1.111  -0.890  1.00  0.00     0.035 C 
HETATM   18  C13 UNL     1       3.656   0.658  -1.245  1.00  0.00     0.027 C 
BRANCH  16  19
HETATM   19  N1  UNL     1       7.020  -0.251  -0.541  1.00  0.00    -0.075 N 
ATOM     20  H13 UNL     1       7.477  -0.970   0.021  1.00  0.00     0.274 HD
ATOM     21  H12 UNL     1       6.883  -0.791  -1.395  1.00  0.00     0.274 HD
ATOM     22  H11 UNL     1       7.627   0.554  -0.694  1.00  0.00     0.274 HD
ENDBRANCH  16  19
ENDBRANCH  10  13
ENDBRANCH   1   9
BRANCH   4  23
HETATM   23  N4  UNL     1      -4.450  -0.139  -0.100  1.00  0.00    -0.216 N 
HETATM   24  C8  UNL     1      -5.546  -0.979  -0.521  1.00  0.00     0.146 C 
HETATM   25  C9  UNL     1      -6.433  -0.965   0.710  1.00  0.00     0.010 A 
HETATM   26  C10 UNL     1      -7.451   0.093   0.810  1.00  0.00     0.013 A 
HETATM   27  C11 UNL     1      -6.123   0.367   1.387  1.00  0.00     0.010 A 
HETATM   28  C12 UNL     1      -5.036   1.011   0.528  1.00  0.00     0.146 C 
ENDBRANCH   4  23
TORSDOF 4
