REMARK  5 active torsions:
REMARK  status: ('A' for Active; 'I' for Inactive)
REMARK    1  A    between atoms: C2_2  and  O1_3 
REMARK    2  A    between atoms: C2_2  and  C3_5 
REMARK    3  A    between atoms: C2_2  and  C4_8 
REMARK    4  A    between atoms: C3_5  and  O2_6 
REMARK    5  A    between atoms: C8_13  and  C9_14 
ROOT
HETATM    1  C4  UNL     1       1.371   0.178  -0.049  1.00  0.00     0.038 C 
HETATM    2  C5  UNL     1       1.042  -1.258  -0.371  1.00  0.00    -0.014 C 
HETATM    3  C6  UNL     1       0.063  -2.009   0.380  1.00  0.00     0.002 C 
HETATM    4  C7  UNL     1      -1.378  -1.793   0.571  1.00  0.00     0.154 C 
HETATM    5  O3  UNL     1      -2.142  -1.567  -0.607  1.00  0.00    -0.369 OA
HETATM    6  C8  UNL     1      -2.876  -0.405  -0.260  1.00  0.00     0.081 C 
HETATM    7  C10 UNL     1      -2.811   0.740  -1.175  1.00  0.00     0.069 C 
HETATM    8  C11 UNL     1      -1.661   1.613  -1.389  1.00  0.00     0.276 C 
HETATM    9  N1  UNL     1      -0.590   1.592  -0.385  1.00  0.00     0.095 N 
HETATM   10  C12 UNL     1       0.744   1.248  -0.975  1.00  0.00     0.289 C 
HETATM   11  C13 UNL     1      -0.746   0.337   0.211  1.00  0.00     0.234 C 
HETATM   12  C14 UNL     1       0.440   0.400   1.112  1.00  0.00     0.055 C 
HETATM   13  C15 UNL     1      -1.806  -0.325   0.841  1.00  0.00     0.087 C 
ENDROOT
BRANCH   1  14
HETATM   14  C2  UNL     1       2.781   0.448   0.283  1.00  0.00     0.088 C 
HETATM   15  C1  UNL     1       3.724   0.091  -0.834  1.00  0.00     0.049 C 
BRANCH  14  16
HETATM   16  O1  UNL     1       2.899   1.813   0.580  1.00  0.00    -0.387 OA
ATOM     17  H1  UNL     1       2.304   2.038   1.285  1.00  0.00     0.210 HD
ENDBRANCH  14  16
BRANCH  14  18
HETATM   18  C3  UNL     1       3.136  -0.282   1.560  1.00  0.00     0.202 C 
BRANCH  18  19
HETATM   19  O2  UNL     1       4.458   0.051   1.939  1.00  0.00    -0.398 OA
ATOM     20  H2  UNL     1       4.681  -0.407   2.741  1.00  0.00     0.209 HD
ENDBRANCH  18  19
ENDBRANCH  14  18
ENDBRANCH   1  14
BRANCH   6  21
HETATM   21  C9  UNL     1      -4.215  -0.682   0.326  1.00  0.00     0.124 C 
HETATM   22  S1  UNL     1      -5.084   0.843   0.742  1.00  0.00    -0.095 SA
ENDBRANCH   6  21
TORSDOF 5
