REMARK  6 active torsions:
REMARK  status: ('A' for Active; 'I' for Inactive)
REMARK    1  A    between atoms: C2_2  and  C3_3 
REMARK    2  A    between atoms: C4_4  and  C5_5 
REMARK    3  A    between atoms: C5_5  and  N1_6 
REMARK    4  A    between atoms: C9_14  and  O1_15 
REMARK    5  A    between atoms: C14_21  and  C15_22 
REMARK    6  A    between atoms: C15_22  and  O2_23 
ROOT
HETATM    1  C3  UNL     1      -2.453  -0.403  -0.270  1.00  0.00     0.254 C 
HETATM    2  C4  UNL     1      -1.675   0.602   0.488  1.00  0.00     0.049 C 
HETATM    3  C6  UNL     1      -0.471   1.156  -0.237  1.00  0.00     0.023 C 
HETATM    4  C7  UNL     1       0.100   0.121  -1.133  1.00  0.00     0.026 C 
HETATM    5  C8  UNL     1      -0.986  -0.341  -2.068  1.00  0.00     0.290 C 
HETATM    6  N2  UNL     1      -1.703  -1.232  -1.169  1.00  0.00     0.129 N 
HETATM    7  C9  UNL     1      -0.677  -2.023  -0.611  1.00  0.00     0.393 C 
HETATM    8  C10 UNL     1       0.569  -1.154  -0.469  1.00  0.00     0.125 C 
HETATM    9  C11 UNL     1       1.557  -1.267  -1.602  1.00  0.00     0.049 C 
HETATM   10  C12 UNL     1       1.446   0.264  -1.705  1.00  0.00     0.002 C 
HETATM   11  C13 UNL     1       2.445   0.949  -0.854  1.00  0.00     0.014 C 
HETATM   12  C14 UNL     1       3.061   0.114   0.216  1.00  0.00     0.033 C 
HETATM   13  C16 UNL     1       2.118  -0.507   1.173  1.00  0.00     0.175 C 
HETATM   14  O3  UNL     1       1.037  -1.133   0.757  1.00  0.00    -0.374 OA
ENDROOT
BRANCH   2  15
HETATM   15  C5  UNL     1      -2.574   1.723   0.971  1.00  0.00     0.236 C 
BRANCH  15  16
HETATM   16  N1  UNL     1      -3.223   2.412  -0.118  1.00  0.00    -0.079 N 
ATOM     17  H13 UNL     1      -2.542   2.753  -0.797  1.00  0.00     0.274 HD
ATOM     18  H12 UNL     1      -3.734   1.761  -0.714  1.00  0.00     0.274 HD
ATOM     19  H11 UNL     1      -3.828   3.166   0.207  1.00  0.00     0.274 HD
ENDBRANCH  15  16
ENDBRANCH   2  15
BRANCH   1  20
HETATM   20  C2  UNL     1      -3.377  -1.204   0.557  1.00  0.00    -0.001 C 
HETATM   21  C1  UNL     1      -3.398  -1.315   1.858  1.00  0.00     0.009 C 
ENDBRANCH   1  20
BRANCH   7  22
HETATM   22  O1  UNL     1      -0.973  -2.712   0.529  1.00  0.00    -0.365 OA
ATOM     23  H1  UNL     1      -0.282  -3.245   0.905  1.00  0.00     0.212 HD
ENDBRANCH   7  22
BRANCH  12  24
HETATM   24  C15 UNL     1       3.956   1.074   1.027  1.00  0.00     0.170 C 
BRANCH  24  25
HETATM   25  O2  UNL     1       4.562   0.321   2.057  1.00  0.00    -0.400 OA
ATOM     26  H2  UNL     1       5.113   0.912   2.556  1.00  0.00     0.209 HD
ENDBRANCH  24  25
ENDBRANCH  12  24
TORSDOF 6
