REMARK  4 active torsions:
REMARK  status: ('A' for Active; 'I' for Inactive)
REMARK    1  A    between atoms: C1_2  and  N2_4 
REMARK    2  A    between atoms: N2_4  and  N3_6 
REMARK    3  A    between atoms: C4_10  and  S2_11 
REMARK    4  A    between atoms: S2_11  and  C5_12 
ROOT
HETATM    1  N3  UNL     1       2.070   0.217   0.976  1.00  0.00    -0.286 N 
ATOM      2  H3  UNL     1       1.710   0.351   1.921  1.00  0.00     0.188 HD
HETATM    3  C2  UNL     1       1.494  -0.660   0.191  1.00  0.00     0.107 C 
HETATM    4  C3  UNL     1       0.330  -1.490   0.587  1.00  0.00     0.111 C 
HETATM    5  C4  UNL     1      -0.657  -1.402  -0.559  1.00  0.00     0.198 C 
HETATM    6  S3  UNL     1       0.495  -1.524  -1.941  1.00  0.00     0.245 S 
HETATM    7  O1  UNL     1       0.711  -2.934  -2.350  1.00  0.00    -0.204 OA
HETATM    8  O2  UNL     1       0.071  -0.636  -3.063  1.00  0.00    -0.204 OA
HETATM    9  N4  UNL     1       1.897  -0.939  -1.133  1.00  0.00    -0.271 N 
ATOM     10  H4  UNL     1       2.829  -0.818  -1.530  1.00  0.00     0.180 HD
ENDROOT
BRANCH   1  11
HETATM   11  N2  UNL     1       3.173   0.979   0.547  1.00  0.00    -0.277 N 
ATOM     12  H2  UNL     1       3.019   1.938   0.236  1.00  0.00     0.189 HD
BRANCH  11  13
HETATM   13  C1  UNL     1       4.488   0.458   0.533  1.00  0.00     0.199 C 
HETATM   14  N1  UNL     1       5.578   1.259   0.093  1.00  0.00    -0.068 NA
HETATM   15  S1  UNL     1       4.764  -1.082   1.027  1.00  0.00    -0.043 SA
ENDBRANCH  11  13
ENDBRANCH   1  11
BRANCH   5  16
HETATM   16  S2  UNL     1      -1.407   0.219  -0.589  1.00  0.00    -0.142 SA
BRANCH  16  17
HETATM   17  C5  UNL     1      -2.440   0.574   0.823  1.00  0.00     0.048 C 
HETATM   18  C6  UNL     1      -3.686  -0.224   0.980  1.00  0.00     0.015 C 
HETATM   19  C7  UNL     1      -4.486   0.927   0.420  1.00  0.00     0.002 C 
HETATM   20  C8  UNL     1      -3.282   1.817   0.627  1.00  0.00     0.015 C 
ENDBRANCH  16  17
ENDBRANCH   5  16
TORSDOF 4
