REMARK  5 active torsions:
REMARK  status: ('A' for Active; 'I' for Inactive)
REMARK    1  A    between atoms: C4_4  and  O1_5 
REMARK    2  A    between atoms: C5_7  and  N1_8 
REMARK       I    between atoms: N1_8  and  C6_10 
REMARK    3  A    between atoms: C6_10  and  C7_12 
REMARK    4  A    between atoms: C7_12  and  N2_13 
REMARK    5  A    between atoms: C15_22  and  N4_23 
ROOT
HETATM    1  C1  UNL     1       4.595   0.369   2.492  1.00  0.00     0.012 C 
HETATM    2  C2  UNL     1       3.164   0.649   2.056  1.00  0.00     0.014 C 
HETATM    3  C3  UNL     1       2.277  -0.462   2.491  1.00  0.00     0.040 C 
HETATM    4  C4  UNL     1       2.312  -1.593   1.537  1.00  0.00     0.141 C 
HETATM    5  C5  UNL     1       2.256  -1.274   0.093  1.00  0.00     0.115 C 
HETATM    6  C14 UNL     1       2.990  -0.068  -0.348  1.00  0.00     0.060 C 
HETATM    7  C15 UNL     1       3.054   1.053   0.627  1.00  0.00     0.189 C 
ENDROOT
BRANCH   5   8
HETATM    8  N1  UNL     1       0.861  -1.167  -0.302  1.00  0.00    -0.349 N 
HETATM    9  C6  UNL     1       0.230  -2.020  -1.212  1.00  0.00     0.257 C 
HETATM   10  O2  UNL     1       0.915  -2.948  -1.726  1.00  0.00    -0.267 OA
ATOM     11  H1  UNL     1       0.305  -0.419   0.113  1.00  0.00     0.163 HD
BRANCH   9  12
HETATM   12  C7  UNL     1      -1.171  -1.900  -1.599  1.00  0.00     0.169 C 
BRANCH  12  13
HETATM   13  N2  UNL     1      -1.924  -0.857  -1.031  1.00  0.00    -0.344 N 
HETATM   14  C8  UNL     1      -1.654   0.472  -1.376  1.00  0.00     0.070 C 
HETATM   15  C9  UNL     1      -2.726   1.191  -2.151  1.00  0.00     0.075 C 
HETATM   16  C10 UNL     1      -3.640   1.957  -1.217  1.00  0.00     0.277 C 
HETATM   17  N3  UNL     1      -4.010   1.050  -0.152  1.00  0.00     0.089 N 
HETATM   18  C11 UNL     1      -5.037   1.655   0.636  1.00  0.00     0.310 C 
HETATM   19  C12 UNL     1      -4.287  -0.283  -0.582  1.00  0.00     0.317 C 
HETATM   20  C13 UNL     1      -3.117  -1.186  -0.384  1.00  0.00     0.098 C 
ENDBRANCH  12  13
ENDBRANCH   9  12
ENDBRANCH   5   8
BRANCH   4  21
HETATM   21  O1  UNL     1       3.441  -2.387   1.848  1.00  0.00    -0.394 OA
ATOM     22  H1  UNL     1       3.463  -3.113   1.236  1.00  0.00     0.210 HD
ENDBRANCH   4  21
BRANCH   7  23
HETATM   23  N4  UNL     1       4.129   1.978   0.318  1.00  0.00    -0.075 N 
ATOM     24  H43 UNL     1       4.147   2.779   0.949  1.00  0.00     0.274 HD
ATOM     25  H42 UNL     1       5.048   1.598   0.546  1.00  0.00     0.274 HD
ATOM     26  H41 UNL     1       4.054   2.255  -0.661  1.00  0.00     0.274 HD
ENDBRANCH   7  23
TORSDOF 5
