REMARK  7 active torsions:
REMARK  status: ('A' for Active; 'I' for Inactive)
REMARK    1  A    between atoms: C2_2  and  O1_5 
REMARK    2  A    between atoms: O1_5  and  C5_6 
REMARK    3  A    between atoms: C6_7  and  C7_8 
REMARK    4  A    between atoms: C7_8  and  O2_9 
REMARK    5  A    between atoms: C8_11  and  O3_12 
REMARK    6  A    between atoms: C10_15  and  O4_16 
REMARK    7  A    between atoms: C11_18  and  N1_19 
ROOT
HETATM    1  C5  UNL     1       0.445  -0.127   0.216  1.00  0.00     0.167 C 
HETATM    2  C6  UNL     1       0.608  -1.606   0.419  1.00  0.00     0.069 C 
HETATM    3  C8  UNL     1       0.956  -2.140  -0.981  1.00  0.00     0.129 C 
HETATM    4  C9  UNL     1      -0.336  -1.962  -1.747  1.00  0.00     0.066 C 
HETATM    5  C10 UNL     1      -0.813  -0.546  -1.816  1.00  0.00     0.156 C 
HETATM    6  C11 UNL     1      -0.883   0.159  -0.492  1.00  0.00     0.280 C 
ENDROOT
BRANCH   1   7
HETATM    7  O1  UNL     1       1.405   0.345  -0.626  1.00  0.00    -0.373 OA
BRANCH   7   8
HETATM    8  C2  UNL     1       2.213   1.348  -0.278  1.00  0.00     0.050 C 
HETATM    9  C1  UNL     1       3.162   1.607  -1.465  1.00  0.00     0.045 C 
HETATM   10  C3  UNL     1       3.115   1.052   0.890  1.00  0.00     0.045 C 
HETATM   11  C4  UNL     1       1.576   2.677   0.014  1.00  0.00     0.045 C 
ENDBRANCH   7   8
ENDBRANCH   1   7
BRANCH   2  12
HETATM   12  C7  UNL     1       1.594  -2.036   1.427  1.00  0.00     0.173 C 
BRANCH  12  13
HETATM   13  O2  UNL     1       1.253  -1.518   2.671  1.00  0.00    -0.400 OA
ATOM     14  H2  UNL     1       1.888  -1.795   3.321  1.00  0.00     0.209 HD
ENDBRANCH  12  13
ENDBRANCH   2  12
BRANCH   6  15
HETATM   15  N1  UNL     1      -2.031  -0.116   0.256  1.00  0.00     0.098 N 
HETATM   16  C12 UNL     1      -3.204   0.382  -0.407  1.00  0.00     0.273 C 
HETATM   17  C13 UNL     1      -4.082   1.013   0.653  1.00  0.00     0.032 C 
HETATM   18  C14 UNL     1      -3.209   1.170   1.863  1.00  0.00     0.032 C 
HETATM   19  C15 UNL     1      -2.113   0.125   1.611  1.00  0.00     0.273 C 
ENDBRANCH   6  15
BRANCH   3  20
HETATM   20  O3  UNL     1       1.283  -3.475  -0.945  1.00  0.00    -0.395 OA
ATOM     21  H3  UNL     1       1.498  -3.805  -1.810  1.00  0.00     0.210 HD
ENDBRANCH   3  20
BRANCH   5  22
HETATM   22  O4  UNL     1      -1.993  -0.548  -2.530  1.00  0.00    -0.393 OA
ATOM     23  H4  UNL     1      -2.296   0.351  -2.574  1.00  0.00     0.210 HD
ENDBRANCH   5  22
TORSDOF 7
