REMARK  2 active torsions:
REMARK  status: ('A' for Active; 'I' for Inactive)
REMARK    1  A    between atoms: C4_7  and  C6_9 
REMARK    2  A    between atoms: C6_9  and  N2_10 
ROOT
HETATM    1  C1  UNL     1      -2.966   0.285   2.468  1.00  0.00     0.053 C 
HETATM    2  C2  UNL     1      -1.996   0.712   1.379  1.00  0.00     0.312 C 
HETATM    3  C3  UNL     1      -0.631   0.574   1.953  1.00  0.00     0.253 C 
HETATM    4  O1  UNL     1      -0.463   1.183   3.019  1.00  0.00    -0.271 OA
HETATM    5  N1  UNL     1       0.452  -0.147   1.433  1.00  0.00    -0.332 N 
ATOM      6  H1  UNL     1       1.260  -0.225   2.051  1.00  0.00     0.165 HD
HETATM    7  C4  UNL     1       0.590  -0.786   0.171  1.00  0.00     0.124 C 
HETATM    8  C5  UNL     1       0.057  -2.220   0.362  1.00  0.00     0.064 C 
HETATM    9  N3  UNL     1      -0.068  -0.207  -0.911  1.00  0.00    -0.362 N 
ATOM     10  H3  UNL     1       0.467  -0.030  -1.761  1.00  0.00     0.158 HD
HETATM   11  C10 UNL     1      -1.408   0.142  -0.898  1.00  0.00     0.223 C 
HETATM   12  C11 UNL     1      -1.589   1.630  -1.242  1.00  0.00     0.073 C 
HETATM   13  C12 UNL     1      -2.064  -0.592  -2.085  1.00  0.00     0.073 C 
HETATM   14  N4  UNL     1      -2.196  -0.158   0.244  1.00  0.00     0.125 N 
HETATM   15  C13 UNL     1      -3.615  -0.232  -0.003  1.00  0.00     0.314 C 
ENDROOT
BRANCH   7  16
HETATM   16  C6  UNL     1       2.047  -1.001  -0.208  1.00  0.00     0.288 C 
BRANCH  16  17
HETATM   17  N2  UNL     1       2.847   0.137  -0.318  1.00  0.00    -0.074 N 
HETATM   18  C7  UNL     1       3.891  -0.160  -1.321  1.00  0.00     0.271 C 
HETATM   19  C8  UNL     1       2.258   1.367  -0.697  1.00  0.00     0.271 C 
HETATM   20  C9  UNL     1       3.612   0.379   0.917  1.00  0.00     0.271 C 
ENDBRANCH  16  17
ENDBRANCH   7  16
TORSDOF 2
