REMARK  6 active torsions:
REMARK  status: ('A' for Active; 'I' for Inactive)
REMARK    1  A    between atoms: C2_2  and  N1_3 
REMARK       I    between atoms: N1_3  and  C3_5 
REMARK       I    between atoms: C3_5  and  N2_7 
REMARK    2  A    between atoms: N2_7  and  C4_9 
REMARK    3  A    between atoms: C4_9  and  C5_10 
REMARK    4  A    between atoms: C9_17  and  N4_18 
REMARK    5  A    between atoms: C10_20  and  O2_21 
REMARK    6  A    between atoms: C10_20  and  C11_23 
ROOT
HETATM    1  C5  UNL     1       0.114  -0.875   0.299  1.00  0.00     0.025 A 
HETATM    2  C6  UNL     1       0.669  -2.069  -0.099  1.00  0.00     0.037 A 
HETATM    3  C7  UNL     1      -0.132  -3.045  -0.604  1.00  0.00     0.027 A 
HETATM    4 BR1  UNL     1       0.686  -4.715  -1.198  1.00  0.00    -0.050 Br
HETATM    5  C8  UNL     1      -1.522  -2.942  -0.783  1.00  0.00     0.108 A 
HETATM    6  N3  UNL     1      -2.049  -1.731  -0.388  1.00  0.00    -0.350 N 
ATOM      7  H3  UNL     1      -3.049  -1.557  -0.483  1.00  0.00     0.166 HD
HETATM    8  C9  UNL     1      -1.249  -0.780   0.122  1.00  0.00     0.118 A 
ENDROOT
BRANCH   1   9
HETATM    9  C4  UNL     1       0.723   0.309   1.009  1.00  0.00     0.108 C 
BRANCH   9  10
HETATM   10  N2  UNL     1       2.035   0.553   0.589  1.00  0.00    -0.318 N 
HETATM   11  C3  UNL     1       3.311   0.498   0.942  1.00  0.00     0.323 C 
HETATM   12  N1  UNL     1       4.373   0.978   0.097  1.00  0.00    -0.323 N 
HETATM   13  O1  UNL     1       3.779   0.022   2.043  1.00  0.00    -0.247 OA
ATOM     14  H1  UNL     1       4.115   1.363  -0.811  1.00  0.00     0.169 HD
ATOM     15  H2  UNL     1       1.993   0.916  -0.363  1.00  0.00     0.170 HD
BRANCH  12  16
HETATM   16  C2  UNL     1       5.740   0.956   0.429  1.00  0.00     0.061 C 
HETATM   17  C1  UNL     1       6.609   1.643  -0.622  1.00  0.00     0.055 C 
ENDBRANCH  12  16
ENDBRANCH   9  10
ENDBRANCH   1   9
BRANCH   8  18
HETATM   18  N4  UNL     1      -1.775   0.405   0.351  1.00  0.00    -0.326 N 
HETATM   19  C10 UNL     1      -3.090   0.664   0.174  1.00  0.00     0.120 C 
ATOM     20  H4  UNL     1      -1.167   1.157   0.675  1.00  0.00     0.169 HD
BRANCH  19  21
HETATM   21  O2  UNL     1      -2.635   1.886  -0.797  1.00  0.00    -0.349 OA
ATOM     22  H2  UNL     1      -3.559   2.068  -0.921  1.00  0.00     0.219 HD
ENDBRANCH  19  21
BRANCH  19  23
HETATM   23  C11 UNL     1      -4.428   0.947  -0.021  1.00  0.00     0.052 C 
HETATM   24  C12 UNL     1      -4.916   0.418  -1.421  1.00  0.00     0.018 C 
HETATM   25  C13 UNL     1      -5.458   0.504   0.986  1.00  0.00     0.018 C 
ENDBRANCH  19  23
ENDBRANCH   8  18
TORSDOF 6
