REMARK  5 active torsions:
REMARK  status: ('A' for Active; 'I' for Inactive)
REMARK    1  A    between atoms: C2_2  and  C4_4 
REMARK    2  A    between atoms: C4_4  and  C6_6 
REMARK    3  A    between atoms: C6_6  and  C7_7 
REMARK       I    between atoms: C7_7  and  N1_9 
REMARK    4  A    between atoms: N1_9  and  N2_10 
REMARK       I    between atoms: N2_10  and  C8_12 
REMARK       I    between atoms: C8_12  and  N3_14 
REMARK    5  A    between atoms: N3_14  and  C9_16 
ROOT
HETATM    1  N2  UNL     1       1.517  -0.594  -0.203  1.00  0.00    -0.181 N 
ATOM      2  H2  UNL     1       1.970  -0.692  -1.112  1.00  0.00     0.207 HD
HETATM    3  C8  UNL     1       2.261  -1.119   0.884  1.00  0.00     0.350 C 
HETATM    4  O2  UNL     1       1.803  -1.038   2.049  1.00  0.00    -0.244 OA
HETATM    5  N3  UNL     1       3.515  -1.725   0.612  1.00  0.00    -0.293 N 
ATOM      6  H3  UNL     1       3.571  -2.738   0.511  1.00  0.00     0.172 HD
ENDROOT
BRANCH   1   7
HETATM    7  N1  UNL     1       0.331   0.004  -0.241  1.00  0.00    -0.283 NA
HETATM    8  C7  UNL     1      -0.872   0.636  -0.266  1.00  0.00     0.313 C 
HETATM    9  O1  UNL     1      -1.142   1.745   0.242  1.00  0.00    -0.255 OA
BRANCH   8  10
HETATM   10  C6  UNL     1      -1.973  -0.113  -1.002  1.00  0.00     0.126 C 
BRANCH  10  11
HETATM   11  C4  UNL     1      -3.313   0.498  -0.886  1.00  0.00    -0.005 C 
HETATM   12  C5  UNL     1      -4.240  -0.237  -1.822  1.00  0.00     0.011 C 
BRANCH  11  13
HETATM   13  C2  UNL     1      -3.866   0.585   0.485  1.00  0.00    -0.019 C 
HETATM   14  C1  UNL     1      -5.208   1.327   0.404  1.00  0.00     0.010 C 
HETATM   15  C3  UNL     1      -4.188  -0.765   1.087  1.00  0.00     0.010 C 
ENDBRANCH  11  13
ENDBRANCH  10  11
ENDBRANCH   8  10
ENDBRANCH   1   7
BRANCH   5  16
HETATM   16  C9  UNL     1       4.598  -1.007   0.489  1.00  0.00     0.108 A 
HETATM   17  C10 UNL     1       4.500   0.357   0.633  1.00  0.00     0.050 A 
HETATM   18  C11 UNL     1       5.633   1.145   0.479  1.00  0.00     0.024 A 
HETATM   19  C12 UNL     1       6.823   0.525   0.188  1.00  0.00     0.026 A 
HETATM   20 BR1  UNL     1       8.360   1.631  -0.014  1.00  0.00    -0.050 Br
HETATM   21  C13 UNL     1       6.901  -0.839   0.050  1.00  0.00     0.108 A 
HETATM   22  N4  UNL     1       5.776  -1.580   0.204  1.00  0.00    -0.351 N 
ATOM     23  H4  UNL     1       5.827  -2.594   0.101  1.00  0.00     0.166 HD
ENDBRANCH   5  16
TORSDOF 5
