REMARK  16 active torsions:
REMARK  status: ('A' for Active; 'I' for Inactive)
REMARK    1  A    between atoms: C3_3  and  C4_4 
REMARK    2  A    between atoms: C4_4  and  N1_5 
REMARK       I    between atoms: N2_8  and  C7_9 
REMARK       I    between atoms: C7_9  and  N3_11 
REMARK    3  A    between atoms: N3_11  and  C8_13 
REMARK    4  A    between atoms: C8_13  and  C9_14 
REMARK    5  A    between atoms: C9_14  and  C10_15 
REMARK    6  A    between atoms: C10_15  and  C11_16 
REMARK    7  A    between atoms: C11_16  and  C12_17 
REMARK    8  A    between atoms: C12_17  and  C13_18 
REMARK    9  A    between atoms: C13_18  and  C14_19 
REMARK   10  A    between atoms: C14_19  and  N4_20 
REMARK       I    between atoms: N4_20  and  C15_22 
REMARK   11  A    between atoms: N8_31  and  C18_32 
REMARK   12  A    between atoms: C19_33  and  C20_34 
REMARK   13  A    between atoms: C20_34  and  C21_35 
REMARK   14  A    between atoms: C21_35  and  C22_36 
REMARK   15  A    between atoms: C22_36  and  C23_37 
REMARK   16  A    between atoms: N9_39  and  N10_41 
ROOT
HETATM    1  C1  UNL     1      -6.451   3.826   2.721  1.00  0.00     0.019 C 
HETATM    2  C2  UNL     1      -5.686   4.032   1.820  1.00  0.00    -0.057 C 
HETATM    3  C3  UNL     1      -4.735   4.261   0.712  1.00  0.00     0.117 C 
HETATM    4  N9  UNL     1      -4.779   5.388   0.167  1.00  0.00    -0.298 N 
ATOM      5  H9  UNL     1      -4.143   5.603  -0.601  1.00  0.00     0.187 HD
ENDROOT
BRANCH   3   6
HETATM    6  C4  UNL     1      -3.833   3.149   0.381  1.00  0.00     0.156 C 
BRANCH   6   7
HETATM    7  N1  UNL     1      -3.435   2.962  -0.952  1.00  0.00    -0.258 N 
HETATM    8  C5  UNL     1      -2.576   3.877  -1.537  1.00  0.00     0.110 C 
HETATM    9  C6  UNL     1      -1.407   3.261  -2.285  1.00  0.00     0.199 C 
HETATM   10  N2  UNL     1      -1.026   1.994  -1.666  1.00  0.00    -0.127 N 
HETATM   11  C7  UNL     1       0.271   1.745  -1.236  1.00  0.00     0.337 C 
HETATM   12  C17 UNL     1      -2.102   1.013  -1.581  1.00  0.00     0.703 C 
HETATM   13  O1  UNL     1       1.109   2.696  -1.466  1.00  0.00    -0.246 OA
HETATM   14  N3  UNL     1       0.765   0.614  -0.602  1.00  0.00    -0.342 N 
ATOM     15  H3  UNL     1       0.119  -0.145  -0.386  1.00  0.00     0.164 HD
HETATM   16  N7  UNL     1      -1.899  -0.183  -1.710  1.00  0.00    -0.232 N 
HETATM   17  N8  UNL     1      -3.397   1.634  -1.397  1.00  0.00    -0.092 N 
ATOM     18  H72 UNL     1      -0.987  -0.620  -1.840  1.00  0.00     0.174 HD
ATOM     19  H71 UNL     1      -2.651  -0.869  -1.651  1.00  0.00     0.174 HD
BRANCH  14  20
HETATM   20  C8  UNL     1       2.179   0.461  -0.227  1.00  0.00     0.124 C 
BRANCH  20  21
HETATM   21  C9  UNL     1       3.061   0.446  -1.410  1.00  0.00     0.020 C 
BRANCH  21  22
HETATM   22  C10 UNL     1       4.513   0.314  -1.288  1.00  0.00     0.002 C 
BRANCH  22  23
HETATM   23  C11 UNL     1       5.175  -0.872  -0.743  1.00  0.00     0.000 C 
BRANCH  23  24
HETATM   24  C12 UNL     1       4.988  -1.295   0.665  1.00  0.00     0.002 C 
BRANCH  24  25
HETATM   25  C13 UNL     1       5.423  -0.307   1.673  1.00  0.00     0.020 C 
BRANCH  25  26
HETATM   26  C14 UNL     1       6.854   0.078   1.733  1.00  0.00     0.122 C 
BRANCH  26  27
HETATM   27  N4  UNL     1       7.807  -0.910   2.102  1.00  0.00    -0.365 N 
HETATM   28  C15 UNL     1       8.210  -2.020   1.359  1.00  0.00     0.183 C 
HETATM   29  N5  UNL     1       8.779  -1.902   0.077  1.00  0.00    -0.064 NA
HETATM   30  N6  UNL     1       8.091  -3.210   1.866  1.00  0.00    -0.369 N 
HETATM   31  C16 UNL     1       8.479  -4.401   1.171  1.00  0.00     0.148 C 
ATOM     32  H6  UNL     1       7.702  -3.301   2.805  1.00  0.00     0.161 HD
ATOM     33  H4  UNL     1       8.247  -0.794   3.015  1.00  0.00     0.162 HD
ENDBRANCH  26  27
ENDBRANCH  25  26
ENDBRANCH  24  25
ENDBRANCH  23  24
ENDBRANCH  22  23
ENDBRANCH  21  22
ENDBRANCH  20  21
ENDBRANCH  14  20
BRANCH  17  34
HETATM   34  C18 UNL     1      -4.624   0.939  -1.635  1.00  0.00     0.131 C 
HETATM   35  C19 UNL     1      -5.197  -0.013  -0.708  1.00  0.00    -0.007 C 
BRANCH  35  36
HETATM   36  C20 UNL     1      -4.531  -1.245  -0.251  1.00  0.00     0.028 C 
BRANCH  36  37
HETATM   37  C21 UNL     1      -5.493  -2.015   0.708  1.00  0.00     0.004 C 
BRANCH  37  38
HETATM   38  C22 UNL     1      -4.896  -3.256   1.240  1.00  0.00    -0.000 C 
BRANCH  38  39
HETATM   39  C23 UNL     1      -4.499  -4.282   0.209  1.00  0.00    -0.005 C 
HETATM   40  C24 UNL     1      -5.680  -4.744  -0.597  1.00  0.00     0.005 C 
ENDBRANCH  38  39
ENDBRANCH  37  38
ENDBRANCH  36  37
ENDBRANCH  35  36
ENDBRANCH  17  34
ENDBRANCH   6   7
ENDBRANCH   3   6
BRANCH   4  41
HETATM   41  N10 UNL     1      -5.708   6.372   0.610  1.00  0.00    -0.344 N 
ATOM     42 2H10 UNL     1      -6.336   6.141   1.379  1.00  0.00     0.176 HD
ATOM     43 1H10 UNL     1      -5.744   7.290   0.166  1.00  0.00     0.176 HD
ENDBRANCH   4  41
TORSDOF 16
