REMARK  17 active torsions:
REMARK  status: ('A' for Active; 'I' for Inactive)
REMARK    1  A    between atoms: C2_2  and  C3_3 
REMARK    2  A    between atoms: C3_3  and  C4_4 
REMARK    3  A    between atoms: C3_3  and  C5_7 
REMARK    4  A    between atoms: C3_3  and  C19_25 
REMARK    5  A    between atoms: C4_4  and  O1_5 
REMARK    6  A    between atoms: C5_7  and  C6_8 
REMARK    7  A    between atoms: C7_9  and  C8_10 
REMARK    8  A    between atoms: C8_10  and  C9_11 
REMARK    9  A    between atoms: C9_11  and  C10_12 
REMARK   10  A    between atoms: C10_12  and  N1_13 
REMARK   11  A    between atoms: N1_13  and  C13_16 
REMARK   12  A    between atoms: C13_16  and  C14_17 
REMARK   13  A    between atoms: C19_25  and  C20_26 
REMARK   14  A    between atoms: C20_26  and  C21_27 
REMARK   15  A    between atoms: C21_27  and  N3_28 
REMARK       I    between atoms: N3_28  and  C22_30 
REMARK   16  A    between atoms: C22_30  and  C23_32 
REMARK   17  A    between atoms: C24_37  and  N6_38 
ROOT
HETATM    1  C3  UNL     1       0.949   0.305  -1.414  1.00  0.00     0.001 C 
ENDROOT
BRANCH   1   2
HETATM    2  C2  UNL     1      -0.154   0.899  -2.199  1.00  0.00    -0.025 C 
HETATM    3  C1  UNL     1      -0.146   2.158  -2.562  1.00  0.00     0.008 C 
ENDBRANCH   1   2
BRANCH   1   4
HETATM    4  C4  UNL     1       0.911   0.884  -0.013  1.00  0.00     0.177 C 
BRANCH   4   5
HETATM    5  O1  UNL     1       1.068   2.278  -0.018  1.00  0.00    -0.400 OA
ATOM      6  H1  UNL     1       1.044   2.641   0.860  1.00  0.00     0.209 HD
ENDBRANCH   4   5
ENDBRANCH   1   4
BRANCH   1   7
HETATM    7  C5  UNL     1       0.826  -1.174  -1.311  1.00  0.00     0.042 C 
BRANCH   7   8
HETATM    8  C6  UNL     1      -0.442  -1.561  -0.636  1.00  0.00    -0.029 C 
HETATM    9  C7  UNL     1      -1.351  -2.295  -1.247  1.00  0.00    -0.031 C 
BRANCH   9  10
HETATM   10  C8  UNL     1      -2.602  -2.674  -0.558  1.00  0.00     0.028 C 
BRANCH  10  11
HETATM   11  C9  UNL     1      -3.866  -2.208  -1.196  1.00  0.00     0.032 C 
BRANCH  11  12
HETATM   12  C10 UNL     1      -4.150  -0.783  -1.326  1.00  0.00     0.237 C 
BRANCH  12  13
HETATM   13  N1  UNL     1      -4.358   0.063  -0.210  1.00  0.00    -0.073 N 
HETATM   14  C11 UNL     1      -4.021  -0.362   1.088  1.00  0.00     0.272 C 
HETATM   15  C12 UNL     1      -3.525   1.278  -0.447  1.00  0.00     0.272 C 
BRANCH  13  16
HETATM   16  C13 UNL     1      -5.754   0.453  -0.241  1.00  0.00     0.269 C 
BRANCH  16  17
HETATM   17  C14 UNL     1      -6.492   0.602   1.012  1.00  0.00     0.211 C 
HETATM   18  C15 UNL     1      -7.922   1.036   0.576  1.00  0.00     0.034 C 
HETATM   19  C16 UNL     1      -8.775   1.272   1.776  1.00  0.00     0.004 C 
HETATM   20  C17 UNL     1      -8.794   0.108   2.737  1.00  0.00     0.027 C 
HETATM   21  C18 UNL     1      -7.359  -0.301   2.994  1.00  0.00     0.233 C 
HETATM   22  N2  UNL     1      -6.786  -0.664   1.712  1.00  0.00    -0.069 N 
ATOM     23  H22 UNL     1      -7.375  -1.298   1.171  1.00  0.00     0.277 HD
ATOM     24  H21 UNL     1      -5.977  -1.280   1.791  1.00  0.00     0.277 HD
ENDBRANCH  16  17
ENDBRANCH  13  16
ENDBRANCH  12  13
ENDBRANCH  11  12
ENDBRANCH  10  11
ENDBRANCH   9  10
ENDBRANCH   7   8
ENDBRANCH   1   7
BRANCH   1  25
HETATM   25  C19 UNL     1       2.240   0.706  -2.120  1.00  0.00     0.017 C 
BRANCH  25  26
HETATM   26  C20 UNL     1       3.470   0.159  -1.422  1.00  0.00     0.021 C 
BRANCH  26  27
HETATM   27  C21 UNL     1       4.668   0.615  -2.188  1.00  0.00     0.123 C 
BRANCH  27  28
HETATM   28  N3  UNL     1       5.934   0.177  -1.658  1.00  0.00    -0.354 N 
HETATM   29  C22 UNL     1       6.394   0.512  -0.368  1.00  0.00     0.287 C 
HETATM   30  O2  UNL     1       5.690   1.243   0.412  1.00  0.00    -0.264 OA
ATOM     31  H3  UNL     1       6.529  -0.406  -2.247  1.00  0.00     0.162 HD
BRANCH  29  32
HETATM   32  C23 UNL     1       7.692   0.014   0.073  1.00  0.00     0.206 A 
HETATM   33  N4  UNL     1       8.520  -0.756  -0.645  1.00  0.00    -0.266 N 
HETATM   34  N5  UNL     1       9.613  -1.031   0.048  1.00  0.00    -0.130 N 
ATOM     35  H4  UNL     1       8.334  -1.084  -1.593  1.00  0.00     0.189 HD
HETATM   36  C24 UNL     1       9.503  -0.425   1.254  1.00  0.00     0.696 A 
ATOM     37  H5  UNL     1      10.399  -1.599  -0.270  1.00  0.00     0.205 HD
HETATM   38  N7  UNL     1       8.313   0.212   1.248  1.00  0.00    -0.165 N 
HETATM   39  C26 UNL     1       7.757   1.001   2.328  1.00  0.00     0.177 C 
BRANCH  36  40
HETATM   40  N6  UNL     1      10.343  -0.432   2.236  1.00  0.00    -0.229 N 
HETATM   41  C25 UNL     1      11.590  -1.158   2.113  1.00  0.00     0.165 C 
ATOM     42  H6  UNL     1      10.128   0.073   3.096  1.00  0.00     0.177 HD
ENDBRANCH  36  40
ENDBRANCH  29  32
ENDBRANCH  27  28
ENDBRANCH  26  27
ENDBRANCH  25  26
ENDBRANCH   1  25
TORSDOF 17
