REMARK  16 active torsions:
REMARK  status: ('A' for Active; 'I' for Inactive)
REMARK    1  A    between atoms: C3_7  and  N3_8 
REMARK    2  A    between atoms: C10_15  and  O1_17 
REMARK    3  A    between atoms: C12_19  and  C13_20 
REMARK    4  A    between atoms: C13_20  and  C14_21 
REMARK    5  A    between atoms: C14_21  and  C15_22 
REMARK    6  A    between atoms: C15_22  and  C16_23 
REMARK    7  A    between atoms: C16_23  and  N4_24 
REMARK    8  A    between atoms: N4_24  and  C17_26 
REMARK    9  A    between atoms: C17_26  and  C18_27 
REMARK   10  A    between atoms: C18_27  and  C19_28 
REMARK   11  A    between atoms: C19_28  and  C20_29 
REMARK   12  A    between atoms: C20_29  and  N5_30 
REMARK   13  A    between atoms: N5_30  and  C23_33 
REMARK   14  A    between atoms: C23_33  and  C24_34 
REMARK   15  A    between atoms: C24_34  and  C25_35 
REMARK   16  A    between atoms: C25_35  and  N6_36 
ROOT
HETATM    1  C13 UNL     1      -2.086   0.804   1.245  1.00  0.00     0.015 C 
ENDROOT
BRANCH   1   2
HETATM    2  C12 UNL     1      -2.981   0.018   0.331  1.00  0.00     0.087 C 
HETATM    3  C2  UNL     1      -4.037  -0.673   1.088  1.00  0.00     0.081 C 
HETATM    4  N1  UNL     1      -3.754  -1.730   1.757  1.00  0.00    -0.384 N 
HETATM    5  N2  UNL     1      -5.388  -0.165   1.065  1.00  0.00    -0.351 N 
HETATM    6  C1  UNL     1      -4.742  -2.457   2.507  1.00  0.00     0.147 C 
ATOM      7  H1  UNL     1      -2.792  -2.068   1.757  1.00  0.00     0.160 HD
HETATM    8  C3  UNL     1      -5.962   0.484  -0.087  1.00  0.00     0.299 C 
ATOM      9  H2  UNL     1      -5.962  -0.270   1.901  1.00  0.00     0.163 HD
HETATM   10  C7  UNL     1      -4.960   0.426  -1.199  1.00  0.00     0.030 C 
HETATM   11  C8  UNL     1      -4.658  -0.973  -1.688  1.00  0.00     0.022 C 
HETATM   12  C9  UNL     1      -5.270   1.348  -2.352  1.00  0.00     0.022 C 
HETATM   13  C10 UNL     1      -3.636   0.954  -0.634  1.00  0.00     0.075 C 
HETATM   14  C11 UNL     1      -3.795   2.348  -0.074  1.00  0.00     0.047 C 
BRANCH   8  15
HETATM   15  N3  UNL     1      -7.293   0.134  -0.331  1.00  0.00    -0.057 N 
HETATM   16  C4  UNL     1      -8.109   1.316  -0.664  1.00  0.00     0.274 C 
HETATM   17  C5  UNL     1      -7.626  -0.867  -1.276  1.00  0.00     0.274 C 
HETATM   18  C6  UNL     1      -7.893  -0.328   0.941  1.00  0.00     0.274 C 
ENDBRANCH   8  15
BRANCH  13  19
HETATM   19  O1  UNL     1      -2.710   1.108  -1.700  1.00  0.00    -0.389 OA
ATOM     20  H1  UNL     1      -1.890   1.435  -1.350  1.00  0.00     0.210 HD
ENDBRANCH  13  19
ENDBRANCH   1   2
BRANCH   1  21
HETATM   21  C14 UNL     1      -1.328   0.024   2.257  1.00  0.00     0.002 C 
BRANCH  21  22
HETATM   22  C15 UNL     1      -0.367  -0.963   1.661  1.00  0.00     0.019 C 
BRANCH  22  23
HETATM   23  C16 UNL     1       0.691  -0.293   0.803  1.00  0.00     0.113 C 
BRANCH  23  24
HETATM   24  N4  UNL     1       1.606  -1.230   0.235  1.00  0.00    -0.421 N 
ATOM     25  H4  UNL     1       1.629  -1.412  -0.768  1.00  0.00     0.153 HD
BRANCH  24  26
HETATM   26  C17 UNL     1       2.479  -1.895   1.127  1.00  0.00     0.113 C 
BRANCH  26  27
HETATM   27  C18 UNL     1       3.531  -1.103   1.796  1.00  0.00     0.021 C 
BRANCH  27  28
HETATM   28  C19 UNL     1       4.573  -0.440   0.976  1.00  0.00     0.029 C 
BRANCH  28  29
HETATM   29  C20 UNL     1       4.059   0.557   0.017  1.00  0.00     0.236 C 
BRANCH  29  30
HETATM   30  N5  UNL     1       5.106   1.251  -0.750  1.00  0.00    -0.075 N 
HETATM   31  C21 UNL     1       4.296   2.078  -1.702  1.00  0.00     0.272 C 
HETATM   32  C22 UNL     1       5.742   2.188   0.103  1.00  0.00     0.272 C 
BRANCH  30  33
HETATM   33  C23 UNL     1       5.905   0.402  -1.545  1.00  0.00     0.238 C 
BRANCH  33  34
HETATM   34  C24 UNL     1       7.374   0.406  -1.374  1.00  0.00     0.047 C 
BRANCH  34  35
HETATM   35  C25 UNL     1       7.907  -0.024  -0.046  1.00  0.00     0.123 C 
BRANCH  35  36
HETATM   36  N6  UNL     1       9.374   0.052  -0.121  1.00  0.00    -0.367 N 
HETATM   37  C26 UNL     1      10.045  -1.006  -0.352  1.00  0.00     0.196 C 
HETATM   38  N7  UNL     1      11.476  -0.908  -0.421  1.00  0.00    -0.067 NA
HETATM   39  N8  UNL     1       9.414  -2.257  -0.538  1.00  0.00    -0.067 NA
ATOM     40  H6  UNL     1       9.850   0.944   0.011  1.00  0.00     0.161 HD
ENDBRANCH  35  36
ENDBRANCH  34  35
ENDBRANCH  33  34
ENDBRANCH  30  33
ENDBRANCH  29  30
ENDBRANCH  28  29
ENDBRANCH  27  28
ENDBRANCH  26  27
ENDBRANCH  24  26
ENDBRANCH  23  24
ENDBRANCH  22  23
ENDBRANCH  21  22
ENDBRANCH   1  21
TORSDOF 16
