REMARK  5 active torsions:
REMARK  status: ('A' for Active; 'I' for Inactive)
REMARK       I    between atoms: C2_2  and  N1_4 
REMARK       I    between atoms: N1_4  and  C3_6 
REMARK    1  A    between atoms: C3_6  and  C4_8 
REMARK    2  A    between atoms: C5_9  and  N2_10 
REMARK    3  A    between atoms: N5_17  and  N6_18 
REMARK    4  A    between atoms: N6_18  and  N7_20 
REMARK    5  A    between atoms: N7_20  and  N8_21 
ROOT
HETATM    1  C4  UNL     1       0.162   0.655   0.233  1.00  0.00     0.190 A 
HETATM    2  C5  UNL     1      -0.085   1.982  -0.038  1.00  0.00     0.151 A 
HETATM    3  N3  UNL     1       1.098   2.645  -0.014  1.00  0.00    -0.268 N 
ATOM      4  H3  UNL     1       1.239   3.642  -0.178  1.00  0.00     0.190 HD
HETATM    5  N4  UNL     1       2.010   1.775   0.255  1.00  0.00    -0.218 N 
ATOM      6  H4  UNL     1       3.002   1.998   0.334  1.00  0.00     0.210 HD
HETATM    7  N5  UNL     1       1.506   0.540   0.419  1.00  0.00    -0.160 N 
ENDROOT
BRANCH   1   8
HETATM    8  C3  UNL     1      -0.814  -0.429   0.311  1.00  0.00     0.282 C 
HETATM    9  N1  UNL     1      -2.181  -0.279   0.117  1.00  0.00    -0.292 N 
HETATM   10  C2  UNL     1      -3.047  -1.405   0.216  1.00  0.00     0.220 C 
ATOM     11  H1  UNL     1      -2.566   0.641  -0.097  1.00  0.00     0.172 HD
HETATM   12  C1  UNL     1      -4.521  -1.305   0.017  1.00  0.00     0.117 C 
HETATM   13  O1  UNL     1      -2.602  -2.559   0.480  1.00  0.00    -0.274 OA
HETATM   14  O2  UNL     1      -0.423  -1.616   0.575  1.00  0.00    -0.265 OA
ENDBRANCH   1   8
BRANCH   2  15
HETATM   15  N2  UNL     1      -1.218   2.563  -0.283  1.00  0.00    -0.382 N 
ATOM     16  H22 UNL     1      -2.108   2.064  -0.301  1.00  0.00     0.157 HD
ATOM     17  H21 UNL     1      -1.401   3.546  -0.484  1.00  0.00     0.157 HD
ENDBRANCH   2  15
BRANCH   7  18
HETATM   18  N6  UNL     1       2.257  -0.576   0.714  1.00  0.00    -0.204 N 
ATOM     19  H6  UNL     1       1.787  -1.475   0.823  1.00  0.00     0.208 HD
BRANCH  18  20
HETATM   20  N7  UNL     1       3.662  -0.512   0.870  1.00  0.00    -0.012 NA
BRANCH  20  21
HETATM   21  N8  UNL     1       4.233  -1.729   0.415  1.00  0.00    -0.327 N 
ATOM     22  H82 UNL     1       3.702  -2.515   0.039  1.00  0.00     0.174 HD
ATOM     23  H81 UNL     1       5.246  -1.683   0.527  1.00  0.00     0.174 HD
ENDBRANCH  20  21
ENDBRANCH  18  20
ENDBRANCH   7  18
TORSDOF 5
