REMARK  4 active torsions:
REMARK  status: ('A' for Active; 'I' for Inactive)
REMARK       I    between atoms: N1_2  and  C2_4 
REMARK    1  A    between atoms: C2_4  and  C3_6 
REMARK    2  A    between atoms: C5_8  and  C6_9 
REMARK    3  A    between atoms: C9_12  and  C11_14 
REMARK    4  A    between atoms: C12_16  and  C13_17 
ROOT
HETATM    1  C3  UNL     1       1.066  -0.082   0.958  1.00  0.00     0.096 C 
HETATM    2  C4  UNL     1       0.343  -1.399   0.768  1.00  0.00     0.023 C 
HETATM    3  C5  UNL     1      -1.101  -0.959   0.756  1.00  0.00     0.032 C 
HETATM    4  C11 UNL     1      -1.109   0.532   0.543  1.00  0.00     0.125 C 
HETATM    5  F1  UNL     1      -1.262   1.201   1.722  1.00  0.00    -0.241 F 
HETATM    6  C12 UNL     1       0.281   0.760  -0.051  1.00  0.00     0.140 C 
ENDROOT
BRANCH   1   7
HETATM    7  C2  UNL     1       2.492  -0.143   0.657  1.00  0.00     0.222 C 
HETATM    8  N1  UNL     1       2.979  -0.497  -0.598  1.00  0.00    -0.365 N 
HETATM    9  C1  UNL     1       4.396  -0.551  -0.875  1.00  0.00     0.149 C 
ATOM     10  H1  UNL     1       2.318  -0.724  -1.341  1.00  0.00     0.161 HD
HETATM   11  O1  UNL     1       3.306   0.138   1.575  1.00  0.00    -0.273 OA
ENDBRANCH   1   7
BRANCH   6  12
HETATM   12  C13 UNL     1       0.681   2.153  -0.058  1.00  0.00     0.181 C 
HETATM   13  O2  UNL     1       1.131   2.669  -1.105  1.00  0.00    -0.648 OA
HETATM   14  O3  UNL     1       0.573   2.928   1.079  1.00  0.00    -0.648 OA
ENDBRANCH   6  12
BRANCH   3  15
HETATM   15  C6  UNL     1      -1.873  -1.551  -0.400  1.00  0.00     0.002 A 
HETATM   16  C7  UNL     1      -3.298  -1.009  -0.467  1.00  0.00    -0.004 A 
HETATM   17  C8  UNL     1      -3.528   0.345   0.128  1.00  0.00     0.013 C 
HETATM   18  C10 UNL     1      -2.197  -0.456  -1.288  1.00  0.00     0.002 A 
HETATM   19  C9  UNL     1      -2.199   0.783  -0.454  1.00  0.00     0.032 C 
ENDBRANCH   3  15
TORSDOF 4
