REMARK  2 active torsions:
REMARK  status: ('A' for Active; 'I' for Inactive)
REMARK       I    between atoms: C1_2  and  N1_3 
REMARK    1  A    between atoms: C1_2  and  C8_13 
REMARK    2  A    between atoms: N1_3  and  C2_5 
ROOT
HETATM    1  O1  UNL     1      -1.301  -1.517  -0.390  1.00  0.00    -0.271 OA
HETATM    2  C1  UNL     1      -1.255  -0.282  -0.568  1.00  0.00     0.248 C 
HETATM    3  N1  UNL     1      -0.042   0.397  -0.559  1.00  0.00    -0.355 N 
ATOM      4  H1  UNL     1      -0.084   1.405  -0.712  1.00  0.00     0.162 HD
ENDROOT
BRANCH   3   5
HETATM    5  C2  UNL     1       1.262  -0.164  -0.358  1.00  0.00     0.085 C 
HETATM    6  C3  UNL     1       2.211   0.037  -1.493  1.00  0.00     0.035 C 
HETATM    7  C4  UNL     1       2.994  -1.233  -1.778  1.00  0.00     0.079 C 
HETATM    8  S1  UNL     1       4.329  -1.468  -0.576  1.00  0.00    -0.132 SA
HETATM    9  C5  UNL     1       4.132  -0.342   0.843  1.00  0.00     0.231 C 
HETATM   10  F1  UNL     1       5.120  -0.631   1.753  1.00  0.00    -0.238 F 
HETATM   11  C6  UNL     1       2.799  -0.555   1.527  1.00  0.00     0.050 C 
HETATM   12  C7  UNL     1       1.804   0.397   0.948  1.00  0.00     0.029 C 
ENDBRANCH   3   5
BRANCH   2  13
HETATM   13  C8  UNL     1      -2.546   0.402  -0.787  1.00  0.00     0.277 C 
HETATM   14  C9  UNL     1      -2.798   1.424   0.299  1.00  0.00     0.044 C 
HETATM   15  C10 UNL     1      -3.669   0.706   1.307  1.00  0.00     0.030 C 
HETATM   16  C11 UNL     1      -4.349  -0.345   0.484  1.00  0.00     0.233 C 
HETATM   17  N2  UNL     1      -3.669  -0.473  -0.759  1.00  0.00    -0.062 N 
ATOM     18  H22 UNL     1      -4.291  -0.324  -1.554  1.00  0.00     0.278 HD
ATOM     19  H21 UNL     1      -3.407  -1.439  -0.955  1.00  0.00     0.278 HD
ENDBRANCH   2  13
TORSDOF 2
