REMARK  3 active torsions:
REMARK  status: ('A' for Active; 'I' for Inactive)
REMARK    1  A    between atoms: C5_5  and  N1_6 
REMARK       I    between atoms: N1_6  and  C6_8 
REMARK    2  A    between atoms: C6_8  and  C7_10 
REMARK       I    between atoms: C7_10  and  N2_12 
REMARK    3  A    between atoms: N2_12  and  C8_14 
ROOT
HETATM    1  C1  UNL     1       4.478   1.674   1.202  1.00  0.00     0.012 C 
HETATM    2  C2  UNL     1       3.633   1.284   0.435  1.00  0.00    -0.110 C 
HETATM    3  C3  UNL     1       2.612   0.812  -0.506  1.00  0.00     0.089 A 
HETATM    4  C4  UNL     1       2.819  -0.588  -1.000  1.00  0.00     0.045 A 
HETATM    5  C5  UNL     1       1.748  -0.363  -0.026  1.00  0.00     0.101 A 
ENDROOT
BRANCH   5   6
HETATM    6  N1  UNL     1       0.359  -0.231  -0.414  1.00  0.00    -0.347 N 
HETATM    7  C6  UNL     1      -0.728  -0.483   0.428  1.00  0.00     0.309 C 
HETATM    8  O1  UNL     1      -0.619  -0.858   1.629  1.00  0.00    -0.262 OA
ATOM      9  H1  UNL     1       0.160   0.067  -1.369  1.00  0.00     0.163 HD
BRANCH   7  10
HETATM   10  C7  UNL     1      -2.093  -0.307  -0.100  1.00  0.00     0.309 C 
HETATM   11  O2  UNL     1      -2.255   0.064  -1.290  1.00  0.00    -0.262 OA
HETATM   12  N2  UNL     1      -3.235  -0.546   0.698  1.00  0.00    -0.344 N 
ATOM     13  H2  UNL     1      -3.133  -0.848   1.667  1.00  0.00     0.163 HD
BRANCH  12  14
HETATM   14  C8  UNL     1      -4.543  -0.358   0.129  1.00  0.00     0.208 C 
HETATM   15 BR1  UNL     1      -4.809   1.458  -0.472  1.00  0.00    -0.075 Br
ENDBRANCH  12  14
ENDBRANCH   7  10
ENDBRANCH   5   6
TORSDOF 3
