REMARK  6 active torsions:
REMARK  status: ('A' for Active; 'I' for Inactive)
REMARK    1  A    between atoms: C1_2  and  C2_3 
REMARK       I    between atoms: C1_2  and  N2_15 
REMARK    2  A    between atoms: C3_4  and  C4_5 
REMARK    3  A    between atoms: C5_6  and  C6_7 
REMARK       I    between atoms: C6_7  and  N1_9 
REMARK    4  A    between atoms: N1_9  and  C7_11 
REMARK    5  A    between atoms: N2_15  and  C11_17 
REMARK    6  A    between atoms: C11_17  and  C12_18 
ROOT
HETATM    1  C12 UNL     1      -7.312   0.054  -0.207  1.00  0.00    -0.051 C 
HETATM    2  C13 UNL     1      -7.845   1.061   0.196  1.00  0.00     0.107 C 
HETATM    3  F1  UNL     1      -8.425   2.176   0.651  1.00  0.00    -0.144 F 
ENDROOT
BRANCH   1   4
HETATM    4  C11 UNL     1      -6.642  -1.169  -0.690  1.00  0.00     0.220 C 
BRANCH   4   5
HETATM    5  N2  UNL     1      -5.237  -1.041  -0.334  1.00  0.00    -0.340 N 
HETATM    6  C1  UNL     1      -4.536   0.070  -0.876  1.00  0.00     0.298 C 
HETATM    7  O1  UNL     1      -5.074   0.909  -1.624  1.00  0.00    -0.258 OA
ATOM      8  H2  UNL     1      -4.777  -1.717   0.276  1.00  0.00     0.164 HD
BRANCH   6   9
HETATM    9  C2  UNL     1      -3.132   0.186  -0.511  1.00  0.00     0.009 C 
HETATM   10  C3  UNL     1      -1.972   0.298  -0.195  1.00  0.00    -0.004 C 
BRANCH  10  11
HETATM   11  C4  UNL     1      -0.614   0.420   0.193  1.00  0.00    -0.004 C 
HETATM   12  C5  UNL     1       0.542   0.537   0.537  1.00  0.00     0.009 C 
BRANCH  12  13
HETATM   13  C6  UNL     1       1.911   0.689   0.965  1.00  0.00     0.297 C 
HETATM   14  O2  UNL     1       2.179   1.300   2.047  1.00  0.00    -0.258 OA
HETATM   15  N1  UNL     1       2.949   0.161   0.185  1.00  0.00    -0.346 N 
ATOM     16  H1  UNL     1       2.724  -0.328  -0.682  1.00  0.00     0.163 HD
BRANCH  15  17
HETATM   17  C7  UNL     1       4.336   0.296   0.586  1.00  0.00     0.085 C 
HETATM   18  C8  UNL     1       5.153  -0.964   0.476  1.00  0.00     0.025 C 
HETATM   19  C9  UNL     1       6.110  -0.263  -0.468  1.00  0.00     0.004 C 
HETATM   20  C10 UNL     1       5.166   0.905  -0.548  1.00  0.00     0.025 C 
ENDBRANCH  15  17
ENDBRANCH  12  13
ENDBRANCH  10  11
ENDBRANCH   6   9
ENDBRANCH   4   5
ENDBRANCH   1   4
TORSDOF 6
