REMARK  3 active torsions:
REMARK  status: ('A' for Active; 'I' for Inactive)
REMARK    1  A    between atoms: C1_2  and  C2_3 
REMARK       I    between atoms: C1_2  and  N1_5 
REMARK    2  A    between atoms: N1_5  and  N2_7 
REMARK       I    between atoms: N2_7  and  C3_9 
REMARK    3  A    between atoms: C3_9  and  C4_11 
ROOT
HETATM    1  N2  UNL     1       1.242   1.187   0.211  1.00  0.00    -0.267 N 
ATOM      2  H2  UNL     1       0.913   2.042  -0.239  1.00  0.00     0.190 HD
HETATM    3  C3  UNL     1       0.308   0.298   0.781  1.00  0.00     0.240 C 
HETATM    4  O2  UNL     1       0.722  -0.746   1.330  1.00  0.00    -0.271 OA
ENDROOT
BRANCH   1   5
HETATM    5  N1  UNL     1       2.619   0.912   0.254  1.00  0.00    -0.267 N 
HETATM    6  C1  UNL     1       3.112  -0.227  -0.426  1.00  0.00     0.245 C 
HETATM    7  O1  UNL     1       2.318  -0.979  -1.060  1.00  0.00    -0.271 OA
ATOM      8  H1  UNL     1       3.254   1.524   0.767  1.00  0.00     0.190 HD
BRANCH   6   9
HETATM    9  C2  UNL     1       4.561  -0.525  -0.385  1.00  0.00     0.189 C 
HETATM   10 BR1  UNL     1       5.474   0.812   0.640  1.00  0.00    -0.087 Br
ENDBRANCH   6   9
ENDBRANCH   1   5
BRANCH   3  11
HETATM   11  C4  UNL     1      -1.113   0.587   0.733  1.00  0.00     0.084 C 
HETATM   12  C5  UNL     1      -1.639   0.732  -0.709  1.00  0.00     0.019 C 
HETATM   13  C6  UNL     1      -2.791  -0.217  -0.642  1.00  0.00    -0.013 C 
HETATM   14  C7  UNL     1      -3.372  -0.008   0.761  1.00  0.00     0.010 C 
HETATM   15  C9  UNL     1      -2.129  -1.457  -0.024  1.00  0.00     0.010 C 
HETATM   16  C8  UNL     1      -1.997  -0.531   1.191  1.00  0.00    -0.001 C 
ENDBRANCH   3  11
TORSDOF 3
