REMARK  3 active torsions:
REMARK  status: ('A' for Active; 'I' for Inactive)
REMARK    1  A    between atoms: C1_2  and  C2_3 
REMARK       I    between atoms: C1_2  and  N1_5 
REMARK    2  A    between atoms: N1_5  and  N2_6 
REMARK       I    between atoms: N2_6  and  C3_8 
REMARK    3  A    between atoms: C3_8  and  C4_10 
ROOT
HETATM    1  N2  UNL     1       1.090   0.705  -0.252  1.00  0.00    -0.198 N 
ATOM      2  H2  UNL     1       0.837   1.192  -1.112  1.00  0.00     0.205 HD
HETATM    3  C3  UNL     1       0.021   0.191   0.579  1.00  0.00     0.277 C 
HETATM    4  O2  UNL     1       0.357  -0.404   1.624  1.00  0.00    -0.269 OA
ENDROOT
BRANCH   3   5
HETATM    5  C4  UNL     1      -1.350   0.386   0.170  1.00  0.00     0.279 C 
HETATM    6  C5  UNL     1      -1.700  -0.179  -1.208  1.00  0.00     0.045 C 
HETATM    7  C6  UNL     1      -3.215   0.094  -1.139  1.00  0.00     0.030 C 
HETATM    8  C7  UNL     1      -3.514  -0.462   0.238  1.00  0.00     0.233 C 
HETATM    9  N3  UNL     1      -2.341  -0.180   1.048  1.00  0.00    -0.062 N 
ATOM     10  H32 UNL     1      -2.003  -0.994   1.562  1.00  0.00     0.278 HD
ATOM     11  H31 UNL     1      -2.544   0.409   1.856  1.00  0.00     0.278 HD
ENDBRANCH   3   5
BRANCH   1  12
HETATM   12  N1  UNL     1       2.358   0.582   0.034  1.00  0.00    -0.283 NA
HETATM   13  C1  UNL     1       3.710   0.489   0.342  1.00  0.00     0.322 C 
HETATM   14  O1  UNL     1       4.535   1.396   0.583  1.00  0.00    -0.254 OA
BRANCH  13  15
HETATM   15  C2  UNL     1       4.309  -0.933   0.405  1.00  0.00     0.206 C 
HETATM   16 BR1  UNL     1       6.146  -0.806   0.867  1.00  0.00    -0.085 Br
ENDBRANCH  13  15
ENDBRANCH   1  12
TORSDOF 3
