REMARK  2 active torsions:
REMARK  status: ('A' for Active; 'I' for Inactive)
REMARK    1  A    between atoms: C2_2  and  C5_5 
REMARK    2  A    between atoms: C9_12  and  C11_15 
ROOT
HETATM    1  C5  UNL     1      -0.463   0.485  -0.016  1.00  0.00     0.028 C 
HETATM    2  C6  UNL     1      -0.556  -0.191   1.337  1.00  0.00     0.013 C 
HETATM    3  C7  UNL     1      -0.040  -1.598   1.175  1.00  0.00     0.054 C 
HETATM    4  C8  UNL     1       0.392  -1.666  -0.243  1.00  0.00     0.010 C 
HETATM    5  N1  UNL     1       0.519  -2.708  -0.954  1.00  0.00    -0.404 N 
ATOM      6  H11 UNL     1       0.816  -2.755  -1.929  1.00  0.00     0.155 HD
ATOM      7  H12 UNL     1       0.350  -3.678  -0.688  1.00  0.00     0.155 HD
HETATM    8  C9  UNL     1       0.638  -0.257  -0.629  1.00  0.00     0.141 C 
HETATM    9  C10 UNL     1       0.850  -0.076  -2.043  1.00  0.00     0.083 C 
HETATM   10  N2  UNL     1       1.038   0.064  -3.155  1.00  0.00    -0.196 NA
ENDROOT
BRANCH   8  11
HETATM   11  C11 UNL     1       1.888   0.148   0.116  1.00  0.00     0.098 A 
HETATM   12  N3  UNL     1       2.991  -0.573   0.230  1.00  0.00    -0.294 N 
HETATM   13  N4  UNL     1       3.981  -0.120   0.884  1.00  0.00    -0.279 N 
ATOM     14  H3  UNL     1       3.047  -1.493  -0.207  1.00  0.00     0.187 HD
HETATM   15  C12 UNL     1       3.877   1.089   1.446  1.00  0.00     0.158 A 
ATOM     16  H4  UNL     1       4.837  -0.667   0.979  1.00  0.00     0.189 HD
HETATM   17  N5  UNL     1       4.777   1.729   2.155  1.00  0.00    -0.379 N 
HETATM   18  S1  UNL     1       2.295   1.550   0.995  1.00  0.00    -0.036 SA
ATOM     19  H52 UNL     1       5.722   1.454   2.424  1.00  0.00     0.158 HD
ATOM     20  H51 UNL     1       4.698   2.651   2.584  1.00  0.00     0.158 HD
ENDBRANCH   8  11
BRANCH   1  21
HETATM   21  C2  UNL     1      -1.797   0.510  -0.643  1.00  0.00    -0.045 C 
HETATM   22  C1  UNL     1      -2.423  -0.831  -0.881  1.00  0.00     0.015 C 
HETATM   23  C3  UNL     1      -2.718   1.226   0.361  1.00  0.00     0.015 C 
HETATM   24  C4  UNL     1      -1.901   1.288  -1.922  1.00  0.00     0.015 C 
ENDBRANCH   1  21
TORSDOF 2
