REMARK  3 active torsions:
REMARK  status: ('A' for Active; 'I' for Inactive)
REMARK    1  A    between atoms: O1_1  and  N1_3 
REMARK    2  A    between atoms: N1_3  and  C1_4 
REMARK    3  A    between atoms: C14_20  and  O2_21 
ROOT
HETATM    1  C1  UNL     1       1.732   1.554   0.310  1.00  0.00     0.180 C 
HETATM    2  C2  UNL     1       0.259   1.288   0.329  1.00  0.00     0.107 A 
HETATM    3  N2  UNL     1      -0.956   1.803   0.645  1.00  0.00    -0.346 N 
ATOM      4  H2  UNL     1      -1.109   2.732   1.037  1.00  0.00     0.167 HD
HETATM    5  C3  UNL     1      -1.930   0.917   0.369  1.00  0.00     0.040 A 
HETATM    6  C4  UNL     1      -1.293  -0.184  -0.136  1.00  0.00     0.036 A 
HETATM    7  N3  UNL     1       0.012   0.062  -0.150  1.00  0.00    -0.332 N 
HETATM    8  C5  UNL     1       1.276  -0.594  -0.530  1.00  0.00     0.097 C 
HETATM    9  C6  UNL     1       1.631  -1.525   0.572  1.00  0.00     0.026 C 
HETATM   10  C7  UNL     1       3.022  -2.046   0.329  1.00  0.00     0.002 C 
HETATM   11  C8  UNL     1       3.963  -0.882   0.416  1.00  0.00     0.001 C 
HETATM   12  C9  UNL     1       3.662   0.215  -0.558  1.00  0.00     0.009 C 
HETATM   13  C10 UNL     1       2.221   0.549  -0.709  1.00  0.00     0.038 C 
HETATM   14  C11 UNL     1      -2.142  -1.341  -0.533  1.00  0.00     0.060 C 
HETATM   15  C12 UNL     1      -3.298  -1.536   0.419  1.00  0.00     0.014 C 
HETATM   16  C13 UNL     1      -4.082  -0.294   0.658  1.00  0.00     0.028 A 
HETATM   17  C14 UNL     1      -4.307   0.582  -0.561  1.00  0.00     0.133 A 
HETATM   18  C15 UNL     1      -3.401   0.986   0.527  1.00  0.00     0.073 A 
ENDROOT
BRANCH   1  19
HETATM   19  N1  UNL     1       1.908   2.917  -0.155  1.00  0.00    -0.091 NA
BRANCH  19  20
HETATM   20  O1  UNL     1       1.381   3.037  -1.396  1.00  0.00    -0.295 OA
ATOM     21  H1  UNL     1       1.496   3.929  -1.700  1.00  0.00     0.238 HD
ENDBRANCH  19  20
ENDBRANCH   1  19
BRANCH  17  22
HETATM   22  O2  UNL     1      -5.578   1.108  -0.683  1.00  0.00    -0.394 OA
ATOM     23  H2  UNL     1      -5.719   1.656  -1.446  1.00  0.00     0.210 HD
ENDBRANCH  17  22
TORSDOF 3
