REMARK  3 active torsions:
REMARK  status: ('A' for Active; 'I' for Inactive)
REMARK       I    between atoms: C1_2  and  N1_3 
REMARK       I    between atoms: C1_2  and  N4_16 
REMARK    1  A    between atoms: N2_5  and  C2_7 
REMARK    2  A    between atoms: C4_13  and  O2_14 
REMARK    3  A    between atoms: N4_16  and  C5_18 
ROOT
HETATM    1  O1  UNL     1      -0.147  -0.693   2.674  1.00  0.00    -0.246 OA
HETATM    2  C1  UNL     1       0.248  -0.588   1.489  1.00  0.00     0.335 C 
HETATM    3  N1  UNL     1       1.614  -0.689   1.191  1.00  0.00    -0.251 N 
ATOM      4  H1  UNL     1       2.199  -1.369   1.677  1.00  0.00     0.191 HD
HETATM    5  N2  UNL     1       2.112   0.068   0.317  1.00  0.00    -0.286 N 
ATOM      6  H2  UNL     1       1.545   0.755  -0.180  1.00  0.00     0.188 HD
HETATM    7  N4  UNL     1      -0.677  -0.365   0.439  1.00  0.00    -0.337 N 
ATOM      8  H4  UNL     1      -0.358  -0.279  -0.526  1.00  0.00     0.164 HD
ENDROOT
BRANCH   5   9
HETATM    9  C2  UNL     1       3.527  -0.083   0.051  1.00  0.00     0.143 A 
HETATM   10  S1  UNL     1       4.564  -1.400   0.374  1.00  0.00    -0.037 SA
HETATM   11  C3  UNL     1       6.007  -0.737  -0.247  1.00  0.00     0.146 A 
HETATM   12  S2  UNL     1       7.528  -1.395  -0.320  1.00  0.00    -0.052 SA
HETATM   13  N3  UNL     1       5.625   0.469  -0.675  1.00  0.00    -0.320 N 
HETATM   14  C4  UNL     1       4.380   0.814  -0.532  1.00  0.00     0.177 A 
ATOM     15  H3  UNL     1       6.296   1.106  -1.105  1.00  0.00     0.169 HD
BRANCH  14  16
HETATM   16  O2  UNL     1       3.879   2.075  -0.955  1.00  0.00    -0.344 OA
ATOM     17  H2  UNL     1       4.471   2.698  -1.360  1.00  0.00     0.219 HD
ENDBRANCH  14  16
ENDBRANCH   5   9
BRANCH   7  18
HETATM   18  C5  UNL     1      -2.071  -0.263   0.761  1.00  0.00     0.090 C 
HETATM   19  C6  UNL     1      -2.648   1.104   0.341  1.00  0.00     0.030 C 
HETATM   20  C7  UNL     1      -3.778   0.616  -0.521  1.00  0.00    -0.012 C 
HETATM   21  C8  UNL     1      -3.062  -0.442  -1.372  1.00  0.00     0.011 C 
HETATM   22  C10 UNL     1      -4.339  -0.561   0.242  1.00  0.00     0.011 C 
HETATM   23  C9  UNL     1      -2.958  -1.163  -0.022  1.00  0.00     0.009 C 
ENDBRANCH   7  18
TORSDOF 3
