REMARK  9 active torsions:
REMARK  status: ('A' for Active; 'I' for Inactive)
REMARK    1  A    between atoms: O1_2  and  C2_3 
REMARK    2  A    between atoms: C2_3  and  C3_5 
REMARK    3  A    between atoms: C5_7  and  O3_8 
REMARK    4  A    between atoms: C5_7  and  C7_10 
REMARK    5  A    between atoms: C9_14  and  C10_15 
REMARK       I    between atoms: C10_15  and  N2_17 
REMARK    6  A    between atoms: N2_17  and  N3_19 
REMARK    7  A    between atoms: N3_19  and  C11_21 
REMARK    8  A    between atoms: C11_21  and  C12_25 
REMARK    9  A    between atoms: C14_28  and  N5_29 
ROOT
HETATM    1  C10 UNL     1       2.185   0.957   0.428  1.00  0.00     0.278 C 
HETATM    2  O4  UNL     1       2.421   1.832   1.293  1.00  0.00    -0.265 OA
HETATM    3  N2  UNL     1       3.327   0.342  -0.208  1.00  0.00    -0.264 N 
ATOM      4  H2  UNL     1       3.208  -0.430  -0.864  1.00  0.00     0.190 HD
ENDROOT
BRANCH   1   5
HETATM    5  C9  UNL     1       0.796   0.639   0.111  1.00  0.00     0.091 A 
HETATM    6  C8  UNL     1       0.231  -0.090  -0.898  1.00  0.00     0.113 A 
HETATM    7  N1  UNL     1      -1.063  -0.049  -1.039  1.00  0.00    -0.358 N 
HETATM    8  C7  UNL     1      -1.800   0.678  -0.227  1.00  0.00     0.118 A 
ATOM      9  H1  UNL     1      -1.508  -0.584  -1.784  1.00  0.00     0.165 HD
HETATM   10  S2  UNL     1      -0.618   1.347   0.815  1.00  0.00    -0.065 SA
BRANCH   8  11
HETATM   11  C5  UNL     1      -3.233   1.045  -0.190  1.00  0.00     0.313 C 
HETATM   12  C4  UNL     1      -4.000   0.482   1.012  1.00  0.00     0.126 C 
HETATM   13  C3  UNL     1      -5.174   0.351   0.028  1.00  0.00     0.330 C 
HETATM   14  N7  UNL     1      -4.169   0.346  -1.011  1.00  0.00     0.141 N 
HETATM   15  C15 UNL     1      -3.869  -0.787  -1.741  1.00  0.00     0.315 C 
BRANCH  13  16
HETATM   16  C2  UNL     1      -6.032  -0.782   0.221  1.00  0.00     0.292 C 
HETATM   17  O2  UNL     1      -6.825  -0.767   1.215  1.00  0.00    -0.263 OA
BRANCH  16  18
HETATM   18  O1  UNL     1      -6.102  -1.918  -0.566  1.00  0.00    -0.325 OA
HETATM   19  C1  UNL     1      -6.933  -3.013  -0.395  1.00  0.00     0.213 C 
ENDBRANCH  16  18
ENDBRANCH  13  16
BRANCH  11  20
HETATM   20  O3  UNL     1      -3.458   2.419  -0.328  1.00  0.00    -0.352 OA
HETATM   21  C6  UNL     1      -3.006   3.249   0.640  1.00  0.00     0.205 C 
ENDBRANCH  11  20
ENDBRANCH   8  11
ENDBRANCH   1   5
BRANCH   3  22
HETATM   22  N3  UNL     1       4.554   0.815   0.088  1.00  0.00    -0.281 N 
ATOM     23  H3  UNL     1       4.535   1.820  -0.082  1.00  0.00     0.188 HD
BRANCH  22  24
HETATM   24  C11 UNL     1       5.803   0.510   0.518  1.00  0.00     0.141 C 
HETATM   25  N4  UNL     1       6.270   1.444   1.379  1.00  0.00    -0.383 N 
ATOM     26  H42 UNL     1       5.653   2.209   1.651  1.00  0.00     0.157 HD
ATOM     27  H41 UNL     1       7.210   1.215   1.703  1.00  0.00     0.157 HD
BRANCH  24  28
HETATM   28  C12 UNL     1       6.702  -0.604   0.122  1.00  0.00     0.086 A 
HETATM   29  C13 UNL     1       6.221  -1.599  -0.688  1.00  0.00     0.086 A 
HETATM   30  S1  UNL     1       7.604  -2.563  -0.939  1.00  0.00    -0.064 SA
HETATM   31  C14 UNL     1       8.711  -1.652  -0.010  1.00  0.00     0.142 A 
HETATM   32  N6  UNL     1       7.973  -0.650   0.456  1.00  0.00    -0.334 N 
ATOM     33  H6  UNL     1       8.382   0.065   1.057  1.00  0.00     0.168 HD
BRANCH  31  34
HETATM   34  N5  UNL     1       9.993  -1.861   0.184  1.00  0.00    -0.380 N 
ATOM     35  H52 UNL     1      10.559  -2.630  -0.174  1.00  0.00     0.158 HD
ATOM     36  H51 UNL     1      10.654  -1.317   0.739  1.00  0.00     0.158 HD
ENDBRANCH  31  34
ENDBRANCH  24  28
ENDBRANCH  22  24
ENDBRANCH   3  22
TORSDOF 9
