REMARK  7 active torsions:
REMARK  status: ('A' for Active; 'I' for Inactive)
REMARK    1  A    between atoms: C2_2  and  C3_3 
REMARK    2  A    between atoms: C6_9  and  O3_10 
REMARK    3  A    between atoms: O3_10  and  S2_11 
REMARK    4  A    between atoms: C9_18  and  O8_19 
REMARK    5  A    between atoms: O8_19  and  S3_20 
REMARK    6  A    between atoms: S3_20  and  N1_23 
REMARK    7  A    between atoms: N1_23  and  O11_25 
ROOT
HETATM    1  C1  UNL     1       0.855  -3.312  -1.095  1.00  0.00     0.063 C 
HETATM    2  C2  UNL     1      -0.170  -2.411  -0.442  1.00  0.00     0.171 C 
HETATM    3  S1  UNL     1      -1.622  -2.320  -1.561  1.00  0.00    -0.122 SA
HETATM    4  C4  UNL     1      -2.704  -1.023  -0.881  1.00  0.00     0.117 C 
HETATM    5  C5  UNL     1      -1.832   0.098  -0.456  1.00  0.00     0.001 C 
HETATM    6  C6  UNL     1      -2.363   1.111   0.167  1.00  0.00     0.167 C 
HETATM    7  C7  UNL     1      -0.381   0.112  -0.711  1.00  0.00     0.268 C 
HETATM    8  O7  UNL     1       0.374   0.802   0.269  1.00  0.00    -0.304 OA
HETATM    9  C8  UNL     1       1.329  -0.194   0.168  1.00  0.00     0.170 C 
HETATM   10  C9  UNL     1       2.641  -0.253   0.414  1.00  0.00     0.214 C 
HETATM   11  N2  UNL     1       0.306  -1.060  -0.290  1.00  0.00    -0.301 N 
ENDROOT
BRANCH  10  12
HETATM   12  O8  UNL     1       3.312   0.859   0.875  1.00  0.00    -0.223 OA
BRANCH  12  13
HETATM   13  S3  UNL     1       4.277   1.866  -0.069  1.00  0.00     0.384 S 
HETATM   14  O9  UNL     1       3.478   2.856  -0.872  1.00  0.00    -0.173 OA
HETATM   15  O10 UNL     1       5.327   2.688   0.934  1.00  0.00    -0.173 OA
BRANCH  13  16
HETATM   16  N1  UNL     1       5.153   1.044  -1.097  1.00  0.00    -0.171 N 
ATOM     17  H1  UNL     1       5.230   0.028  -1.057  1.00  0.00     0.209 HD
BRANCH  16  18
HETATM   18  O11 UNL     1       5.812   1.802  -2.061  1.00  0.00    -0.278 OA
ATOM     19  H11 UNL     1       6.338   1.308  -2.679  1.00  0.00     0.245 HD
ENDBRANCH  16  18
ENDBRANCH  13  16
ENDBRANCH  12  13
ENDBRANCH  10  12
BRANCH   2  20
HETATM   20  C3  UNL     1      -0.657  -2.974   0.828  1.00  0.00     0.213 C 
HETATM   21  O1  UNL     1      -1.101  -4.133   0.863  1.00  0.00    -0.645 OA
HETATM   22  O2  UNL     1      -0.614  -2.207   1.965  1.00  0.00    -0.645 OA
ENDBRANCH   2  20
BRANCH   6  23
HETATM   23  O3  UNL     1      -3.712   1.147   0.431  1.00  0.00    -0.226 OA
BRANCH  23  24
HETATM   24  S2  UNL     1      -4.638   2.580   0.296  1.00  0.00     0.256 S 
HETATM   25  O4  UNL     1      -5.494   2.413  -0.939  1.00  0.00    -0.572 OA
HETATM   26  O5  UNL     1      -3.764   3.781   0.203  1.00  0.00    -0.572 OA
HETATM   27  O6  UNL     1      -5.662   2.760   1.624  1.00  0.00    -0.572 OA
ENDBRANCH  23  24
ENDBRANCH   6  23
TORSDOF 7
