REMARK  10 active torsions:
REMARK  status: ('A' for Active; 'I' for Inactive)
REMARK    1  A    between atoms: O1_2  and  C2_3 
REMARK    2  A    between atoms: C3_4  and  C4_5 
REMARK    3  A    between atoms: C5_7  and  C6_8 
REMARK    4  A    between atoms: C7_10  and  O4_11 
REMARK    5  A    between atoms: C9_14  and  O5_15 
REMARK    6  A    between atoms: C12_19  and  O6_20 
REMARK    7  A    between atoms: C14_23  and  O7_24 
REMARK    8  A    between atoms: O7_24  and  C15_25 
REMARK    9  A    between atoms: C18_29  and  O9_30 
REMARK   10  A    between atoms: C18_29  and  C19_32 
ROOT
HETATM    1  C2  UNL     1      -2.318   0.691   0.866  1.00  0.00     0.096 A 
HETATM    2  C3  UNL     1      -3.437   1.324   0.382  1.00  0.00     0.052 A 
HETATM    3  C5  UNL     1      -3.499   1.656  -0.969  1.00  0.00     0.052 A 
HETATM    4  C7  UNL     1      -2.451   1.355  -1.813  1.00  0.00     0.094 A 
HETATM    5  C8  UNL     1      -1.338   0.712  -1.261  1.00  0.00     0.050 A 
HETATM    6  C9  UNL     1      -0.288   0.427  -2.098  1.00  0.00     0.114 A 
HETATM    7  C10 UNL     1       0.817  -0.181  -1.601  1.00  0.00     0.118 A 
HETATM    8  C11 UNL     1       0.975  -0.546  -0.271  1.00  0.00     0.042 A 
HETATM    9  C12 UNL     1      -0.114  -0.247   0.584  1.00  0.00     0.091 A 
HETATM   10  C13 UNL     1      -1.258   0.375   0.080  1.00  0.00     0.048 A 
HETATM   11  C14 UNL     1       2.218  -1.206   0.178  1.00  0.00     0.176 C 
HETATM   12  C17 UNL     1       3.434  -0.582  -0.505  1.00  0.00     0.118 C 
HETATM   13  C18 UNL     1       3.240  -0.454  -1.985  1.00  0.00     0.261 C 
HETATM   14  O12 UNL     1       1.902  -0.487  -2.419  1.00  0.00    -0.300 OA
ENDROOT
BRANCH  13  15
HETATM   15  O9  UNL     1       3.932  -1.468  -2.672  1.00  0.00    -0.357 OA
ATOM     16  H9  UNL     1       3.809  -1.387  -3.610  1.00  0.00     0.213 HD
ENDBRANCH  13  15
BRANCH  13  17
HETATM   17  C19 UNL     1       3.833   0.836  -2.422  1.00  0.00     0.239 C 
HETATM   18  O10 UNL     1       4.773   0.931  -3.252  1.00  0.00    -0.644 OA
HETATM   19  O11 UNL     1       3.313   1.997  -1.877  1.00  0.00    -0.644 OA
ENDBRANCH  13  17
BRANCH  11  20
HETATM   20  O7  UNL     1       2.345  -1.168   1.553  1.00  0.00    -0.311 OA
BRANCH  20  21
HETATM   21  C15 UNL     1       2.482  -2.284   2.366  1.00  0.00     0.255 C 
HETATM   22  C16 UNL     1       2.613  -2.107   3.818  1.00  0.00     0.126 C 
HETATM   23  O8  UNL     1       2.487  -3.395   1.813  1.00  0.00    -0.266 OA
ENDBRANCH  20  21
ENDBRANCH  11  20
BRANCH   6  24
HETATM   24  O5  UNL     1      -0.376   0.763  -3.433  1.00  0.00    -0.357 OA
ATOM     25  H5  UNL     1       0.351   0.566  -4.012  1.00  0.00     0.217 HD
ENDBRANCH   6  24
BRANCH   9  26
HETATM   26  O6  UNL     1       0.007  -0.569   1.845  1.00  0.00    -0.359 OA
ATOM     27  H6  UNL     1      -0.723  -0.368   2.418  1.00  0.00     0.217 HD
ENDBRANCH   9  26
BRANCH   4  28
HETATM   28  O4  UNL     1      -2.444   1.649  -3.144  1.00  0.00    -0.359 OA
ATOM     29  H4  UNL     1      -1.722   1.442  -3.725  1.00  0.00     0.217 HD
ENDBRANCH   4  28
BRANCH   1  30
HETATM   30  O1  UNL     1      -2.323   0.382   2.209  1.00  0.00    -0.354 OA
HETATM   31  C1  UNL     1      -3.018  -0.871   2.490  1.00  0.00     0.210 C 
ENDBRANCH   1  30
BRANCH   3  32
HETATM   32  C6  UNL     1      -4.664   2.324  -1.524  1.00  0.00     0.273 C 
HETATM   33  O3  UNL     1      -5.630   2.603  -0.758  1.00  0.00    -0.301 OA
ENDBRANCH   3  32
BRANCH   2  34
HETATM   34  C4  UNL     1      -4.529   1.633   1.285  1.00  0.00     0.273 C 
HETATM   35  O2  UNL     1      -4.480   2.768   1.872  1.00  0.00    -0.301 OA
ENDBRANCH   2  34
TORSDOF 10
