REMARK  10 active torsions:
REMARK  status: ('A' for Active; 'I' for Inactive)
REMARK    1  A    between atoms: O1_2  and  C2_3 
REMARK    2  A    between atoms: C2_3  and  C3_5 
REMARK    3  A    between atoms: C4_6  and  C5_7 
REMARK    4  A    between atoms: C4_6  and  N5_35 
REMARK    5  A    between atoms: C7_9  and  O3_10 
REMARK    6  A    between atoms: C8_12  and  C9_13 
REMARK       I    between atoms: C9_13  and  N1_15 
REMARK    7  A    between atoms: N2_17  and  C10_19 
REMARK    8  A    between atoms: C11_20  and  O5_21 
REMARK    9  A    between atoms: C14_29  and  O7_30 
REMARK   10  A    between atoms: C15_32  and  O8_33 
ROOT
HETATM    1  C5  UNL     1       1.238   0.305   0.718  1.00  0.00     0.029 A 
HETATM    2  C6  UNL     1       1.153  -1.031   0.979  1.00  0.00     0.054 A 
HETATM    3  C7  UNL     1      -0.062  -1.731   1.120  1.00  0.00     0.085 A 
HETATM    4  C8  UNL     1      -1.241  -1.064   0.994  1.00  0.00     0.102 A 
HETATM    5  C14 UNL     1      -1.201   0.315   0.725  1.00  0.00     0.118 A 
HETATM    6  C15 UNL     1       0.011   0.975   0.592  1.00  0.00     0.112 A 
ENDROOT
BRANCH   4   7
HETATM    7  C9  UNL     1      -2.557  -1.667   1.108  1.00  0.00     0.275 C 
HETATM    8  O4  UNL     1      -2.711  -2.890   1.339  1.00  0.00    -0.266 OA
HETATM    9  N1  UNL     1      -3.762  -0.913   0.963  1.00  0.00    -0.264 N 
HETATM   10  N2  UNL     1      -4.536  -0.963  -0.016  1.00  0.00    -0.279 N 
ATOM     11  H1  UNL     1      -4.011  -0.280   1.723  1.00  0.00     0.190 HD
ATOM     12  H2  UNL     1      -5.359  -0.362   0.027  1.00  0.00     0.189 HD
BRANCH  10  13
HETATM   13  C10 UNL     1      -4.401  -1.756  -1.175  1.00  0.00     0.178 A 
HETATM   14  C11 UNL     1      -3.672  -1.406  -2.278  1.00  0.00     0.191 A 
HETATM   15  N3  UNL     1      -3.789  -2.421  -3.175  1.00  0.00    -0.286 N 
HETATM   16  C12 UNL     1      -4.576  -3.383  -2.637  1.00  0.00     0.329 A 
ATOM     17  H3  UNL     1      -3.357  -2.453  -4.098  1.00  0.00     0.172 HD
HETATM   18  O6  UNL     1      -4.914  -4.483  -3.176  1.00  0.00    -0.246 OA
HETATM   19  N4  UNL     1      -4.953  -2.982  -1.414  1.00  0.00    -0.285 N 
HETATM   20  C13 UNL     1      -5.808  -3.696  -0.454  1.00  0.00     0.163 C 
BRANCH  14  21
HETATM   21  O5  UNL     1      -2.914  -0.248  -2.538  1.00  0.00    -0.343 OA
ATOM     22  H5  UNL     1      -2.408  -0.005  -3.304  1.00  0.00     0.219 HD
ENDBRANCH  14  21
ENDBRANCH  10  13
ENDBRANCH   4   7
BRANCH   3  23
HETATM   23  O3  UNL     1       0.040  -3.070   1.382  1.00  0.00    -0.360 OA
ATOM     24  H3  UNL     1      -0.779  -3.542   1.477  1.00  0.00     0.217 HD
ENDBRANCH   3  23
BRANCH   5  25
HETATM   25  O7  UNL     1      -2.408   0.972   0.603  1.00  0.00    -0.357 OA
ATOM     26  H7  UNL     1      -2.381   1.904   0.421  1.00  0.00     0.217 HD
ENDBRANCH   5  25
BRANCH   6  27
HETATM   27  O8  UNL     1      -0.038   2.310   0.330  1.00  0.00    -0.357 OA
ATOM     28  H8  UNL     1      -0.868   2.763   0.245  1.00  0.00     0.217 HD
ENDBRANCH   6  27
BRANCH   1  29
HETATM   29  C4  UNL     1       2.505   1.006   0.570  1.00  0.00     0.048 C 
HETATM   30  C3  UNL     1       3.628   0.332   0.691  1.00  0.00     0.112 C 
BRANCH  30  31
HETATM   31  C2  UNL     1       4.974   0.840   0.579  1.00  0.00     0.284 C 
HETATM   32  O2  UNL     1       5.939   0.001   0.739  1.00  0.00    -0.260 OA
BRANCH  31  33
HETATM   33  O1  UNL     1       5.385   2.119   0.320  1.00  0.00    -0.323 OA
HETATM   34  C1  UNL     1       6.737   2.452   0.243  1.00  0.00     0.213 C 
ENDBRANCH  31  33
ENDBRANCH  30  31
BRANCH  29  35
HETATM   35  N5  UNL     1       2.578   2.398   0.301  1.00  0.00    -0.389 N 
HETATM   36  C16 UNL     1       2.769   2.901  -1.071  1.00  0.00     0.149 C 
HETATM   37  C17 UNL     1       2.490   3.439   1.310  1.00  0.00     0.149 C 
ENDBRANCH  29  35
ENDBRANCH   1  29
TORSDOF 10
