REMARK  12 active torsions:
REMARK  status: ('A' for Active; 'I' for Inactive)
REMARK    1  A    between atoms: O1_2  and  C2_3 
REMARK    2  A    between atoms: C2_3  and  C3_5 
REMARK    3  A    between atoms: C3_5  and  N1_7 
REMARK    4  A    between atoms: N1_7  and  N2_9 
REMARK    5  A    between atoms: N2_9  and  C5_11 
REMARK    6  A    between atoms: C8_18  and  C9_19 
REMARK    7  A    between atoms: C9_19  and  O3_20 
REMARK    8  A    between atoms: N5_22  and  O4_24 
REMARK    9  A    between atoms: O4_24  and  C10_25 
REMARK   10  A    between atoms: C10_25  and  C13_28 
REMARK   11  A    between atoms: C14_31  and  O7_32 
REMARK   12  A    between atoms: C16_35  and  O8_36 
ROOT
HETATM    1  C5  UNL     1       2.184  -0.523   0.333  1.00  0.00     0.136 A 
HETATM    2  N3  UNL     1       2.171   0.795   0.584  1.00  0.00    -0.337 N 
ATOM      3  H3  UNL     1       3.050   1.272   0.785  1.00  0.00     0.168 HD
HETATM    4  C6  UNL     1       1.032   1.500   0.577  1.00  0.00     0.182 A 
HETATM    5  N4  UNL     1      -0.144   0.898   0.316  1.00  0.00    -0.351 N 
ATOM      6  H4  UNL     1      -1.003   1.448   0.314  1.00  0.00     0.166 HD
HETATM    7  C7  UNL     1      -0.198  -0.419   0.058  1.00  0.00     0.067 A 
HETATM    8  C8  UNL     1      -1.392  -1.063  -0.214  1.00  0.00     0.077 A 
HETATM    9  C14 UNL     1      -1.324  -2.439  -0.469  1.00  0.00     0.085 A 
HETATM   10  C15 UNL     1      -0.144  -3.135  -0.456  1.00  0.00     0.075 A 
HETATM   11  C16 UNL     1       1.048  -2.510  -0.188  1.00  0.00     0.084 A 
HETATM   12  C17 UNL     1       0.993  -1.158   0.064  1.00  0.00     0.070 A 
ENDROOT
BRANCH   8  13
HETATM   13  C9  UNL     1      -2.659  -0.382  -0.236  1.00  0.00     0.175 C 
HETATM   14  N5  UNL     1      -2.882   0.802  -0.029  1.00  0.00    -0.243 N 
ATOM     15  H5  UNL     1      -2.006   1.283   0.175  1.00  0.00     0.196 HD
BRANCH  13  16
HETATM   16  O3  UNL     1      -3.784  -1.203  -0.537  1.00  0.00    -0.344 OA
ATOM     17  H3  UNL     1      -4.621  -0.753  -0.552  1.00  0.00     0.219 HD
ENDBRANCH  13  16
BRANCH  14  18
HETATM   18  O4  UNL     1      -3.869   1.655   0.018  1.00  0.00    -0.257 OA
BRANCH  18  19
HETATM   19  C10 UNL     1      -5.230   1.614  -0.175  1.00  0.00     0.169 C 
HETATM   20  C11 UNL     1      -5.938   0.656   0.780  1.00  0.00     0.060 C 
HETATM   21  C12 UNL     1      -5.636   1.319  -1.627  1.00  0.00     0.060 C 
BRANCH  19  22
HETATM   22  C13 UNL     1      -5.803   2.961   0.126  1.00  0.00     0.211 C 
HETATM   23  O5  UNL     1      -7.033   3.190   0.026  1.00  0.00    -0.646 OA
HETATM   24  O6  UNL     1      -4.968   3.986   0.525  1.00  0.00    -0.646 OA
ENDBRANCH  19  22
ENDBRANCH  18  19
ENDBRANCH  14  18
ENDBRANCH   8  13
BRANCH   9  25
HETATM   25  O7  UNL     1      -2.521  -3.105  -0.745  1.00  0.00    -0.360 OA
ATOM     26  H7  UNL     1      -2.475  -4.038  -0.918  1.00  0.00     0.217 HD
ENDBRANCH   9  25
BRANCH   1  27
HETATM   27  N2  UNL     1       3.282  -1.210   0.338  1.00  0.00    -0.284 N 
ATOM     28  H2  UNL     1       3.270  -2.212   0.145  1.00  0.00     0.188 HD
BRANCH  27  29
HETATM   29  N1  UNL     1       4.480  -0.554   0.612  1.00  0.00    -0.298 N 
ATOM     30  H1  UNL     1       4.597  -0.097   1.516  1.00  0.00     0.187 HD
BRANCH  29  31
HETATM   31  C3  UNL     1       5.442  -0.507  -0.239  1.00  0.00     0.097 C 
HETATM   32  C4  UNL     1       5.250  -1.177  -1.544  1.00  0.00     0.076 C 
BRANCH  31  33
HETATM   33  C2  UNL     1       6.699   0.192   0.071  1.00  0.00     0.306 C 
HETATM   34  O2  UNL     1       7.629   0.229  -0.773  1.00  0.00    -0.258 OA
BRANCH  33  35
HETATM   35  O1  UNL     1       6.895   0.823   1.286  1.00  0.00    -0.322 OA
HETATM   36  C1  UNL     1       8.102   1.507   1.611  1.00  0.00     0.213 C 
ENDBRANCH  33  35
ENDBRANCH  31  33
ENDBRANCH  29  31
ENDBRANCH  27  29
ENDBRANCH   1  27
BRANCH  11  37
HETATM   37  O8  UNL     1       2.244  -3.215  -0.175  1.00  0.00    -0.360 OA
ATOM     38  H8  UNL     1       3.069  -2.782   0.011  1.00  0.00     0.217 HD
ENDBRANCH  11  37
TORSDOF 12
