REMARK  6 active torsions:
REMARK  status: ('A' for Active; 'I' for Inactive)
REMARK    1  A    between atoms: C2_2  and  C5_5 
REMARK    2  A    between atoms: C5_5  and  C6_7 
REMARK    3  A    between atoms: C6_7  and  O2_10 
REMARK    4  A    between atoms: O2_10  and  N1_11 
REMARK    5  A    between atoms: C12_20  and  N4_21 
REMARK    6  A    between atoms: C15_31  and  C16_32 
ROOT
HETATM    1  N1  UNL     1      -0.762  -0.968   0.430  1.00  0.00    -0.174 N 
HETATM    2  N2  UNL     1      -1.627  -0.265  -0.303  1.00  0.00    -0.272 N 
ATOM      3  H2  UNL     1      -1.191   0.122  -1.140  1.00  0.00     0.189 HD
HETATM    4  C9  UNL     1      -3.037   0.090  -0.211  1.00  0.00     0.128 A 
HETATM    5  C10 UNL     1      -3.931  -0.622   0.565  1.00  0.00     0.183 A 
HETATM    6  N3  UNL     1      -5.223  -0.227   0.598  1.00  0.00    -0.300 N 
ATOM      7  H3  UNL     1      -5.901  -0.737   1.164  1.00  0.00     0.171 HD
HETATM    8  C11 UNL     1      -5.607   0.839  -0.117  1.00  0.00     0.282 A 
HETATM    9  O3  UNL     1      -6.830   1.194  -0.071  1.00  0.00    -0.265 OA
HETATM   10  C12 UNL     1      -4.751   1.570  -0.900  1.00  0.00     0.197 A 
HETATM   11  C13 UNL     1      -3.411   1.169  -0.941  1.00  0.00     0.117 A 
HETATM   12  N5  UNL     1      -2.496   1.863  -1.733  1.00  0.00    -0.097 NA
HETATM   13  O6  UNL     1      -3.717  -1.762   1.377  1.00  0.00    -0.276 OA
HETATM   14  C14 UNL     1      -2.485  -2.398   1.458  1.00  0.00     0.157 C 
HETATM   15  N6  UNL     1      -2.560  -3.671   1.448  1.00  0.00    -0.381 N 
ATOM     16  H61 UNL     1      -1.655  -4.138   1.507  1.00  0.00     0.158 HD
ATOM     17  H62 UNL     1      -3.468  -4.131   1.384  1.00  0.00     0.158 HD
HETATM   18  C15 UNL     1      -1.200  -1.748   1.548  1.00  0.00     0.308 C 
ENDROOT
BRANCH   1  19
HETATM   19  O2  UNL     1       0.423  -0.612   0.594  1.00  0.00    -0.243 OA
BRANCH  19  20
HETATM   20  C6  UNL     1       1.336  -0.003  -0.143  1.00  0.00     0.144 C 
HETATM   21  C7  UNL     1       1.643  -0.608  -1.476  1.00  0.00     0.057 C 
HETATM   22  C8  UNL     1       0.865   1.464  -0.318  1.00  0.00     0.057 C 
BRANCH  20  23
HETATM   23  C5  UNL     1       2.628   0.054   0.653  1.00  0.00     0.170 C 
HETATM   24  O1  UNL     1       2.538  -0.317   1.846  1.00  0.00    -0.294 OA
BRANCH  23  25
HETATM   25  C2  UNL     1       3.935   0.467   0.229  1.00  0.00     0.013 C 
HETATM   26  C1  UNL     1       4.100   1.800  -0.438  1.00  0.00     0.023 C 
HETATM   27  C3  UNL     1       4.608  -0.573  -0.632  1.00  0.00     0.023 C 
HETATM   28  C4  UNL     1       4.837   0.509   1.507  1.00  0.00     0.023 C 
ENDBRANCH  23  25
ENDBRANCH  20  23
ENDBRANCH  19  20
ENDBRANCH   1  19
BRANCH  18  29
HETATM   29  C16 UNL     1      -0.159  -2.759   1.907  1.00  0.00     0.209 C 
HETATM   30  O7  UNL     1      -0.174  -3.362   3.036  1.00  0.00    -0.646 OA
HETATM   31  O8  UNL     1       0.881  -3.122   1.068  1.00  0.00    -0.646 OA
ENDBRANCH  18  29
BRANCH  10  32
HETATM   32  N4  UNL     1      -5.124   2.693  -1.660  1.00  0.00    -0.108 N 
HETATM   33  O4  UNL     1      -5.370   3.762  -1.094  1.00  0.00    -0.532 OA
HETATM   34  O5  UNL     1      -5.216   2.606  -3.015  1.00  0.00    -0.532 OA
ENDBRANCH  10  32
TORSDOF 6
