REMARK  11 active torsions:
REMARK  status: ('A' for Active; 'I' for Inactive)
REMARK       I    between atoms: N1_2  and  C2_4 
REMARK    1  A    between atoms: C2_4  and  C3_6 
REMARK    2  A    between atoms: C3_6  and  O2_7 
REMARK    3  A    between atoms: C3_6  and  O3_9 
REMARK    4  A    between atoms: C3_6  and  C4_11 
REMARK    5  A    between atoms: C6_14  and  O5_15 
REMARK    6  A    between atoms: C9_18  and  O6_19 
REMARK    7  A    between atoms: O6_19  and  C10_20 
REMARK    8  A    between atoms: C13_24  and  O8_25 
REMARK    9  A    between atoms: C14_27  and  O9_28 
REMARK   10  A    between atoms: C16_30  and  O10_31 
REMARK   11  A    between atoms: C17_33  and  O11_34 
ROOT
HETATM    1  C4  UNL     1      -1.635  -0.023   0.548  1.00  0.00     0.167 C 
HETATM    2  C5  UNL     1      -1.077  -0.950   1.593  1.00  0.00     0.174 C 
HETATM    3  O4  UNL     1      -1.684  -1.195   2.569  1.00  0.00    -0.294 OA
HETATM    4  C6  UNL     1       0.281  -1.556   1.352  1.00  0.00     0.227 C 
HETATM    5  C8  UNL     1       0.985  -0.668   0.350  1.00  0.00     0.014 C 
HETATM    6  C9  UNL     1       1.845  -1.130  -0.465  1.00  0.00     0.156 C 
HETATM    7  C12 UNL     1       0.622   0.739   0.397  1.00  0.00     0.021 A 
HETATM    8  C13 UNL     1       1.586   1.727   0.347  1.00  0.00     0.113 A 
HETATM    9  C14 UNL     1       1.264   3.058   0.399  1.00  0.00     0.138 A 
HETATM   10  C16 UNL     1      -0.081   3.397   0.508  1.00  0.00     0.136 A 
HETATM   11  C17 UNL     1      -1.092   2.440   0.564  1.00  0.00     0.110 A 
HETATM   12  C18 UNL     1      -0.740   1.127   0.508  1.00  0.00     0.009 A 
ENDROOT
BRANCH   1  13
HETATM   13  C3  UNL     1      -3.078   0.067   0.589  1.00  0.00     0.258 C 
BRANCH  13  14
HETATM   14  C2  UNL     1      -3.603  -1.362   0.385  1.00  0.00     0.281 C 
HETATM   15  N1  UNL     1      -3.276  -2.070  -0.795  1.00  0.00    -0.361 N 
HETATM   16  C1  UNL     1      -3.787  -3.417  -0.957  1.00  0.00     0.149 C 
ATOM     17  H1  UNL     1      -2.694  -1.643  -1.515  1.00  0.00     0.162 HD
HETATM   18  O1  UNL     1      -4.320  -1.930   1.234  1.00  0.00    -0.267 OA
ENDBRANCH  13  14
BRANCH  13  19
HETATM   19  O2  UNL     1      -3.634   0.468   1.798  1.00  0.00    -0.357 OA
ATOM     20  H2  UNL     1      -3.309   1.352   1.924  1.00  0.00     0.213 HD
ENDBRANCH  13  19
BRANCH  13  21
HETATM   21  O3  UNL     1      -3.654   0.695  -0.525  1.00  0.00    -0.357 OA
ATOM     22  H3  UNL     1      -3.329   1.579  -0.399  1.00  0.00     0.213 HD
ENDBRANCH  13  21
ENDBRANCH   1  13
BRANCH   4  23
HETATM   23  O5  UNL     1       0.230  -2.864   0.958  1.00  0.00    -0.378 OA
HETATM   24  C7  UNL     1       0.851  -3.750   1.825  1.00  0.00     0.203 C 
ENDBRANCH   4  23
BRANCH  11  25
HETATM   25  O11 UNL     1      -2.420   2.792   0.676  1.00  0.00    -0.357 OA
ATOM     26  H11 UNL     1      -3.109   2.139   0.714  1.00  0.00     0.217 HD
ENDBRANCH  11  25
BRANCH   8  27
HETATM   27  O8  UNL     1       2.927   1.318   0.244  1.00  0.00    -0.357 OA
ATOM     28  H8  UNL     1       3.590   1.998   0.210  1.00  0.00     0.217 HD
ENDBRANCH   8  27
BRANCH  10  29
HETATM   29  O10 UNL     1      -0.421   4.728   0.562  1.00  0.00    -0.356 OA
ATOM     30  H10 UNL     1      -1.339   4.959   0.636  1.00  0.00     0.218 HD
ENDBRANCH  10  29
BRANCH   6  31
HETATM   31  O6  UNL     1       2.601  -0.565  -1.449  1.00  0.00    -0.291 OA
BRANCH  31  32
HETATM   32  C10 UNL     1       3.497  -1.249  -2.254  1.00  0.00     0.259 C 
HETATM   33  C11 UNL     1       4.290  -0.575  -3.308  1.00  0.00     0.126 C 
HETATM   34  O7  UNL     1       3.653  -2.492  -2.096  1.00  0.00    -0.265 OA
ENDBRANCH  31  32
ENDBRANCH   6  31
BRANCH   9  35
HETATM   35  O9  UNL     1       2.254   4.010   0.344  1.00  0.00    -0.351 OA
HETATM   36  C15 UNL     1       2.915   4.537   1.483  1.00  0.00     0.210 C 
ENDBRANCH   9  35
TORSDOF 11
