REMARK  10 active torsions:
REMARK  status: ('A' for Active; 'I' for Inactive)
REMARK    1  A    between atoms: O1_2  and  C2_3 
REMARK    2  A    between atoms: C4_5  and  C5_6 
REMARK    3  A    between atoms: C5_6  and  O2_7 
REMARK    4  A    between atoms: C5_6  and  N1_9 
REMARK    5  A    between atoms: N1_9  and  N2_11 
REMARK    6  A    between atoms: N2_11  and  C6_12 
REMARK    7  A    between atoms: C10_22  and  S2_23 
REMARK    8  A    between atoms: C12_25  and  O4_26 
REMARK    9  A    between atoms: O4_26  and  C13_27 
REMARK   10  A    between atoms: C15_30  and  O6_31 
ROOT
HETATM    1  C2  UNL     1       3.129  -0.166   1.732  1.00  0.00     0.105 A 
HETATM    2  C3  UNL     1       1.762  -0.146   1.749  1.00  0.00     0.057 A 
HETATM    3  C4  UNL     1       0.972  -0.290   0.597  1.00  0.00     0.039 A 
HETATM    4  C10 UNL     1       1.639  -0.464  -0.603  1.00  0.00     0.051 A 
HETATM    5  C12 UNL     1       3.022  -0.485  -0.651  1.00  0.00     0.132 A 
HETATM    6  C15 UNL     1       3.753  -0.341   0.490  1.00  0.00     0.135 A 
ENDROOT
BRANCH   3   7
HETATM    7  C5  UNL     1      -0.431  -0.171   0.699  1.00  0.00     0.177 C 
BRANCH   7   8
HETATM    8  O2  UNL     1      -0.778   0.679   1.692  1.00  0.00    -0.344 OA
ATOM      9  H2  UNL     1      -1.722   0.759   1.761  1.00  0.00     0.219 HD
ENDBRANCH   7   8
BRANCH   7  10
HETATM   10  N1  UNL     1      -1.563  -0.701   0.048  1.00  0.00    -0.210 N 
ATOM     11  H1  UNL     1      -1.406  -1.387  -0.690  1.00  0.00     0.204 HD
BRANCH  10  12
HETATM   12  N2  UNL     1      -2.796  -0.378   0.321  1.00  0.00    -0.303 NA
BRANCH  12  13
HETATM   13  C6  UNL     1      -3.938  -0.102   0.602  1.00  0.00     0.233 A 
HETATM   14  N3  UNL     1      -4.527  -0.698   1.659  1.00  0.00    -0.289 N 
HETATM   15  C7  UNL     1      -5.762  -0.491   2.112  1.00  0.00     0.292 A 
ATOM     16  H3  UNL     1      -3.965  -1.382   2.167  1.00  0.00     0.172 HD
HETATM   17  O3  UNL     1      -6.209  -1.133   3.134  1.00  0.00    -0.260 OA
HETATM   18  S1  UNL     1      -6.709   0.654   1.271  1.00  0.00    -0.012 SA
HETATM   19  C8  UNL     1      -5.860   1.335  -0.039  1.00  0.00     0.121 A 
HETATM   20  N4  UNL     1      -6.414   2.328  -0.921  1.00  0.00    -0.092 NA
HETATM   21  C9  UNL     1      -4.592   0.869  -0.200  1.00  0.00     0.138 A 
HETATM   22  N5  UNL     1      -3.824   1.419  -1.289  1.00  0.00    -0.095 NA
ENDBRANCH  12  13
ENDBRANCH  10  12
ENDBRANCH   7  10
ENDBRANCH   3   7
BRANCH   4  23
HETATM   23  S2  UNL     1       0.812  -0.762  -2.141  1.00  0.00    -0.131 SA
HETATM   24  C11 UNL     1       0.759  -2.575  -2.445  1.00  0.00     0.095 C 
ENDBRANCH   4  23
BRANCH   1  25
HETATM   25  O1  UNL     1       3.929  -0.024   2.850  1.00  0.00    -0.353 OA
HETATM   26  C1  UNL     1       3.458   0.153   4.164  1.00  0.00     0.210 C 
ENDBRANCH   1  25
BRANCH   5  27
HETATM   27  O4  UNL     1       3.691  -0.646  -1.888  1.00  0.00    -0.275 OA
BRANCH  27  28
HETATM   28  C13 UNL     1       4.072   0.559  -2.497  1.00  0.00     0.260 C 
HETATM   29  C14 UNL     1       4.787   0.703  -3.770  1.00  0.00     0.126 C 
HETATM   30  O5  UNL     1       3.765   1.638  -1.875  1.00  0.00    -0.265 OA
ENDBRANCH  27  28
ENDBRANCH   5  27
BRANCH   6  31
HETATM   31  O6  UNL     1       5.134  -0.367   0.411  1.00  0.00    -0.356 OA
ATOM     32  H6  UNL     1       5.557  -0.486  -0.431  1.00  0.00     0.218 HD
ENDBRANCH   6  31
TORSDOF 10
