REMARK  6 active torsions:
REMARK  status: ('A' for Active; 'I' for Inactive)
REMARK    1  A    between atoms: C4_5  and  C5_6 
REMARK    2  A    between atoms: C5_6  and  N2_7 
REMARK    3  A    between atoms: N2_7  and  C6_10 
REMARK    4  A    between atoms: C6_10  and  C7_11 
REMARK    5  A    between atoms: C7_11  and  N3_12 
REMARK    6  A    between atoms: N3_12  and  C8_14 
ROOT
HETATM    1  N2  UNL     1       1.507   0.262   0.310  1.00  0.00    -0.068 N 
ATOM      2  H21 UNL     1       1.904  -0.229   1.111  1.00  0.00     0.277 HD
ATOM      3  H22 UNL     1       1.552  -0.502  -0.364  1.00  0.00     0.277 HD
ENDROOT
BRANCH   1   4
HETATM    4  C5  UNL     1       2.310   1.396  -0.092  1.00  0.00     0.289 C 
BRANCH   4   5
HETATM    5  C4  UNL     1       3.706   0.930  -0.329  1.00  0.00     0.034 A 
HETATM    6  C3  UNL     1       4.108   0.348  -1.507  1.00  0.00     0.028 A 
HETATM    7  C2  UNL     1       5.408  -0.067  -1.682  1.00  0.00     0.030 A 
HETATM    8  C1  UNL     1       6.322   0.114  -0.638  1.00  0.00     0.061 A 
HETATM    9  N1  UNL     1       7.677  -0.311  -0.801  1.00  0.00    -0.101 NA
HETATM   10  C14 UNL     1       5.886   0.705   0.538  1.00  0.00     0.114 A 
HETATM   11  N4  UNL     1       4.606   1.097   0.671  1.00  0.00    -0.366 N 
ATOM     12  H4  UNL     1       4.306   1.530   1.544  1.00  0.00     0.165 HD
ENDBRANCH   4   5
ENDBRANCH   1   4
BRANCH   1  13
HETATM   13  C6  UNL     1       0.135   0.705   0.556  1.00  0.00     0.251 C 
BRANCH  13  14
HETATM   14  C7  UNL     1      -0.660  -0.506   0.968  1.00  0.00     0.141 C 
BRANCH  14  15
HETATM   15  N3  UNL     1      -2.032  -0.258   1.262  1.00  0.00    -0.415 N 
ATOM     16  H3  UNL     1      -2.402  -0.341   2.209  1.00  0.00     0.153 HD
BRANCH  15  17
HETATM   17  C8  UNL     1      -2.861   0.113   0.162  1.00  0.00     0.076 C 
HETATM   18  C9  UNL     1      -3.985   0.972   0.691  1.00  0.00     0.024 C 
HETATM   19  C10 UNL     1      -5.321   0.611   0.072  1.00  0.00     0.002 C 
HETATM   20  C11 UNL     1      -5.560  -0.850   0.394  1.00  0.00     0.000 C 
HETATM   21  C12 UNL     1      -4.533  -1.733  -0.262  1.00  0.00     0.002 C 
HETATM   22  C13 UNL     1      -3.309  -1.015  -0.712  1.00  0.00     0.024 C 
ENDBRANCH  15  17
ENDBRANCH  14  15
ENDBRANCH  13  14
ENDBRANCH   1  13
TORSDOF 6
