REMARK  7 active torsions:
REMARK  status: ('A' for Active; 'I' for Inactive)
REMARK    1  A    between atoms: N1_1  and  C1_5 
REMARK    2  A    between atoms: C5_11  and  C6_12 
REMARK    3  A    between atoms: C6_12  and  C7_13 
REMARK    4  A    between atoms: C7_13  and  N3_14 
REMARK    5  A    between atoms: N3_14  and  C8_17 
REMARK    6  A    between atoms: C8_17  and  C9_18 
REMARK    7  A    between atoms: C9_18  and  N4_19 
ROOT
HETATM    1  C6  UNL     1      -2.340  -0.490   0.681  1.00  0.00     0.054 C 
ENDROOT
BRANCH   1   2
HETATM    2  C5  UNL     1      -3.276  -0.475  -0.477  1.00  0.00     0.113 C 
HETATM    3  C1  UNL     1      -4.617  -1.001   0.028  1.00  0.00     0.209 C 
HETATM    4  C2  UNL     1      -5.668  -0.906  -1.028  1.00  0.00     0.063 C 
HETATM    5  C3  UNL     1      -5.677   0.429  -1.626  1.00  0.00    -0.008 C 
HETATM    6  C4  UNL     1      -4.643   1.242  -1.668  1.00  0.00     0.079 C 
HETATM    7  N2  UNL     1      -3.399   0.801  -1.084  1.00  0.00    -0.392 N 
ATOM      8  H2  UNL     1      -2.590   1.421  -1.108  1.00  0.00     0.159 HD
BRANCH   3   9
HETATM    9  N1  UNL     1      -4.974  -0.186   1.185  1.00  0.00    -0.073 N 
ATOM     10  H13 UNL     1      -5.160   0.782   0.923  1.00  0.00     0.274 HD
ATOM     11  H12 UNL     1      -5.897  -0.427   1.547  1.00  0.00     0.274 HD
ATOM     12  H11 UNL     1      -4.256  -0.251   1.906  1.00  0.00     0.274 HD
ENDBRANCH   3   9
ENDBRANCH   1   2
BRANCH   1  13
HETATM   13  C7  UNL     1      -0.970   0.037   0.302  1.00  0.00     0.234 C 
BRANCH  13  14
HETATM   14  N3  UNL     1      -0.140  -0.114   1.474  1.00  0.00    -0.073 N 
ATOM     15  H32 UNL     1      -0.605   0.231   2.314  1.00  0.00     0.277 HD
ATOM     16  H31 UNL     1      -0.042  -1.093   1.744  1.00  0.00     0.277 HD
BRANCH  14  17
HETATM   17  C8  UNL     1       1.133   0.512   1.278  1.00  0.00     0.262 C 
BRANCH  17  18
HETATM   18  C9  UNL     1       1.922  -0.143   0.227  1.00  0.00     0.299 C 
BRANCH  18  19
HETATM   19  N4  UNL     1       3.258   0.422   0.042  1.00  0.00     0.090 N 
HETATM   20  C10 UNL     1       3.801  -0.134  -1.138  1.00  0.00     0.272 C 
HETATM   21  C11 UNL     1       5.197  -0.597  -1.126  1.00  0.00     0.030 C 
HETATM   22  C12 UNL     1       6.023   0.204  -0.166  1.00  0.00     0.003 C 
HETATM   23  C13 UNL     1       5.420   0.196   1.217  1.00  0.00     0.030 C 
HETATM   24  C14 UNL     1       3.977   0.485   1.243  1.00  0.00     0.272 C 
ENDBRANCH  18  19
ENDBRANCH  17  18
ENDBRANCH  14  17
ENDBRANCH  13  14
ENDBRANCH   1  13
TORSDOF 7
