REMARK  8 active torsions:
REMARK  status: ('A' for Active; 'I' for Inactive)
REMARK    1  A    between atoms: N1_1  and  C1_5 
REMARK    2  A    between atoms: C1_5  and  C2_6 
REMARK    3  A    between atoms: C2_6  and  C3_7 
REMARK    4  A    between atoms: C3_7  and  C4_8 
REMARK    5  A    between atoms: C4_8  and  C5_9 
REMARK    6  A    between atoms: C5_9  and  N2_10 
REMARK    7  A    between atoms: N2_10  and  C6_12 
REMARK    8  A    between atoms: C6_12  and  C7_13 
ROOT
HETATM    1  C5  UNL     1      -0.161   0.682   0.381  1.00  0.00     0.145 A 
HETATM    2  C10 UNL     1      -0.390   1.377  -0.964  1.00  0.00     0.123 A 
HETATM    3  C11 UNL     1      -0.686   2.775  -0.603  1.00  0.00     0.065 A 
HETATM    4  N3  UNL     1      -1.051   3.966  -1.156  1.00  0.00    -0.302 N 
ATOM      5  H3  UNL     1      -1.221   4.130  -2.148  1.00  0.00     0.186 HD
HETATM    6  N4  UNL     1      -1.149   4.869  -0.206  1.00  0.00    -0.309 N 
ATOM      7  H4  UNL     1      -1.408   5.846  -0.344  1.00  0.00     0.186 HD
HETATM    8  C12 UNL     1      -0.855   4.303   0.970  1.00  0.00     0.146 A 
HETATM    9  C13 UNL     1      -0.555   2.954   0.734  1.00  0.00     0.113 A 
HETATM   10  O1  UNL     1      -0.187   1.760   1.310  1.00  0.00    -0.316 OA
ENDROOT
BRANCH   1  11
HETATM   11  C4  UNL     1       1.253   0.180   0.321  1.00  0.00     0.062 C 
BRANCH  11  12
HETATM   12  C3  UNL     1       1.601  -0.897  -0.610  1.00  0.00     0.006 C 
BRANCH  12  13
HETATM   13  C2  UNL     1       3.139  -1.081  -0.575  1.00  0.00     0.027 C 
BRANCH  13  14
HETATM   14  C1  UNL     1       3.590  -1.436   0.808  1.00  0.00     0.229 C 
BRANCH  14  15
HETATM   15  N1  UNL     1       5.039  -1.624   0.799  1.00  0.00    -0.079 N 
ATOM     16  H13 UNL     1       5.338  -2.308   0.104  1.00  0.00     0.274 HD
ATOM     17  H12 UNL     1       5.534  -0.815   0.424  1.00  0.00     0.274 HD
ATOM     18  H11 UNL     1       5.346  -1.866   1.741  1.00  0.00     0.274 HD
ENDBRANCH  14  15
ENDBRANCH  13  14
ENDBRANCH  12  13
ENDBRANCH  11  12
ENDBRANCH   1  11
BRANCH   1  19
HETATM   19  N2  UNL     1      -1.179  -0.212   0.699  1.00  0.00    -0.370 N 
ATOM     20  H2  UNL     1      -1.608  -0.148   1.622  1.00  0.00     0.161 HD
BRANCH  19  21
HETATM   21  C6  UNL     1      -1.646  -1.196  -0.184  1.00  0.00     0.063 C 
BRANCH  21  22
HETATM   22  C7  UNL     1      -2.630  -2.111   0.534  1.00  0.00     0.024 A 
HETATM   23  C8  UNL     1      -3.866  -1.651   1.160  1.00  0.00     0.010 A 
HETATM   24  C9  UNL     1      -4.009  -2.223  -0.183  1.00  0.00     0.010 A 
ENDBRANCH  21  22
ENDBRANCH  19  21
ENDBRANCH   1  19
TORSDOF 8
