REMARK  4 active torsions:
REMARK  status: ('A' for Active; 'I' for Inactive)
REMARK    1  A    between atoms: C7_8  and  C8_9 
REMARK    2  A    between atoms: C8_9  and  C9_10 
REMARK    3  A    between atoms: C9_10  and  N2_11 
REMARK       I    between atoms: N2_11  and  C10_13 
REMARK       I    between atoms: C10_13  and  N4_17 
REMARK    4  A    between atoms: N4_17  and  C11_19 
ROOT
HETATM    1  C11 UNL     1      -4.720   0.343  -0.168  1.00  0.00     0.140 C 
HETATM    2  C12 UNL     1      -3.903   0.444  -1.391  1.00  0.00     0.091 C 
HETATM    3  N5  UNL     1      -3.269   0.510  -2.362  1.00  0.00    -0.195 NA
HETATM    4  C13 UNL     1      -5.102  -1.077   0.122  1.00  0.00     0.073 C 
HETATM    5  C14 UNL     1      -6.362  -1.526  -0.546  1.00  0.00     0.171 C 
HETATM    6  O1  UNL     1      -7.366  -0.579  -0.360  1.00  0.00    -0.391 OA
HETATM    7  C15 UNL     1      -6.972   0.531  -1.141  1.00  0.00     0.171 C 
HETATM    8  C16 UNL     1      -5.919   1.252  -0.337  1.00  0.00     0.073 C 
ENDROOT
BRANCH   1   9
HETATM    9  N4  UNL     1      -3.934   0.898   0.914  1.00  0.00    -0.204 N 
HETATM   10  C10 UNL     1      -2.663   0.371   1.294  1.00  0.00     0.668 C 
HETATM   11  N2  UNL     1      -1.585   1.272   1.434  1.00  0.00    -0.227 N 
HETATM   12  N3  UNL     1      -2.535  -0.908   1.499  1.00  0.00    -0.235 N 
ATOM     13  H2  UNL     1      -1.777   2.262   1.586  1.00  0.00     0.177 HD
ATOM     14  H32 UNL     1      -1.627  -1.285   1.771  1.00  0.00     0.174 HD
ATOM     15  H31 UNL     1      -3.314  -1.559   1.398  1.00  0.00     0.174 HD
ATOM     16  H4  UNL     1      -4.304   1.699   1.426  1.00  0.00     0.179 HD
BRANCH  11  17
HETATM   17  C9  UNL     1      -0.222   0.821   1.367  1.00  0.00     0.140 C 
BRANCH  17  18
HETATM   18  C8  UNL     1       0.053   0.373  -0.049  1.00  0.00     0.052 C 
BRANCH  18  19
HETATM   19  C7  UNL     1       1.525  -0.123  -0.155  1.00  0.00     0.123 C 
HETATM   20  C6  UNL     1       1.584  -1.247   0.816  1.00  0.00     0.032 C 
HETATM   21  C5  UNL     1       2.715  -2.277   0.593  1.00  0.00     0.002 C 
HETATM   22  C4  UNL     1       3.768  -1.488   0.010  1.00  0.00     0.002 C 
HETATM   23  C3  UNL     1       5.160  -1.853  -0.281  1.00  0.00     0.020 C 
HETATM   24  C2  UNL     1       5.659  -0.552  -0.982  1.00  0.00     0.121 C 
HETATM   25  N1  UNL     1       4.958   0.619  -0.571  1.00  0.00    -0.396 N 
HETATM   26  C1  UNL     1       5.672   1.399   0.385  1.00  0.00     0.148 C 
HETATM   27  C18 UNL     1       4.081   1.272  -1.432  1.00  0.00     0.083 C 
HETATM   28  C17 UNL     1       2.752   1.767  -0.856  1.00  0.00     0.212 C 
HETATM   29  O2  UNL     1       2.246   1.010   0.144  1.00  0.00    -0.381 OA
ENDBRANCH  18  19
ENDBRANCH  17  18
ENDBRANCH  11  17
ENDBRANCH   1   9
TORSDOF 4
