REMARK  12 active torsions:
REMARK  status: ('A' for Active; 'I' for Inactive)
REMARK    1  A    between atoms: N1_1  and  C1_4 
REMARK    2  A    between atoms: C2_7  and  C3_8 
REMARK    3  A    between atoms: C3_8  and  O1_9 
REMARK    4  A    between atoms: O1_9  and  C4_10 
REMARK    5  A    between atoms: C5_13  and  N4_14 
REMARK    6  A    between atoms: C9_22  and  C10_23 
REMARK    7  A    between atoms: C10_23  and  O3_25 
REMARK    8  A    between atoms: O3_25  and  C11_26 
REMARK    9  A    between atoms: C11_26  and  C12_27 
REMARK   10  A    between atoms: C15_30  and  C16_31 
REMARK   11  A    between atoms: C16_31  and  C17_32 
REMARK   12  A    between atoms: C19_50  and  N14_51 
ROOT
HETATM    1  C4  UNL     1      -3.104  -0.302  -0.675  1.00  0.00     0.187 A 
HETATM    2  N3  UNL     1      -4.220  -0.788  -1.223  1.00  0.00    -0.168 N 
ATOM      3  H3  UNL     1      -4.961  -0.134  -1.475  1.00  0.00     0.186 HD
HETATM    4  C5  UNL     1      -4.415  -2.096  -1.459  1.00  0.00     0.678 A 
HETATM    5  N5  UNL     1      -3.432  -2.949  -1.125  1.00  0.00    -0.190 N 
ATOM      6  H5  UNL     1      -3.556  -3.947  -1.296  1.00  0.00     0.184 HD
HETATM    7  C6  UNL     1      -2.281  -2.510  -0.567  1.00  0.00     0.080 A 
HETATM    8  C7  UNL     1      -1.279  -3.406  -0.229  1.00  0.00     0.035 A 
HETATM    9  C8  UNL     1      -0.116  -2.918   0.340  1.00  0.00     0.038 A 
HETATM   10  C9  UNL     1       0.070  -1.582   0.575  1.00  0.00     0.109 A 
HETATM   11  N12 UNL     1      -0.928  -0.749   0.232  1.00  0.00    -0.346 N 
ATOM     12  H12 UNL     1      -0.808   0.250   0.401  1.00  0.00     0.166 HD
HETATM   13  C18 UNL     1      -2.076  -1.173  -0.323  1.00  0.00     0.112 A 
ENDROOT
BRANCH  10  14
HETATM   14  C10 UNL     1       1.312  -1.090   1.179  1.00  0.00     0.310 C 
HETATM   15  O2  UNL     1       1.478   0.134   1.393  1.00  0.00    -0.258 OA
BRANCH  14  16
HETATM   16  O3  UNL     1       2.323  -1.951   1.526  1.00  0.00    -0.310 OA
BRANCH  16  17
HETATM   17  C11 UNL     1       3.548  -1.637   2.100  1.00  0.00     0.237 C 
BRANCH  17  18
HETATM   18  C12 UNL     1       4.295  -0.726   1.177  1.00  0.00     0.050 A 
HETATM   19  C13 UNL     1       4.909  -1.234   0.032  1.00  0.00     0.031 A 
HETATM   20  C14 UNL     1       5.602  -0.401  -0.812  1.00  0.00     0.029 A 
HETATM   21  C15 UNL     1       5.674   0.937  -0.501  1.00  0.00     0.033 A 
HETATM   22  N10 UNL     1       5.077   1.385   0.598  1.00  0.00    -0.304 N 
HETATM   23  N11 UNL     1       4.425   0.583   1.387  1.00  0.00    -0.303 N 
ATOM     24  H10 UNL     1       5.131   2.377   0.827  1.00  0.00     0.186 HD
ATOM     25  H11 UNL     1       3.986   0.981   2.218  1.00  0.00     0.186 HD
BRANCH  21  26
HETATM   26  C16 UNL     1       6.408   1.887  -1.373  1.00  0.00     0.138 C 
BRANCH  26  27
HETATM   27  C17 UNL     1       7.827   2.027  -1.002  1.00  0.00     0.118 A 
HETATM   28  N6  UNL     1       8.848   1.268  -1.492  1.00  0.00    -0.272 N 
HETATM   29  N7  UNL     1       9.987   1.688  -0.925  1.00  0.00    -0.227 N 
ATOM     30  H6  UNL     1       8.760   0.512  -2.172  1.00  0.00     0.190 HD
HETATM   31  N8  UNL     1       9.695   2.677  -0.107  1.00  0.00    -0.227 N 
ATOM     32  H7  UNL     1      10.918   1.308  -1.097  1.00  0.00     0.210 HD
HETATM   33  N9  UNL     1       8.391   2.886  -0.150  1.00  0.00    -0.272 N 
ATOM     34  H8  UNL     1      10.363   3.195   0.464  1.00  0.00     0.210 HD
ATOM     35  H9  UNL     1       7.891   3.596   0.386  1.00  0.00     0.190 HD
ENDBRANCH  26  27
ENDBRANCH  21  26
ENDBRANCH  17  18
ENDBRANCH  16  17
ENDBRANCH  14  16
ENDBRANCH  10  14
BRANCH   1  36
HETATM   36  O1  UNL     1      -2.895   1.034  -0.430  1.00  0.00    -0.326 OA
BRANCH  36  37
HETATM   37  C3  UNL     1      -3.779   2.083  -0.697  1.00  0.00     0.255 C 
BRANCH  37  38
HETATM   38  C2  UNL     1      -5.029   1.862   0.067  1.00  0.00     0.137 A 
HETATM   39  N2  UNL     1      -5.011   1.984   1.412  1.00  0.00    -0.178 N 
HETATM   40  C1  UNL     1      -6.113   1.804   2.159  1.00  0.00     0.691 A 
ATOM     41  H2  UNL     1      -4.133   2.220   1.875  1.00  0.00     0.185 HD
HETATM   42  N15 UNL     1      -7.245   1.496   1.510  1.00  0.00    -0.023 N 
HETATM   43  C19 UNL     1      -7.298   1.366   0.168  1.00  0.00     0.691 A 
ATOM     44  H15 UNL     1      -8.098   1.355   2.051  1.00  0.00     0.203 HD
HETATM   45  N13 UNL     1      -6.172   1.553  -0.562  1.00  0.00    -0.178 N 
ATOM     46  H13 UNL     1      -6.194   1.460  -1.578  1.00  0.00     0.185 HD
BRANCH  40  47
HETATM   47  N1  UNL     1      -6.151   1.908   3.438  1.00  0.00    -0.234 N 
ATOM     48  H12 UNL     1      -5.290   2.142   3.932  1.00  0.00     0.174 HD
ATOM     49  H11 UNL     1      -6.988   1.771   4.005  1.00  0.00     0.174 HD
ENDBRANCH  40  47
BRANCH  43  50
HETATM   50  N14 UNL     1      -8.433   1.067  -0.366  1.00  0.00    -0.234 N 
ATOM     51 2H14 UNL     1      -8.473   0.969  -1.380  1.00  0.00     0.174 HD
ATOM     52 1H14 UNL     1      -9.281   0.926   0.184  1.00  0.00     0.174 HD
ENDBRANCH  43  50
ENDBRANCH  37  38
ENDBRANCH  36  37
ENDBRANCH   1  36
BRANCH   4  53
HETATM   53  N4  UNL     1      -5.515  -2.534  -1.994  1.00  0.00    -0.234 N 
ATOM     54  H42 UNL     1      -6.261  -1.886  -2.248  1.00  0.00     0.174 HD
ATOM     55  H41 UNL     1      -5.663  -3.527  -2.173  1.00  0.00     0.174 HD
ENDBRANCH   4  53
TORSDOF 12
