REMARK  11 active torsions:
REMARK  status: ('A' for Active; 'I' for Inactive)
REMARK    1  A    between atoms: N1_1  and  C1_4 
REMARK    2  A    between atoms: C2_7  and  N3_8 
REMARK    3  A    between atoms: C3_11  and  C4_12 
REMARK       I    between atoms: C4_12  and  N4_14 
REMARK    4  A    between atoms: C5_16  and  C6_17 
REMARK    5  A    between atoms: C7_20  and  N6_21 
REMARK    6  A    between atoms: C8_23  and  C9_24 
REMARK    7  A    between atoms: C11_26  and  O4_27 
REMARK    8  A    between atoms: C13_30  and  N7_31 
REMARK    9  A    between atoms: C15_37  and  N9_38 
REMARK   10  A    between atoms: N9_38  and  S1_40 
REMARK   11  A    between atoms: S1_40  and  N10_41 
ROOT
HETATM    1  C6  UNL     1      -0.232   1.056  -0.746  1.00  0.00     0.166 C 
HETATM    2  N5  UNL     1       0.092  -0.296  -0.360  1.00  0.00    -0.349 N 
ATOM      3  H5  UNL     1      -0.423  -1.126  -0.654  1.00  0.00     0.163 HD
HETATM    4  C7  UNL     1       1.148  -0.305   0.427  1.00  0.00     0.177 C 
HETATM    5  N8  UNL     1       1.578   1.064   0.613  1.00  0.00    -0.338 N 
ATOM      6  H8  UNL     1       2.514   1.386   0.861  1.00  0.00     0.164 HD
HETATM    7  C15 UNL     1       0.388   1.898   0.371  1.00  0.00     0.224 C 
ENDROOT
BRANCH   1   8
HETATM    8  C5  UNL     1      -1.652   1.348  -0.879  1.00  0.00     0.093 C 
HETATM    9  N4  UNL     1      -2.461   1.132   0.124  1.00  0.00    -0.333 N 
HETATM   10  C4  UNL     1      -3.814   1.421  -0.029  1.00  0.00     0.283 C 
ATOM     11  H4  UNL     1      -2.107   0.758   1.004  1.00  0.00     0.168 HD
HETATM   12  O3  UNL     1      -4.078   2.468  -0.739  1.00  0.00    -0.265 OA
BRANCH  10  13
HETATM   13  C3  UNL     1      -4.903   0.660   0.528  1.00  0.00     0.197 A 
HETATM   14  C2  UNL     1      -4.987  -0.444   1.306  1.00  0.00     0.216 A 
HETATM   15  N2  UNL     1      -6.330  -0.707   1.515  1.00  0.00    -0.301 N 
HETATM   16  C1  UNL     1      -6.983   0.251   0.855  1.00  0.00     0.224 A 
ATOM     17  H2  UNL     1      -6.734  -1.470   2.058  1.00  0.00     0.171 HD
HETATM   18  O9  UNL     1      -6.166   1.049   0.279  1.00  0.00    -0.270 OA
BRANCH  14  19
HETATM   19  N3  UNL     1      -3.955  -1.240   1.848  1.00  0.00    -0.095 N 
HETATM   20  O1  UNL     1      -4.290  -2.241   2.550  1.00  0.00    -0.530 OA
HETATM   21  O2  UNL     1      -2.658  -1.034   1.688  1.00  0.00    -0.530 OA
ENDBRANCH  14  19
BRANCH  16  22
HETATM   22  N1  UNL     1      -8.286   0.361   0.802  1.00  0.00    -0.365 N 
ATOM     23  H12 UNL     1      -8.938  -0.275   1.261  1.00  0.00     0.159 HD
ATOM     24  H11 UNL     1      -8.785   1.093   0.297  1.00  0.00     0.159 HD
ENDBRANCH  16  22
ENDBRANCH  10  13
ENDBRANCH   1   8
BRANCH   7  25
HETATM   25  N9  UNL     1       0.738   3.219  -0.037  1.00  0.00    -0.279 N 
ATOM     26  H9  UNL     1       1.360   3.453  -0.810  1.00  0.00     0.176 HD
BRANCH  25  27
HETATM   27  S1  UNL     1      -0.058   4.357   0.985  1.00  0.00     0.314 S 
HETATM   28  O7  UNL     1       0.785   5.606   1.177  1.00  0.00    -0.183 OA
HETATM   29  O8  UNL     1      -0.284   3.774   2.367  1.00  0.00    -0.183 OA
BRANCH  27  30
HETATM   30  N10 UNL     1      -1.579   4.858   0.374  1.00  0.00    -0.312 N 
ATOM     31 2H10 UNL     1      -1.960   4.509  -0.506  1.00  0.00     0.170 HD
ATOM     32 1H10 UNL     1      -2.050   5.531   0.979  1.00  0.00     0.170 HD
ENDBRANCH  27  30
ENDBRANCH  25  27
ENDBRANCH   7  25
BRANCH   4  33
HETATM   33  N6  UNL     1       1.792  -1.374   1.022  1.00  0.00    -0.338 N 
HETATM   34  C8  UNL     1       2.693  -2.171   0.801  1.00  0.00     0.102 C 
ATOM     35  H6  UNL     1       1.385  -1.556   1.939  1.00  0.00     0.168 HD
BRANCH  34  36
HETATM   36  C9  UNL     1       3.574  -2.331  -0.350  1.00  0.00    -0.016 A 
HETATM   37  C10 UNL     1       3.531  -1.530  -1.456  1.00  0.00     0.049 A 
HETATM   38  C11 UNL     1       4.399  -1.736  -2.533  1.00  0.00     0.068 A 
HETATM   39  C12 UNL     1       5.321  -2.758  -2.501  1.00  0.00     0.072 A 
HETATM   40  C13 UNL     1       5.387  -3.576  -1.407  1.00  0.00     0.106 A 
HETATM   41  C14 UNL     1       4.526  -3.353  -0.367  1.00  0.00     0.049 A 
BRANCH  38  42
HETATM   42  O4  UNL     1       4.345  -0.920  -3.641  1.00  0.00    -0.361 OA
ATOM     43  H4  UNL     1       4.935  -1.060  -4.373  1.00  0.00     0.217 HD
ENDBRANCH  38  42
BRANCH  40  44
HETATM   44  N7  UNL     1       6.337  -4.659  -1.333  1.00  0.00    -0.116 N 
HETATM   45  O5  UNL     1       6.363  -5.381  -0.319  1.00  0.00    -0.532 OA
HETATM   46  O6  UNL     1       7.210  -4.926  -2.330  1.00  0.00    -0.532 OA
ENDBRANCH  40  44
ENDBRANCH  34  36
ENDBRANCH   4  33
TORSDOF 11
