REMARK  1 active torsions:
REMARK  status: ('A' for Active; 'I' for Inactive)
REMARK    1  A    between atoms: O1_2  and  C2_3 
REMARK       I    between atoms: N1_5  and  C4_6 
REMARK       I    between atoms: C4_6  and  N3_10 
ROOT
HETATM    1  C2  UNL     1       2.357  -0.277   0.143  1.00  0.00     0.153 A 
HETATM    2  C3  UNL     1       1.131   0.126  -0.360  1.00  0.00     0.162 A 
HETATM    3  N1  UNL     1       0.063  -0.690  -0.341  1.00  0.00    -0.101 N 
HETATM    4  C4  UNL     1      -1.201  -0.289  -0.854  1.00  0.00     0.730 C 
HETATM    5  N2  UNL     1      -1.555  -0.679  -2.050  1.00  0.00    -0.231 N 
ATOM      6  H21 UNL     1      -2.462  -0.391  -2.418  1.00  0.00     0.174 HD
ATOM      7  H22 UNL     1      -0.907  -1.263  -2.579  1.00  0.00     0.174 HD
HETATM    8  N3  UNL     1      -2.106   0.526  -0.115  1.00  0.00     0.155 N 
HETATM    9  O2  UNL     1      -2.038   1.686   0.470  1.00  0.00    -0.106 OA
HETATM   10  N4  UNL     1      -3.267   1.668   0.882  1.00  0.00    -0.068 N 
ATOM     11  H4  UNL     1      -3.869   2.294   1.417  1.00  0.00     0.216 HD
HETATM   12  C5  UNL     1      -3.402   0.463   0.296  1.00  0.00     0.741 A 
HETATM   13  N5  UNL     1      -4.335  -0.407   0.160  1.00  0.00    -0.230 N 
ATOM     14  H51 UNL     1      -5.306  -0.454   0.468  1.00  0.00     0.174 HD
ATOM     15  H52 UNL     1      -4.437  -1.320  -0.284  1.00  0.00     0.174 HD
HETATM   16  C6  UNL     1       0.222  -1.914   0.183  1.00  0.00     0.347 A 
HETATM   17  O3  UNL     1      -0.748  -2.713   0.223  1.00  0.00    -0.245 OA
HETATM   18  N6  UNL     1       1.394  -2.350   0.685  1.00  0.00    -0.272 N 
ATOM     19  H6  UNL     1       1.461  -3.291   1.074  1.00  0.00     0.173 HD
HETATM   20  C7  UNL     1       2.474  -1.552   0.676  1.00  0.00     0.284 A 
HETATM   21  O4  UNL     1       3.577  -1.962   1.148  1.00  0.00    -0.265 OA
ENDROOT
BRANCH   1  22
HETATM   22  O1  UNL     1       3.474   0.548   0.135  1.00  0.00    -0.350 OA
HETATM   23  C1  UNL     1       3.322   1.844  -0.416  1.00  0.00     0.210 C 
ENDBRANCH   1  22
TORSDOF 1
