REMARK  3 active torsions:
REMARK  status: ('A' for Active; 'I' for Inactive)
REMARK    1  A    between atoms: N1_1  and  N2_4 
REMARK    2  A    between atoms: N3_7  and  N4_8 
REMARK    3  A    between atoms: N4_8  and  O2_10 
ROOT
HETATM    1  N2  UNL     1       1.574   0.128   0.087  1.00  0.00    -0.191 N 
HETATM    2  C1  UNL     1       1.453   1.470   0.099  1.00  0.00     0.370 A 
HETATM    3  O1  UNL     1       2.384   2.328   0.130  1.00  0.00    -0.242 OA
HETATM    4  N3  UNL     1       0.146   1.793   0.073  1.00  0.00    -0.175 N 
HETATM    5  C2  UNL     1      -0.531   0.629   0.045  1.00  0.00     0.177 A 
HETATM    6  C3  UNL     1      -1.880   0.302   0.011  1.00  0.00     0.280 A 
HETATM    7  O3  UNL     1      -2.696   1.278   0.003  1.00  0.00    -0.265 OA
HETATM    8  N5  UNL     1      -2.305  -0.973  -0.013  1.00  0.00    -0.298 N 
ATOM      9  H5  UNL     1      -3.305  -1.171  -0.038  1.00  0.00     0.171 HD
HETATM   10  C4  UNL     1      -1.426  -1.991  -0.004  1.00  0.00     0.180 A 
HETATM   11  S1  UNL     1      -1.952  -3.559  -0.033  1.00  0.00    -0.040 SA
HETATM   12  N6  UNL     1      -0.111  -1.708   0.029  1.00  0.00    -0.315 N 
ATOM     13  H6  UNL     1       0.562  -2.475   0.036  1.00  0.00     0.170 HD
HETATM   14  C5  UNL     1       0.340  -0.443   0.053  1.00  0.00     0.168 A 
ENDROOT
BRANCH   4  15
HETATM   15  N4  UNL     1      -0.403   3.083   0.075  1.00  0.00    -0.199 N 
ATOM     16  H4  UNL     1      -0.223   3.681   0.881  1.00  0.00     0.216 HD
BRANCH  15  17
HETATM   17  O2  UNL     1      -1.095   3.538  -0.848  1.00  0.00    -0.274 OA
ATOM     18  H2  UNL     1      -1.467   4.412  -0.847  1.00  0.00     0.246 HD
ENDBRANCH  15  17
ENDBRANCH   4  15
BRANCH   1  19
HETATM   19  N1  UNL     1       2.780  -0.556   0.107  1.00  0.00    -0.333 N 
ATOM     20  H12 UNL     1       3.705  -0.128   0.132  1.00  0.00     0.177 HD
ATOM     21  H11 UNL     1       2.872  -1.572   0.098  1.00  0.00     0.177 HD
ENDBRANCH   1  19
TORSDOF 3
