REMARK  15 active torsions:
REMARK  status: ('A' for Active; 'I' for Inactive)
REMARK    1  A    between atoms: C2_2  and  C4_4 
REMARK    2  A    between atoms: C4_4  and  N1_5 
REMARK    3  A    between atoms: N1_5  and  C5_7 
REMARK    4  A    between atoms: C5_7  and  C6_8 
REMARK    5  A    between atoms: C5_7  and  C13_15 
REMARK    6  A    between atoms: C6_8  and  C7_9 
REMARK    7  A    between atoms: C13_15  and  O1_16 
REMARK    8  A    between atoms: C13_15  and  C14_18 
REMARK    9  A    between atoms: C14_18  and  C15_19 
REMARK   10  A    between atoms: C15_19  and  C16_20 
REMARK   11  A    between atoms: C15_19  and  C18_28 
REMARK   12  A    between atoms: C16_20  and  C17_21 
REMARK       I    between atoms: C17_21  and  N2_23 
REMARK   13  A    between atoms: N2_23  and  N3_25 
REMARK   14  A    between atoms: C18_28  and  C19_29 
REMARK   15  A    between atoms: C18_28  and  N4_31 
REMARK       I    between atoms: N4_31  and  C20_33 
REMARK       I    between atoms: C20_33  and  N5_35 
ROOT
HETATM    1  C15 UNL     1       1.277  -0.438  -0.398  1.00  0.00    -0.043 C 
ENDROOT
BRANCH   1   2
HETATM    2  C14 UNL     1      -0.108  -0.844  -0.186  1.00  0.00     0.016 C 
BRANCH   2   3
HETATM    3  C13 UNL     1      -1.250  -0.006  -0.592  1.00  0.00     0.190 C 
BRANCH   3   4
HETATM    4  C5  UNL     1      -2.564  -0.756  -0.241  1.00  0.00     0.034 C 
BRANCH   4   5
HETATM    5  N1  UNL     1      -2.627  -1.248   1.055  1.00  0.00    -0.391 N 
ATOM      6  H1  UNL     1      -2.467  -2.248   1.176  1.00  0.00     0.159 HD
BRANCH   5   7
HETATM    7  C4  UNL     1      -2.886  -0.515   2.199  1.00  0.00     0.123 C 
BRANCH   7   8
HETATM    8  C2  UNL     1      -2.823  -1.487   3.406  1.00  0.00    -0.005 C 
HETATM    9  C1  UNL     1      -1.494  -2.139   3.549  1.00  0.00     0.011 C 
HETATM   10  C3  UNL     1      -3.853  -2.592   3.134  1.00  0.00     0.011 C 
ENDBRANCH   7   8
ENDBRANCH   5   7
ENDBRANCH   4   5
BRANCH   4  11
HETATM   11  C6  UNL     1      -3.733  -0.173  -0.910  1.00  0.00     0.005 C 
BRANCH  11  12
HETATM   12  C7  UNL     1      -4.453   0.984  -0.380  1.00  0.00     0.010 C 
HETATM   13  C8  UNL     1      -5.609   1.351  -1.342  1.00  0.00     0.008 C 
HETATM   14  C9  UNL     1      -5.205   2.465  -2.269  1.00  0.00     0.001 C 
HETATM   15  C10 UNL     1      -4.977   3.767  -1.571  1.00  0.00     0.000 C 
HETATM   16  C11 UNL     1      -4.614   3.464  -0.120  1.00  0.00     0.001 C 
HETATM   17  C12 UNL     1      -3.665   2.249  -0.195  1.00  0.00     0.008 C 
ENDBRANCH  11  12
ENDBRANCH   4  11
ENDBRANCH   3   4
BRANCH   3  18
HETATM   18  O1  UNL     1      -1.362   0.354  -1.899  1.00  0.00    -0.386 OA
ATOM     19  H1  UNL     1      -0.558   0.813  -2.114  1.00  0.00     0.210 HD
ENDBRANCH   3  18
ENDBRANCH   2   3
ENDBRANCH   1   2
BRANCH   1  20
HETATM   20  C16 UNL     1       1.718  -0.165  -1.803  1.00  0.00     0.141 C 
BRANCH  20  21
HETATM   21  C17 UNL     1       1.577  -1.396  -2.622  1.00  0.00     0.239 C 
HETATM   22  O2  UNL     1       1.234  -2.517  -2.188  1.00  0.00    -0.272 OA
HETATM   23  N2  UNL     1       1.848  -1.320  -4.009  1.00  0.00    -0.276 N 
ATOM     24  H2  UNL     1       2.132  -0.431  -4.421  1.00  0.00     0.189 HD
BRANCH  23  25
HETATM   25  N3  UNL     1       1.731  -2.442  -4.811  1.00  0.00    -0.343 N 
ATOM     26  H32 UNL     1       1.446  -3.323  -4.383  1.00  0.00     0.176 HD
ATOM     27  H31 UNL     1       1.926  -2.387  -5.811  1.00  0.00     0.176 HD
ENDBRANCH  23  25
ENDBRANCH  20  21
ENDBRANCH   1  20
BRANCH   1  28
HETATM   28  C18 UNL     1       1.951   0.388   0.650  1.00  0.00     0.177 C 
BRANCH  28  29
HETATM   29  C19 UNL     1       1.418   1.689   0.988  1.00  0.00     0.260 C 
HETATM   30  O3  UNL     1       2.173   2.638   1.060  1.00  0.00    -0.304 OA
ENDBRANCH  28  29
BRANCH  28  31
HETATM   31  N4  UNL     1       3.403   0.399   0.463  1.00  0.00    -0.328 N 
HETATM   32  C20 UNL     1       4.298  -0.238   1.355  1.00  0.00     0.319 C 
HETATM   33  O4  UNL     1       3.919  -0.861   2.383  1.00  0.00    -0.247 OA
HETATM   34  N5  UNL     1       5.698  -0.198   1.118  1.00  0.00    -0.330 N 
HETATM   35  C21 UNL     1       6.327   0.469  -0.004  1.00  0.00     0.153 C 
HETATM   36  C24 UNL     1       6.636  -0.857   2.034  1.00  0.00     0.153 C 
HETATM   37  C22 UNL     1       7.666  -0.225  -0.289  1.00  0.00     0.187 C 
HETATM   38  O5  UNL     1       8.523  -0.100   0.782  1.00  0.00    -0.388 OA
HETATM   39  C23 UNL     1       7.891   0.022   2.004  1.00  0.00     0.187 C 
ATOM     40  H4  UNL     1       3.787   0.887  -0.346  1.00  0.00     0.165 HD
ENDBRANCH  28  31
ENDBRANCH   1  28
TORSDOF 15
