REMARK  16 active torsions:
REMARK  status: ('A' for Active; 'I' for Inactive)
REMARK    1  A    between atoms: C2_2  and  N1_3 
REMARK    2  A    between atoms: N1_3  and  C3_4 
REMARK    3  A    between atoms: N1_3  and  C5_6 
REMARK    4  A    between atoms: C5_6  and  C6_7 
REMARK    5  A    between atoms: C6_7  and  C7_8 
REMARK    6  A    between atoms: C7_8  and  N2_9 
REMARK    7  A    between atoms: N2_9  and  C8_12 
REMARK    8  A    between atoms: C8_12  and  C9_13 
REMARK    9  A    between atoms: C9_13  and  C10_14 
REMARK   10  A    between atoms: C10_14  and  N3_15 
REMARK   11  A    between atoms: C12_20  and  N5_21 
REMARK   12  A    between atoms: N5_21  and  C13_23 
REMARK   13  A    between atoms: C13_23  and  C14_24 
REMARK   14  A    between atoms: C14_24  and  C15_25 
REMARK   15  A    between atoms: C16_30  and  N8_31 
REMARK   16  A    between atoms: N8_31  and  C17_33 
ROOT
HETATM    1  C17 UNL     1      -5.358  -1.870   0.085  1.00  0.00     0.136 C 
HETATM    2  C18 UNL     1      -6.393  -0.840  -0.091  1.00  0.00     0.091 C 
HETATM    3  N9  UNL     1      -7.239  -0.041  -0.229  1.00  0.00    -0.195 NA
HETATM    4  C19 UNL     1      -5.725  -2.741   1.287  1.00  0.00     0.047 C 
HETATM    5  C20 UNL     1      -5.661  -4.207   0.989  1.00  0.00     0.004 C 
HETATM    6  C21 UNL     1      -6.605  -4.605  -0.128  1.00  0.00     0.000 C 
HETATM    7  C22 UNL     1      -6.836  -3.437  -1.073  1.00  0.00     0.004 C 
HETATM    8  C23 UNL     1      -5.500  -2.739  -1.195  1.00  0.00     0.047 C 
ENDROOT
BRANCH   1   9
HETATM    9  N8  UNL     1      -4.048  -1.476   0.163  1.00  0.00    -0.203 N 
ATOM     10  H8  UNL     1      -3.479  -2.320   0.231  1.00  0.00     0.179 HD
BRANCH   9  11
HETATM   11  C16 UNL     1      -3.280  -0.509   0.184  1.00  0.00     0.708 A 
HETATM   12  N7  UNL     1      -3.566   0.791   0.122  1.00  0.00    -0.021 N 
HETATM   13  C12 UNL     1      -2.659   1.789   0.145  1.00  0.00     0.707 A 
ATOM     14  H7  UNL     1      -4.549   1.052   0.052  1.00  0.00     0.203 HD
HETATM   15  N4  UNL     1      -1.373   1.444   0.236  1.00  0.00    -0.022 N 
HETATM   16  C11 UNL     1      -0.986   0.129   0.305  1.00  0.00     0.707 A 
ATOM     17  H4  UNL     1      -0.661   2.174   0.255  1.00  0.00     0.203 HD
HETATM   18  N3  UNL     1       0.241  -0.151   0.392  1.00  0.00    -0.225 N 
HETATM   19  N10 UNL     1      -1.934  -0.802   0.278  1.00  0.00    -0.021 N 
ATOM     20  H3  UNL     1       0.849   0.668   0.403  1.00  0.00     0.177 HD
ATOM     21  H10 UNL     1      -1.653  -1.781   0.329  1.00  0.00     0.203 HD
BRANCH  13  22
HETATM   22  N5  UNL     1      -2.928   3.040   0.085  1.00  0.00    -0.225 N 
ATOM     23  H5  UNL     1      -2.167   3.719   0.107  1.00  0.00     0.177 HD
BRANCH  22  24
HETATM   24  C13 UNL     1      -4.292   3.503  -0.013  1.00  0.00     0.147 C 
BRANCH  24  25
HETATM   25  C14 UNL     1      -4.350   5.016  -0.112  1.00  0.00     0.119 C 
BRANCH  25  26
HETATM   26  C15 UNL     1      -5.768   5.418  -0.204  1.00  0.00     0.232 C 
HETATM   27  N6  UNL     1      -6.020   6.823  -0.267  1.00  0.00    -0.062 NA
HETATM   28  O1  UNL     1      -6.693   4.571  -0.226  1.00  0.00    -0.277 OA
ENDBRANCH  25  26
ENDBRANCH  24  25
ENDBRANCH  22  24
ENDBRANCH  13  22
BRANCH  18  29
HETATM   29  C10 UNL     1       0.939  -1.377   0.477  1.00  0.00     0.139 C 
BRANCH  29  30
HETATM   30  C9  UNL     1       2.071  -1.396  -0.562  1.00  0.00     0.048 C 
BRANCH  30  31
HETATM   31  C8  UNL     1       2.945  -0.186  -0.231  1.00  0.00     0.234 C 
BRANCH  31  32
HETATM   32  N2  UNL     1       3.464  -0.298   1.093  1.00  0.00    -0.075 N 
ATOM     33  H22 UNL     1       4.018  -1.146   1.215  1.00  0.00     0.277 HD
ATOM     34  H21 UNL     1       2.731  -0.498   1.774  1.00  0.00     0.277 HD
BRANCH  32  35
HETATM   35  C7  UNL     1       4.205   0.878   1.435  1.00  0.00     0.234 C 
BRANCH  35  36
HETATM   36  C6  UNL     1       5.473   0.955   0.633  1.00  0.00     0.057 C 
BRANCH  36  37
HETATM   37  C5  UNL     1       6.367  -0.223   0.941  1.00  0.00     0.274 C 
BRANCH  37  38
HETATM   38  N1  UNL     1       7.602  -0.198   0.212  1.00  0.00     0.087 N 
BRANCH  38  39
HETATM   39  C2  UNL     1       8.370   0.917   0.658  1.00  0.00     0.268 C 
HETATM   40  C1  UNL     1       9.827   0.867   0.246  1.00  0.00     0.037 C 
ENDBRANCH  38  39
BRANCH  38  41
HETATM   41  C3  UNL     1       7.381  -0.317  -1.183  1.00  0.00     0.268 C 
HETATM   42  C4  UNL     1       6.636  -1.586  -1.542  1.00  0.00     0.037 C 
ENDBRANCH  38  41
ENDBRANCH  37  38
ENDBRANCH  36  37
ENDBRANCH  35  36
ENDBRANCH  32  35
ENDBRANCH  31  32
ENDBRANCH  30  31
ENDBRANCH  29  30
ENDBRANCH  18  29
ENDBRANCH   9  11
ENDBRANCH   1   9
TORSDOF 16
