REMARK  16 active torsions:
REMARK  status: ('A' for Active; 'I' for Inactive)
REMARK    1  A    between atoms: C2_2  and  N1_3 
REMARK    2  A    between atoms: N1_3  and  C3_4 
REMARK    3  A    between atoms: N1_3  and  C5_6 
REMARK    4  A    between atoms: C5_6  and  C6_7 
REMARK    5  A    between atoms: C6_7  and  N2_8 
REMARK    6  A    between atoms: N2_8  and  C7_11 
REMARK    7  A    between atoms: C7_11  and  C10_14 
REMARK    8  A    between atoms: C10_14  and  C11_15 
REMARK    9  A    between atoms: C11_15  and  C12_16 
REMARK   10  A    between atoms: C13_17  and  C14_18 
REMARK   11  A    between atoms: C15_19  and  O1_20 
REMARK   12  A    between atoms: C16_22  and  O2_23 
REMARK   13  A    between atoms: C18_27  and  O4_28 
REMARK   14  A    between atoms: C21_31  and  C22_32 
REMARK       I    between atoms: C22_32  and  N3_34 
REMARK   15  A    between atoms: N3_34  and  C23_36 
REMARK   16  A    between atoms: C23_36  and  C24_37 
ROOT
HETATM    1  C14 UNL     1       3.192   1.365   0.483  1.00  0.00     0.053 C 
HETATM    2  C15 UNL     1       3.167   2.524  -0.469  1.00  0.00     0.158 C 
HETATM    3  C16 UNL     1       4.475   3.096  -0.856  1.00  0.00     0.177 C 
HETATM    4  C17 UNL     1       5.570   2.972   0.142  1.00  0.00     0.165 C 
HETATM    5  O3  UNL     1       6.781   2.489  -0.374  1.00  0.00    -0.352 OA
HETATM    6  C18 UNL     1       6.971   1.605   0.690  1.00  0.00     0.267 C 
HETATM    7  C20 UNL     1       5.524   1.760   1.004  1.00  0.00     0.086 C 
HETATM    8  C21 UNL     1       4.552   0.724   0.626  1.00  0.00     0.099 C 
ENDROOT
BRANCH   1   9
HETATM    9  C13 UNL     1       2.108   0.411   0.148  1.00  0.00    -0.023 C 
HETATM   10  C12 UNL     1       1.050   0.221   0.924  1.00  0.00    -0.030 C 
BRANCH  10  11
HETATM   11  C11 UNL     1      -0.047  -0.729   0.607  1.00  0.00     0.029 C 
BRANCH  11  12
HETATM   12  C10 UNL     1      -1.373  -0.015   0.489  1.00  0.00     0.042 C 
BRANCH  12  13
HETATM   13  C7  UNL     1      -2.528  -0.898   0.164  1.00  0.00     0.119 C 
HETATM   14  C8  UNL     1      -2.363  -1.594  -1.171  1.00  0.00     0.046 C 
HETATM   15  C9  UNL     1      -2.835  -1.926   1.230  1.00  0.00     0.046 C 
BRANCH  13  16
HETATM   16  N2  UNL     1      -3.700  -0.006   0.098  1.00  0.00    -0.065 N 
ATOM     17  H22 UNL     1      -3.574   0.734  -0.593  1.00  0.00     0.278 HD
ATOM     18  H21 UNL     1      -3.780   0.575   0.932  1.00  0.00     0.278 HD
BRANCH  16  19
HETATM   19  C6  UNL     1      -4.915  -0.771  -0.146  1.00  0.00     0.263 C 
BRANCH  19  20
HETATM   20  C5  UNL     1      -6.077   0.187  -0.202  1.00  0.00     0.299 C 
BRANCH  20  21
HETATM   21  N1  UNL     1      -7.298  -0.489  -0.453  1.00  0.00     0.089 N 
BRANCH  21  22
HETATM   22  C2  UNL     1      -7.746  -1.312   0.621  1.00  0.00     0.268 C 
HETATM   23  C1  UNL     1      -8.785  -2.310   0.150  1.00  0.00     0.037 C 
ENDBRANCH  21  22
BRANCH  21  24
HETATM   24  C3  UNL     1      -8.354   0.398  -0.919  1.00  0.00     0.268 C 
HETATM   25  C4  UNL     1      -8.732   1.457   0.059  1.00  0.00     0.037 C 
ENDBRANCH  21  24
ENDBRANCH  20  21
ENDBRANCH  19  20
ENDBRANCH  16  19
ENDBRANCH  13  16
ENDBRANCH  12  13
ENDBRANCH  11  12
ENDBRANCH  10  11
ENDBRANCH   1   9
BRANCH   2  26
HETATM   26  O1  UNL     1       2.546   2.055  -1.653  1.00  0.00    -0.392 OA
ATOM     27  H1  UNL     1       2.530   2.789  -2.256  1.00  0.00     0.210 HD
ENDBRANCH   2  26
BRANCH   8  28
HETATM   28  C22 UNL     1       4.918  -0.227  -0.414  1.00  0.00     0.223 C 
HETATM   29  O5  UNL     1       5.779  -0.008  -1.339  1.00  0.00    -0.273 OA
HETATM   30  N3  UNL     1       4.334  -1.525  -0.501  1.00  0.00    -0.351 N 
ATOM     31  H3  UNL     1       3.639  -1.764   0.206  1.00  0.00     0.163 HD
BRANCH  30  32
HETATM   32  C23 UNL     1       4.624  -2.518  -1.474  1.00  0.00     0.235 C 
BRANCH  32  33
HETATM   33  C24 UNL     1       6.041  -2.938  -1.418  1.00  0.00     0.191 C 
HETATM   34  O6  UNL     1       6.891  -2.510  -0.601  1.00  0.00    -0.647 OA
HETATM   35  O7  UNL     1       6.513  -3.894  -2.340  1.00  0.00    -0.647 OA
ENDBRANCH  32  33
ENDBRANCH  30  32
ENDBRANCH   8  28
BRANCH   3  36
HETATM   36  O2  UNL     1       4.293   4.470  -1.105  1.00  0.00    -0.390 OA
ATOM     37  H2  UNL     1       5.133   4.837  -1.354  1.00  0.00     0.210 HD
ENDBRANCH   3  36
BRANCH   6  38
HETATM   38  O4  UNL     1       7.840   2.217   1.616  1.00  0.00    -0.366 OA
HETATM   39  C19 UNL     1       8.958   1.391   1.835  1.00  0.00     0.204 C 
ENDBRANCH   6  38
TORSDOF 16
