REMARK  16 active torsions:
REMARK  status: ('A' for Active; 'I' for Inactive)
REMARK    1  A    between atoms: N1_2  and  C2_3 
REMARK    2  A    between atoms: N1_2  and  C5_7 
REMARK    3  A    between atoms: C2_3  and  C3_4 
REMARK    4  A    between atoms: C3_4  and  C4_5 
REMARK    5  A    between atoms: C5_7  and  C6_8 
REMARK    6  A    between atoms: C6_8  and  C7_9 
REMARK    7  A    between atoms: C7_9  and  N2_10 
REMARK    8  A    between atoms: N2_10  and  C8_11 
REMARK       I    between atoms: N2_10  and  C10_15 
REMARK    9  A    between atoms: C8_11  and  C9_12 
REMARK   10  A    between atoms: C9_12  and  O1_13 
REMARK   11  A    between atoms: C10_15  and  C11_17 
REMARK   12  A    between atoms: C11_17  and  N3_18 
REMARK   13  A    between atoms: C11_17  and  C18_31 
REMARK       I    between atoms: N3_18  and  C12_20 
REMARK   14  A    between atoms: C12_20  and  C13_22 
REMARK   15  A    between atoms: C15_24  and  O4_25 
REMARK   16  A    between atoms: C16_27  and  O5_28 
ROOT
HETATM    1  C11 UNL     1       1.355  -0.220   0.410  1.00  0.00     0.181 C 
ENDROOT
BRANCH   1   2
HETATM    2  C10 UNL     1       0.983   0.194  -0.927  1.00  0.00     0.246 C 
HETATM    3  N2  UNL     1      -0.026   1.081  -1.374  1.00  0.00    -0.328 N 
HETATM    4  O2  UNL     1       1.683  -0.316  -1.891  1.00  0.00    -0.271 OA
BRANCH   3   5
HETATM    5  C7  UNL     1      -0.832   1.771  -0.445  1.00  0.00     0.068 C 
BRANCH   5   6
HETATM    6  C6  UNL     1      -2.076   1.281   0.137  1.00  0.00     0.064 C 
BRANCH   6   7
HETATM    7  C5  UNL     1      -3.180   0.938  -0.777  1.00  0.00     0.126 C 
BRANCH   7   8
HETATM    8  N1  UNL     1      -4.390   0.511  -0.116  1.00  0.00    -0.397 N 
HETATM    9  C1  UNL     1      -5.072   1.459   0.615  1.00  0.00     0.148 C 
BRANCH   8  10
HETATM   10  C2  UNL     1      -4.854  -0.744  -0.450  1.00  0.00     0.058 C 
BRANCH  10  11
HETATM   11  C3  UNL     1      -5.042  -1.798   0.566  1.00  0.00     0.055 C 
BRANCH  11  12
HETATM   12  C4  UNL     1      -6.054  -1.510   1.610  1.00  0.00     0.091 C 
HETATM   13  S1  UNL     1      -7.739  -1.296   0.948  1.00  0.00    -0.097 SA
ENDBRANCH  11  12
ENDBRANCH  10  11
ENDBRANCH   8  10
ENDBRANCH   7   8
ENDBRANCH   6   7
ENDBRANCH   5   6
ENDBRANCH   3   5
BRANCH   3  14
HETATM   14  C8  UNL     1      -0.081   1.345  -2.795  1.00  0.00     0.157 C 
BRANCH  14  15
HETATM   15  C9  UNL     1      -0.843   0.428  -3.661  1.00  0.00     0.184 C 
BRANCH  15  16
HETATM   16  O1  UNL     1      -0.709   0.936  -4.993  1.00  0.00    -0.399 OA
ATOM     17  H1  UNL     1      -1.200   0.345  -5.551  1.00  0.00     0.209 HD
ENDBRANCH  15  16
ENDBRANCH  14  15
ENDBRANCH   3  14
ENDBRANCH   1   2
BRANCH   1  18
HETATM   18  N3  UNL     1       2.860  -0.147   0.472  1.00  0.00    -0.347 N 
HETATM   19  C12 UNL     1       3.524   0.778   1.278  1.00  0.00     0.222 C 
HETATM   20  O3  UNL     1       2.847   1.582   1.975  1.00  0.00    -0.273 OA
ATOM     21  H3  UNL     1       3.410  -0.794  -0.093  1.00  0.00     0.163 HD
BRANCH  19  22
HETATM   22  C13 UNL     1       5.007   0.811   1.310  1.00  0.00     0.083 C 
HETATM   23  C14 UNL     1       5.436   1.962   2.188  1.00  0.00     0.048 C 
HETATM   24  C15 UNL     1       5.494   3.170   1.310  1.00  0.00     0.147 C 
HETATM   25  C16 UNL     1       5.422   2.656  -0.102  1.00  0.00     0.147 C 
HETATM   26  C17 UNL     1       5.602   1.165  -0.028  1.00  0.00     0.048 C 
BRANCH  24  27
HETATM   27  O4  UNL     1       4.396   3.988   1.620  1.00  0.00    -0.393 OA
ATOM     28  H4  UNL     1       4.433   4.756   1.062  1.00  0.00     0.210 HD
ENDBRANCH  24  27
BRANCH  25  29
HETATM   29  O5  UNL     1       4.215   3.004  -0.711  1.00  0.00    -0.393 OA
ATOM     30  H5  UNL     1       4.170   2.679  -1.603  1.00  0.00     0.210 HD
ENDBRANCH  25  29
ENDBRANCH  19  22
ENDBRANCH   1  18
BRANCH   1  31
HETATM   31  C18 UNL     1       1.112  -1.628   0.825  1.00  0.00     0.018 C 
HETATM   32  C19 UNL     1       1.835  -2.669  -0.021  1.00  0.00     0.007 C 
HETATM   33  C20 UNL     1       1.206  -4.052   0.228  1.00  0.00     0.000 C 
HETATM   34  C21 UNL     1      -0.164  -4.124  -0.386  1.00  0.00     0.000 C 
HETATM   35  C22 UNL     1      -0.774  -2.717  -0.266  1.00  0.00     0.000 C 
HETATM   36  C23 UNL     1      -0.258  -2.116   1.029  1.00  0.00     0.007 C 
ENDBRANCH   1  31
TORSDOF 16
