REMARK  16 active torsions:
REMARK  status: ('A' for Active; 'I' for Inactive)
REMARK    1  A    between atoms: C2_2  and  N1_3 
REMARK    2  A    between atoms: C3_6  and  C4_7 
REMARK    3  A    between atoms: C5_8  and  C6_9 
REMARK    4  A    between atoms: C7_10  and  C8_11 
REMARK    5  A    between atoms: C9_12  and  C10_13 
REMARK    6  A    between atoms: C10_13  and  C11_14 
REMARK    7  A    between atoms: C11_14  and  C12_15 
REMARK    8  A    between atoms: C13_16  and  C14_17 
REMARK    9  A    between atoms: C19_22  and  C20_23 
REMARK   10  A    between atoms: C20_23  and  N3_24 
REMARK   11  A    between atoms: N3_24  and  N4_25 
REMARK   12  A    between atoms: C21_28  and  C22_29 
REMARK   13  A    between atoms: C24_31  and  C25_32 
REMARK       I    between atoms: C25_32  and  N5_34 
REMARK   14  A    between atoms: N5_34  and  C26_36 
REMARK   15  A    between atoms: C26_36  and  C27_37 
REMARK   16  A    between atoms: C28_38  and  C29_39 
ROOT
HETATM    1  C29 UNL     1       9.474  -2.425  -1.667  1.00  0.00    -0.015 C 
HETATM    2  C30 UNL     1       9.656  -3.587  -1.975  1.00  0.00    -0.097 C 
HETATM    3  C31 UNL     1       9.878  -5.002  -2.322  1.00  0.00     0.113 C 
ENDROOT
BRANCH   1   4
HETATM    4  C28 UNL     1       9.270  -1.079  -1.285  1.00  0.00    -0.013 C 
HETATM    5  C27 UNL     1       9.099   0.062  -0.936  1.00  0.00    -0.073 C 
BRANCH   5   6
HETATM    6  C26 UNL     1       8.894   1.440  -0.487  1.00  0.00     0.218 C 
BRANCH   6   7
HETATM    7  N5  UNL     1       7.475   1.563  -0.159  1.00  0.00    -0.345 N 
HETATM    8  C25 UNL     1       6.963   0.713   0.839  1.00  0.00     0.271 C 
HETATM    9  O1  UNL     1       7.739  -0.124   1.428  1.00  0.00    -0.266 OA
ATOM     10  H5  UNL     1       6.878   2.239  -0.635  1.00  0.00     0.163 HD
BRANCH   8  11
HETATM   11  C24 UNL     1       5.570   0.738   1.248  1.00  0.00     0.132 A 
HETATM   12  N1  UNL     1       5.089   0.468   2.469  1.00  0.00    -0.261 N 
HETATM   13  N2  UNL     1       3.735   0.481   2.457  1.00  0.00    -0.285 N 
HETATM   14  C3  UNL     1       3.291   0.760   1.239  1.00  0.00     0.111 A 
ATOM     15  H2  UNL     1       3.142   0.302   3.268  1.00  0.00     0.188 HD
HETATM   16  C21 UNL     1       4.449   0.927   0.456  1.00  0.00     0.013 A 
BRANCH  12  17
HETATM   17  C2  UNL     1       5.821   0.201   3.645  1.00  0.00     0.106 C 
HETATM   18  C1  UNL     1       6.880   0.844   4.083  1.00  0.00     0.032 C 
ENDBRANCH  12  17
BRANCH  14  19
HETATM   19  C4  UNL     1       1.912   0.877   0.793  1.00  0.00    -0.033 C 
HETATM   20  C5  UNL     1       0.761   0.985   0.446  1.00  0.00    -0.007 C 
BRANCH  20  21
HETATM   21  C6  UNL     1      -0.595   1.116   0.065  1.00  0.00    -0.001 C 
HETATM   22  C7  UNL     1      -1.772   1.240  -0.244  1.00  0.00    -0.001 C 
BRANCH  22  23
HETATM   23  C8  UNL     1      -3.135   1.405  -0.583  1.00  0.00    -0.014 C 
HETATM   24  C9  UNL     1      -4.290   1.566  -0.877  1.00  0.00    -0.092 C 
BRANCH  24  25
HETATM   25  C10 UNL     1      -5.668   1.799  -1.221  1.00  0.00     0.099 C 
BRANCH  25  26
HETATM   26  C11 UNL     1      -6.545   0.633  -1.522  1.00  0.00     0.052 C 
BRANCH  26  27
HETATM   27  C12 UNL     1      -6.686  -0.372  -0.488  1.00  0.00    -0.043 A 
HETATM   28  C13 UNL     1      -5.873  -1.464  -0.409  1.00  0.00    -0.052 A 
HETATM   29  C16 UNL     1      -6.030  -2.319   0.690  1.00  0.00     0.007 A 
HETATM   30  C17 UNL     1      -6.966  -2.102   1.676  1.00  0.00     0.001 A 
HETATM   31  C18 UNL     1      -7.780  -0.998   1.574  1.00  0.00     0.009 A 
HETATM   32  C19 UNL     1      -7.656  -0.119   0.496  1.00  0.00    -0.035 A 
BRANCH  28  33
HETATM   33  C14 UNL     1      -4.957  -1.860  -1.469  1.00  0.00     0.034 C 
HETATM   34  C15 UNL     1      -5.772  -2.530  -2.595  1.00  0.00     0.010 C 
ENDBRANCH  28  33
BRANCH  32  35
HETATM   35  C20 UNL     1      -8.589   1.026   0.428  1.00  0.00     0.173 C 
BRANCH  35  36
HETATM   36  N3  UNL     1      -9.492   0.988   1.602  1.00  0.00    -0.144 NA
BRANCH  36  37
HETATM   37  N4  UNL     1     -10.344   2.113   1.460  1.00  0.00    -0.348 N 
ATOM     38  H42 UNL     1     -10.327   2.796   0.703  1.00  0.00     0.172 HD
ATOM     39  H41 UNL     1     -10.966   2.087   2.268  1.00  0.00     0.172 HD
ENDBRANCH  36  37
ENDBRANCH  35  36
ENDBRANCH  32  35
ENDBRANCH  26  27
ENDBRANCH  25  26
ENDBRANCH  24  25
ENDBRANCH  22  23
ENDBRANCH  20  21
ENDBRANCH  14  19
BRANCH  16  40
HETATM   40  C22 UNL     1       4.359   1.216  -0.984  1.00  0.00     0.040 C 
HETATM   41  C23 UNL     1       3.936   2.635  -1.236  1.00  0.00     0.010 C 
ENDBRANCH  16  40
ENDBRANCH   8  11
ENDBRANCH   6   7
ENDBRANCH   5   6
ENDBRANCH   1   4
TORSDOF 16
