REMARK  10 active torsions:
REMARK  status: ('A' for Active; 'I' for Inactive)
REMARK    1  A    between atoms: N2_4  and  C3_5 
REMARK    2  A    between atoms: C3_5  and  C4_6 
REMARK    3  A    between atoms: C4_6  and  N3_7 
REMARK    4  A    between atoms: C4_6  and  C5_11 
REMARK    5  A    between atoms: C5_11  and  C6_12 
REMARK    6  A    between atoms: C12_22  and  C13_23 
REMARK    7  A    between atoms: C13_23  and  C14_24 
REMARK    8  A    between atoms: C14_24  and  C15_25 
REMARK    9  A    between atoms: C15_25  and  N6_26 
REMARK   10  A    between atoms: C17_30  and  N8_31 
ROOT
HETATM    1  C1  UNL     1      -0.281  -3.911  -1.626  1.00  0.00     0.157 C 
HETATM    2  N1  UNL     1      -0.711  -2.729  -0.904  1.00  0.00    -0.347 N 
HETATM    3  C2  UNL     1      -2.002  -2.342  -0.822  1.00  0.00     0.185 A 
HETATM    4  N2  UNL     1      -2.397  -1.261  -0.160  1.00  0.00    -0.350 N 
HETATM    5  C9  UNL     1      -1.465  -0.520   0.454  1.00  0.00     0.105 A 
HETATM    6  C10 UNL     1      -0.113  -0.882   0.396  1.00  0.00     0.007 A 
HETATM    7  C11 UNL     1       0.805  -0.098   1.037  1.00  0.00     0.022 A 
HETATM    8  C12 UNL     1       2.173  -0.417   1.009  1.00  0.00    -0.057 A 
HETATM    9  C18 UNL     1       2.500  -1.541   0.312  1.00  0.00     0.009 A 
HETATM   10  C19 UNL     1       1.575  -2.343  -0.342  1.00  0.00     0.031 A 
HETATM   11  C20 UNL     1       0.255  -1.999  -0.292  1.00  0.00     0.046 A 
ENDROOT
BRANCH   4  12
HETATM   12  C3  UNL     1      -3.766  -0.867  -0.085  1.00  0.00     0.162 C 
BRANCH  12  13
HETATM   13  C4  UNL     1      -4.222   0.039  -1.160  1.00  0.00     0.207 C 
BRANCH  13  14
HETATM   14  N3  UNL     1      -3.447   1.292  -1.162  1.00  0.00    -0.073 N 
ATOM     15  H33 UNL     1      -3.470   1.749  -0.251  1.00  0.00     0.274 HD
ATOM     16  H32 UNL     1      -2.445   1.113  -1.221  1.00  0.00     0.274 HD
ATOM     17  H31 UNL     1      -3.762   1.917  -1.904  1.00  0.00     0.274 HD
ENDBRANCH  13  14
BRANCH  13  18
HETATM   18  C5  UNL     1      -5.659   0.387  -1.010  1.00  0.00     0.092 C 
BRANCH  18  19
HETATM   19  C6  UNL     1      -6.062   1.120   0.186  1.00  0.00     0.027 A 
HETATM   20  C7  UNL     1      -5.306   1.729   1.146  1.00  0.00     0.114 A 
HETATM   21  N4  UNL     1      -6.089   2.275   2.092  1.00  0.00    -0.360 N 
HETATM   22  C8  UNL     1      -7.352   2.013   1.735  1.00  0.00     0.180 A 
ATOM     23  H4  UNL     1      -5.782   2.788   2.918  1.00  0.00     0.166 HD
HETATM   24  N5  UNL     1      -7.356   1.322   0.595  1.00  0.00    -0.355 N 
ATOM     25  H5  UNL     1      -8.189   0.995   0.105  1.00  0.00     0.166 HD
ENDBRANCH  18  19
ENDBRANCH  13  18
ENDBRANCH  12  13
ENDBRANCH   4  12
BRANCH   8  26
HETATM   26  C13 UNL     1       3.121   0.438   1.738  1.00  0.00     0.040 C 
BRANCH  26  27
HETATM   27  C14 UNL     1       3.575   1.662   1.056  1.00  0.00     0.026 C 
BRANCH  27  28
HETATM   28  C15 UNL     1       4.380   1.570  -0.189  1.00  0.00     0.151 C 
BRANCH  28  29
HETATM   29  N6  UNL     1       5.682   0.981  -0.054  1.00  0.00    -0.273 N 
HETATM   30  C16 UNL     1       6.123  -0.255  -0.191  1.00  0.00     0.218 A 
HETATM   31  N7  UNL     1       7.461  -0.309   0.062  1.00  0.00    -0.185 N 
HETATM   32  C17 UNL     1       7.847   0.934   0.363  1.00  0.00     0.691 A 
ATOM     33  H7  UNL     1       8.054  -1.139   0.028  1.00  0.00     0.185 HD
HETATM   34  N9  UNL     1       6.767   1.694   0.288  1.00  0.00    -0.129 N 
ATOM     35  H9  UNL     1       6.759   2.698   0.468  1.00  0.00     0.206 HD
BRANCH  32  36
HETATM   36  N8  UNL     1       9.069   1.259   0.662  1.00  0.00    -0.233 N 
ATOM     37  H82 UNL     1       9.902   0.673   0.720  1.00  0.00     0.174 HD
ATOM     38  H81 UNL     1       9.364   2.208   0.892  1.00  0.00     0.174 HD
ENDBRANCH  32  36
ENDBRANCH  28  29
ENDBRANCH  27  28
ENDBRANCH  26  27
ENDBRANCH   8  26
TORSDOF 10
