REMARK  7 active torsions:
REMARK  status: ('A' for Active; 'I' for Inactive)
REMARK    1  A    between atoms: C4_4  and  C5_5 
REMARK    2  A    between atoms: N2_14  and  C13_15 
REMARK    3  A    between atoms: C13_15  and  C14_16 
REMARK    4  A    between atoms: C14_16  and  C15_17 
REMARK    5  A    between atoms: C15_17  and  C16_18 
REMARK    6  A    between atoms: C16_18  and  N3_19 
REMARK    7  A    between atoms: C19_27  and  N6_28 
REMARK       I    between atoms: N6_28  and  C20_30 
ROOT
HETATM    1  C15 UNL     1      -2.437  -1.485  -0.473  1.00  0.00     0.022 C 
ENDROOT
BRANCH   1   2
HETATM    2  C14 UNL     1      -0.938  -1.306  -0.464  1.00  0.00     0.022 C 
BRANCH   2   3
HETATM    3  C13 UNL     1      -0.549   0.057   0.079  1.00  0.00     0.128 C 
BRANCH   3   4
HETATM    4  N2  UNL     1       0.893   0.171   0.060  1.00  0.00    -0.360 N 
HETATM    5  C2  UNL     1       1.526   0.672  -1.010  1.00  0.00     0.008 A 
HETATM    6  C1  UNL     1       0.739   1.115  -2.175  1.00  0.00     0.068 C 
HETATM    7  C3  UNL     1       2.895   0.791  -1.064  1.00  0.00     0.037 A 
HETATM    8  C4  UNL     1       3.658   0.391   0.003  1.00  0.00    -0.021 A 
HETATM    9  C11 UNL     1       3.024  -0.126   1.112  1.00  0.00     0.029 A 
HETATM   10  C12 UNL     1       1.652  -0.225   1.116  1.00  0.00     0.092 A 
BRANCH   8  11
HETATM   11  C5  UNL     1       5.136   0.511  -0.032  1.00  0.00    -0.010 A 
HETATM   12  C6  UNL     1       5.778   0.377  -1.236  1.00  0.00     0.015 A 
HETATM   13  C7  UNL     1       7.173   0.496  -1.230  1.00  0.00     0.018 A 
HETATM   14  C8  UNL     1       7.823   0.736  -0.038  1.00  0.00     0.090 A 
HETATM   15  N1  UNL     1       7.183   0.866   1.139  1.00  0.00    -0.370 N 
HETATM   16  C9  UNL     1       7.941   1.119   2.352  1.00  0.00     0.154 C 
HETATM   17  C10 UNL     1       5.846   0.751   1.125  1.00  0.00     0.102 A 
ENDBRANCH   8  11
ENDBRANCH   3   4
ENDBRANCH   2   3
ENDBRANCH   1   2
BRANCH   1  18
HETATM   18  C16 UNL     1      -3.042  -1.376   0.887  1.00  0.00     0.148 C 
BRANCH  18  19
HETATM   19  N3  UNL     1      -4.489  -1.568   0.743  1.00  0.00    -0.179 N 
HETATM   20  C17 UNL     1      -5.070  -2.765   0.818  1.00  0.00     0.205 A 
HETATM   21  N4  UNL     1      -6.398  -2.922   0.683  1.00  0.00    -0.303 N 
HETATM   22  C18 UNL     1      -7.180  -1.851   0.464  1.00  0.00     0.339 A 
ATOM     23  H4  UNL     1      -6.812  -3.852   0.747  1.00  0.00     0.171 HD
HETATM   24  O1  UNL     1      -8.437  -1.946   0.330  1.00  0.00    -0.246 OA
HETATM   25  N5  UNL     1      -6.609  -0.625   0.384  1.00  0.00    -0.141 N 
HETATM   26  C19 UNL     1      -5.279  -0.480   0.521  1.00  0.00     0.691 A 
ATOM     27  H5  UNL     1      -7.193   0.195   0.218  1.00  0.00     0.189 HD
BRANCH  26  28
HETATM   28  N6  UNL     1      -4.722   0.693   0.447  1.00  0.00    -0.163 N 
HETATM   29  C20 UNL     1      -5.554   1.826   0.215  1.00  0.00     0.200 C 
HETATM   30  N7  UNL     1      -6.208   2.411   1.152  1.00  0.00    -0.373 N 
HETATM   31  N8  UNL     1      -5.631   2.291  -1.132  1.00  0.00    -0.063 NA
ATOM     32  H72 UNL     1      -6.153   2.079   2.115  1.00  0.00     0.158 HD
ATOM     33  H71 UNL     1      -6.804   3.222   0.986  1.00  0.00     0.158 HD
ATOM     34  H6  UNL     1      -3.713   0.799   0.553  1.00  0.00     0.187 HD
ENDBRANCH  26  28
ENDBRANCH  18  19
ENDBRANCH   1  18
TORSDOF 7
