REMARK  11 active torsions:
REMARK  status: ('A' for Active; 'I' for Inactive)
REMARK    1  A    between atoms: C2_2  and  C3_3 
REMARK    2  A    between atoms: C3_3  and  C4_4 
REMARK    3  A    between atoms: C4_4  and  C5_5 
REMARK    4  A    between atoms: C5_5  and  C6_6 
REMARK    5  A    between atoms: C15_15  and  O1_16 
REMARK    6  A    between atoms: O1_16  and  C16_17 
REMARK    7  A    between atoms: C17_19  and  C18_20 
REMARK    8  A    between atoms: C18_20  and  O3_21 
REMARK    9  A    between atoms: C19_23  and  O4_24 
REMARK   10  A    between atoms: C20_26  and  O5_27 
REMARK   11  A    between atoms: C21_29  and  O6_30 
ROOT
HETATM    1  C6  UNL     1      -4.740   0.278   0.715  1.00  0.00    -0.006 C 
HETATM    2  C7  UNL     1      -5.082   1.758   0.458  1.00  0.00     0.006 C 
HETATM    3  C8  UNL     1      -3.755   2.402   0.036  1.00  0.00     0.006 C 
HETATM    4  C9  UNL     1      -2.801   1.527   0.774  1.00  0.00    -0.002 C 
HETATM    5  C10 UNL     1      -1.367   1.743   0.500  1.00  0.00    -0.005 C 
HETATM    6  C11 UNL     1      -0.962   3.068   1.167  1.00  0.00     0.006 C 
HETATM    7  C12 UNL     1       0.542   3.257   1.141  1.00  0.00     0.005 C 
HETATM    8  C13 UNL     1       1.125   2.192   0.305  1.00  0.00    -0.008 C 
HETATM    9  C14 UNL     1       2.638   2.133   0.305  1.00  0.00     0.037 C 
HETATM   10  C15 UNL     1       2.840   0.733  -0.248  1.00  0.00     0.125 C 
HETATM   11  C22 UNL     1       1.611  -0.080   0.177  1.00  0.00     0.037 C 
HETATM   12  C23 UNL     1       0.861   0.860   1.028  1.00  0.00    -0.004 C 
HETATM   13  C24 UNL     1      -0.577   0.662   1.214  1.00  0.00    -0.005 C 
HETATM   14  C25 UNL     1      -1.090  -0.719   0.904  1.00  0.00     0.006 C 
HETATM   15  C26 UNL     1      -2.552  -0.814   1.271  1.00  0.00     0.010 C 
HETATM   16  C27 UNL     1      -3.306   0.138   0.375  1.00  0.00    -0.036 C 
HETATM   17  C28 UNL     1      -3.044  -0.182  -1.046  1.00  0.00     0.016 C 
ENDROOT
BRANCH  10  18
HETATM   18  O1  UNL     1       4.015   0.153   0.191  1.00  0.00    -0.353 OA
BRANCH  18  19
HETATM   19  C16 UNL     1       4.806  -0.129  -0.914  1.00  0.00     0.292 C 
HETATM   20  O2  UNL     1       5.115  -1.467  -1.037  1.00  0.00    -0.348 OA
HETATM   21  C17 UNL     1       5.872  -1.920   0.039  1.00  0.00     0.179 C 
HETATM   22  C19 UNL     1       7.226  -1.263   0.111  1.00  0.00     0.180 C 
HETATM   23  C20 UNL     1       6.979   0.240   0.285  1.00  0.00     0.183 C 
HETATM   24  C21 UNL     1       6.109   0.657  -0.882  1.00  0.00     0.204 C 
BRANCH  21  25
HETATM   25  C18 UNL     1       6.060  -3.419  -0.075  1.00  0.00     0.198 C 
BRANCH  25  26
HETATM   26  O3  UNL     1       6.714  -3.713  -1.253  1.00  0.00    -0.398 OA
ATOM     27  H3  UNL     1       6.832  -4.653  -1.324  1.00  0.00     0.209 HD
ENDBRANCH  25  26
ENDBRANCH  21  25
BRANCH  22  28
HETATM   28  O4  UNL     1       7.898  -1.790   1.206  1.00  0.00    -0.390 OA
ATOM     29  H4  UNL     1       8.752  -1.376   1.251  1.00  0.00     0.210 HD
ENDBRANCH  22  28
BRANCH  23  30
HETATM   30  O5  UNL     1       8.172   0.921   0.205  1.00  0.00    -0.390 OA
ATOM     31  H5  UNL     1       8.019   1.852   0.313  1.00  0.00     0.210 HD
ENDBRANCH  23  30
BRANCH  24  32
HETATM   32  O6  UNL     1       6.792   0.318  -2.060  1.00  0.00    -0.388 OA
ATOM     33  H6  UNL     1       7.605   0.809  -2.040  1.00  0.00     0.210 HD
ENDBRANCH  24  32
ENDBRANCH  18  19
ENDBRANCH  10  18
BRANCH   1  34
HETATM   34  C5  UNL     1      -5.729  -0.517  -0.042  1.00  0.00     0.005 C 
BRANCH  34  35
HETATM   35  C4  UNL     1      -5.534  -2.004   0.106  1.00  0.00     0.004 C 
BRANCH  35  36
HETATM   36  C3  UNL     1      -6.609  -2.755  -0.693  1.00  0.00     0.026 C 
BRANCH  36  37
HETATM   37  C2  UNL     1      -7.964  -2.399  -0.197  1.00  0.00    -0.037 C 
HETATM   38  C1  UNL     1      -8.870  -1.837  -0.993  1.00  0.00     0.007 C 
ENDBRANCH  36  37
ENDBRANCH  35  36
ENDBRANCH  34  35
ENDBRANCH   1  34
TORSDOF 11
