REMARK  10 active torsions:
REMARK  status: ('A' for Active; 'I' for Inactive)
REMARK    1  A    between atoms: C3_3  and  O1_4 
REMARK    2  A    between atoms: C11_13  and  O2_14 
REMARK    3  A    between atoms: O2_14  and  S1_15 
REMARK    4  A    between atoms: C13_20  and  C14_21 
REMARK    5  A    between atoms: C14_21  and  C15_22 
REMARK    6  A    between atoms: C15_22  and  C16_23 
REMARK    7  A    between atoms: C16_23  and  C17_24 
REMARK    8  A    between atoms: C17_24  and  C18_25 
REMARK    9  A    between atoms: C18_25  and  O6_26 
REMARK   10  A    between atoms: C23_32  and  O7_33 
ROOT
HETATM    1  C1  UNL     1       5.729   1.531   0.178  1.00  0.00     0.013 C 
HETATM    2  C2  UNL     1       4.331   2.000  -0.144  1.00  0.00     0.017 C 
HETATM    3  C3  UNL     1       3.714   2.836   0.951  1.00  0.00     0.122 C 
HETATM    4  C4  UNL     1       2.463   2.078   1.410  1.00  0.00     0.037 C 
HETATM    5  C5  UNL     1       2.869   0.665   1.107  1.00  0.00    -0.001 C 
HETATM    6  C6  UNL     1       1.751  -0.333   1.151  1.00  0.00    -0.001 C 
HETATM    7  C7  UNL     1       2.395  -1.679   1.031  1.00  0.00     0.033 C 
HETATM    8  C8  UNL     1       1.519  -2.685   0.415  1.00  0.00    -0.023 C 
HETATM    9  C9  UNL     1       0.268  -2.442   0.034  1.00  0.00    -0.072 C 
HETATM   10  C10 UNL     1      -0.412  -3.663  -0.572  1.00  0.00     0.068 C 
HETATM   11  C11 UNL     1      -1.898  -3.378  -0.695  1.00  0.00     0.149 C 
HETATM   12  C12 UNL     1      -1.956  -2.151  -1.568  1.00  0.00     0.039 C 
HETATM   13  C13 UNL     1      -1.430  -0.918  -0.861  1.00  0.00     0.001 C 
HETATM   14  C19 UNL     1      -0.421  -1.134   0.196  1.00  0.00    -0.013 C 
HETATM   15  C20 UNL     1      -0.997  -1.127   1.600  1.00  0.00     0.021 C 
HETATM   16  C21 UNL     1       0.653  -0.046   0.200  1.00  0.00     0.005 C 
HETATM   17  C22 UNL     1       1.092   0.362  -1.169  1.00  0.00     0.038 C 
HETATM   18  C23 UNL     1       2.397   1.046  -1.280  1.00  0.00     0.123 C 
HETATM   19  C24 UNL     1       3.432   0.758  -0.267  1.00  0.00     0.025 C 
ENDROOT
BRANCH  13  20
HETATM   20  C14 UNL     1      -2.638  -0.097  -0.556  1.00  0.00     0.006 C 
BRANCH  20  21
HETATM   21  C15 UNL     1      -2.469   1.201   0.127  1.00  0.00     0.000 C 
BRANCH  21  22
HETATM   22  C16 UNL     1      -3.893   1.816   0.254  1.00  0.00     0.002 C 
BRANCH  22  23
HETATM   23  C17 UNL     1      -3.822   3.141   0.945  1.00  0.00     0.026 C 
BRANCH  23  24
HETATM   24  C18 UNL     1      -2.963   4.156   0.225  1.00  0.00     0.164 C 
BRANCH  24  25
HETATM   25  O6  UNL     1      -3.484   4.379  -1.050  1.00  0.00    -0.401 OA
ATOM     26  H6  UNL     1      -2.944   5.017  -1.502  1.00  0.00     0.209 HD
ENDBRANCH  24  25
ENDBRANCH  23  24
ENDBRANCH  22  23
ENDBRANCH  21  22
ENDBRANCH  20  21
ENDBRANCH  13  20
BRANCH  11  27
HETATM   27  O2  UNL     1      -2.512  -4.429  -1.324  1.00  0.00    -0.251 OA
BRANCH  27  28
HETATM   28  S1  UNL     1      -3.688  -5.100  -0.340  1.00  0.00     0.251 S 
HETATM   29  O3  UNL     1      -4.580  -4.050   0.278  1.00  0.00    -0.572 OA
HETATM   30  O4  UNL     1      -3.101  -5.890   0.787  1.00  0.00    -0.572 OA
HETATM   31  O5  UNL     1      -4.594  -6.198  -1.270  1.00  0.00    -0.572 OA
ENDBRANCH  27  28
ENDBRANCH  11  27
BRANCH  18  32
HETATM   32  O7  UNL     1       2.954   0.714  -2.543  1.00  0.00    -0.395 OA
ATOM     33  H7  UNL     1       3.793   1.154  -2.614  1.00  0.00     0.210 HD
ENDBRANCH  18  32
BRANCH   3  34
HETATM   34  O1  UNL     1       3.419   4.124   0.551  1.00  0.00    -0.395 OA
ATOM     35  H1  UNL     1       3.031   4.650   1.240  1.00  0.00     0.210 HD
ENDBRANCH   3  34
TORSDOF 10
