REMARK  10 active torsions:
REMARK  status: ('A' for Active; 'I' for Inactive)
REMARK    1  A    between atoms: C2_2  and  C3_3 
REMARK    2  A    between atoms: C3_3  and  O1_5 
REMARK    3  A    between atoms: C3_3  and  C5_7 
REMARK    4  A    between atoms: C5_7  and  C6_8 
REMARK    5  A    between atoms: C6_8  and  O2_9 
REMARK    6  A    between atoms: C6_8  and  C7_11 
REMARK    7  A    between atoms: C17_22  and  C19_24 
REMARK    8  A    between atoms: C21_27  and  O5_28 
REMARK    9  A    between atoms: C25_33  and  C26_34 
REMARK   10  A    between atoms: C28_36  and  O6_37 
ROOT
HETATM    1  C7  UNL     1       1.419   0.510   0.039  1.00  0.00     0.081 C 
HETATM    2  C8  UNL     1       0.863   0.988   1.333  1.00  0.00    -0.010 C 
HETATM    3  C9  UNL     1       1.355   1.990   2.024  1.00  0.00     0.023 C 
HETATM    4  C10 UNL     1      -0.286   0.143   1.633  1.00  0.00     0.169 C 
HETATM    5  O3  UNL     1      -0.721   0.150   2.812  1.00  0.00    -0.291 OA
HETATM    6  C11 UNL     1      -0.740  -0.603   0.409  1.00  0.00     0.061 C 
HETATM    7  C12 UNL     1      -1.268  -1.921   0.899  1.00  0.00     0.003 C 
HETATM    8  C13 UNL     1      -1.705  -2.919  -0.113  1.00  0.00     0.011 C 
HETATM    9  C14 UNL     1      -2.428  -1.808   1.872  1.00  0.00     0.006 C 
HETATM   10  C15 UNL     1      -3.413  -0.779   1.504  1.00  0.00     0.007 C 
HETATM   11  C16 UNL     1      -3.216  -0.154   0.146  1.00  0.00     0.010 C 
HETATM   12  C17 UNL     1      -4.344   0.750  -0.070  1.00  0.00     0.016 C 
HETATM   13  C18 UNL     1      -5.236   0.260  -1.236  1.00  0.00     0.023 C 
HETATM   14  C20 UNL     1      -4.093   2.199  -0.311  1.00  0.00     0.048 C 
HETATM   15  C21 UNL     1      -2.704   2.591  -0.570  1.00  0.00     0.120 C 
HETATM   16  C22 UNL     1      -1.652   1.755   0.179  1.00  0.00     0.042 C 
HETATM   17  C23 UNL     1      -1.824   0.292  -0.182  1.00  0.00    -0.018 C 
HETATM   18  C24 UNL     1      -1.778   0.356  -1.714  1.00  0.00     0.017 C 
HETATM   19  C25 UNL     1       0.569  -0.663  -0.299  1.00  0.00    -0.040 C 
ENDROOT
BRANCH  19  20
HETATM   20  C26 UNL     1       1.263  -1.914  -0.619  1.00  0.00    -0.019 C 
HETATM   21  C27 UNL     1       1.444  -2.135  -1.961  1.00  0.00     0.025 C 
HETATM   22  C28 UNL     1       1.869  -3.020   0.063  1.00  0.00     0.142 C 
BRANCH  22  23
HETATM   23  O6  UNL     1       2.883  -2.954   0.959  1.00  0.00    -0.372 OA
ATOM     24  H6  UNL     1       3.285  -3.687   1.411  1.00  0.00     0.216 HD
ENDBRANCH  22  23
ENDBRANCH  19  20
BRANCH   1  25
HETATM   25  C6  UNL     1       2.859   0.529   0.227  1.00  0.00     0.134 C 
BRANCH  25  26
HETATM   26  C5  UNL     1       3.759   0.104  -0.901  1.00  0.00     0.074 C 
BRANCH  26  27
HETATM   27  C3  UNL     1       5.118   0.813  -0.836  1.00  0.00     0.073 C 
HETATM   28  C4  UNL     1       4.991   2.294  -0.933  1.00  0.00     0.050 C 
BRANCH  27  29
HETATM   29  C2  UNL     1       5.720   0.428   0.484  1.00  0.00    -0.000 C 
HETATM   30  C1  UNL     1       6.298  -0.732   0.680  1.00  0.00     0.010 C 
ENDBRANCH  27  29
BRANCH  27  31
HETATM   31  O1  UNL     1       5.889   0.292  -1.848  1.00  0.00    -0.386 OA
ATOM     32  H1  UNL     1       5.508   0.536  -2.683  1.00  0.00     0.211 HD
ENDBRANCH  27  31
ENDBRANCH  26  27
ENDBRANCH  25  26
BRANCH  25  33
HETATM   33  O2  UNL     1       3.360   0.250   1.497  1.00  0.00    -0.394 OA
ATOM     34  H2  UNL     1       2.792   0.518   2.209  1.00  0.00     0.210 HD
ENDBRANCH  25  33
ENDBRANCH   1  25
BRANCH  12  35
HETATM   35  C19 UNL     1      -5.322   0.767   1.097  1.00  0.00     0.240 C 
HETATM   36  O4  UNL     1      -6.379   0.220   1.120  1.00  0.00    -0.306 OA
ENDBRANCH  12  35
BRANCH  15  37
HETATM   37  O5  UNL     1      -2.450   3.915  -0.117  1.00  0.00    -0.396 OA
ATOM     38  H5  UNL     1      -1.550   4.169  -0.285  1.00  0.00     0.210 HD
ENDBRANCH  15  37
TORSDOF 10
