REMARK  9 active torsions:
REMARK  status: ('A' for Active; 'I' for Inactive)
REMARK    1  A    between atoms: C2_2  and  C3_3 
REMARK    2  A    between atoms: C6_6  and  O1_7 
REMARK    3  A    between atoms: C7_9  and  O2_10 
REMARK    4  A    between atoms: C8_12  and  N1_13 
REMARK    5  A    between atoms: C9_15  and  C10_16 
REMARK    6  A    between atoms: C10_16  and  C12_18 
REMARK    7  A    between atoms: C12_18  and  N2_19 
REMARK    8  A    between atoms: N2_19  and  C13_21 
REMARK    9  A    between atoms: C18_28  and  C19_29 
ROOT
HETATM    1  C12 UNL     1      -0.049  -1.170  -0.946  1.00  0.00     0.123 C 
ENDROOT
BRANCH   1   2
HETATM    2  C10 UNL     1       1.458  -1.338  -0.598  1.00  0.00     0.037 C 
HETATM    3  C11 UNL     1       1.706  -2.164   0.595  1.00  0.00     0.017 C 
BRANCH   2   4
HETATM    4  C9  UNL     1       2.045  -0.002  -0.715  1.00  0.00     0.066 C 
HETATM    5  N1  UNL     1       3.368   0.289  -0.818  1.00  0.00    -0.373 N 
ATOM      6  H1  UNL     1       3.629   0.760  -1.684  1.00  0.00     0.164 HD
BRANCH   5   7
HETATM    7  C8  UNL     1       4.426   0.057   0.050  1.00  0.00     0.018 C 
HETATM    8  C7  UNL     1       5.043  -1.311   0.032  1.00  0.00     0.192 C 
HETATM    9  C6  UNL     1       6.249  -1.405  -0.893  1.00  0.00     0.153 C 
HETATM   10  C5  UNL     1       6.871  -0.108  -1.260  1.00  0.00     0.048 C 
HETATM   11  C3  UNL     1       6.803   0.909  -0.170  1.00  0.00    -0.020 C 
HETATM   12  C4  UNL     1       7.415   2.206  -0.723  1.00  0.00     0.020 C 
HETATM   13  C28 UNL     1       5.387   1.205   0.216  1.00  0.00     0.068 C 
BRANCH   8  14
HETATM   14  O2  UNL     1       5.334  -1.772   1.306  1.00  0.00    -0.387 OA
ATOM     15  H2  UNL     1       4.582  -1.713   1.883  1.00  0.00     0.210 HD
ENDBRANCH   8  14
BRANCH   9  16
HETATM   16  O1  UNL     1       7.177  -2.242  -0.279  1.00  0.00    -0.393 OA
ATOM     17  H1  UNL     1       6.779  -3.072  -0.044  1.00  0.00     0.210 HD
ENDBRANCH   9  16
BRANCH  11  18
HETATM   18  C2  UNL     1       7.622   0.543   1.015  1.00  0.00    -0.027 C 
HETATM   19  C1  UNL     1       7.709   1.320   2.076  1.00  0.00     0.007 C 
ENDBRANCH  11  18
ENDBRANCH   5   7
ENDBRANCH   2   4
ENDBRANCH   1   2
BRANCH   1  20
HETATM   20  N2  UNL     1      -0.658  -0.264  -0.075  1.00  0.00    -0.414 N 
ATOM     21  H2  UNL     1      -0.197   0.004   0.795  1.00  0.00     0.153 HD
BRANCH  20  22
HETATM   22  C13 UNL     1      -1.936   0.285  -0.416  1.00  0.00     0.103 C 
HETATM   23  C14 UNL     1      -2.187   1.273   0.765  1.00  0.00     0.053 C 
HETATM   24  C15 UNL     1      -3.626   1.902   0.743  1.00  0.00     0.106 C 
HETATM   25  C16 UNL     1      -3.453   2.846  -0.450  1.00  0.00     0.043 C 
HETATM   26  N4  UNL     1      -4.557   1.037   0.259  1.00  0.00    -0.309 N 
HETATM   27  C17 UNL     1      -3.631   1.826  -1.564  1.00  0.00     0.117 C 
HETATM   28  N3  UNL     1      -3.914   0.698  -0.953  1.00  0.00    -0.217 NA
HETATM   29  C26 UNL     1      -3.137  -0.424  -0.529  1.00  0.00     0.052 C 
HETATM   30  C24 UNL     1      -3.857  -1.357  -1.380  1.00  0.00     0.008 C 
HETATM   31  C27 UNL     1      -3.271  -1.062   0.801  1.00  0.00     0.037 C 
HETATM   32  C23 UNL     1      -5.228  -1.678  -0.863  1.00  0.00     0.012 C 
HETATM   33  C25 UNL     1      -3.162  -2.687  -1.611  1.00  0.00     0.012 C 
HETATM   34  C22 UNL     1      -6.115  -0.942  -0.014  1.00  0.00     0.059 C 
HETATM   35  C18 UNL     1      -5.735   0.406   0.521  1.00  0.00     0.025 C 
BRANCH  35  36
HETATM   36  C19 UNL     1      -6.509   1.064   1.299  1.00  0.00    -0.064 C 
HETATM   37  C20 UNL     1      -7.857   0.447   1.663  1.00  0.00     0.045 C 
HETATM   38  C21 UNL     1      -6.257   2.359   1.902  1.00  0.00     0.045 C 
ENDBRANCH  35  36
ENDBRANCH  20  22
ENDBRANCH   1  20
TORSDOF 9
