REMARK  8 active torsions:
REMARK  status: ('A' for Active; 'I' for Inactive)
REMARK    1  A    between atoms: S1_2  and  C2_4 
REMARK    2  A    between atoms: C2_4  and  C3_5 
REMARK    3  A    between atoms: C4_6  and  C5_7 
REMARK    4  A    between atoms: C5_7  and  C6_8 
REMARK    5  A    between atoms: C7_10  and  O3_11 
REMARK    6  A    between atoms: C8_13  and  C9_14 
REMARK    7  A    between atoms: C9_14  and  O4_15 
REMARK    8  A    between atoms: C10_17  and  O5_18 
ROOT
HETATM    1  C6  UNL     1      -0.799  -0.490  -0.051  1.00  0.00     0.157 C 
HETATM    2  O2  UNL     1      -1.258  -1.389   0.910  1.00  0.00    -0.353 OA
HETATM    3  C7  UNL     1      -2.593  -1.596   0.695  1.00  0.00     0.266 C 
HETATM    4  C8  UNL     1      -3.104  -0.555  -0.244  1.00  0.00     0.095 C 
HETATM    5  C10 UNL     1      -1.960   0.464  -0.189  1.00  0.00     0.158 C 
ENDROOT
BRANCH   1   6
HETATM    6  C5  UNL     1       0.407   0.205   0.533  1.00  0.00     0.061 C 
BRANCH   6   7
HETATM    7  C4  UNL     1       1.007   1.190  -0.369  1.00  0.00    -0.027 C 
HETATM    8  C3  UNL     1       2.196   1.250  -0.872  1.00  0.00    -0.018 C 
BRANCH   8   9
HETATM    9  C2  UNL     1       3.263   0.282  -0.630  1.00  0.00     0.135 C 
BRANCH   9  10
HETATM   10  S1  UNL     1       4.698   1.038   0.126  1.00  0.00     0.014 S 
HETATM   11  C1  UNL     1       5.893  -0.281   0.348  1.00  0.00     0.127 C 
HETATM   12  O1  UNL     1       5.340   2.087  -1.046  1.00  0.00    -0.258 OA
ENDBRANCH   9  10
ENDBRANCH   8   9
ENDBRANCH   6   7
ENDBRANCH   1   6
BRANCH   5  13
HETATM   13  O5  UNL     1      -1.916   1.207  -1.349  1.00  0.00    -0.392 OA
ATOM     14  H5  UNL     1      -2.647   1.808  -1.436  1.00  0.00     0.210 HD
ENDBRANCH   5  13
BRANCH   3  15
HETATM   15  O3  UNL     1      -2.741  -2.897   0.183  1.00  0.00    -0.371 OA
ATOM     16  H3  UNL     1      -3.668  -3.041   0.034  1.00  0.00     0.212 HD
ENDBRANCH   3  15
BRANCH   4  17
HETATM   17  C9  UNL     1      -4.399   0.072   0.203  1.00  0.00     0.176 C 
BRANCH  17  18
HETATM   18  O4  UNL     1      -4.305   0.695   1.421  1.00  0.00    -0.400 OA
ATOM     19  H4  UNL     1      -5.122   1.090   1.703  1.00  0.00     0.209 HD
ENDBRANCH  17  18
ENDBRANCH   4  17
TORSDOF 8
