REMARK  8 active torsions:
REMARK  status: ('A' for Active; 'I' for Inactive)
REMARK    1  A    between atoms: C2_2  and  N1_4 
REMARK    2  A    between atoms: N1_4  and  C5_6 
REMARK    3  A    between atoms: C5_6  and  C6_7 
REMARK    4  A    between atoms: C6_7  and  C7_8 
REMARK    5  A    between atoms: C7_8  and  N2_9 
REMARK    6  A    between atoms: C10_12  and  O1_13 
REMARK    7  A    between atoms: C11_15  and  O2_16 
REMARK    8  A    between atoms: C12_18  and  O3_19 
ROOT
HETATM    1  N2  UNL     1       1.367  -0.903   0.363  1.00  0.00    -0.371 N 
HETATM    2  C8  UNL     1       1.294   0.334   0.997  1.00  0.00     0.065 C 
HETATM    3  C9  UNL     1       1.704   1.471   0.089  1.00  0.00     0.079 C 
HETATM    4  C10 UNL     1       3.177   1.774   0.165  1.00  0.00     0.154 C 
HETATM    5  C11 UNL     1       4.066   0.753  -0.440  1.00  0.00     0.177 C 
HETATM    6  C12 UNL     1       3.678  -0.679  -0.171  1.00  0.00     0.167 C 
HETATM    7  C13 UNL     1       2.312  -1.012  -0.712  1.00  0.00     0.161 C 
ENDROOT
BRANCH   1   8
HETATM    8  C7  UNL     1       0.392  -1.875   0.444  1.00  0.00     0.065 C 
BRANCH   8   9
HETATM    9  C6  UNL     1      -0.915  -1.773  -0.226  1.00  0.00     0.075 C 
BRANCH   9  10
HETATM   10  C5  UNL     1      -1.716  -0.596   0.182  1.00  0.00     0.277 C 
BRANCH  10  11
HETATM   11  N1  UNL     1      -3.033  -0.574  -0.461  1.00  0.00     0.088 N 
HETATM   12  C4  UNL     1      -3.722  -1.783  -0.100  1.00  0.00     0.310 C 
BRANCH  11  13
HETATM   13  C2  UNL     1      -3.760   0.563  -0.028  1.00  0.00     0.214 C 
HETATM   14  C1  UNL     1      -5.110   0.715  -0.682  1.00  0.00     0.042 C 
HETATM   15  C3  UNL     1      -3.019   1.867  -0.239  1.00  0.00     0.042 C 
ENDBRANCH  11  13
ENDBRANCH  10  11
ENDBRANCH   9  10
ENDBRANCH   8   9
ENDBRANCH   1   8
BRANCH   6  16
HETATM   16  O3  UNL     1       3.889  -1.084   1.129  1.00  0.00    -0.391 OA
ATOM     17  H3  UNL     1       3.645  -1.986   1.298  1.00  0.00     0.210 HD
ENDBRANCH   6  16
BRANCH   4  18
HETATM   18  O1  UNL     1       3.504   2.114   1.481  1.00  0.00    -0.393 OA
ATOM     19  H1  UNL     1       4.433   2.305   1.529  1.00  0.00     0.210 HD
ENDBRANCH   4  18
BRANCH   5  20
HETATM   20  O2  UNL     1       5.367   0.927   0.022  1.00  0.00    -0.390 OA
ATOM     21  H2  UNL     1       5.937   0.273  -0.366  1.00  0.00     0.210 HD
ENDBRANCH   5  20
TORSDOF 8
