REMARK  8 active torsions:
REMARK  status: ('A' for Active; 'I' for Inactive)
REMARK    1  A    between atoms: C2_2  and  N1_3 
REMARK    2  A    between atoms: C2_2  and  C3_10 
REMARK    3  A    between atoms: N1_3  and  N2_5 
REMARK    4  A    between atoms: C5_12  and  N4_13 
REMARK    5  A    between atoms: N4_13  and  N5_15 
REMARK    6  A    between atoms: N5_15  and  N6_16 
REMARK    7  A    between atoms: C6_20  and  C7_21 
REMARK    8  A    between atoms: C7_21  and  O2_24 
ROOT
HETATM    1  C3  UNL     1       0.880   0.087   0.697  1.00  0.00     0.152 C 
HETATM    2  C4  UNL     1       0.745   1.203  -0.317  1.00  0.00     0.090 C 
HETATM    3  C5  UNL     1      -0.719   1.646  -0.175  1.00  0.00     0.255 C 
HETATM    4  O1  UNL     1      -1.574   0.568  -0.246  1.00  0.00    -0.332 OA
HETATM    5  C6  UNL     1      -0.989  -0.646  -0.459  1.00  0.00     0.296 C 
HETATM    6  O3  UNL     1       0.100  -0.955   0.279  1.00  0.00    -0.351 OA
ENDROOT
BRANCH   1   7
HETATM    7  C2  UNL     1       2.301  -0.264   0.991  1.00  0.00     0.126 C 
HETATM    8  C1  UNL     1       2.978   1.013   1.507  1.00  0.00     0.036 C 
BRANCH   7   9
HETATM    9  N1  UNL     1       3.018  -0.799  -0.118  1.00  0.00    -0.316 N 
ATOM     10  H1  UNL     1       3.387  -1.744  -0.016  1.00  0.00     0.182 HD
BRANCH   9  11
HETATM   11  N2  UNL     1       3.260  -0.164  -1.312  1.00  0.00    -0.253 N 
HETATM   12  N3  UNL     1       3.190  -0.810  -2.388  1.00  0.00    -0.331 N 
ATOM     13  H32 UNL     1       2.953  -1.802  -2.357  1.00  0.00     0.178 HD
ATOM     14  H31 UNL     1       3.370  -0.339  -3.274  1.00  0.00     0.178 HD
ATOM     15  H2  UNL     1       3.496   0.828  -1.325  1.00  0.00     0.207 HD
ENDBRANCH   9  11
ENDBRANCH   7   9
ENDBRANCH   1   7
BRANCH   3  16
HETATM   16  N4  UNL     1      -1.043   2.721  -1.063  1.00  0.00    -0.223 N 
ATOM     17  H4  UNL     1      -1.326   2.498  -2.017  1.00  0.00     0.200 HD
BRANCH  16  18
HETATM   18  N5  UNL     1      -0.993   3.922  -0.717  1.00  0.00    -0.246 NA
BRANCH  18  19
HETATM   19  N6  UNL     1      -0.659   5.008  -0.214  1.00  0.00    -0.261 N 
ATOM     20  H62 UNL     1       0.173   4.624   0.234  1.00  0.00     0.193 HD
ATOM     21  H61 UNL     1      -0.618   5.987   0.068  1.00  0.00     0.193 HD
ENDBRANCH  18  19
ENDBRANCH  16  18
ENDBRANCH   3  16
BRANCH   5  22
HETATM   22  C7  UNL     1      -2.065  -1.696  -0.193  1.00  0.00     0.100 C 
HETATM   23  C8  UNL     1      -2.464  -1.530   1.273  1.00  0.00     0.051 C 
HETATM   24  C9  UNL     1      -3.262  -1.380  -1.038  1.00  0.00     0.051 C 
BRANCH  22  25
HETATM   25  O2  UNL     1      -1.587  -2.980  -0.378  1.00  0.00    -0.386 OA
ATOM     26  H2  UNL     1      -2.257  -3.633  -0.212  1.00  0.00     0.210 HD
ENDBRANCH  22  25
ENDBRANCH   5  22
TORSDOF 8
