REMARK  2 active torsions:
REMARK  status: ('A' for Active; 'I' for Inactive)
REMARK    1  A    between atoms: N2_9  and  C6_10 
REMARK    2  A    between atoms: C6_10  and  C7_11 
ROOT
HETATM    1  C1  UNL     1      -3.853   0.489  -0.144  1.00  0.00     0.235 C 
HETATM    2  C2  UNL     1      -3.024  -0.711   0.272  1.00  0.00     0.069 C 
HETATM    3  C3  UNL     1      -1.648  -0.100   0.360  1.00  0.00     0.104 C 
HETATM    4  C4  UNL     1      -1.838   1.399   0.274  1.00  0.00     0.272 C 
HETATM    5  N1  UNL     1      -3.252   1.583   0.592  1.00  0.00    -0.072 N 
ATOM      6  H11 UNL     1      -3.475   1.614   1.587  1.00  0.00     0.277 HD
ATOM      7  H12 UNL     1      -3.629   2.508   0.385  1.00  0.00     0.277 HD
HETATM    8  C5  UNL     1      -0.763  -0.477  -0.850  1.00  0.00     0.158 C 
HETATM    9  N2  UNL     1       0.510  -0.352  -0.294  1.00  0.00    -0.389 N 
HETATM   10  C10 UNL     1       0.403  -0.707   1.070  1.00  0.00     0.289 C 
HETATM   11  O1  UNL     1      -0.931  -0.519   1.445  1.00  0.00    -0.358 OA
ENDROOT
BRANCH   9  12
HETATM   12  C6  UNL     1       1.694  -0.376  -0.984  1.00  0.00     0.123 C 
BRANCH  12  13
HETATM   13  C7  UNL     1       2.850  -0.412   0.018  1.00  0.00     0.003 A 
HETATM   14  C8  UNL     1       4.230  -0.418  -0.573  1.00  0.00     0.007 A 
HETATM   15  C9  UNL     1       3.761   0.743   0.200  1.00  0.00     0.007 A 
ENDBRANCH  12  13
ENDBRANCH   9  12
TORSDOF 2
