REMARK  2 active torsions:
REMARK  status: ('A' for Active; 'I' for Inactive)
REMARK    1  A    between atoms: N1_4  and  C4_5 
REMARK    2  A    between atoms: C4_5  and  C5_6 
ROOT
HETATM    1  C5  UNL     1      -1.347  -0.209  -0.443  1.00  0.00     0.175 C 
HETATM    2  C6  UNL     1      -2.645  -0.913  -0.739  1.00  0.00     0.265 C 
HETATM    3  N2  UNL     1      -3.555   0.118  -1.252  1.00  0.00    -0.071 N 
ATOM      4  H21 UNL     1      -4.475  -0.258  -1.481  1.00  0.00     0.277 HD
ATOM      5  H22 UNL     1      -3.293   0.436  -2.185  1.00  0.00     0.277 HD
HETATM    6  C7  UNL     1      -3.627   1.200  -0.308  1.00  0.00     0.258 C 
HETATM    7  C8  UNL     1      -2.848   0.912   0.956  1.00  0.00     0.196 C 
HETATM    8  O1  UNL     1      -1.563   0.531   0.725  1.00  0.00    -0.381 OA
ENDROOT
BRANCH   1   9
HETATM    9  C4  UNL     1      -0.223  -1.170  -0.121  1.00  0.00     0.305 C 
BRANCH   9  10
HETATM   10  N1  UNL     1       0.915  -0.319   0.274  1.00  0.00     0.090 N 
HETATM   11  C3  UNL     1       1.850  -1.226   0.934  1.00  0.00     0.272 C 
HETATM   12  C2  UNL     1       3.106  -0.553   1.348  1.00  0.00     0.030 C 
HETATM   13  C1  UNL     1       3.278   0.802   0.703  1.00  0.00     0.003 C 
HETATM   14  C10 UNL     1       2.887   0.770  -0.749  1.00  0.00     0.030 C 
HETATM   15  C9  UNL     1       1.507   0.189  -0.961  1.00  0.00     0.272 C 
ENDBRANCH   9  10
ENDBRANCH   1   9
TORSDOF 2
