REMARK  2 active torsions:
REMARK  status: ('A' for Active; 'I' for Inactive)
REMARK    1  A    between atoms: C2_2  and  C3_3 
REMARK    2  A    between atoms: C3_3  and  N1_4 
ROOT
HETATM    1  N1  UNL     1       1.315  -0.209  -0.745  1.00  0.00    -0.193 NA
HETATM    2  C4  UNL     1       0.373  -1.291  -0.839  1.00  0.00     0.131 C 
HETATM    3  C5  UNL     1      -1.003  -0.867  -1.348  1.00  0.00     0.042 C 
HETATM    4  C6  UNL     1      -2.104  -1.169  -0.316  1.00  0.00     0.066 C 
HETATM    5  N2  UNL     1      -2.831  -0.133   0.164  1.00  0.00    -0.382 N 
ATOM      6  H2  UNL     1      -3.809  -0.193  -0.120  1.00  0.00     0.164 HD
HETATM    7  C7  UNL     1      -2.597   0.950   0.916  1.00  0.00     0.062 C 
HETATM    8  C8  UNL     1      -1.249   1.641   0.950  1.00  0.00     0.078 C 
HETATM    9  C9  UNL     1      -0.374   0.707   0.239  1.00  0.00     0.151 C 
HETATM   10  C10 UNL     1      -0.906   0.658  -1.180  1.00  0.00     0.045 C 
HETATM   11  O1  UNL     1       0.951   0.804   0.113  1.00  0.00    -0.297 OA
ENDROOT
BRANCH   1  12
HETATM   12  C3  UNL     1       2.517  -0.786  -0.131  1.00  0.00     0.147 C 
BRANCH  12  13
HETATM   13  C2  UNL     1       3.583   0.203   0.034  1.00  0.00    -0.020 C 
HETATM   14  C1  UNL     1       4.063   0.491   1.223  1.00  0.00     0.008 C 
ENDBRANCH  12  13
ENDBRANCH   1  12
TORSDOF 2
