REMARK  3 active torsions:
REMARK  status: ('A' for Active; 'I' for Inactive)
REMARK    1  A    between atoms: C2_2  and  C3_3 
REMARK    2  A    between atoms: C3_3  and  N1_4 
REMARK    3  A    between atoms: N1_4  and  C4_7 
ROOT
HETATM    1  C4  UNL     1       0.489   0.423   0.030  1.00  0.00     0.245 C 
HETATM    2  C5  UNL     1      -0.097  -0.365   1.215  1.00  0.00     0.290 C 
HETATM    3  O1  UNL     1      -0.592  -1.592   0.767  1.00  0.00    -0.359 OA
HETATM    4  C6  UNL     1      -1.863  -1.499   0.298  1.00  0.00     0.172 C 
HETATM    5  C7  UNL     1      -2.141  -0.342  -0.615  1.00  0.00     0.038 C 
HETATM    6  C8  UNL     1      -1.827   0.987  -0.114  1.00  0.00    -0.011 A 
HETATM    7  C9  UNL     1      -2.037   0.979   1.323  1.00  0.00     0.181 C 
HETATM    8  O2  UNL     1      -0.988   0.362   1.952  1.00  0.00    -0.358 OA
HETATM    9  C10 UNL     1      -1.409   1.939  -1.101  1.00  0.00     0.020 A 
HETATM   10  C11 UNL     1      -0.385   1.530  -0.215  1.00  0.00     0.033 A 
ENDROOT
BRANCH   1  11
HETATM   11  N1  UNL     1       0.996  -0.390  -1.019  1.00  0.00    -0.063 N 
ATOM     12  H12 UNL     1       1.219   0.169  -1.842  1.00  0.00     0.278 HD
ATOM     13  H11 UNL     1       0.263  -0.978  -1.415  1.00  0.00     0.278 HD
BRANCH  11  14
HETATM   14  C3  UNL     1       2.152  -1.196  -0.596  1.00  0.00     0.259 C 
BRANCH  14  15
HETATM   15  C2  UNL     1       3.333  -0.340  -0.346  1.00  0.00    -0.010 C 
HETATM   16  C1  UNL     1       3.911  -0.292   0.837  1.00  0.00     0.008 C 
ENDBRANCH  14  15
ENDBRANCH  11  14
ENDBRANCH   1  11
TORSDOF 3
