REMARK  2 active torsions:
REMARK  status: ('A' for Active; 'I' for Inactive)
REMARK    1  A    between atoms: C4_4  and  C5_5 
REMARK    2  A    between atoms: C5_5  and  N1_6 
ROOT
HETATM    1  C1  UNL     1       3.468   0.820  -0.355  1.00  0.00     0.019 C 
HETATM    2  C2  UNL     1       3.416  -0.682  -0.444  1.00  0.00     0.004 C 
HETATM    3  C3  UNL     1       2.104  -1.262  -0.067  1.00  0.00     0.026 C 
HETATM    4  C4  UNL     1       0.942  -0.331  -0.188  1.00  0.00     0.104 C 
HETATM    5  N2  UNL     1       1.116   0.955   0.359  1.00  0.00    -0.415 N 
ATOM      6  H2  UNL     1       0.318   1.551   0.581  1.00  0.00     0.153 HD
HETATM    7  C10 UNL     1       2.447   1.386   0.588  1.00  0.00     0.114 C 
ENDROOT
BRANCH   4   8
HETATM    8  C5  UNL     1      -0.272  -1.022   0.400  1.00  0.00     0.297 C 
BRANCH   8   9
HETATM    9  N1  UNL     1      -1.427  -0.154   0.305  1.00  0.00     0.094 N 
HETATM   10  C6  UNL     1      -2.615  -0.755   0.847  1.00  0.00     0.298 C 
HETATM   11  C7  UNL     1      -3.675   0.308   1.072  1.00  0.00     0.198 C 
HETATM   12  O1  UNL     1      -3.496   1.348   0.166  1.00  0.00    -0.388 OA
HETATM   13  C8  UNL     1      -3.057   0.879  -1.079  1.00  0.00     0.198 C 
HETATM   14  C9  UNL     1      -1.607   0.396  -1.003  1.00  0.00     0.298 C 
ENDBRANCH   8   9
ENDBRANCH   4   8
TORSDOF 2
