REMARK  3 active torsions:
REMARK  status: ('A' for Active; 'I' for Inactive)
REMARK    1  A    between atoms: C3_5  and  N2_6 
REMARK    2  A    between atoms: N2_6  and  C4_8 
REMARK    3  A    between atoms: C4_8  and  C6_10 
ROOT
HETATM    1  C1  UNL     1       3.235  -0.705  -0.871  1.00  0.00     0.070 C 
HETATM    2  C2  UNL     1       2.286   0.298  -0.219  1.00  0.00     0.036 A 
HETATM    3  N1  UNL     1       1.005   0.062  -0.019  1.00  0.00    -0.339 N 
ATOM      4  H1  UNL     1       0.590  -0.826  -0.301  1.00  0.00     0.168 HD
HETATM    5  C3  UNL     1       0.264   1.003   0.557  1.00  0.00     0.146 A 
HETATM    6  S1  UNL     1       1.394   2.268   0.831  1.00  0.00    -0.040 SA
HETATM    7  C7  UNL     1       2.776   1.509   0.182  1.00  0.00     0.100 A 
HETATM    8 CL4  UNL     1       4.435   2.119   0.051  1.00  0.00    -0.074 Cl
ENDROOT
BRANCH   5   9
HETATM    9  N2  UNL     1      -1.019   0.986   0.852  1.00  0.00    -0.362 N 
ATOM     10  H2  UNL     1      -1.479   1.779   1.299  1.00  0.00     0.162 HD
BRANCH   9  11
HETATM   11  C4  UNL     1      -1.738  -0.217   0.508  1.00  0.00     0.134 C 
HETATM   12  C5  UNL     1      -2.079  -0.259  -0.966  1.00  0.00     0.036 C 
BRANCH  11  13
HETATM   13  C6  UNL     1      -3.057  -0.312   1.264  1.00  0.00     0.208 C 
HETATM   14 CL1  UNL     1      -3.834  -1.828   0.751  1.00  0.00    -0.082 Cl
HETATM   15 CL2  UNL     1      -4.104   1.026   0.749  1.00  0.00    -0.082 Cl
HETATM   16 CL3  UNL     1      -2.768  -0.286   3.012  1.00  0.00    -0.082 Cl
ENDBRANCH  11  13
ENDBRANCH   9  11
ENDBRANCH   5   9
TORSDOF 3
