REMARK  2 active torsions:
REMARK  status: ('A' for Active; 'I' for Inactive)
REMARK    1  A    between atoms: C4_7  and  N1_8 
REMARK    2  A    between atoms: N1_8  and  C5_10 
ROOT
HETATM    1  N1  UNL     1      -1.380  -0.848  -1.443  1.00  0.00    -0.336 N 
ATOM      2  H1  UNL     1      -1.727  -1.338  -2.268  1.00  0.00     0.168 HD
ENDROOT
BRANCH   1   3
HETATM    3  C4  UNL     1      -2.301  -0.294  -0.537  1.00  0.00     0.118 A 
HETATM    4  C3  UNL     1      -2.540   1.071  -0.496  1.00  0.00     0.188 A 
HETATM    5  C2  UNL     1      -3.433   1.650   0.377  1.00  0.00     0.199 A 
HETATM    6  F3  UNL     1      -1.883   1.911  -1.339  1.00  0.00    -0.200 F 
HETATM    7  C1  UNL     1      -4.102   0.790   1.237  1.00  0.00     0.199 A 
HETATM    8  F2  UNL     1      -3.681   2.976   0.434  1.00  0.00    -0.199 F 
HETATM    9  F1  UNL     1      -4.994   1.343   2.112  1.00  0.00    -0.199 F 
HETATM   10  C14 UNL     1      -3.871  -0.578   1.205  1.00  0.00     0.199 A 
HETATM   11  C13 UNL     1      -2.968  -1.124   0.316  1.00  0.00     0.188 A 
HETATM   12  F5  UNL     1      -4.550  -1.394   2.070  1.00  0.00    -0.199 F 
HETATM   13  F4  UNL     1      -2.785  -2.476   0.334  1.00  0.00    -0.200 F 
ENDBRANCH   1   3
BRANCH   1  14
HETATM   14  C5  UNL     1      -0.087  -0.751  -1.255  1.00  0.00     0.122 A 
HETATM   15  C6  UNL     1       0.788  -1.306  -2.165  1.00  0.00     0.137 A 
HETATM   16  N2  UNL     1       2.122  -1.216  -1.987  1.00  0.00    -0.361 N 
HETATM   17  C7  UNL     1       2.640  -0.578  -0.912  1.00  0.00     0.059 A 
ATOM     18  H2  UNL     1       2.750  -1.635  -2.673  1.00  0.00     0.165 HD
HETATM   19  C8  UNL     1       4.016  -0.511  -0.772  1.00  0.00     0.032 A 
HETATM   20  C12 UNL     1       1.774  -0.020   0.003  1.00  0.00     0.060 A 
HETATM   21  C9  UNL     1       4.532   0.140   0.325  1.00  0.00     0.002 A 
HETATM   22  C10 UNL     1       3.676   0.706   1.254  1.00  0.00     0.002 A 
HETATM   23  C11 UNL     1       2.313   0.623   1.087  1.00  0.00     0.032 A 
HETATM   24  N3  UNL     1       0.427  -0.116  -0.185  1.00  0.00    -0.340 N 
ATOM     25  H3  UNL     1      -0.204   0.302   0.499  1.00  0.00     0.167 HD
ENDBRANCH   1  14
TORSDOF 2
