REMARK  6 active torsions:
REMARK  status: ('A' for Active; 'I' for Inactive)
REMARK    1  A    between atoms: N2_4  and  N3_6 
REMARK    2  A    between atoms: N3_6  and  C1_7 
REMARK    3  A    between atoms: C1_7  and  N4_8 
REMARK    4  A    between atoms: N4_8  and  C2_10 
REMARK    5  A    between atoms: C2_10  and  C3_14 
REMARK    6  A    between atoms: C3_14  and  C4_18 
ROOT
HETATM    1  C2  UNL     1      -0.848  -0.736   0.362  1.00  0.00     0.119 C 
HETATM    2  N5  UNL     1      -1.256  -1.889   0.010  1.00  0.00    -0.384 N 
ATOM      3  H51 UNL     1      -2.156  -1.990  -0.459  1.00  0.00     0.157 HD
ATOM      4  H52 UNL     1      -0.671  -2.702   0.203  1.00  0.00     0.157 HD
ENDROOT
BRANCH   1   5
HETATM    5  N4  UNL     1       0.391  -0.597   1.007  1.00  0.00    -0.360 N 
ATOM      6  H4  UNL     1       0.435  -0.671   2.023  1.00  0.00     0.162 HD
BRANCH   5   7
HETATM    7  C1  UNL     1       1.594  -0.354   0.272  1.00  0.00     0.259 C 
BRANCH   7   8
HETATM    8  N3  UNL     1       2.713  -0.253   1.156  1.00  0.00    -0.106 NA
BRANCH   8   9
HETATM    9  N2  UNL     1       3.899  -0.018   0.487  1.00  0.00    -0.252 N 
HETATM   10  N1  UNL     1       3.932   0.436  -0.668  1.00  0.00    -0.334 N 
ATOM     11  H12 UNL     1       3.043   0.637  -1.125  1.00  0.00     0.177 HD
ATOM     12  H11 UNL     1       4.807   0.609  -1.162  1.00  0.00     0.177 HD
ATOM     13  H2  UNL     1       4.779  -0.225   0.959  1.00  0.00     0.203 HD
ENDBRANCH   8   9
ENDBRANCH   7   8
ENDBRANCH   5   7
ENDBRANCH   1   5
BRANCH   1  14
HETATM   14  C3  UNL     1      -1.677   0.417   0.089  1.00  0.00     0.056 C 
HETATM   15  N6  UNL     1      -1.235   1.569   0.459  1.00  0.00    -0.399 N 
ATOM     16  H62 UNL     1      -0.332   1.653   0.926  1.00  0.00     0.156 HD
ATOM     17  H61 UNL     1      -1.820   2.382   0.266  1.00  0.00     0.156 HD
BRANCH  14  18
HETATM   18  C4  UNL     1      -2.997   0.294  -0.593  1.00  0.00     0.146 C 
HETATM   19  S1  UNL     1      -3.711   1.948  -0.745  1.00  0.00    -0.091 SA
ENDBRANCH  14  18
ENDBRANCH   1  14
TORSDOF 6
