REMARK  7 active torsions:
REMARK  status: ('A' for Active; 'I' for Inactive)
REMARK    1  A    between atoms: N1_2  and  N2_3 
REMARK    2  A    between atoms: N1_2  and  C2_6 
REMARK    3  A    between atoms: N1_2  and  C3_10 
REMARK    4  A    between atoms: C3_10  and  N4_11 
REMARK    5  A    between atoms: N4_11  and  C4_14 
REMARK    6  A    between atoms: C4_14  and  N5_15 
REMARK    7  A    between atoms: N5_15  and  N6_16 
ROOT
HETATM    1  C3  UNL     1      -0.253   0.063  -0.656  1.00  0.00     0.503 C 
ENDROOT
BRANCH   1   2
HETATM    2  N1  UNL     1      -1.592  -0.096  -0.194  1.00  0.00     0.061 N 
HETATM    3  C1  UNL     1      -1.702   0.001   1.246  1.00  0.00     0.312 C 
BRANCH   2   4
HETATM    4  N2  UNL     1      -2.169  -1.314  -0.583  1.00  0.00    -0.255 N 
ATOM      5  H22 UNL     1      -2.587  -1.998   0.048  1.00  0.00     0.184 HD
ATOM      6  H21 UNL     1      -2.091  -1.382  -1.598  1.00  0.00     0.184 HD
ENDBRANCH   2   4
BRANCH   2   7
HETATM    7  C2  UNL     1      -2.403   0.935  -0.757  1.00  0.00     0.315 C 
HETATM    8  N3  UNL     1      -3.653   0.994  -0.465  1.00  0.00    -0.387 N 
ATOM      9  H32 UNL     1      -4.049   0.299   0.168  1.00  0.00     0.156 HD
ATOM     10  H31 UNL     1      -4.233   1.731  -0.867  1.00  0.00     0.156 HD
ENDBRANCH   2   7
ENDBRANCH   1   2
BRANCH   1  11
HETATM   11  N4  UNL     1       0.745  -0.238   0.354  1.00  0.00    -0.034 N 
ATOM     12  H42 UNL     1       0.617   0.297   1.213  1.00  0.00     0.280 HD
ATOM     13  H41 UNL     1       0.634  -1.167   0.759  1.00  0.00     0.280 HD
BRANCH  11  14
HETATM   14  C4  UNL     1       2.039  -0.037  -0.247  1.00  0.00     0.370 C 
BRANCH  14  15
HETATM   15  N5  UNL     1       3.124  -0.310   0.677  1.00  0.00    -0.099 NA
BRANCH  15  16
HETATM   16  N6  UNL     1       4.355  -0.110   0.076  1.00  0.00    -0.252 N 
HETATM   17  N7  UNL     1       5.212   0.646   0.535  1.00  0.00    -0.334 N 
ATOM     18  H72 UNL     1       4.988   1.140   1.399  1.00  0.00     0.177 HD
ATOM     19  H71 UNL     1       6.119   0.793   0.092  1.00  0.00     0.177 HD
ATOM     20  H6  UNL     1       4.562  -0.612  -0.787  1.00  0.00     0.203 HD
ENDBRANCH  15  16
ENDBRANCH  14  15
ENDBRANCH  11  14
ENDBRANCH   1  11
TORSDOF 7
