REMARK  5 active torsions:
REMARK  status: ('A' for Active; 'I' for Inactive)
REMARK    1  A    between atoms: N2_4  and  N3_6 
REMARK    2  A    between atoms: N3_6  and  C1_8 
REMARK    3  A    between atoms: C1_8  and  C2_12 
REMARK    4  A    between atoms: C2_12  and  N5_13 
REMARK    5  A    between atoms: N5_13  and  S1_15 
ROOT
HETATM    1  C1  UNL     1      -1.120  -0.060   0.197  1.00  0.00     0.109 C 
HETATM    2  N4  UNL     1      -1.384   0.890   1.011  1.00  0.00    -0.386 N 
ATOM      3  H41 UNL     1      -0.639   1.534   1.278  1.00  0.00     0.157 HD
ATOM      4  H42 UNL     1      -2.328   0.995   1.382  1.00  0.00     0.157 HD
ENDROOT
BRANCH   1   5
HETATM    5  N3  UNL     1      -2.152  -0.952  -0.173  1.00  0.00    -0.274 N 
ATOM      6  H3  UNL     1      -2.068  -1.942   0.059  1.00  0.00     0.190 HD
BRANCH   5   7
HETATM    7  N2  UNL     1      -3.285  -0.498  -0.851  1.00  0.00    -0.248 N 
HETATM    8  N1  UNL     1      -4.291  -0.052  -0.236  1.00  0.00    -0.331 N 
ATOM      9  H12 UNL     1      -4.260  -0.029   0.783  1.00  0.00     0.178 HD
ATOM     10  H11 UNL     1      -5.119   0.280  -0.731  1.00  0.00     0.178 HD
ATOM     11  H2  UNL     1      -3.299  -0.528  -1.870  1.00  0.00     0.207 HD
ENDBRANCH   5   7
ENDBRANCH   1   5
BRANCH   1  12
HETATM   12  C2  UNL     1       0.232  -0.211  -0.335  1.00  0.00     0.212 C 
BRANCH  12  13
HETATM   13  N5  UNL     1       1.173   0.743   0.110  1.00  0.00    -0.294 N 
ATOM     14  H5  UNL     1       0.904   1.481   0.761  1.00  0.00     0.175 HD
BRANCH  13  15
HETATM   15  S1  UNL     1       2.730   0.629  -0.457  1.00  0.00     0.204 S 
HETATM   16  O1  UNL     1       3.368   1.961  -0.617  1.00  0.00    -0.578 OA
HETATM   17  O2  UNL     1       2.721  -0.104  -1.792  1.00  0.00    -0.578 OA
HETATM   18  O3  UNL     1       3.634  -0.361   0.587  1.00  0.00    -0.578 OA
ENDBRANCH  13  15
ENDBRANCH  12  13
ENDBRANCH   1  12
TORSDOF 5
