REMARK  6 active torsions:
REMARK  status: ('A' for Active; 'I' for Inactive)
REMARK    1  A    between atoms: N1_1  and  N2_4 
REMARK    2  A    between atoms: N4_9  and  C2_10 
REMARK    3  A    between atoms: N4_9  and  C4_15 
REMARK    4  A    between atoms: C2_10  and  C3_11 
REMARK    5  A    between atoms: C4_15  and  C5_16 
REMARK    6  A    between atoms: C5_16  and  N6_17 
ROOT
HETATM    1  N2  UNL     1      -1.523  -2.620  -1.152  1.00  0.00    -0.268 N 
ATOM      2  H2  UNL     1      -1.310  -2.468  -2.138  1.00  0.00     0.189 HD
HETATM    3  C1  UNL     1      -1.255  -1.714  -0.270  1.00  0.00     0.344 A 
HETATM    4  N3  UNL     1      -1.206  -1.166   1.016  1.00  0.00    -0.168 N 
ATOM      5  H3  UNL     1      -1.398  -1.262   2.013  1.00  0.00     0.197 HD
HETATM    6  N4  UNL     1      -0.711  -0.398  -0.029  1.00  0.00     0.086 N 
ENDROOT
BRANCH   6   7
HETATM    7  C2  UNL     1      -1.500   0.647  -0.602  1.00  0.00     0.319 C 
BRANCH   7   8
HETATM    8  C3  UNL     1      -1.410   1.932   0.120  1.00  0.00     0.083 C 
HETATM    9  N5  UNL     1      -1.517   3.023  -0.534  1.00  0.00    -0.410 N 
ATOM     10  H52 UNL     1      -1.663   2.990  -1.543  1.00  0.00     0.155 HD
ATOM     11  H51 UNL     1      -1.455   3.911  -0.035  1.00  0.00     0.155 HD
ENDBRANCH   7   8
ENDBRANCH   6   7
BRANCH   6  12
HETATM   12  C4  UNL     1       0.732  -0.372  -0.244  1.00  0.00     0.297 C 
BRANCH  12  13
HETATM   13  C5  UNL     1       1.391   0.341   0.925  1.00  0.00     0.169 C 
BRANCH  13  14
HETATM   14  N6  UNL     1       2.810   0.367   0.714  1.00  0.00    -0.341 N 
HETATM   15  N7  UNL     1       3.333  -0.234  -0.239  1.00  0.00    -0.349 N 
ATOM     16  H72 UNL     1       2.727  -0.752  -0.875  1.00  0.00     0.176 HD
ATOM     17  H71 UNL     1       4.342  -0.216  -0.389  1.00  0.00     0.176 HD
ATOM     18  H6  UNL     1       3.402   0.890   1.360  1.00  0.00     0.179 HD
ENDBRANCH  13  14
ENDBRANCH  12  13
ENDBRANCH   6  12
BRANCH   1  19
HETATM   19  N1  UNL     1      -2.104  -3.797  -0.729  1.00  0.00    -0.342 N 
ATOM     20  H12 UNL     1      -2.311  -3.934   0.260  1.00  0.00     0.176 HD
ATOM     21  H11 UNL     1      -2.315  -4.512  -1.425  1.00  0.00     0.176 HD
ENDBRANCH   1  19
TORSDOF 6
