REMARK  4 active torsions:
REMARK  status: ('A' for Active; 'I' for Inactive)
REMARK    1  A    between atoms: N1_2  and  C2_3 
REMARK    2  A    between atoms: N1_2  and  N3_7 
REMARK       I    between atoms: N3_7  and  C3_9 
REMARK    3  A    between atoms: C3_9  and  C4_11 
REMARK    4  A    between atoms: C5_15  and  N5_16 
ROOT
HETATM    1  C4  UNL     1       1.794   0.637   0.495  1.00  0.00     0.331 A 
HETATM    2  N4  UNL     1       2.916  -0.073   1.102  1.00  0.00    -0.034 N 
ATOM      3  H41 UNL     1       3.058  -0.993   1.520  1.00  0.00     0.281 HD
ATOM      4  H42 UNL     1       3.448   0.008   1.969  1.00  0.00     0.281 HD
HETATM    5  C5  UNL     1       3.015   0.486  -0.230  1.00  0.00     0.339 A 
ENDROOT
BRANCH   1   6
HETATM    6  C3  UNL     1       0.551  -0.119   0.171  1.00  0.00     0.267 C 
HETATM    7  N3  UNL     1      -0.707   0.421   0.478  1.00  0.00    -0.283 N 
ATOM      8  H3  UNL     1      -0.726   1.338   0.925  1.00  0.00     0.184 HD
HETATM    9  O1  UNL     1       0.676  -1.217  -0.369  1.00  0.00    -0.270 OA
BRANCH   7  10
HETATM   10  N1  UNL     1      -1.930  -0.190   0.223  1.00  0.00    -0.194 NA
HETATM   11  C1  UNL     1      -1.904  -1.167  -0.831  1.00  0.00     0.143 C 
BRANCH  10  12
HETATM   12  C2  UNL     1      -2.859   0.821  -0.184  1.00  0.00     0.164 C 
HETATM   13  N2  UNL     1      -3.733   1.219   0.629  1.00  0.00    -0.398 N 
ATOM     14  H22 UNL     1      -3.766   0.815   1.565  1.00  0.00     0.156 HD
ATOM     15  H21 UNL     1      -4.395   1.939   0.339  1.00  0.00     0.156 HD
ENDBRANCH  10  12
ENDBRANCH   7  10
ENDBRANCH   1   6
BRANCH   5  16
HETATM   16  N5  UNL     1       3.227  -0.499  -1.258  1.00  0.00    -0.310 N 
HETATM   17  N6  UNL     1       4.342  -1.084  -1.254  1.00  0.00    -0.347 N 
ATOM     18  H62 UNL     1       5.047  -0.860  -0.552  1.00  0.00     0.176 HD
ATOM     19  H61 UNL     1       4.492  -1.782  -1.982  1.00  0.00     0.176 HD
ATOM     20  H5  UNL     1       2.512  -0.712  -1.953  1.00  0.00     0.182 HD
ENDBRANCH   5  16
TORSDOF 4
