REMARK  7 active torsions:
REMARK  status: ('A' for Active; 'I' for Inactive)
REMARK    1  A    between atoms: C2_2  and  C4_4 
REMARK    2  A    between atoms: C6_10  and  C7_11 
REMARK    3  A    between atoms: C7_11  and  C8_12 
REMARK    4  A    between atoms: C8_12  and  N3_13 
REMARK    5  A    between atoms: C8_12  and  C18_28 
REMARK       I    between atoms: N3_13  and  C9_15 
REMARK       I    between atoms: C9_15  and  N4_17 
REMARK    6  A    between atoms: N4_17  and  C10_19 
REMARK    7  A    between atoms: C18_28  and  C19_30 
ROOT
HETATM    1  C8  UNL     1      -1.776  -0.912   0.849  1.00  0.00     0.085 C 
ENDROOT
BRANCH   1   2
HETATM    2  C7  UNL     1      -2.465   0.344   0.586  1.00  0.00     0.065 C 
BRANCH   2   3
HETATM    3  C6  UNL     1      -3.807   0.616   1.089  1.00  0.00     0.058 A 
HETATM    4  C4  UNL     1      -4.633   1.595   0.506  1.00  0.00    -0.010 A 
HETATM    5  C5  UNL     1      -5.791   1.611   1.230  1.00  0.00     0.117 A 
HETATM    6  N1  UNL     1      -5.640   0.688   2.189  1.00  0.00    -0.311 N 
HETATM    7  N2  UNL     1      -4.483   0.095   2.119  1.00  0.00    -0.301 N 
ATOM      8  H1  UNL     1      -6.348   0.475   2.891  1.00  0.00     0.186 HD
ATOM      9  H2  UNL     1      -4.149  -0.640   2.742  1.00  0.00     0.187 HD
BRANCH   4  10
HETATM   10  C2  UNL     1      -4.257   2.450  -0.669  1.00  0.00     0.014 C 
HETATM   11  C1  UNL     1      -5.403   3.423  -0.896  1.00  0.00     0.015 C 
HETATM   12  C3  UNL     1      -3.055   3.313  -0.351  1.00  0.00     0.015 C 
ENDBRANCH   4  10
ENDBRANCH   2   3
ENDBRANCH   1   2
BRANCH   1  13
HETATM   13  N3  UNL     1      -0.485  -0.819   0.178  1.00  0.00    -0.306 N 
HETATM   14  C9  UNL     1       0.795  -0.583   0.666  1.00  0.00     0.321 C 
HETATM   15  O1  UNL     1       0.958  -0.467   1.883  1.00  0.00    -0.247 OA
HETATM   16  N4  UNL     1       1.905  -0.474  -0.256  1.00  0.00    -0.338 N 
ATOM     17  H4  UNL     1       1.734  -0.566  -1.257  1.00  0.00     0.164 HD
ATOM     18  H3  UNL     1      -0.529  -0.951  -0.832  1.00  0.00     0.171 HD
BRANCH  16  19
HETATM   19  C10 UNL     1       3.223  -0.242   0.204  1.00  0.00     0.090 C 
HETATM   20  C11 UNL     1       4.103  -1.381  -0.313  1.00  0.00     0.055 C 
HETATM   21  C12 UNL     1       5.481  -1.120   0.272  1.00  0.00     0.275 C 
HETATM   22  N5  UNL     1       6.016   0.141  -0.195  1.00  0.00     0.093 N 
HETATM   23  C13 UNL     1       6.478   0.046  -1.571  1.00  0.00     0.310 C 
HETATM   24  C14 UNL     1       5.155   1.268   0.026  1.00  0.00     0.154 C 
HETATM   25  C15 UNL     1       5.070   1.667   1.482  1.00  0.00     0.049 C 
HETATM   26  C16 UNL     1       5.706   2.420  -0.782  1.00  0.00     0.049 C 
HETATM   27  C17 UNL     1       3.720   1.027  -0.431  1.00  0.00     0.066 C 
ENDBRANCH  16  19
ENDBRANCH   1  13
BRANCH   1  28
HETATM   28  C18 UNL     1      -2.348  -2.230   0.756  1.00  0.00     0.183 C 
HETATM   29  O2  UNL     1      -2.411  -2.893   1.837  1.00  0.00    -0.290 OA
BRANCH  28  30
HETATM   30  C19 UNL     1      -2.871  -2.981  -0.396  1.00  0.00     0.016 C 
HETATM   31  C20 UNL     1      -1.670  -3.766  -1.022  1.00  0.00     0.023 C 
HETATM   32  C21 UNL     1      -3.485  -2.186  -1.500  1.00  0.00     0.023 C 
HETATM   33  C22 UNL     1      -3.870  -4.056   0.003  1.00  0.00     0.023 C 
ENDBRANCH  28  30
ENDBRANCH   1  28
TORSDOF 7
