REMARK  8 active torsions:
REMARK  status: ('A' for Active; 'I' for Inactive)
REMARK    1  A    between atoms: C4_4  and  O1_5 
REMARK    2  A    between atoms: C13_16  and  O3_17 
REMARK    3  A    between atoms: C17_22  and  C19_24 
REMARK    4  A    between atoms: C19_24  and  C20_25 
REMARK    5  A    between atoms: C20_25  and  C21_26 
REMARK    6  A    between atoms: C21_26  and  C22_27 
REMARK    7  A    between atoms: C22_27  and  C23_28 
REMARK    8  A    between atoms: C23_28  and  C24_29 
ROOT
HETATM    1  C1  UNL     1      -3.466  -0.355  -1.675  1.00  0.00     0.016 C 
HETATM    2  C2  UNL     1      -3.332  -0.254  -0.181  1.00  0.00    -0.027 C 
HETATM    3  C3  UNL     1      -4.575   0.425   0.384  1.00  0.00     0.042 C 
HETATM    4  C4  UNL     1      -5.836  -0.208  -0.148  1.00  0.00     0.126 C 
HETATM    5  C5  UNL     1      -5.726  -1.676  -0.377  1.00  0.00     0.110 C 
HETATM    6  C6  UNL     1      -4.533  -2.308   0.192  1.00  0.00     0.134 C 
HETATM    7  O2  UNL     1      -4.557  -3.519   0.448  1.00  0.00    -0.297 OA
HETATM    8  C7  UNL     1      -3.257  -1.603   0.501  1.00  0.00     0.064 C 
HETATM    9  C8  UNL     1      -2.113  -2.408  -0.008  1.00  0.00     0.013 C 
HETATM   10  C9  UNL     1      -0.978  -1.598  -0.538  1.00  0.00     0.006 C 
HETATM   11  C10 UNL     1      -0.829  -0.252   0.151  1.00  0.00    -0.004 C 
HETATM   12  C11 UNL     1      -2.114   0.542   0.141  1.00  0.00     0.001 C 
HETATM   13  C12 UNL     1      -2.219   1.292   1.445  1.00  0.00     0.037 C 
HETATM   14  C13 UNL     1      -1.242   2.475   1.379  1.00  0.00     0.119 C 
HETATM   15  C14 UNL     1       0.188   1.962   1.448  1.00  0.00     0.037 C 
HETATM   16  C15 UNL     1       0.766   1.680   0.123  1.00  0.00     0.002 A 
HETATM   17  C16 UNL     1       0.246   0.483  -0.570  1.00  0.00     0.003 A 
HETATM   18  C17 UNL     1       1.679   0.477  -0.154  1.00  0.00    -0.035 A 
HETATM   19  C18 UNL     1       2.099  -0.282   1.052  1.00  0.00     0.016 C 
ENDROOT
BRANCH  18  20
HETATM   20  C19 UNL     1       2.661   0.765  -1.262  1.00  0.00     0.010 C 
BRANCH  20  21
HETATM   21  C20 UNL     1       3.628  -0.225  -1.698  1.00  0.00     0.001 C 
BRANCH  21  22
HETATM   22  C21 UNL     1       4.702  -0.655  -0.743  1.00  0.00     0.001 C 
BRANCH  22  23
HETATM   23  C22 UNL     1       5.558   0.510  -0.301  1.00  0.00     0.010 C 
BRANCH  23  24
HETATM   24  C23 UNL     1       6.643   0.157   0.667  1.00  0.00     0.113 C 
BRANCH  24  25
HETATM   25  C24 UNL     1       7.650  -0.789   0.173  1.00  0.00     0.172 C 
HETATM   26  O4  UNL     1       7.729  -1.283  -0.964  1.00  0.00    -0.648 OA
HETATM   27  O5  UNL     1       8.634  -1.180   1.083  1.00  0.00    -0.648 OA
ENDBRANCH  24  25
ENDBRANCH  23  24
ENDBRANCH  22  23
ENDBRANCH  21  22
ENDBRANCH  20  21
ENDBRANCH  18  20
BRANCH  14  28
HETATM   28  O3  UNL     1      -1.514   3.181   0.239  1.00  0.00    -0.396 OA
ATOM     29  H3  UNL     1      -0.910   3.913   0.198  1.00  0.00     0.210 HD
ENDBRANCH  14  28
BRANCH   4  30
HETATM   30  O1  UNL     1      -6.849  -0.004   0.817  1.00  0.00    -0.395 OA
ATOM     31  H1  UNL     1      -7.643  -0.403   0.482  1.00  0.00     0.210 HD
ENDBRANCH   4  30
TORSDOF 8
