REMARK  8 active torsions:
REMARK  status: ('A' for Active; 'I' for Inactive)
REMARK    1  A    between atoms: C7_7  and  N1_8 
REMARK    2  A    between atoms: C7_7  and  C16_25 
REMARK       I    between atoms: N1_8  and  C8_10 
REMARK    3  A    between atoms: C8_10  and  C9_12 
REMARK    4  A    between atoms: C9_12  and  C10_13 
REMARK    5  A    between atoms: C10_13  and  S1_14 
REMARK    6  A    between atoms: S1_14  and  C11_15 
REMARK    7  A    between atoms: C16_25  and  O2_26 
REMARK    8  A    between atoms: C16_25  and  N4_28 
ROOT
HETATM    1  N1  UNL     1      -0.376  -0.776   0.547  1.00  0.00    -0.343 N 
ATOM      2  H1  UNL     1      -0.229  -1.586   1.150  1.00  0.00     0.163 HD
HETATM    3  C8  UNL     1       0.637   0.219   0.436  1.00  0.00     0.219 C 
HETATM    4  O1  UNL     1       0.431   1.195  -0.315  1.00  0.00    -0.274 OA
ENDROOT
BRANCH   1   5
HETATM    5  C7  UNL     1      -1.640  -0.639  -0.209  1.00  0.00     0.104 C 
HETATM    6  C2  UNL     1      -2.399  -1.912   0.042  1.00  0.00    -0.015 C 
HETATM    7  C1  UNL     1      -3.349  -1.833   1.211  1.00  0.00     0.018 C 
HETATM    8  C3  UNL     1      -1.436  -3.068   0.389  1.00  0.00     0.018 C 
HETATM    9  C4  UNL     1      -3.037  -2.333  -1.245  1.00  0.00     0.012 C 
HETATM   10  C5  UNL     1      -2.018  -1.864  -2.264  1.00  0.00     0.004 C 
HETATM   11  C6  UNL     1      -1.381  -0.625  -1.659  1.00  0.00     0.040 C 
BRANCH   5  12
HETATM   12  C16 UNL     1      -2.353   0.558   0.276  1.00  0.00     0.143 C 
BRANCH  12  13
HETATM   13  O2  UNL     1      -1.807   1.090   1.378  1.00  0.00    -0.347 OA
ATOM     14  H2  UNL     1      -2.266   1.861   1.690  1.00  0.00     0.219 HD
ENDBRANCH  12  13
BRANCH  12  15
HETATM   15  N4  UNL     1      -3.451   1.266  -0.138  1.00  0.00    -0.363 N 
HETATM   16  C17 UNL     1      -4.300   1.070  -1.249  1.00  0.00     0.124 C 
HETATM   17  C18 UNL     1      -5.744   0.789  -0.839  1.00  0.00     0.020 C 
HETATM   18  C19 UNL     1      -6.193   1.865   0.099  1.00  0.00     0.003 C 
HETATM   19  C20 UNL     1      -5.159   2.959   0.255  1.00  0.00     0.020 C 
HETATM   20  C21 UNL     1      -3.834   2.447   0.703  1.00  0.00     0.124 C 
ENDBRANCH  12  15
ENDBRANCH   5  12
ENDBRANCH   1   5
BRANCH   3  21
HETATM   21  C9  UNL     1       1.918   0.148   1.168  1.00  0.00     0.113 C 
BRANCH  21  22
HETATM   22  C10 UNL     1       2.758   1.365   0.852  1.00  0.00     0.084 C 
BRANCH  22  23
HETATM   23  S1  UNL     1       4.336   1.339   1.713  1.00  0.00    -0.156 SA
BRANCH  23  24
HETATM   24  C11 UNL     1       5.368  -0.026   1.088  1.00  0.00     0.114 C 
HETATM   25  C12 UNL     1       6.673   0.013   1.849  1.00  0.00     0.024 C 
HETATM   26  C13 UNL     1       7.810  -0.435   0.977  1.00  0.00     0.021 C 
HETATM   27  C14 UNL     1       8.052   0.698  -0.029  1.00  0.00     0.121 C 
HETATM   28  N2  UNL     1       6.812   0.769  -0.803  1.00  0.00    -0.379 N 
HETATM   29  C15 UNL     1       5.624   0.129  -0.366  1.00  0.00     0.084 C 
ATOM     30  H2  UNL     1       6.802   1.292  -1.679  1.00  0.00     0.160 HD
HETATM   31  N3  UNL     1       4.743  -0.332  -1.207  1.00  0.00    -0.388 N 
ATOM     32  H32 UNL     1       3.889  -0.792  -0.893  1.00  0.00     0.157 HD
ATOM     33  H31 UNL     1       4.919  -0.225  -2.206  1.00  0.00     0.157 HD
ENDBRANCH  23  24
ENDBRANCH  22  23
ENDBRANCH  21  22
ENDBRANCH   3  21
TORSDOF 8
