REMARK  5 active torsions:
REMARK  status: ('A' for Active; 'I' for Inactive)
REMARK    1  A    between atoms: C16_17  and  C17_18 
REMARK    2  A    between atoms: C17_18  and  C19_20 
REMARK    3  A    between atoms: C19_20  and  C20_21 
REMARK    4  A    between atoms: C20_21  and  C21_22 
REMARK       I    between atoms: C21_22  and  N1_24 
REMARK    5  A    between atoms: N1_24  and  S1_26 
ROOT
HETATM    1  C1  UNL     1       1.833  -2.181  -1.593  1.00  0.00     0.015 C 
HETATM    2  C2  UNL     1       0.911  -1.999  -0.643  1.00  0.00    -0.084 C 
HETATM    3  C3  UNL     1      -0.086  -3.022  -0.289  1.00  0.00     0.034 C 
HETATM    4  C4  UNL     1      -1.436  -2.344  -0.467  1.00  0.00     0.010 C 
HETATM    5  C5  UNL     1      -1.553  -1.193   0.489  1.00  0.00     0.007 C 
HETATM    6  C6  UNL     1      -0.418  -0.238   0.515  1.00  0.00     0.069 C 
HETATM    7  C7  UNL     1      -0.994   0.871  -0.359  1.00  0.00     0.137 C 
HETATM    8  O1  UNL     1      -0.399   1.447  -1.255  1.00  0.00    -0.297 OA
HETATM    9  C8  UNL     1      -2.341   0.995   0.180  1.00  0.00     0.068 C 
HETATM   10  C9  UNL     1      -3.348   1.772  -0.582  1.00  0.00    -0.007 C 
HETATM   11  C10 UNL     1      -2.988   3.238  -0.511  1.00  0.00     0.011 C 
HETATM   12  C11 UNL     1      -4.686   1.639   0.103  1.00  0.00     0.005 C 
HETATM   13  C12 UNL     1      -5.046   0.303   0.627  1.00  0.00     0.001 C 
HETATM   14  C13 UNL     1      -3.915  -0.559   1.115  1.00  0.00     0.010 C 
HETATM   15  C14 UNL     1      -2.808  -0.465   0.133  1.00  0.00    -0.029 C 
HETATM   16  C15 UNL     1      -3.305  -0.839  -1.237  1.00  0.00     0.016 C 
HETATM   17  C16 UNL     1       0.922  -0.699   0.085  1.00  0.00     0.029 C 
ENDROOT
BRANCH  17  18
HETATM   18  C17 UNL     1       1.943  -0.889   1.188  1.00  0.00    -0.009 C 
HETATM   19  C18 UNL     1       1.581  -1.980   2.174  1.00  0.00     0.010 C 
BRANCH  18  20
HETATM   20  C19 UNL     1       2.450   0.299   1.872  1.00  0.00     0.014 C 
BRANCH  20  21
HETATM   21  C20 UNL     1       3.163   1.359   1.144  1.00  0.00     0.104 C 
BRANCH  21  22
HETATM   22  C21 UNL     1       4.420   0.994   0.448  1.00  0.00     0.233 C 
HETATM   23  O2  UNL     1       4.761  -0.216   0.278  1.00  0.00    -0.273 OA
HETATM   24  N1  UNL     1       5.314   1.971  -0.060  1.00  0.00    -0.235 N 
ATOM     25  H1  UNL     1       5.086   2.959   0.050  1.00  0.00     0.184 HD
BRANCH  24  26
HETATM   26  S1  UNL     1       6.765   1.534  -0.852  1.00  0.00     0.211 S 
HETATM   27  O3  UNL     1       6.917   2.250  -2.193  1.00  0.00    -0.578 OA
HETATM   28  O4  UNL     1       6.808   0.073  -1.202  1.00  0.00    -0.578 OA
HETATM   29  O5  UNL     1       8.102   1.887   0.134  1.00  0.00    -0.578 OA
ENDBRANCH  24  26
ENDBRANCH  21  22
ENDBRANCH  20  21
ENDBRANCH  18  20
ENDBRANCH  17  18
TORSDOF 5
