REMARK  10 active torsions:
REMARK  status: ('A' for Active; 'I' for Inactive)
REMARK    1  A    between atoms: C3_3  and  C4_4 
REMARK    2  A    between atoms: C5_5  and  C6_6 
REMARK    3  A    between atoms: C6_6  and  O1_7 
REMARK    4  A    between atoms: C7_9  and  C8_10 
REMARK    5  A    between atoms: C9_11  and  C10_12 
REMARK    6  A    between atoms: C10_12  and  C11_13 
REMARK    7  A    between atoms: C11_13  and  C12_14 
REMARK    8  A    between atoms: C12_14  and  C13_15 
REMARK    9  A    between atoms: C13_15  and  C14_16 
REMARK   10  A    between atoms: C14_16  and  C15_17 
ROOT
HETATM    1  C1  UNL     1      -2.501   0.811   1.650  1.00  0.00     0.018 C 
HETATM    2  C2  UNL     1      -1.728   0.626   0.393  1.00  0.00    -0.010 C 
HETATM    3  C3  UNL     1      -0.955   1.912   0.073  1.00  0.00     0.034 C 
HETATM    4  C7  UNL     1       0.120   1.000  -0.498  1.00  0.00     0.078 C 
HETATM    5  C16 UNL     1      -0.371  -0.039   0.523  1.00  0.00     0.013 C 
HETATM    6  C17 UNL     1      -0.510  -1.418  -0.033  1.00  0.00     0.014 C 
HETATM    7  C18 UNL     1      -1.850  -1.507  -0.726  1.00  0.00     0.019 C 
HETATM    8  C19 UNL     1      -2.879  -2.125   0.183  1.00  0.00     0.038 C 
HETATM    9  C20 UNL     1      -3.013  -3.602  -0.001  1.00  0.00     0.018 C 
HETATM   10  C21 UNL     1      -4.337  -4.034  -0.569  1.00  0.00     0.079 C 
HETATM   11  C22 UNL     1      -5.486  -3.291  -0.051  1.00  0.00     0.132 C 
HETATM   12  O4  UNL     1      -6.535  -3.878   0.153  1.00  0.00    -0.298 OA
HETATM   13  C23 UNL     1      -5.467  -1.833   0.251  1.00  0.00     0.130 C 
HETATM   14  C24 UNL     1      -4.084  -1.354  -0.063  1.00  0.00    -0.006 C 
HETATM   15  N1  UNL     1      -3.778  -0.228  -0.576  1.00  0.00    -0.390 N 
ATOM     16  H1  UNL     1      -4.468   0.479  -0.831  1.00  0.00     0.159 HD
HETATM   17  C25 UNL     1      -2.375  -0.057  -0.758  1.00  0.00     0.095 C 
ENDROOT
BRANCH   4  18
HETATM   18  C8  UNL     1       1.477   1.469  -0.222  1.00  0.00    -0.101 C 
HETATM   19  C9  UNL     1       2.621   1.856   0.032  1.00  0.00    -0.106 C 
BRANCH  19  20
HETATM   20  C10 UNL     1       3.942   2.367   0.334  1.00  0.00     0.094 C 
BRANCH  20  21
HETATM   21  C11 UNL     1       4.989   1.964  -0.608  1.00  0.00     0.012 C 
BRANCH  21  22
HETATM   22  C12 UNL     1       5.393   0.545  -0.631  1.00  0.00     0.001 C 
BRANCH  22  23
HETATM   23  C13 UNL     1       4.328  -0.423  -0.931  1.00  0.00     0.010 C 
BRANCH  23  24
HETATM   24  C14 UNL     1       4.825  -1.863  -1.082  1.00  0.00     0.113 C 
BRANCH  24  25
HETATM   25  C15 UNL     1       5.433  -2.425   0.124  1.00  0.00     0.172 C 
HETATM   26  O2  UNL     1       5.457  -1.811   1.196  1.00  0.00    -0.648 OA
HETATM   27  O3  UNL     1       5.990  -3.706  -0.004  1.00  0.00    -0.648 OA
ENDBRANCH  24  25
ENDBRANCH  23  24
ENDBRANCH  22  23
ENDBRANCH  21  22
ENDBRANCH  20  21
ENDBRANCH  19  20
ENDBRANCH   4  18
BRANCH   3  28
HETATM   28  C4  UNL     1      -1.610   2.822  -0.864  1.00  0.00    -0.022 C 
HETATM   29  C5  UNL     1      -1.575   4.123  -0.733  1.00  0.00    -0.005 C 
BRANCH  29  30
HETATM   30  C6  UNL     1      -0.886   4.829   0.349  1.00  0.00     0.191 C 
BRANCH  30  31
HETATM   31  O1  UNL     1      -1.881   5.579   1.032  1.00  0.00    -0.397 OA
ATOM     32  H1  UNL     1      -1.434   6.037   1.734  1.00  0.00     0.209 HD
ENDBRANCH  30  31
ENDBRANCH  29  30
ENDBRANCH   3  28
TORSDOF 10
