REMARK  16 active torsions:
REMARK  status: ('A' for Active; 'I' for Inactive)
REMARK    1  A    between atoms: C2_2  and  C3_3 
REMARK    2  A    between atoms: C3_3  and  N1_4 
REMARK    3  A    between atoms: C3_3  and  C9_14 
REMARK       I    between atoms: N1_4  and  C4_6 
REMARK    4  A    between atoms: C4_6  and  C5_8 
REMARK    5  A    between atoms: C5_8  and  C6_10 
REMARK    6  A    between atoms: C6_10  and  C7_11 
REMARK    7  A    between atoms: C9_14  and  O2_15 
REMARK    8  A    between atoms: C9_14  and  N2_17 
REMARK    9  A    between atoms: N2_17  and  C10_19 
REMARK   10  A    between atoms: C10_19  and  C11_20 
REMARK   11  A    between atoms: C11_20  and  N3_22 
REMARK       I    between atoms: N3_22  and  C13_24 
REMARK   12  A    between atoms: C13_24  and  C14_26 
REMARK   13  A    between atoms: C14_26  and  C15_27 
REMARK   14  A    between atoms: C14_26  and  N5_36 
REMARK   15  A    between atoms: C15_27  and  O4_28 
REMARK   16  A    between atoms: C15_27  and  N4_30 
ROOT
HETATM    1  N3  UNL     1      -0.792   0.508   0.787  1.00  0.00    -0.353 N 
ATOM      2  H3  UNL     1      -0.603   1.092  -0.028  1.00  0.00     0.163 HD
HETATM    3  C13 UNL     1      -1.890  -0.382   0.753  1.00  0.00     0.260 C 
HETATM    4  O3  UNL     1      -2.074  -1.080   1.798  1.00  0.00    -0.271 OA
ENDROOT
BRANCH   1   5
HETATM    5  C11 UNL     1       0.059   0.614   1.925  1.00  0.00     0.098 C 
HETATM    6  C12 UNL     1       0.173   2.005   2.506  1.00  0.00     0.034 C 
BRANCH   5   7
HETATM    7  C10 UNL     1       1.434   0.025   1.691  1.00  0.00     0.146 C 
BRANCH   7   8
HETATM    8  N2  UNL     1       2.215   0.841   0.756  1.00  0.00    -0.371 N 
ATOM      9  H2  UNL     1       1.824   1.687   0.341  1.00  0.00     0.161 HD
BRANCH   8  10
HETATM   10  C9  UNL     1       3.510   0.422   0.454  1.00  0.00     0.134 C 
BRANCH  10  11
HETATM   11  C3  UNL     1       4.486   1.056  -0.452  1.00  0.00     0.158 C 
BRANCH  11  12
HETATM   12  C2  UNL     1       4.208   2.396  -0.980  1.00  0.00     0.029 C 
HETATM   13  C1  UNL     1       2.934   2.555  -1.758  1.00  0.00     0.007 C 
ENDBRANCH  11  12
BRANCH  11  14
HETATM   14  N1  UNL     1       5.782   0.978   0.230  1.00  0.00    -0.348 N 
HETATM   15  C4  UNL     1       6.835   0.124  -0.180  1.00  0.00     0.232 C 
HETATM   16  O1  UNL     1       6.628  -0.602  -1.190  1.00  0.00    -0.272 OA
ATOM     17  H1  UNL     1       5.934   1.572   1.045  1.00  0.00     0.163 HD
BRANCH  15  18
HETATM   18  C5  UNL     1       8.118   0.063   0.514  1.00  0.00     0.150 C 
HETATM   19 BR1  UNL     1       8.926   1.821   0.494  1.00  0.00    -0.081 Br
BRANCH  18  20
HETATM   20  C6  UNL     1       9.068  -0.990   0.095  1.00  0.00     0.041 C 
BRANCH  20  21
HETATM   21  C7  UNL     1       9.539  -0.971  -1.311  1.00  0.00     0.055 C 
HETATM   22  C8  UNL     1      10.508  -2.159  -1.458  1.00  0.00     0.022 C 
HETATM   23 BR2  UNL     1      10.613   0.613  -1.694  1.00  0.00    -0.091 Br
ENDBRANCH  20  21
ENDBRANCH  18  20
ENDBRANCH  15  18
ENDBRANCH  11  14
ENDBRANCH  10  11
BRANCH  10  24
HETATM   24  O2  UNL     1       3.906  -0.673   1.058  1.00  0.00    -0.348 OA
ATOM     25  H2  UNL     1       3.277  -1.081   1.642  1.00  0.00     0.219 HD
ENDBRANCH  10  24
ENDBRANCH   8  10
ENDBRANCH   7   8
ENDBRANCH   5   7
ENDBRANCH   1   5
BRANCH   3  26
HETATM   26  C14 UNL     1      -2.804  -0.571  -0.348  1.00  0.00     0.387 C 
BRANCH  26  27
HETATM   27  C15 UNL     1      -3.447   0.667  -0.805  1.00  0.00     0.157 C 
BRANCH  27  28
HETATM   28  O4  UNL     1      -3.795   0.633  -2.064  1.00  0.00    -0.347 OA
ATOM     29  H4  UNL     1      -4.211   1.434  -2.360  1.00  0.00     0.219 HD
ENDBRANCH  27  28
BRANCH  27  30
HETATM   30  N4  UNL     1      -3.741   1.848  -0.125  1.00  0.00    -0.363 N 
HETATM   31  C16 UNL     1      -4.364   2.931  -0.934  1.00  0.00     0.124 C 
HETATM   32  C17 UNL     1      -5.842   2.978  -0.593  1.00  0.00     0.020 C 
HETATM   33  C18 UNL     1      -6.000   2.734   0.908  1.00  0.00     0.003 C 
HETATM   34  C19 UNL     1      -4.731   3.105   1.640  1.00  0.00     0.020 C 
HETATM   35  C20 UNL     1      -3.562   2.192   1.256  1.00  0.00     0.124 C 
ENDBRANCH  27  30
ENDBRANCH  26  27
BRANCH  26  36
HETATM   36  N5  UNL     1      -3.794  -1.594  -0.237  1.00  0.00     0.110 N 
HETATM   37  C21 UNL     1      -3.235  -2.925  -0.121  1.00  0.00     0.275 C 
HETATM   38  C22 UNL     1      -4.254  -3.876  -0.666  1.00  0.00     0.040 C 
HETATM   39  C23 UNL     1      -5.645  -3.640  -0.227  1.00  0.00    -0.037 A 
HETATM   40  C24 UNL     1      -5.958  -2.354   0.415  1.00  0.00     0.040 C 
HETATM   41  C26 UNL     1      -6.498  -4.856   0.007  1.00  0.00     0.010 A 
HETATM   42  C27 UNL     1      -6.708  -4.117  -1.246  1.00  0.00     0.010 A 
HETATM   43  C25 UNL     1      -4.799  -1.450   0.741  1.00  0.00     0.275 C 
ENDBRANCH  26  36
ENDBRANCH   3  26
TORSDOF 16
