REMARK  15 active torsions:
REMARK  status: ('A' for Active; 'I' for Inactive)
REMARK    1  A    between atoms: C2_2  and  C3_3 
REMARK    2  A    between atoms: C3_3  and  C5_5 
REMARK    3  A    between atoms: C5_5  and  N1_6 
REMARK    4  A    between atoms: C5_5  and  C19_29 
REMARK       I    between atoms: N1_6  and  C6_8 
REMARK       I    between atoms: C6_8  and  N2_10 
REMARK    5  A    between atoms: N2_10  and  C7_12 
REMARK    6  A    between atoms: C10_15  and  C11_16 
REMARK    7  A    between atoms: C11_16  and  O2_17 
REMARK    8  A    between atoms: C11_16  and  N3_19 
REMARK    9  A    between atoms: N3_19  and  C12_20 
REMARK   10  A    between atoms: N3_19  and  C14_24 
REMARK   11  A    between atoms: C12_20  and  C13_21 
REMARK       I    between atoms: C19_29  and  N4_31 
REMARK   12  A    between atoms: N4_31  and  C20_33 
REMARK   13  A    between atoms: C20_33  and  C21_34 
REMARK   14  A    between atoms: C20_33  and  C28_45 
REMARK       I    between atoms: C21_34  and  N5_36 
REMARK       I    between atoms: N6_39  and  C24_40 
REMARK   15  A    between atoms: C28_45  and  C30_47 
ROOT
HETATM    1  C5  UNL     1      -0.808  -1.726   0.426  1.00  0.00     0.182 C 
ENDROOT
BRANCH   1   2
HETATM    2  C3  UNL     1      -0.814  -3.215   0.487  1.00  0.00     0.013 C 
HETATM    3  C4  UNL     1      -0.517  -3.895  -0.834  1.00  0.00     0.012 C 
BRANCH   2   4
HETATM    4  C2  UNL     1      -1.975  -3.848   1.199  1.00  0.00     0.002 C 
HETATM    5  C1  UNL     1      -1.664  -5.314   1.493  1.00  0.00     0.005 C 
ENDBRANCH   2   4
ENDBRANCH   1   2
BRANCH   1   6
HETATM    6  N1  UNL     1       0.412  -1.374  -0.312  1.00  0.00    -0.330 N 
HETATM    7  C6  UNL     1       1.499  -0.753   0.342  1.00  0.00     0.317 C 
HETATM    8  O1  UNL     1       1.396  -0.508   1.567  1.00  0.00    -0.247 OA
HETATM    9  N2  UNL     1       2.695  -0.395  -0.317  1.00  0.00    -0.339 N 
ATOM     10  H2  UNL     1       2.767  -0.596  -1.314  1.00  0.00     0.164 HD
ATOM     11  H1  UNL     1       0.475  -1.580  -1.309  1.00  0.00     0.165 HD
BRANCH   9  12
HETATM   12  C7  UNL     1       3.829   0.240   0.330  1.00  0.00     0.086 C 
HETATM   13  C8  UNL     1       5.040  -0.621   0.347  1.00  0.00     0.026 C 
HETATM   14  C9  UNL     1       6.127  -0.283  -0.613  1.00  0.00     0.015 C 
HETATM   15  C10 UNL     1       6.311   1.160  -0.917  1.00  0.00     0.060 C 
HETATM   16  C17 UNL     1       5.458   2.078  -0.064  1.00  0.00     0.015 C 
HETATM   17  C18 UNL     1       4.006   1.632  -0.170  1.00  0.00     0.026 C 
BRANCH  15  18
HETATM   18  C11 UNL     1       7.664   1.665  -1.033  1.00  0.00     0.118 C 
BRANCH  18  19
HETATM   19  O2  UNL     1       7.961   2.237  -2.163  1.00  0.00    -0.349 OA
ATOM     20  H2  UNL     1       8.848   2.568  -2.239  1.00  0.00     0.219 HD
ENDBRANCH  18  19
BRANCH  18  21
HETATM   21  N3  UNL     1       8.729   1.641  -0.117  1.00  0.00    -0.359 N 
BRANCH  21  22
HETATM   22  C12 UNL     1      10.023   2.173  -0.455  1.00  0.00     0.161 C 
BRANCH  22  23
HETATM   23  C13 UNL     1      10.988   1.213  -1.069  1.00  0.00     0.196 C 
HETATM   24 CL1  UNL     1      12.551   2.028  -1.430  1.00  0.00    -0.106 Cl
HETATM   25 CL2  UNL     1      10.429   0.536  -2.612  1.00  0.00    -0.106 Cl
ENDBRANCH  22  23
ENDBRANCH  21  22
BRANCH  21  26
HETATM   26  C14 UNL     1       8.556   1.121   1.210  1.00  0.00     0.078 C 
HETATM   27  C15 UNL     1       8.862   2.203   2.251  1.00  0.00     0.032 C 
HETATM   28  C16 UNL     1       9.484  -0.031   1.550  1.00  0.00     0.032 C 
ENDBRANCH  21  26
ENDBRANCH  18  21
ENDBRANCH  15  18
ENDBRANCH   9  12
ENDBRANCH   1   6
BRANCH   1  29
HETATM   29  C19 UNL     1      -1.983  -1.083  -0.143  1.00  0.00     0.241 C 
HETATM   30  O3  UNL     1      -1.833  -0.429  -1.234  1.00  0.00    -0.271 OA
HETATM   31  N4  UNL     1      -3.275  -1.112   0.401  1.00  0.00    -0.346 N 
ATOM     32  H4  UNL     1      -3.427  -1.620   1.272  1.00  0.00     0.163 HD
BRANCH  31  33
HETATM   33  C20 UNL     1      -4.420  -0.440  -0.233  1.00  0.00     0.180 C 
BRANCH  33  34
HETATM   34  C21 UNL     1      -4.972   0.542   0.731  1.00  0.00     0.243 C 
HETATM   35  O4  UNL     1      -4.950   0.133   1.952  1.00  0.00    -0.271 OA
HETATM   36  N5  UNL     1      -5.485   1.797   0.485  1.00  0.00    -0.347 N 
HETATM   37  C22 UNL     1      -5.544   2.390  -0.821  1.00  0.00     0.145 C 
HETATM   38  C27 UNL     1      -6.010   2.608   1.572  1.00  0.00     0.145 C 
HETATM   39  C23 UNL     1      -6.907   2.946  -1.091  1.00  0.00     0.145 C 
HETATM   40  N6  UNL     1      -7.852   2.850  -0.006  1.00  0.00    -0.349 N 
HETATM   41  C24 UNL     1      -9.240   2.836  -0.357  1.00  0.00     0.215 C 
HETATM   42  C26 UNL     1      -7.511   2.773   1.395  1.00  0.00     0.145 C 
HETATM   43  C25 UNL     1     -10.250   2.749   0.720  1.00  0.00     0.117 C 
HETATM   44  O5  UNL     1      -9.579   2.898  -1.577  1.00  0.00    -0.274 OA
ENDBRANCH  33  34
BRANCH  33  45
HETATM   45  C28 UNL     1      -5.494  -1.469  -0.517  1.00  0.00     0.013 C 
HETATM   46  C29 UNL     1      -5.012  -2.551  -1.443  1.00  0.00     0.012 C 
BRANCH  45  47
HETATM   47  C30 UNL     1      -6.778  -0.926  -1.009  1.00  0.00     0.002 C 
HETATM   48  C31 UNL     1      -7.746  -2.098  -1.249  1.00  0.00     0.005 C 
ENDBRANCH  45  47
ENDBRANCH  33  45
ENDBRANCH  31  33
ENDBRANCH   1  29
TORSDOF 15
