REMARK  15 active torsions:
REMARK  status: ('A' for Active; 'I' for Inactive)
REMARK    1  A    between atoms: C2_2  and  N1_3 
REMARK    2  A    between atoms: N1_3  and  C3_4 
REMARK    3  A    between atoms: N1_3  and  C5_6 
REMARK    4  A    between atoms: C5_6  and  O1_7 
REMARK    5  A    between atoms: C5_6  and  C6_9 
REMARK    6  A    between atoms: C6_9  and  C7_10 
REMARK    7  A    between atoms: C6_9  and  N2_13 
REMARK    8  A    between atoms: C10_16  and  C11_17 
REMARK    9  A    between atoms: C14_21  and  S1_22 
REMARK   10  A    between atoms: S1_22  and  C15_24 
REMARK   11  A    between atoms: C15_24  and  C16_25 
REMARK   12  A    between atoms: C22_32  and  O5_33 
REMARK   13  A    between atoms: C23_35  and  O6_36 
REMARK   14  A    between atoms: C25_42  and  C26_43 
REMARK   15  A    between atoms: C26_43  and  C27_44 
ROOT
HETATM    1  N2  UNL     1      -1.843   0.176   0.082  1.00  0.00    -0.295 N 
HETATM    2  C9  UNL     1      -0.496  -0.152  -0.197  1.00  0.00     0.248 C 
HETATM    3  O3  UNL     1      -0.166  -1.343   0.098  1.00  0.00    -0.271 OA
HETATM    4  C10 UNL     1       0.405   0.823  -0.774  1.00  0.00     0.183 C 
HETATM    5  N3  UNL     1      -0.098   2.151  -0.632  1.00  0.00    -0.346 N 
ATOM      6  H3  UNL     1       0.536   2.930  -0.810  1.00  0.00     0.163 HD
HETATM    7  C24 UNL     1      -1.437   2.443  -0.255  1.00  0.00     0.241 C 
HETATM    8  O7  UNL     1      -1.717   3.586   0.253  1.00  0.00    -0.271 OA
HETATM    9  C25 UNL     1      -2.479   1.405  -0.460  1.00  0.00     0.185 C 
ENDROOT
BRANCH   4  10
HETATM   10  C11 UNL     1       1.855   0.719  -0.377  1.00  0.00     0.050 C 
HETATM   11  C12 UNL     1       2.109   0.809   1.095  1.00  0.00     0.027 C 
HETATM   12  C13 UNL     1       3.607   0.837   1.304  1.00  0.00     0.077 C 
HETATM   13 BR1  UNL     1       4.275   2.450   0.445  1.00  0.00    -0.090 Br
HETATM   14  C14 UNL     1       4.288  -0.379   0.741  1.00  0.00     0.125 C 
HETATM   15  C22 UNL     1       3.293  -1.241  -0.053  1.00  0.00     0.164 C 
HETATM   16  C23 UNL     1       2.579  -0.371  -1.078  1.00  0.00     0.154 C 
BRANCH  14  17
HETATM   17  S1  UNL     1       5.024  -1.397   1.947  1.00  0.00     0.027 S 
HETATM   18  O4  UNL     1       4.022  -2.025   3.086  1.00  0.00    -0.257 OA
BRANCH  17  19
HETATM   19  C15 UNL     1       6.332  -2.410   1.409  1.00  0.00     0.147 C 
BRANCH  19  20
HETATM   20  C16 UNL     1       7.490  -1.711   0.850  1.00  0.00    -0.046 A 
HETATM   21  C17 UNL     1       8.493  -1.329   1.702  1.00  0.00     0.009 A 
HETATM   22  C18 UNL     1       9.594  -0.672   1.196  1.00  0.00     0.024 A 
HETATM   23  C19 UNL     1       9.648  -0.421  -0.163  1.00  0.00     0.034 A 
HETATM   24 CL1  UNL     1      11.064   0.414  -0.768  1.00  0.00    -0.084 Cl
HETATM   25  C20 UNL     1       8.660  -0.793  -1.033  1.00  0.00     0.024 A 
HETATM   26  C21 UNL     1       7.553  -1.456  -0.499  1.00  0.00     0.009 A 
ENDBRANCH  19  20
ENDBRANCH  17  19
ENDBRANCH  14  17
BRANCH  15  27
HETATM   27  O5  UNL     1       3.996  -2.251  -0.675  1.00  0.00    -0.392 OA
ATOM     28  H5  UNL     1       3.381  -2.784  -1.166  1.00  0.00     0.210 HD
ENDBRANCH  15  27
BRANCH  16  29
HETATM   29  O6  UNL     1       1.844  -1.179  -1.900  1.00  0.00    -0.392 OA
ATOM     30  H6  UNL     1       2.307  -1.877  -2.349  1.00  0.00     0.210 HD
ENDBRANCH  16  29
ENDBRANCH   4  10
BRANCH   1  31
HETATM   31  C6  UNL     1      -2.696  -0.725   0.896  1.00  0.00     0.135 C 
BRANCH  31  32
HETATM   32  C5  UNL     1      -3.764  -1.278   0.073  1.00  0.00     0.169 C 
BRANCH  32  33
HETATM   33  N1  UNL     1      -5.125  -1.022  -0.033  1.00  0.00    -0.361 N 
BRANCH  33  34
HETATM   34  C2  UNL     1      -5.915  -1.781  -1.053  1.00  0.00     0.120 C 
HETATM   35  C1  UNL     1      -6.462  -3.048  -0.490  1.00  0.00     0.026 C 
ENDBRANCH  33  34
BRANCH  33  36
HETATM   36  C3  UNL     1      -5.913  -0.128   0.736  1.00  0.00     0.120 C 
HETATM   37  C4  UNL     1      -6.635  -0.739   1.915  1.00  0.00     0.026 C 
ENDBRANCH  33  36
ENDBRANCH  32  33
BRANCH  32  38
HETATM   38  O1  UNL     1      -3.314  -2.217  -0.744  1.00  0.00    -0.344 OA
ATOM     39  H1  UNL     1      -2.383  -2.392  -0.671  1.00  0.00     0.219 HD
ENDBRANCH  32  38
ENDBRANCH  31  32
BRANCH  31  40
HETATM   40  C7  UNL     1      -2.967  -0.252   2.235  1.00  0.00     0.176 C 
HETATM   41  C8  UNL     1      -2.757   1.109   2.740  1.00  0.00     0.098 C 
HETATM   42  O2  UNL     1      -3.417  -1.071   3.039  1.00  0.00    -0.291 OA
ENDBRANCH  31  40
ENDBRANCH   1  31
BRANCH   9  43
HETATM   43  C26 UNL     1      -2.765   1.247  -1.908  1.00  0.00     0.039 C 
BRANCH  43  44
HETATM   44  C27 UNL     1      -3.448   2.355  -2.620  1.00  0.00    -0.020 C 
HETATM   45  C28 UNL     1      -2.807   3.681  -2.681  1.00  0.00     0.009 C 
HETATM   46  C29 UNL     1      -4.923   2.470  -2.177  1.00  0.00     0.009 C 
ENDBRANCH  43  44
ENDBRANCH   9  43
TORSDOF 15
