REMARK  12 active torsions:
REMARK  status: ('A' for Active; 'I' for Inactive)
REMARK    1  A    between atoms: C2_2  and  C3_3 
REMARK       I    between atoms: N1_10  and  C8_11 
REMARK    2  A    between atoms: C8_11  and  C9_13 
REMARK    3  A    between atoms: C9_13  and  N2_14 
REMARK    4  A    between atoms: C9_13  and  C22_34 
REMARK       I    between atoms: N2_14  and  C10_16 
REMARK    5  A    between atoms: C10_16  and  C11_18 
REMARK    6  A    between atoms: C12_19  and  C13_20 
REMARK       I    between atoms: C13_20  and  N3_22 
REMARK    7  A    between atoms: N3_22  and  C14_24 
REMARK       I    between atoms: N4_30  and  C20_31 
REMARK    8  A    between atoms: C23_37  and  C24_38 
REMARK       I    between atoms: C24_38  and  N5_40 
REMARK    9  A    between atoms: N5_40  and  C25_41 
REMARK   10  A    between atoms: N5_40  and  C29_45 
REMARK   11  A    between atoms: C25_41  and  C26_42 
REMARK   12  A    between atoms: C29_45  and  C30_46 
ROOT
HETATM    1  C3  UNL     1      -3.899  -1.918   0.700  1.00  0.00     0.018 C 
HETATM    2  C4  UNL     1      -4.001  -2.897  -0.421  1.00  0.00     0.019 C 
HETATM    3  C5  UNL     1      -2.816  -3.762  -0.589  1.00  0.00     0.078 C 
HETATM    4  C6  UNL     1      -3.157  -5.170  -0.150  1.00  0.00     0.018 C 
HETATM    5  C7  UNL     1      -1.555  -3.271   0.030  1.00  0.00     0.330 C 
HETATM    6  F1  UNL     1      -0.543  -3.353  -0.978  1.00  0.00    -0.182 F 
HETATM    7  F2  UNL     1      -1.152  -4.172   0.963  1.00  0.00    -0.182 F 
HETATM    8  N1  UNL     1      -1.505  -1.929   0.491  1.00  0.00    -0.273 N 
HETATM    9  C8  UNL     1      -0.289  -1.405   0.953  1.00  0.00     0.258 C 
HETATM   10  O1  UNL     1      -0.210  -0.177   1.220  1.00  0.00    -0.270 OA
HETATM   11  C23 UNL     1      -2.675  -1.075   0.469  1.00  0.00     0.190 C 
ENDROOT
BRANCH   9  12
HETATM   12  C9  UNL     1       0.983  -2.130   1.183  1.00  0.00     0.279 C 
BRANCH  12  13
HETATM   13  N2  UNL     1       2.057  -1.297   0.619  1.00  0.00    -0.337 N 
HETATM   14  C10 UNL     1       2.959  -1.730  -0.357  1.00  0.00     0.242 C 
HETATM   15  O2  UNL     1       2.825  -2.923  -0.770  1.00  0.00    -0.271 OA
ATOM     16  H2  UNL     1       2.149  -0.341   0.963  1.00  0.00     0.163 HD
BRANCH  14  17
HETATM   17  C11 UNL     1       4.038  -0.919  -0.937  1.00  0.00     0.192 C 
HETATM   18  C12 UNL     1       5.166  -0.672   0.055  1.00  0.00     0.111 C 
HETATM   19  C18 UNL     1       5.984  -1.956  -0.113  1.00  0.00     0.036 C 
HETATM   20  C19 UNL     1       5.852  -2.314  -1.555  1.00  0.00     0.127 C 
HETATM   21  N4  UNL     1       4.673  -1.646  -2.027  1.00  0.00    -0.338 N 
HETATM   22  C20 UNL     1       4.179  -1.676  -3.351  1.00  0.00     0.216 C 
HETATM   23  C21 UNL     1       2.947  -0.951  -3.740  1.00  0.00     0.117 C 
HETATM   24  O4  UNL     1       4.779  -2.328  -4.249  1.00  0.00    -0.274 OA
BRANCH  18  25
HETATM   25  C13 UNL     1       6.011   0.486  -0.338  1.00  0.00     0.225 C 
HETATM   26  O3  UNL     1       7.252   0.294  -0.586  1.00  0.00    -0.273 OA
HETATM   27  N3  UNL     1       5.471   1.788  -0.444  1.00  0.00    -0.353 N 
ATOM     28  H3  UNL     1       4.483   1.953  -0.250  1.00  0.00     0.163 HD
BRANCH  27  29
HETATM   29  C14 UNL     1       6.342   2.895  -0.835  1.00  0.00     0.022 C 
HETATM   30  C15 UNL     1       7.444   2.982   0.206  1.00  0.00     0.037 C 
HETATM   31  C16 UNL     1       5.585   4.191  -0.945  1.00  0.00     0.037 C 
HETATM   32  C17 UNL     1       6.916   2.562  -2.196  1.00  0.00     0.037 C 
ENDBRANCH  27  29
ENDBRANCH  18  25
ENDBRANCH  14  17
ENDBRANCH  12  13
BRANCH  12  33
HETATM   33  C22 UNL     1       1.297  -2.181   2.658  1.00  0.00     0.206 C 
HETATM   34  O5  UNL     1       2.301  -1.615   3.129  1.00  0.00    -0.646 OA
HETATM   35  O6  UNL     1       0.466  -2.859   3.494  1.00  0.00    -0.646 OA
ENDBRANCH  12  33
ENDBRANCH   9  12
BRANCH  11  36
HETATM   36  C24 UNL     1      -2.643   0.101   1.330  1.00  0.00     0.250 C 
HETATM   37  O7  UNL     1      -2.517  -0.115   2.590  1.00  0.00    -0.270 OA
HETATM   38  N5  UNL     1      -2.732   1.484   0.913  1.00  0.00    -0.308 N 
BRANCH  38  39
HETATM   39  C25 UNL     1      -2.653   2.426   1.989  1.00  0.00     0.076 C 
BRANCH  39  40
HETATM   40  C26 UNL     1      -3.790   2.721   2.839  1.00  0.00     0.016 C 
HETATM   41  C27 UNL     1      -3.398   3.788   3.897  1.00  0.00     0.015 C 
HETATM   42  C28 UNL     1      -5.111   3.090   2.347  1.00  0.00     0.015 C 
ENDBRANCH  39  40
ENDBRANCH  38  39
BRANCH  38  43
HETATM   43  C29 UNL     1      -2.754   1.836  -0.457  1.00  0.00     0.080 C 
BRANCH  43  44
HETATM   44  C30 UNL     1      -3.915   2.099  -1.284  1.00  0.00    -0.019 C 
HETATM   45  C31 UNL     1      -4.987   1.091  -1.451  1.00  0.00     0.020 C 
HETATM   46  C32 UNL     1      -3.282   2.096  -2.767  1.00  0.00     0.020 C 
HETATM   47  C33 UNL     1      -4.461   3.509  -1.188  1.00  0.00     0.020 C 
ENDBRANCH  43  44
ENDBRANCH  38  43
ENDBRANCH  11  36
BRANCH   1  48
HETATM   48  C2  UNL     1      -4.104  -2.493   2.047  1.00  0.00     0.002 C 
HETATM   49  C1  UNL     1      -5.533  -3.095   2.026  1.00  0.00     0.005 C 
ENDBRANCH   1  48
TORSDOF 12
