REMARK  13 active torsions:
REMARK  status: ('A' for Active; 'I' for Inactive)
REMARK    1  A    between atoms: C2_2  and  C3_3 
REMARK    2  A    between atoms: C5_5  and  C6_6 
REMARK       I    between atoms: C6_6  and  N1_8 
REMARK       I    between atoms: N2_11  and  C9_12 
REMARK    3  A    between atoms: C9_12  and  C10_14 
REMARK    4  A    between atoms: C10_14  and  C11_17 
REMARK    5  A    between atoms: C11_17  and  C12_18 
REMARK    6  A    between atoms: C12_18  and  N3_19 
REMARK       I    between atoms: N4_25  and  C15_26 
REMARK    7  A    between atoms: C15_26  and  C16_28 
REMARK    8  A    between atoms: C19_31  and  C20_32 
REMARK    9  A    between atoms: C20_32  and  N5_33 
REMARK   10  A    between atoms: C20_32  and  C27_42 
REMARK       I    between atoms: N5_33  and  C21_35 
REMARK   11  A    between atoms: C21_35  and  C22_37 
REMARK   12  A    between atoms: C22_37  and  C23_38 
REMARK       I    between atoms: C27_42  and  N6_44 
REMARK   13  A    between atoms: N6_44  and  C28_46 
ROOT
HETATM    1  C3  UNL     1       0.065   0.166  -2.431  1.00  0.00     0.112 C 
HETATM    2  C4  UNL     1       1.005  -1.030  -2.381  1.00  0.00     0.064 C 
HETATM    3  C5  UNL     1       1.731  -0.166  -1.371  1.00  0.00     0.182 C 
HETATM    4  N4  UNL     1       0.523   0.579  -1.102  1.00  0.00    -0.330 N 
HETATM    5  C15 UNL     1      -0.030   1.363  -0.062  1.00  0.00     0.225 C 
HETATM    6  O3  UNL     1       0.630   1.538   0.992  1.00  0.00    -0.273 OA
ENDROOT
BRANCH   1   7
HETATM    7  C2  UNL     1       0.480   1.079  -3.534  1.00  0.00    -0.012 C 
HETATM    8  C1  UNL     1      -0.184   1.186  -4.661  1.00  0.00     0.009 C 
ENDBRANCH   1   7
BRANCH   3   9
HETATM    9  C6  UNL     1       2.222  -1.019  -0.262  1.00  0.00     0.243 C 
HETATM   10  O1  UNL     1       1.656  -1.120   0.856  1.00  0.00    -0.271 OA
HETATM   11  N1  UNL     1       3.407  -1.771  -0.477  1.00  0.00    -0.347 N 
HETATM   12  C7  UNL     1       4.133  -1.750  -1.725  1.00  0.00     0.145 C 
HETATM   13  C14 UNL     1       3.922  -2.600   0.622  1.00  0.00     0.145 C 
HETATM   14  C8  UNL     1       5.620  -1.599  -1.361  1.00  0.00     0.146 C 
HETATM   15  N2  UNL     1       5.961  -2.792  -0.637  1.00  0.00    -0.345 N 
HETATM   16  C9  UNL     1       7.271  -3.278  -0.503  1.00  0.00     0.271 C 
HETATM   17  C13 UNL     1       4.898  -3.574   0.012  1.00  0.00     0.146 C 
HETATM   18  O2  UNL     1       7.476  -4.350   0.173  1.00  0.00    -0.269 OA
BRANCH  16  19
HETATM   19  C10 UNL     1       8.454  -2.654  -1.080  1.00  0.00     0.241 C 
HETATM   20  F1  UNL     1       8.287  -2.600  -2.470  1.00  0.00    -0.220 F 
HETATM   21 BR1  UNL     1      10.006  -3.829  -0.836  1.00  0.00    -0.038 Br
BRANCH  19  22
HETATM   22  C11 UNL     1       8.769  -1.290  -0.551  1.00  0.00     0.093 C 
BRANCH  22  23
HETATM   23  C12 UNL     1       9.017  -1.287   0.937  1.00  0.00     0.234 C 
BRANCH  23  24
HETATM   24  N3  UNL     1       7.864  -1.762   1.673  1.00  0.00    -0.079 N 
ATOM     25  H33 UNL     1       7.026  -1.231   1.435  1.00  0.00     0.274 HD
ATOM     26  H32 UNL     1       7.568  -2.682   1.347  1.00  0.00     0.274 HD
ATOM     27  H31 UNL     1       8.032  -1.760   2.679  1.00  0.00     0.274 HD
ENDBRANCH  23  24
ENDBRANCH  22  23
ENDBRANCH  19  22
ENDBRANCH  16  19
ENDBRANCH   3   9
BRANCH   5  28
HETATM   28  C16 UNL     1      -1.360   2.012  -0.122  1.00  0.00     0.084 C 
HETATM   29  C17 UNL     1      -1.251   3.517  -0.223  1.00  0.00     0.015 C 
HETATM   30  C18 UNL     1      -1.544   3.586   1.281  1.00  0.00     0.009 C 
HETATM   31  C19 UNL     1      -2.021   2.205   1.235  1.00  0.00     0.030 C 
BRANCH  31  32
HETATM   32  C20 UNL     1      -3.466   1.834   1.286  1.00  0.00     0.181 C 
BRANCH  32  33
HETATM   33  N5  UNL     1      -3.470   0.394   0.913  1.00  0.00    -0.347 N 
HETATM   34  C21 UNL     1      -3.751  -0.639   1.824  1.00  0.00     0.218 C 
HETATM   35  O4  UNL     1      -4.017  -0.356   3.031  1.00  0.00    -0.274 OA
ATOM     36  H5  UNL     1      -3.258   0.143  -0.053  1.00  0.00     0.163 HD
BRANCH  34  37
HETATM   37  C22 UNL     1      -3.724  -2.032   1.329  1.00  0.00     0.111 C 
BRANCH  37  38
HETATM   38  C23 UNL     1      -3.951  -3.071   2.380  1.00  0.00    -0.043 C 
HETATM   39  C24 UNL     1      -3.893  -4.424   1.663  1.00  0.00     0.015 C 
HETATM   40  C25 UNL     1      -2.814  -3.097   3.386  1.00  0.00     0.015 C 
HETATM   41  C26 UNL     1      -5.285  -2.938   3.030  1.00  0.00     0.015 C 
ENDBRANCH  37  38
ENDBRANCH  34  37
ENDBRANCH  32  33
BRANCH  32  42
HETATM   42  C27 UNL     1      -4.370   2.572   0.419  1.00  0.00     0.241 C 
HETATM   43  O5  UNL     1      -4.870   1.925  -0.570  1.00  0.00    -0.271 OA
HETATM   44  N6  UNL     1      -4.760   3.913   0.543  1.00  0.00    -0.351 N 
ATOM     45  H6  UNL     1      -4.397   4.468   1.318  1.00  0.00     0.163 HD
BRANCH  44  46
HETATM   46  C28 UNL     1      -5.670   4.529  -0.407  1.00  0.00     0.022 C 
HETATM   47  C29 UNL     1      -7.009   3.847  -0.465  1.00  0.00     0.037 C 
HETATM   48  C30 UNL     1      -5.101   4.538  -1.822  1.00  0.00     0.037 C 
HETATM   49  C31 UNL     1      -5.907   6.003  -0.070  1.00  0.00     0.037 C 
ENDBRANCH  44  46
ENDBRANCH  32  42
ENDBRANCH  31  32
ENDBRANCH   5  28
TORSDOF 13
