REMARK  4 active torsions:
REMARK  status: ('A' for Active; 'I' for Inactive)
REMARK       I    between atoms: C1_4  and  N2_5 
REMARK       I    between atoms: C1_4  and  N7_20 
REMARK    1  A    between atoms: N2_5  and  C2_7 
REMARK    2  A    between atoms: C5_14  and  N5_15 
REMARK    3  A    between atoms: N5_15  and  N6_17 
REMARK    4  A    between atoms: N7_20  and  N8_22 
ROOT
HETATM    1  C2  UNL     1      -0.554  -0.335   0.189  1.00  0.00     0.110 A 
HETATM    2  C3  UNL     1      -0.705  -1.451   0.988  1.00  0.00     0.122 A 
HETATM    3  N3  UNL     1      -1.807  -2.197   0.897  1.00  0.00    -0.360 N 
ATOM      4  H3  UNL     1      -1.903  -3.019   1.494  1.00  0.00     0.166 HD
HETATM    5  C4  UNL     1      -2.792  -1.892   0.039  1.00  0.00     0.182 A 
HETATM    6  N4  UNL     1      -2.667  -0.813  -0.746  1.00  0.00    -0.336 N 
ATOM      7  H4  UNL     1      -3.415  -0.580  -1.399  1.00  0.00     0.168 HD
HETATM    8  C5  UNL     1      -1.571  -0.030  -0.688  1.00  0.00     0.149 A 
ENDROOT
BRANCH   1   9
HETATM    9  N2  UNL     1       0.597   0.490   0.244  1.00  0.00    -0.186 N 
HETATM   10  C1  UNL     1       1.681   0.235   1.122  1.00  0.00     0.695 C 
HETATM   11  N1  UNL     1       1.733   0.848   2.245  1.00  0.00    -0.233 N 
HETATM   12  N7  UNL     1       2.711  -0.676   0.798  1.00  0.00    -0.072 N 
ATOM     13  H12 UNL     1       0.989   1.506   2.479  1.00  0.00     0.174 HD
ATOM     14  H11 UNL     1       2.513   0.665   2.877  1.00  0.00     0.174 HD
ATOM     15  H7  UNL     1       3.003  -1.372   1.484  1.00  0.00     0.212 HD
ATOM     16  H2  UNL     1       0.648   1.300  -0.373  1.00  0.00     0.184 HD
BRANCH  12  17
HETATM   17  N8  UNL     1       3.334  -0.633  -0.453  1.00  0.00    -0.024 N 
HETATM   18  O1  UNL     1       3.884  -1.620  -0.928  1.00  0.00    -0.516 OA
HETATM   19  O2  UNL     1       3.320   0.556  -1.154  1.00  0.00    -0.516 OA
ENDBRANCH  12  17
ENDBRANCH   1   9
BRANCH   8  20
HETATM   20  N5  UNL     1      -1.479   1.115  -1.544  1.00  0.00    -0.290 N 
ATOM     21  H5  UNL     1      -1.035   1.003  -2.455  1.00  0.00     0.188 HD
BRANCH  20  22
HETATM   22  N6  UNL     1      -1.962   2.365  -1.198  1.00  0.00    -0.344 N 
ATOM     23  H62 UNL     1      -2.403   2.459  -0.283  1.00  0.00     0.176 HD
ATOM     24  H61 UNL     1      -1.896   3.180  -1.807  1.00  0.00     0.176 HD
ENDBRANCH  20  22
ENDBRANCH   8  20
TORSDOF 4
