REMARK  4 active torsions:
REMARK  status: ('A' for Active; 'I' for Inactive)
REMARK    1  A    between atoms: C1_4  and  C2_6 
REMARK    2  A    between atoms: C5_9  and  N3_10 
REMARK    3  A    between atoms: N3_10  and  N4_12 
REMARK    4  A    between atoms: C6_17  and  N8_18 
ROOT
HETATM    1  C2  UNL     1       2.268   0.115  -0.267  1.00  0.00     0.020 A 
HETATM    2  C3  UNL     1       1.535   0.139  -1.442  1.00  0.00     0.020 A 
HETATM    3  C4  UNL     1       0.202  -0.233  -1.439  1.00  0.00     0.051 A 
HETATM    4  C5  UNL     1      -0.434  -0.637  -0.277  1.00  0.00     0.121 A 
HETATM    5  N9  UNL     1       0.310  -0.647   0.841  1.00  0.00    -0.350 N 
ATOM      6  H9  UNL     1      -0.131  -0.940   1.712  1.00  0.00     0.166 HD
HETATM    7  C7  UNL     1       1.605  -0.291   0.872  1.00  0.00     0.104 A 
ENDROOT
BRANCH   4   8
HETATM    8  N3  UNL     1      -1.825  -1.009  -0.283  1.00  0.00    -0.251 N 
ATOM      9  H3  UNL     1      -2.122  -1.891  -0.701  1.00  0.00     0.191 HD
BRANCH   8  10
HETATM   10  N4  UNL     1      -2.768  -0.142   0.294  1.00  0.00    -0.004 N 
HETATM   11  N5  UNL     1      -2.447   1.030   0.872  1.00  0.00     0.031 NA
HETATM   12  N6  UNL     1      -3.574   1.594   1.326  1.00  0.00     0.008 NA
HETATM   13  N7  UNL     1      -4.591   0.801   1.044  1.00  0.00    -0.115 N 
HETATM   14  C6  UNL     1      -4.078  -0.272   0.403  1.00  0.00     0.723 A 
ATOM     15  H7  UNL     1      -5.573   0.966   1.267  1.00  0.00     0.202 HD
BRANCH  14  16
HETATM   16  N8  UNL     1      -4.755  -1.273  -0.039  1.00  0.00    -0.231 N 
ATOM     17  H82 UNL     1      -4.368  -2.083  -0.523  1.00  0.00     0.174 HD
ATOM     18  H81 UNL     1      -5.767  -1.373   0.045  1.00  0.00     0.174 HD
ENDBRANCH  14  16
ENDBRANCH   8  10
ENDBRANCH   4   8
BRANCH   1  19
HETATM   19  C1  UNL     1       3.679   0.492  -0.257  1.00  0.00     0.121 C 
HETATM   20  N1  UNL     1       4.280   0.801  -1.351  1.00  0.00    -0.387 N 
ATOM     21  H12 UNL     1       5.265   1.064  -1.344  1.00  0.00     0.157 HD
ATOM     22  H11 UNL     1       3.813   0.787  -2.258  1.00  0.00     0.157 HD
HETATM   23  N2  UNL     1       4.332   0.512   1.010  1.00  0.00    -0.082 NA
ENDBRANCH   1  19
TORSDOF 4
