REMARK  5 active torsions:
REMARK  status: ('A' for Active; 'I' for Inactive)
REMARK    1  A    between atoms: N1_1  and  C1_4 
REMARK    2  A    between atoms: C2_7  and  N3_8 
REMARK    3  A    between atoms: N3_8  and  N4_10 
REMARK    4  A    between atoms: N5_12  and  N6_14 
REMARK    5  A    between atoms: C3_16  and  C4_17 
ROOT
HETATM    1  N4  UNL     1       0.122  -1.142   1.190  1.00  0.00    -0.214 N 
ATOM      2  H4  UNL     1       0.269  -1.781   1.971  1.00  0.00     0.210 HD
HETATM    3  N5  UNL     1       0.711  -1.361   0.084  1.00  0.00    -0.228 N 
ATOM      4  H5  UNL     1       1.317  -2.179   0.017  1.00  0.00     0.210 HD
ENDROOT
BRANCH   1   5
HETATM    5  N3  UNL     1      -0.717  -0.049   1.353  1.00  0.00    -0.115 N 
ATOM      6  H3  UNL     1      -0.350   0.813   1.756  1.00  0.00     0.207 HD
BRANCH   5   7
HETATM    7  C2  UNL     1      -2.081  -0.117   0.965  1.00  0.00     0.727 A 
HETATM    8  N2  UNL     1      -2.724  -1.166   0.423  1.00  0.00    -0.019 N 
HETATM    9  C1  UNL     1      -3.985  -0.820   0.209  1.00  0.00     0.705 A 
ATOM     10  H2  UNL     1      -2.311  -2.074   0.212  1.00  0.00     0.203 HD
HETATM   11  N11 UNL     1      -4.131   0.446   0.618  1.00  0.00    -0.117 N 
HETATM   12  N10 UNL     1      -2.975   0.881   1.079  1.00  0.00    -0.116 N 
ATOM     13  H11 UNL     1      -4.995   0.986   0.579  1.00  0.00     0.206 HD
ATOM     14  H10 UNL     1      -2.791   1.811   1.456  1.00  0.00     0.206 HD
BRANCH   9  15
HETATM   15  N1  UNL     1      -4.942  -1.552  -0.305  1.00  0.00    -0.233 N 
ATOM     16  H12 UNL     1      -4.831  -2.517  -0.617  1.00  0.00     0.174 HD
ATOM     17  H11 UNL     1      -5.913  -1.286  -0.470  1.00  0.00     0.174 HD
ENDBRANCH   9  15
ENDBRANCH   5   7
ENDBRANCH   1   5
BRANCH   3  18
HETATM   18  N6  UNL     1       0.579  -0.555  -1.034  1.00  0.00    -0.293 N 
HETATM   19  C3  UNL     1       1.541   0.065  -1.615  1.00  0.00     0.158 C 
ATOM     20  H6  UNL     1      -0.356  -0.445  -1.427  1.00  0.00     0.187 HD
BRANCH  19  21
HETATM   21  C4  UNL     1       2.926  -0.028  -1.129  1.00  0.00     0.138 A 
HETATM   22  N7  UNL     1       3.304  -0.742  -0.070  1.00  0.00    -0.335 N 
HETATM   23  C5  UNL     1       4.649  -0.576   0.058  1.00  0.00     0.199 A 
ATOM     24  H7  UNL     1       2.701  -1.305   0.530  1.00  0.00     0.168 HD
HETATM   25  N8  UNL     1       5.086   0.240  -0.925  1.00  0.00    -0.295 N 
HETATM   26  N9  UNL     1       4.017   0.557  -1.630  1.00  0.00    -0.283 N 
ATOM     27  H8  UNL     1       6.045   0.548  -1.089  1.00  0.00     0.187 HD
ATOM     28  H9  UNL     1       4.023   1.167  -2.448  1.00  0.00     0.188 HD
ENDBRANCH  19  21
ENDBRANCH   3  18
TORSDOF 5
