REMARK  10 active torsions:
REMARK  status: ('A' for Active; 'I' for Inactive)
REMARK    1  A    between atoms: N3_4  and  C2_6 
REMARK    2  A    between atoms: C2_6  and  C3_7 
REMARK    3  A    between atoms: C3_7  and  C4_8 
REMARK    4  A    between atoms: C4_8  and  C5_9 
REMARK    5  A    between atoms: C5_9  and  N4_10 
REMARK    6  A    between atoms: C5_9  and  C6_14 
REMARK    7  A    between atoms: C5_9  and  C12_24 
REMARK    8  A    between atoms: C6_14  and  C7_15 
REMARK    9  A    between atoms: C7_15  and  N5_16 
REMARK   10  A    between atoms: C12_24  and  N7_25 
ROOT
HETATM    1  C5  UNL     1      -0.828   0.761   0.237  1.00  0.00     0.141 C 
ENDROOT
BRANCH   1   2
HETATM    2  C4  UNL     1      -1.671   0.206   1.312  1.00  0.00     0.042 C 
BRANCH   2   3
HETATM    3  C3  UNL     1      -3.135   0.417   1.251  1.00  0.00     0.022 C 
BRANCH   3   4
HETATM    4  C2  UNL     1      -3.861  -0.140   0.063  1.00  0.00     0.122 C 
BRANCH   4   5
HETATM    5  N3  UNL     1      -3.618  -1.566   0.043  1.00  0.00    -0.367 N 
HETATM    6  C1  UNL     1      -4.027  -2.346  -0.886  1.00  0.00     0.196 C 
HETATM    7  N1  UNL     1      -3.751  -3.726  -0.836  1.00  0.00    -0.067 NA
HETATM    8  N2  UNL     1      -4.761  -1.813  -1.967  1.00  0.00    -0.067 NA
ATOM      9  H3  UNL     1      -3.090  -1.974   0.814  1.00  0.00     0.161 HD
ENDBRANCH   4   5
ENDBRANCH   3   4
ENDBRANCH   2   3
ENDBRANCH   1   2
BRANCH   1  10
HETATM   10  N4  UNL     1      -1.196   0.185  -1.034  1.00  0.00    -0.069 N 
ATOM     11  H43 UNL     1      -1.165  -0.834  -1.013  1.00  0.00     0.275 HD
ATOM     12  H42 UNL     1      -2.190   0.301  -1.231  1.00  0.00     0.275 HD
ATOM     13  H41 UNL     1      -0.613   0.569  -1.778  1.00  0.00     0.275 HD
ENDBRANCH   1  10
BRANCH   1  14
HETATM   14  C6  UNL     1       0.654   0.625   0.475  1.00  0.00     0.070 C 
BRANCH  14  15
HETATM   15  C7  UNL     1       1.091  -0.809   0.617  1.00  0.00     0.275 C 
BRANCH  15  16
HETATM   16  N5  UNL     1       2.522  -0.869   0.847  1.00  0.00     0.091 N 
HETATM   17  C8  UNL     1       3.287  -0.463  -0.296  1.00  0.00     0.300 C 
HETATM   18  C9  UNL     1       4.749  -0.765  -0.047  1.00  0.00     0.262 C 
HETATM   19  N6  UNL     1       4.873  -2.215  -0.013  1.00  0.00    -0.072 N 
HETATM   20  C10 UNL     1       4.212  -2.653   1.185  1.00  0.00     0.262 C 
ATOM     21  H62 UNL     1       4.524  -2.670  -0.856  1.00  0.00     0.277 HD
ATOM     22  H61 UNL     1       5.837  -2.540  -0.084  1.00  0.00     0.277 HD
HETATM   23  C11 UNL     1       2.820  -2.170   1.355  1.00  0.00     0.300 C 
ENDBRANCH  15  16
ENDBRANCH  14  15
ENDBRANCH   1  14
BRANCH   1  24
HETATM   24  C12 UNL     1      -1.063   2.274   0.054  1.00  0.00     0.160 C 
BRANCH  24  25
HETATM   25  N7  UNL     1      -0.198   2.727  -1.017  1.00  0.00    -0.364 N 
HETATM   26  C13 UNL     1       0.318   3.894  -1.057  1.00  0.00     0.197 C 
HETATM   27  N8  UNL     1       0.125   4.899  -0.078  1.00  0.00    -0.067 NA
HETATM   28  N9  UNL     1       1.162   4.246  -2.165  1.00  0.00    -0.067 NA
ATOM     29  H7  UNL     1       0.009   2.080  -1.778  1.00  0.00     0.161 HD
ENDBRANCH  24  25
ENDBRANCH   1  24
TORSDOF 10
