REMARK  10 active torsions:
REMARK  status: ('A' for Active; 'I' for Inactive)
REMARK       I    between atoms: C1_4  and  N3_6 
REMARK    1  A    between atoms: N3_6  and  C2_8 
REMARK    2  A    between atoms: C2_8  and  C3_9 
REMARK    3  A    between atoms: C3_9  and  O1_10 
REMARK    4  A    between atoms: O1_10  and  C4_11 
REMARK    5  A    between atoms: C4_11  and  C5_12 
REMARK    6  A    between atoms: C5_12  and  O2_13 
REMARK    7  A    between atoms: O2_13  and  C6_14 
REMARK    8  A    between atoms: C6_14  and  C7_15 
REMARK    9  A    between atoms: C7_15  and  N4_16 
REMARK   10  A    between atoms: C11_21  and  N6_22 
ROOT
HETATM    1  C6  UNL     1      -0.468   0.399  -0.087  1.00  0.00     0.212 C 
ENDROOT
BRANCH   1   2
HETATM    2  O2  UNL     1      -0.541  -0.505   0.926  1.00  0.00    -0.384 OA
BRANCH   2   3
HETATM    3  C5  UNL     1       0.406  -1.469   1.027  1.00  0.00     0.194 C 
BRANCH   3   4
HETATM    4  C4  UNL     1       1.823  -1.056   1.202  1.00  0.00     0.193 C 
BRANCH   4   5
HETATM    5  O1  UNL     1       2.367  -0.292   0.212  1.00  0.00    -0.387 OA
BRANCH   5   6
HETATM    6  C3  UNL     1       3.663   0.100   0.358  1.00  0.00     0.187 C 
BRANCH   6   7
HETATM    7  C2  UNL     1       4.670  -1.005   0.460  1.00  0.00     0.148 C 
BRANCH   7   8
HETATM    8  N3  UNL     1       6.015  -0.528   0.608  1.00  0.00    -0.363 N 
HETATM    9  C1  UNL     1       6.669   0.144  -0.454  1.00  0.00     0.181 C 
HETATM   10  N1  UNL     1       6.304  -0.010  -1.680  1.00  0.00    -0.374 N 
HETATM   11  N2  UNL     1       7.753   1.010  -0.171  1.00  0.00    -0.064 NA
ATOM     12  H12 UNL     1       6.775   0.474  -2.445  1.00  0.00     0.158 HD
ATOM     13  H11 UNL     1       5.523  -0.634  -1.884  1.00  0.00     0.158 HD
ATOM     14  H3  UNL     1       6.507  -0.675   1.489  1.00  0.00     0.162 HD
ENDBRANCH   7   8
ENDBRANCH   6   7
ENDBRANCH   5   6
ENDBRANCH   4   5
ENDBRANCH   3   4
ENDBRANCH   2   3
ENDBRANCH   1   2
BRANCH   1  15
HETATM   15  C7  UNL     1      -1.630   1.340  -0.038  1.00  0.00     0.100 C 
BRANCH  15  16
HETATM   16  N4  UNL     1      -2.929   0.807  -0.147  1.00  0.00    -0.287 N 
HETATM   17  C8  UNL     1      -3.496   0.647  -1.369  1.00  0.00     0.103 C 
HETATM   18  C9  UNL     1      -4.831   0.490  -1.708  1.00  0.00     0.048 C 
HETATM   19  C10 UNL     1      -5.919   0.216  -0.891  1.00  0.00     0.091 C 
HETATM   20  N5  UNL     1      -7.188   0.134  -1.521  1.00  0.00    -0.098 NA
HETATM   21  C11 UNL     1      -5.838   0.021   0.482  1.00  0.00     0.127 C 
HETATM   22  N7  UNL     1      -4.741  -0.065   1.261  1.00  0.00    -0.293 N 
HETATM   23  C12 UNL     1      -3.515   0.488   1.023  1.00  0.00     0.331 C 
ATOM     24  H7  UNL     1      -4.837  -0.602   2.123  1.00  0.00     0.172 HD
HETATM   25  O3  UNL     1      -2.862   0.722   2.079  1.00  0.00    -0.246 OA
BRANCH  21  26
HETATM   26  N6  UNL     1      -6.983  -0.088   1.069  1.00  0.00    -0.384 N 
ATOM     27  H62 UNL     1      -7.813  -0.023   0.480  1.00  0.00     0.157 HD
ATOM     28  H61 UNL     1      -6.924  -0.231   2.077  1.00  0.00     0.157 HD
ENDBRANCH  21  26
ENDBRANCH  15  16
ENDBRANCH   1  15
TORSDOF 10
