REMARK  11 active torsions:
REMARK  status: ('A' for Active; 'I' for Inactive)
REMARK    1  A    between atoms: N1_1  and  C1_5 
REMARK    2  A    between atoms: C1_5  and  C2_6 
REMARK    3  A    between atoms: C2_6  and  C3_7 
REMARK    4  A    between atoms: C3_7  and  N2_8 
REMARK       I    between atoms: N2_8  and  C4_10 
REMARK    5  A    between atoms: N4_12  and  C5_14 
REMARK    6  A    between atoms: C5_14  and  C6_15 
REMARK    7  A    between atoms: C6_15  and  C7_16 
REMARK    8  A    between atoms: C7_16  and  C8_17 
REMARK    9  A    between atoms: C9_18  and  C10_19 
REMARK   10  A    between atoms: C10_19  and  C11_20 
REMARK   11  A    between atoms: C11_20  and  N5_21 
ROOT
HETATM    1  C8  UNL     1      -2.592   0.949  -0.249  1.00  0.00     0.033 A 
HETATM    2  C9  UNL     1      -3.759   0.633   0.368  1.00  0.00     0.027 A 
HETATM    3  N6  UNL     1      -4.798   1.511   0.274  1.00  0.00    -0.312 N 
ATOM      4  H6  UNL     1      -5.678   1.282   0.735  1.00  0.00     0.170 HD
HETATM    5  C12 UNL     1      -4.704   2.666  -0.404  1.00  0.00     0.327 A 
HETATM    6  O1  UNL     1      -5.683   3.476  -0.484  1.00  0.00    -0.247 OA
HETATM    7  N7  UNL     1      -3.572   3.007  -1.022  1.00  0.00    -0.275 N 
ATOM      8  H7  UNL     1      -3.500   3.884  -1.537  1.00  0.00     0.173 HD
HETATM    9  C13 UNL     1      -2.531   2.163  -0.947  1.00  0.00     0.257 A 
HETATM   10  O2  UNL     1      -1.446   2.477  -1.531  1.00  0.00    -0.267 OA
ENDROOT
BRANCH   1  11
HETATM   11  C7  UNL     1      -1.383   0.137  -0.191  1.00  0.00     0.048 C 
BRANCH  11  12
HETATM   12  C6  UNL     1      -0.663   0.409   1.113  1.00  0.00     0.025 C 
BRANCH  12  13
HETATM   13  C5  UNL     1       0.583  -0.393   1.277  1.00  0.00     0.122 C 
BRANCH  13  14
HETATM   14  N4  UNL     1       1.518  -0.111   0.224  1.00  0.00    -0.365 N 
HETATM   15  C4  UNL     1       2.217  -1.048  -0.283  1.00  0.00     0.183 C 
HETATM   16  N2  UNL     1       3.121  -0.692  -1.319  1.00  0.00    -0.365 N 
HETATM   17  N3  UNL     1       2.072  -2.364   0.183  1.00  0.00    -0.064 NA
ATOM     18  H2  UNL     1       2.998  -1.045  -2.268  1.00  0.00     0.162 HD
ATOM     19  H4  UNL     1       1.623   0.844  -0.120  1.00  0.00     0.162 HD
BRANCH  16  20
HETATM   20  C3  UNL     1       4.216   0.182  -0.988  1.00  0.00     0.124 C 
BRANCH  20  21
HETATM   21  C2  UNL     1       5.144  -0.590  -0.076  1.00  0.00     0.047 C 
BRANCH  21  22
HETATM   22  C1  UNL     1       6.324   0.267   0.323  1.00  0.00     0.231 C 
BRANCH  22  23
HETATM   23  N1  UNL     1       7.100   0.706  -0.814  1.00  0.00    -0.079 N 
ATOM     24  H13 UNL     1       7.398  -0.087  -1.383  1.00  0.00     0.274 HD
ATOM     25  H12 UNL     1       6.512   1.186  -1.496  1.00  0.00     0.274 HD
ATOM     26  H11 UNL     1       7.896   1.284  -0.545  1.00  0.00     0.274 HD
ENDBRANCH  22  23
ENDBRANCH  21  22
ENDBRANCH  20  21
ENDBRANCH  16  20
ENDBRANCH  13  14
ENDBRANCH  12  13
ENDBRANCH  11  12
ENDBRANCH   1  11
BRANCH   2  27
HETATM   27  C10 UNL     1      -3.991  -0.604   1.080  1.00  0.00     0.085 C 
BRANCH  27  28
HETATM   28  C11 UNL     1      -4.334  -1.774   0.152  1.00  0.00     0.235 C 
BRANCH  28  29
HETATM   29  N5  UNL     1      -5.545  -1.481  -0.601  1.00  0.00    -0.079 N 
ATOM     30  H53 UNL     1      -6.325  -1.239   0.011  1.00  0.00     0.274 HD
ATOM     31  H52 UNL     1      -5.473  -0.600  -1.110  1.00  0.00     0.274 HD
ATOM     32  H51 UNL     1      -5.773  -2.260  -1.219  1.00  0.00     0.274 HD
ENDBRANCH  28  29
ENDBRANCH  27  28
ENDBRANCH   2  27
TORSDOF 11
