REMARK  11 active torsions:
REMARK  status: ('A' for Active; 'I' for Inactive)
REMARK    1  A    between atoms: C1_4  and  C2_5 
REMARK    2  A    between atoms: C2_5  and  C3_6 
REMARK    3  A    between atoms: C3_6  and  N2_7 
REMARK    4  A    between atoms: N2_7  and  C4_10 
REMARK    5  A    between atoms: C4_10  and  C5_11 
REMARK    6  A    between atoms: C5_11  and  N3_12 
REMARK    7  A    between atoms: C8_15  and  N4_16 
REMARK    8  A    between atoms: C10_24  and  C11_25 
REMARK    9  A    between atoms: C11_25  and  C12_26 
REMARK   10  A    between atoms: C12_26  and  C13_27 
REMARK   11  A    between atoms: C13_27  and  N6_28 
ROOT
HETATM    1  N3  UNL     1      -0.346  -0.571  -0.694  1.00  0.00    -0.349 N 
HETATM    2  C6  UNL     1      -0.524  -1.650  -1.605  1.00  0.00     0.128 C 
HETATM    3  C7  UNL     1      -0.347  -2.967  -0.883  1.00  0.00     0.062 C 
HETATM    4  C8  UNL     1      -1.077  -3.082   0.410  1.00  0.00     0.276 C 
HETATM    5  C9  UNL     1      -2.491  -2.666   0.378  1.00  0.00     0.249 C 
HETATM    6  O1  UNL     1      -3.278  -3.588   0.099  1.00  0.00    -0.271 OA
HETATM    7  N5  UNL     1      -3.148  -1.443   0.596  1.00  0.00    -0.346 N 
ATOM      8  H5  UNL     1      -4.145  -1.544   0.789  1.00  0.00     0.163 HD
HETATM    9  C10 UNL     1      -2.679  -0.028   0.602  1.00  0.00     0.176 C 
HETATM   10  C14 UNL     1      -1.186  -0.058   0.367  1.00  0.00     0.242 C 
HETATM   11  O2  UNL     1      -0.491   0.469   1.277  1.00  0.00    -0.271 OA
ENDROOT
BRANCH   1  12
HETATM   12  C5  UNL     1       0.858   0.211  -0.745  1.00  0.00     0.153 C 
BRANCH  12  13
HETATM   13  C4  UNL     1       2.020  -0.302   0.024  1.00  0.00     0.252 C 
BRANCH  13  14
HETATM   14  N2  UNL     1       3.075   0.719  -0.108  1.00  0.00    -0.073 N 
ATOM     15  H22 UNL     1       2.829   1.577   0.387  1.00  0.00     0.277 HD
ATOM     16  H21 UNL     1       3.118   1.091  -1.057  1.00  0.00     0.277 HD
BRANCH  14  17
HETATM   17  C3  UNL     1       4.369   0.205   0.324  1.00  0.00     0.237 C 
BRANCH  17  18
HETATM   18  C2  UNL     1       5.337   1.360   0.373  1.00  0.00     0.071 C 
BRANCH  18  19
HETATM   19  C1  UNL     1       5.498   2.074  -0.903  1.00  0.00     0.054 C 
HETATM   20  N1  UNL     1       5.461   3.360  -0.926  1.00  0.00    -0.411 N 
ATOM     21  H12 UNL     1       5.320   3.868  -0.053  1.00  0.00     0.155 HD
ATOM     22  H11 UNL     1       5.573   3.855  -1.811  1.00  0.00     0.155 HD
ENDBRANCH  18  19
ENDBRANCH  17  18
ENDBRANCH  14  17
ENDBRANCH  13  14
ENDBRANCH  12  13
ENDBRANCH   1  12
BRANCH   9  23
HETATM   23  C11 UNL     1      -3.400   0.585  -0.559  1.00  0.00     0.036 C 
BRANCH  23  24
HETATM   24  C12 UNL     1      -3.175   2.004  -0.862  1.00  0.00     0.030 C 
BRANCH  24  25
HETATM   25  C13 UNL     1      -3.557   3.025   0.137  1.00  0.00     0.230 C 
BRANCH  25  26
HETATM   26  N6  UNL     1      -2.865   2.924   1.371  1.00  0.00    -0.079 N 
ATOM     27  H63 UNL     1      -2.969   1.988   1.762  1.00  0.00     0.274 HD
ATOM     28  H62 UNL     1      -1.857   2.938   1.216  1.00  0.00     0.274 HD
ATOM     29  H61 UNL     1      -3.129   3.628   2.060  1.00  0.00     0.274 HD
ENDBRANCH  25  26
ENDBRANCH  24  25
ENDBRANCH  23  24
ENDBRANCH   9  23
BRANCH   4  30
HETATM   30  N4  UNL     1      -0.937  -4.459   0.886  1.00  0.00    -0.066 N 
ATOM     31  H43 UNL     1      -1.242  -5.148   0.198  1.00  0.00     0.275 HD
ATOM     32  H42 UNL     1       0.036  -4.756   0.954  1.00  0.00     0.275 HD
ATOM     33  H41 UNL     1      -1.437  -4.538   1.772  1.00  0.00     0.275 HD
ENDBRANCH   4  30
TORSDOF 11
