REMARK  12 active torsions:
REMARK  status: ('A' for Active; 'I' for Inactive)
REMARK    1  A    between atoms: N1_1  and  C1_5 
REMARK    2  A    between atoms: C1_5  and  C2_6 
REMARK    3  A    between atoms: C2_6  and  C3_7 
REMARK    4  A    between atoms: C3_7  and  C4_8 
REMARK    5  A    between atoms: C4_8  and  C5_9 
REMARK    6  A    between atoms: C5_9  and  C6_10 
REMARK    7  A    between atoms: C6_10  and  N2_11 
REMARK    8  A    between atoms: N2_11  and  C7_13 
REMARK    9  A    between atoms: C9_20  and  N5_21 
REMARK   10  A    between atoms: N5_21  and  C10_23 
REMARK   11  A    between atoms: C10_23  and  C11_24 
REMARK   12  A    between atoms: C11_24  and  N6_25 
ROOT
HETATM    1  C7  UNL     1      -0.140  -0.057  -0.248  1.00  0.00     0.696 A 
HETATM    2  N3  UNL     1       0.074   0.399  -1.488  1.00  0.00    -0.140 N 
ATOM      3  H3  UNL     1      -0.727   0.493  -2.113  1.00  0.00     0.189 HD
HETATM    4  C8  UNL     1       1.288   0.740  -1.954  1.00  0.00     0.352 A 
HETATM    5  O1  UNL     1       1.509   1.170  -3.114  1.00  0.00    -0.246 OA
HETATM    6  N4  UNL     1       2.319   0.600  -1.092  1.00  0.00    -0.140 N 
ATOM      7  H4  UNL     1       3.258   0.847  -1.404  1.00  0.00     0.189 HD
HETATM    8  C9  UNL     1       2.150   0.147   0.160  1.00  0.00     0.696 A 
HETATM    9  N9  UNL     1       0.919  -0.185   0.590  1.00  0.00    -0.022 N 
ATOM     10  H9  UNL     1       0.783  -0.531   1.540  1.00  0.00     0.203 HD
ENDROOT
BRANCH   1  11
HETATM   11  N2  UNL     1      -1.283  -0.387   0.216  1.00  0.00    -0.225 N 
ATOM     12  H2  UNL     1      -1.330  -0.723   1.178  1.00  0.00     0.177 HD
BRANCH  11  13
HETATM   13  C6  UNL     1      -2.515  -0.314  -0.538  1.00  0.00     0.138 C 
BRANCH  13  14
HETATM   14  C5  UNL     1      -3.136   1.049  -0.493  1.00  0.00     0.020 C 
BRANCH  14  15
HETATM   15  C4  UNL     1      -4.403   1.179  -1.252  1.00  0.00     0.002 C 
BRANCH  15  16
HETATM   16  C3  UNL     1      -5.506   0.276  -0.802  1.00  0.00     0.002 C 
BRANCH  16  17
HETATM   17  C2  UNL     1      -5.836   0.561   0.629  1.00  0.00     0.027 C 
BRANCH  17  18
HETATM   18  C1  UNL     1      -6.955  -0.328   1.149  1.00  0.00     0.229 C 
BRANCH  18  19
HETATM   19  N1  UNL     1      -6.556  -1.707   1.047  1.00  0.00    -0.079 N 
ATOM     20  H13 UNL     1      -6.272  -1.958   0.100  1.00  0.00     0.274 HD
ATOM     21  H12 UNL     1      -5.669  -1.888   1.517  1.00  0.00     0.274 HD
ATOM     22  H11 UNL     1      -7.307  -2.303   1.396  1.00  0.00     0.274 HD
ENDBRANCH  18  19
ENDBRANCH  17  18
ENDBRANCH  16  17
ENDBRANCH  15  16
ENDBRANCH  14  15
ENDBRANCH  13  14
ENDBRANCH  11  13
ENDBRANCH   1  11
BRANCH   8  23
HETATM   23  N5  UNL     1       3.152   0.024   0.961  1.00  0.00    -0.224 N 
ATOM     24  H5  UNL     1       2.987  -0.323   1.906  1.00  0.00     0.177 HD
BRANCH  23  25
HETATM   25  C10 UNL     1       4.510   0.363   0.566  1.00  0.00     0.157 C 
BRANCH  25  26
HETATM   26  C11 UNL     1       5.483  -0.076   1.644  1.00  0.00     0.142 C 
BRANCH  26  27
HETATM   27  N6  UNL     1       6.818   0.277   1.216  1.00  0.00    -0.365 N 
HETATM   28  C12 UNL     1       7.506  -0.557   0.526  1.00  0.00     0.197 C 
HETATM   29  N7  UNL     1       6.943  -1.816   0.192  1.00  0.00    -0.067 NA
HETATM   30  N8  UNL     1       8.827  -0.230   0.092  1.00  0.00    -0.067 NA
ATOM     31  H6  UNL     1       7.211   1.186   1.462  1.00  0.00     0.161 HD
ENDBRANCH  26  27
ENDBRANCH  25  26
ENDBRANCH  23  25
ENDBRANCH   8  23
TORSDOF 12
