REMARK  3 active torsions:
REMARK  status: ('A' for Active; 'I' for Inactive)
REMARK    1  A    between atoms: C2_5  and  N2_6 
REMARK    2  A    between atoms: C8_13  and  N3_14 
REMARK    3  A    between atoms: N4_17  and  C11_18 
ROOT
HETATM    1  O1  UNL     1      -1.284  -1.688  -3.488  1.00  0.00    -0.247 OA
HETATM    2  C1  UNL     1      -1.440  -1.210  -2.315  1.00  0.00     0.327 A 
HETATM    3  N1  UNL     1      -2.656  -1.006  -1.788  1.00  0.00    -0.294 N 
ATOM      4  H1  UNL     1      -3.483  -1.238  -2.338  1.00  0.00     0.172 HD
HETATM    5  C2  UNL     1      -2.810  -0.495  -0.532  1.00  0.00     0.110 A 
HETATM    6  C7  UNL     1      -1.675  -0.199   0.167  1.00  0.00     0.097 A 
HETATM    7  C8  UNL     1      -0.413  -0.411  -0.383  1.00  0.00     0.110 A 
HETATM    8  N7  UNL     1      -0.328  -0.915  -1.617  1.00  0.00    -0.294 N 
ATOM      9  H7  UNL     1       0.588  -1.078  -2.034  1.00  0.00     0.172 HD
ENDROOT
BRANCH   7  10
HETATM   10  N3  UNL     1       0.767  -0.087   0.377  1.00  0.00    -0.364 N 
HETATM   11  C9  UNL     1       1.340  -1.079   1.264  1.00  0.00     0.145 C 
HETATM   12  C10 UNL     1       2.781  -1.273   0.850  1.00  0.00     0.161 C 
HETATM   13  N4  UNL     1       3.381   0.038   0.708  1.00  0.00    -0.214 N 
HETATM   14  C15 UNL     1       2.634   1.242   1.011  1.00  0.00     0.161 C 
HETATM   15  C16 UNL     1       1.340   1.221   0.224  1.00  0.00     0.145 C 
BRANCH  13  16
HETATM   16  C11 UNL     1       4.716   0.128   0.268  1.00  0.00     0.679 A 
HETATM   17  N5  UNL     1       5.260   1.357   0.126  1.00  0.00    -0.202 N 
HETATM   18  C12 UNL     1       6.516   1.505  -0.286  1.00  0.00     0.107 A 
ATOM     19  H5  UNL     1       4.700   2.183   0.338  1.00  0.00     0.183 HD
HETATM   20  C13 UNL     1       7.263   0.380  -0.568  1.00  0.00     0.035 A 
HETATM   21  C14 UNL     1       6.684  -0.876  -0.415  1.00  0.00     0.107 A 
HETATM   22  N6  UNL     1       5.419  -0.993   0.000  1.00  0.00    -0.202 N 
ATOM     23  H6  UNL     1       4.992  -1.913   0.112  1.00  0.00     0.183 HD
ENDBRANCH  13  16
ENDBRANCH   7  10
BRANCH   5  24
HETATM   24  N2  UNL     1      -4.090  -0.289   0.023  1.00  0.00    -0.363 N 
HETATM   25  C3  UNL     1      -4.260   0.375   1.274  1.00  0.00     0.150 C 
HETATM   26  C4  UNL     1      -5.450   1.333   1.119  1.00  0.00     0.187 C 
HETATM   27  O2  UNL     1      -6.578   0.712   0.650  1.00  0.00    -0.388 OA
HETATM   28  C5  UNL     1      -6.407   0.150  -0.611  1.00  0.00     0.187 C 
HETATM   29  C6  UNL     1      -5.243  -0.775  -0.690  1.00  0.00     0.150 C 
ENDBRANCH   5  24
TORSDOF 3
