REMARK  5 active torsions:
REMARK  status: ('A' for Active; 'I' for Inactive)
REMARK    1  A    between atoms: C3_4  and  S1_5 
REMARK    2  A    between atoms: S1_5  and  C4_6 
REMARK    3  A    between atoms: N3_13  and  O1_14 
REMARK    4  A    between atoms: C11_19  and  N4_20 
REMARK    5  A    between atoms: N5_25  and  O4_26 
ROOT
HETATM    1  N1  UNL     1      -1.429  -1.771  -3.075  1.00  0.00    -0.190 NA
HETATM    2  C1  UNL     1      -0.694  -1.434  -2.252  1.00  0.00     0.123 C 
HETATM    3  C2  UNL     1       0.247  -1.034  -1.216  1.00  0.00     0.178 A 
HETATM    4  C3  UNL     1      -0.091  -1.010   0.119  1.00  0.00     0.140 A 
HETATM    5  N3  UNL     1       0.834  -0.637   1.032  1.00  0.00    -0.213 N 
HETATM    6  C8  UNL     1       2.082  -0.286   0.686  1.00  0.00     0.093 A 
HETATM    7  C9  UNL     1       3.035   0.096   1.596  1.00  0.00     0.037 A 
HETATM    8  C10 UNL     1       4.297   0.444   1.163  1.00  0.00     0.038 A 
HETATM    9  C11 UNL     1       4.635   0.419  -0.184  1.00  0.00     0.105 A 
HETATM   10  C12 UNL     1       3.680   0.036  -1.098  1.00  0.00     0.070 A 
HETATM   11  C13 UNL     1       2.421  -0.309  -0.648  1.00  0.00     0.095 A 
HETATM   12  N5  UNL     1       1.503  -0.678  -1.545  1.00  0.00    -0.209 N 
ENDROOT
BRANCH   4  13
HETATM   13  S1  UNL     1      -1.730  -1.452   0.629  1.00  0.00    -0.100 SA
BRANCH  13  14
HETATM   14  C4  UNL     1      -2.833  -0.036   0.698  1.00  0.00     0.081 C 
HETATM   15  C5  UNL     1      -4.206  -0.459   1.129  1.00  0.00     0.044 C 
HETATM   16  C6  UNL     1      -5.135   0.564   0.463  1.00  0.00     0.233 C 
HETATM   17  N2  UNL     1      -4.276   1.402  -0.359  1.00  0.00    -0.074 N 
HETATM   18  C7  UNL     1      -3.108   0.589  -0.650  1.00  0.00     0.247 C 
ATOM     19  H22 UNL     1      -4.737   1.771  -1.191  1.00  0.00     0.277 HD
ATOM     20  H21 UNL     1      -4.054   2.303   0.065  1.00  0.00     0.277 HD
ENDBRANCH  13  14
ENDBRANCH   4  13
BRANCH  12  21
HETATM   21  O4  UNL     1       1.836  -0.705  -2.891  1.00  0.00    -0.281 OA
ATOM     22  H4  UNL     1       2.722  -0.454  -3.123  1.00  0.00     0.245 HD
ENDBRANCH  12  21
BRANCH   5  23
HETATM   23  O1  UNL     1       0.529  -0.603   2.373  1.00  0.00    -0.281 OA
ATOM     24  H1  UNL     1       1.179  -0.341   3.014  1.00  0.00     0.245 HD
ENDBRANCH   5  23
BRANCH   9  25
HETATM   25  N4  UNL     1       5.934   0.779  -0.614  1.00  0.00    -0.116 N 
HETATM   26  O2  UNL     1       6.189   0.741  -1.831  1.00  0.00    -0.532 OA
HETATM   27  O3  UNL     1       6.915   1.164   0.242  1.00  0.00    -0.532 OA
ENDBRANCH   9  25
TORSDOF 5
