REMARK  4 active torsions:
REMARK  status: ('A' for Active; 'I' for Inactive)
REMARK    1  A    between atoms: C2_2  and  C3_3 
REMARK    2  A    between atoms: C3_3  and  N1_4 
REMARK    3  A    between atoms: C6_12  and  C7_13 
REMARK    4  A    between atoms: C11_19  and  N5_20 
ROOT
HETATM    1  N1  UNL     1       2.636  -0.578   0.041  1.00  0.00    -0.284 N 
HETATM    2  C4  UNL     1       2.854  -1.765  -0.545  1.00  0.00     0.196 A 
HETATM    3  S1  UNL     1       4.241  -2.574  -0.280  1.00  0.00    -0.039 SA
HETATM    4  N2  UNL     1       1.918  -2.284  -1.353  1.00  0.00    -0.275 N 
ATOM      5  H2  UNL     1       2.074  -3.186  -1.803  1.00  0.00     0.189 HD
HETATM    6  N3  UNL     1       0.820  -1.639  -1.560  1.00  0.00    -0.293 N 
ATOM      7  H3  UNL     1       0.127  -2.058  -2.180  1.00  0.00     0.187 HD
HETATM    8  C5  UNL     1       0.534  -0.446  -1.007  1.00  0.00     0.117 A 
HETATM    9  C6  UNL     1      -0.664   0.242  -1.365  1.00  0.00     0.053 C 
HETATM   10  C12 UNL     1       1.503   0.106  -0.161  1.00  0.00     0.278 A 
HETATM   11  O3  UNL     1       1.260   1.212   0.363  1.00  0.00    -0.265 OA
ENDROOT
BRANCH   9  12
HETATM   12  C7  UNL     1      -1.930   0.359  -0.998  1.00  0.00     0.035 A 
HETATM   13  C8  UNL     1      -2.695   1.259  -1.789  1.00  0.00     0.026 A 
HETATM   14  C9  UNL     1      -2.336   2.003  -2.845  1.00  0.00     0.034 C 
HETATM   15  S2  UNL     1      -4.234   1.207  -1.103  1.00  0.00    -0.011 SA
HETATM   16  N4  UNL     1      -3.968   0.119   0.120  1.00  0.00    -0.302 N 
HETATM   17  C10 UNL     1      -4.984  -0.346   1.097  1.00  0.00     0.167 C 
HETATM   18  C11 UNL     1      -2.652  -0.227   0.011  1.00  0.00     0.193 A 
BRANCH  18  19
HETATM   19  N5  UNL     1      -2.196  -1.095   0.888  1.00  0.00    -0.096 N 
HETATM   20  O1  UNL     1      -0.991  -1.641   1.064  1.00  0.00    -0.530 OA
HETATM   21  O2  UNL     1      -3.074  -1.613   1.881  1.00  0.00    -0.530 OA
ENDBRANCH  18  19
ENDBRANCH   9  12
BRANCH   1  22
HETATM   22  C3  UNL     1       3.661  -0.037   0.910  1.00  0.00     0.161 C 
BRANCH  22  23
HETATM   23  C2  UNL     1       4.635   0.805   0.195  1.00  0.00    -0.017 C 
HETATM   24  C1  UNL     1       4.800   2.074   0.521  1.00  0.00     0.008 C 
ENDBRANCH  22  23
ENDBRANCH   1  22
TORSDOF 4
