REMARK  3 active torsions:
REMARK  status: ('A' for Active; 'I' for Inactive)
REMARK    1  A    between atoms: C4_9  and  N3_10 
REMARK    2  A    between atoms: C12_22  and  N5_23 
REMARK    3  A    between atoms: C15_26  and  N6_27 
ROOT
HETATM    1  O1  UNL     1      -3.834  -1.225   2.259  1.00  0.00    -0.266 OA
HETATM    2  C1  UNL     1      -2.870  -0.907   1.518  1.00  0.00     0.275 C 
HETATM    3  N1  UNL     1      -1.621  -1.223   1.955  1.00  0.00    -0.320 N 
ATOM      4  H1  UNL     1      -1.583  -1.792   2.801  1.00  0.00     0.169 HD
HETATM    5  C2  UNL     1      -0.430  -0.891   1.429  1.00  0.00     0.065 A 
HETATM    6  C3  UNL     1       0.619  -1.364   2.196  1.00  0.00     0.120 A 
HETATM    7  N2  UNL     1       1.890  -1.128   1.825  1.00  0.00    -0.350 N 
ATOM      8  H2  UNL     1       2.641  -1.490   2.412  1.00  0.00     0.166 HD
HETATM    9  C4  UNL     1       2.220  -0.439   0.719  1.00  0.00     0.104 A 
HETATM   10  C9  UNL     1       1.200   0.058  -0.085  1.00  0.00     0.066 A 
HETATM   11  C10 UNL     1      -0.106  -0.180   0.288  1.00  0.00     0.048 A 
HETATM   12  C11 UNL     1      -1.027   0.373  -0.605  1.00  0.00     0.213 C 
HETATM   13  O2  UNL     1      -0.513   0.931  -1.589  1.00  0.00    -0.285 OA
HETATM   14  C12 UNL     1      -2.418   0.384  -0.546  1.00  0.00     0.114 C 
HETATM   15  C15 UNL     1      -3.228  -0.273   0.347  1.00  0.00     0.130 C 
ENDROOT
BRANCH   9  16
HETATM   16  N3  UNL     1       3.575  -0.209   0.359  1.00  0.00    -0.364 N 
HETATM   17  C5  UNL     1       4.607  -0.743   1.224  1.00  0.00     0.152 C 
HETATM   18  C6  UNL     1       5.695  -1.314   0.349  1.00  0.00     0.252 C 
HETATM   19  N4  UNL     1       6.237  -0.353  -0.558  1.00  0.00    -0.072 N 
HETATM   20  C7  UNL     1       5.437   0.826  -0.727  1.00  0.00     0.252 C 
ATOM     21  H42 UNL     1       7.186  -0.101  -0.282  1.00  0.00     0.277 HD
ATOM     22  H41 UNL     1       6.426  -0.786  -1.462  1.00  0.00     0.277 HD
HETATM   23  C8  UNL     1       3.963   0.518  -0.807  1.00  0.00     0.152 C 
ENDBRANCH   9  16
BRANCH  14  24
HETATM   24  N5  UNL     1      -3.115   1.148  -1.498  1.00  0.00    -0.372 N 
HETATM   25  C13 UNL     1      -3.810   1.571  -2.681  1.00  0.00     0.143 A 
HETATM   26  C14 UNL     1      -3.635   2.586  -1.613  1.00  0.00     0.143 A 
ENDBRANCH  14  24
BRANCH  15  27
HETATM   27  N6  UNL     1      -4.598  -0.278  -0.019  1.00  0.00    -0.371 N 
HETATM   28  C16 UNL     1      -5.969   0.186  -0.088  1.00  0.00     0.143 A 
HETATM   29  C17 UNL     1      -5.618  -1.079  -0.798  1.00  0.00     0.143 A 
ENDBRANCH  15  27
TORSDOF 3
