REMARK  0 active torsions:
REMARK  status: ('A' for Active; 'I' for Inactive)
ROOT
HETATM    1  C1  UNL     1      -4.111  -2.028   0.575  1.00  0.00     0.019 C 
HETATM    2  C2  UNL     1      -3.109  -1.380   0.401  1.00  0.00    -0.060 C 
HETATM    3  C3  UNL     1      -1.892  -0.609   0.213  1.00  0.00     0.086 A 
HETATM    4  C4  UNL     1      -1.919   0.759   0.031  1.00  0.00     0.040 A 
HETATM    5  C5  UNL     1      -0.751   1.475  -0.147  1.00  0.00     0.016 A 
HETATM    6  C6  UNL     1       0.477   0.840  -0.148  1.00  0.00    -0.009 A 
HETATM    7  C7  UNL     1       1.663   1.537  -0.324  1.00  0.00     0.013 A 
HETATM    8  C8  UNL     1       2.870   0.868  -0.319  1.00  0.00     0.001 A 
HETATM    9  C9  UNL     1       2.892  -0.499  -0.137  1.00  0.00     0.002 A 
HETATM   10  C10 UNL     1       1.693  -1.175   0.037  1.00  0.00     0.030 A 
HETATM   11  C11 UNL     1       0.470  -0.524   0.036  1.00  0.00     0.043 A 
HETATM   12  N1  UNL     1      -0.688  -1.202   0.208  1.00  0.00    -0.349 N 
ATOM     13  H1  UNL     1      -0.644  -2.212   0.340  1.00  0.00     0.167 HD
ENDROOT
TORSDOF 0
