REMARK  0 active torsions:
REMARK  status: ('A' for Active; 'I' for Inactive)
ROOT
HETATM    1  C1  UNL     1      -3.155  -1.383   0.477  1.00  0.00     0.051 C 
HETATM    2  C2  UNL     1      -2.013  -0.726   0.364  1.00  0.00     0.066 A 
HETATM    3  C3  UNL     1      -2.025   0.742   0.277  1.00  0.00     0.037 A 
HETATM    4  C4  UNL     1      -0.906   1.436   0.163  1.00  0.00     0.017 A 
HETATM    5  C5  UNL     1       0.391   0.756   0.120  1.00  0.00    -0.002 A 
HETATM    6  C6  UNL     1       1.570   1.465   0.001  1.00  0.00     0.014 A 
HETATM    7  C7  UNL     1       2.772   0.782  -0.036  1.00  0.00     0.001 A 
HETATM    8  C8  UNL     1       2.787  -0.579   0.044  1.00  0.00     0.003 A 
HETATM    9  C9  UNL     1       1.603  -1.255   0.161  1.00  0.00     0.038 A 
HETATM   10  C10 UNL     1       0.363  -0.619   0.203  1.00  0.00     0.086 A 
HETATM   11  O1  UNL     1      -0.796  -1.370   0.323  1.00  0.00    -0.311 OA
ENDROOT
TORSDOF 0
