REMARK  0 active torsions:
REMARK  status: ('A' for Active; 'I' for Inactive)
ROOT
HETATM    1  C1  UNL     1      -1.830   2.826  -0.648  1.00  0.00     0.018 C 
HETATM    2  C2  UNL     1      -0.990   1.973  -0.438  1.00  0.00    -0.077 C 
HETATM    3  C3  UNL     1      -0.006   0.955  -0.171  1.00  0.00     0.029 A 
HETATM    4  C4  UNL     1       1.340   1.267  -0.104  1.00  0.00     0.022 A 
HETATM    5  C5  UNL     1       2.293   0.302   0.151  1.00  0.00     0.004 A 
HETATM    6  C6  UNL     1       1.875  -0.999   0.341  1.00  0.00     0.038 A 
HETATM    7  C7  UNL     1       0.537  -1.368   0.285  1.00  0.00     0.086 A 
HETATM    8  O1  UNL     1      -0.112  -2.476   0.420  1.00  0.00    -0.322 OA
HETATM    9  C8  UNL     1      -1.406  -2.317   0.276  1.00  0.00     0.143 A 
HETATM   10  C9  UNL     1      -1.610  -0.958   0.019  1.00  0.00     0.040 A 
HETATM   11  C10 UNL     1      -0.379  -0.358   0.025  1.00  0.00     0.018 A 
ENDROOT
TORSDOF 0
