REMARK  4 active torsions:
REMARK  status: ('A' for Active; 'I' for Inactive)
REMARK    1  A    between atoms: C8_10  and  O3_11 
REMARK    2  A    between atoms: C8_10  and  S1_13 
REMARK    3  A    between atoms: S1_13  and  C9_16 
REMARK    4  A    between atoms: C9_16  and  C10_17 
ROOT
HETATM    1  O1  UNL     1      -1.372  -0.867   2.136  1.00  0.00    -0.285 OA
HETATM    2  C1  UNL     1      -1.775  -0.757   0.966  1.00  0.00     0.240 C 
HETATM    3  C2  UNL     1      -2.949  -0.008   0.558  1.00  0.00     0.050 A 
HETATM    4  C3  UNL     1      -3.840   0.835   1.181  1.00  0.00     0.018 A 
HETATM    5  C4  UNL     1      -4.887   1.406   0.489  1.00  0.00     0.001 A 
HETATM    6  C5  UNL     1      -5.052   1.132  -0.849  1.00  0.00     0.003 A 
HETATM    7  C6  UNL     1      -4.177   0.293  -1.499  1.00  0.00     0.038 A 
HETATM    8  C7  UNL     1      -3.137  -0.271  -0.800  1.00  0.00     0.088 A 
HETATM    9  O2  UNL     1      -2.152  -1.125  -1.224  1.00  0.00    -0.293 OA
HETATM   10  C8  UNL     1      -1.176  -1.338  -0.226  1.00  0.00     0.343 C 
ENDROOT
BRANCH  10  11
HETATM   11  O3  UNL     1      -1.040  -2.732  -0.088  1.00  0.00    -0.347 OA
ATOM     12  H3  UNL     1      -0.649  -3.111  -0.866  1.00  0.00     0.214 HD
ENDBRANCH  10  11
BRANCH  10  13
HETATM   13  S1  UNL     1       0.371  -0.602  -0.675  1.00  0.00     0.216 S 
HETATM   14  O4  UNL     1       0.117   0.818  -1.036  1.00  0.00    -0.221 OA
HETATM   15  O5  UNL     1       0.884  -1.309  -1.897  1.00  0.00    -0.221 OA
BRANCH  13  16
HETATM   16  C9  UNL     1       1.578  -0.768   0.607  1.00  0.00     0.185 C 
BRANCH  16  17
HETATM   17  C10 UNL     1       2.873  -0.160   0.246  1.00  0.00    -0.044 A 
HETATM   18  C11 UNL     1       3.872  -0.884  -0.400  1.00  0.00     0.008 A 
HETATM   19  C12 UNL     1       5.079  -0.310  -0.733  1.00  0.00     0.001 A 
HETATM   20  C13 UNL     1       5.292   1.011  -0.417  1.00  0.00     0.000 A 
HETATM   21  C14 UNL     1       4.302   1.735   0.225  1.00  0.00     0.001 A 
HETATM   22  C15 UNL     1       3.088   1.178   0.567  1.00  0.00     0.008 A 
ENDBRANCH  16  17
ENDBRANCH  13  16
ENDBRANCH  10  13
TORSDOF 4
