REMARK  6 active torsions:
REMARK  status: ('A' for Active; 'I' for Inactive)
REMARK    1  A    between atoms: N1_2  and  C1_4 
REMARK    2  A    between atoms: C6_9  and  O3_10 
REMARK    3  A    between atoms: C7_12  and  C8_13 
REMARK    4  A    between atoms: C13_18  and  C14_19 
REMARK    5  A    between atoms: C14_19  and  O4_20 
REMARK    6  A    between atoms: N2_22  and  O5_23 
ROOT
HETATM    1  C1  UNL     1       4.016   0.450  -0.866  1.00  0.00     0.105 A 
HETATM    2  C2  UNL     1       4.358   0.687   0.455  1.00  0.00     0.037 A 
HETATM    3  C3  UNL     1       3.438   0.586   1.467  1.00  0.00     0.016 A 
HETATM    4  C4  UNL     1       2.143   0.244   1.184  1.00  0.00    -0.004 A 
HETATM    5  C5  UNL     1       1.179   0.130   2.180  1.00  0.00     0.052 A 
HETATM    6  C6  UNL     1      -0.103  -0.218   1.823  1.00  0.00     0.096 A 
HETATM    7  C7  UNL     1      -0.486  -0.463   0.517  1.00  0.00     0.107 A 
HETATM    8  N2  UNL     1       0.476  -0.343  -0.416  1.00  0.00    -0.221 N 
HETATM    9  C15 UNL     1       1.753  -0.001  -0.106  1.00  0.00     0.075 A 
HETATM   10  C16 UNL     1       2.704   0.108  -1.109  1.00  0.00     0.069 A 
ENDROOT
BRANCH   7  11
HETATM   11  C8  UNL     1      -1.848  -0.831   0.158  1.00  0.00     0.004 A 
HETATM   12  C9  UNL     1      -2.306  -2.132   0.098  1.00  0.00     0.014 A 
HETATM   13  C10 UNL     1      -3.628  -2.420  -0.254  1.00  0.00     0.001 A 
HETATM   14  C11 UNL     1      -4.506  -1.398  -0.550  1.00  0.00     0.001 A 
HETATM   15  C12 UNL     1      -4.030  -0.101  -0.485  1.00  0.00     0.010 A 
HETATM   16  C13 UNL     1      -2.725   0.183  -0.137  1.00  0.00    -0.022 A 
BRANCH  16  17
HETATM   17  C14 UNL     1      -2.239   1.582  -0.074  1.00  0.00     0.203 C 
BRANCH  17  18
HETATM   18  O4  UNL     1      -3.277   2.471  -0.408  1.00  0.00    -0.396 OA
ATOM     19  H4  UNL     1      -2.966   3.368  -0.368  1.00  0.00     0.209 HD
ENDBRANCH  17  18
ENDBRANCH  16  17
ENDBRANCH   7  11
BRANCH   6  20
HETATM   20  O3  UNL     1      -1.048  -0.325   2.830  1.00  0.00    -0.358 OA
ATOM     21  H3  UNL     1      -1.933  -0.565   2.583  1.00  0.00     0.217 HD
ENDBRANCH   6  20
BRANCH   8  22
HETATM   22  O5  UNL     1       0.174  -0.569  -1.717  1.00  0.00    -0.282 OA
ATOM     23  H5  UNL     1       0.853  -0.484  -2.376  1.00  0.00     0.245 HD
ENDBRANCH   8  22
BRANCH   1  24
HETATM   24  N1  UNL     1       4.982   0.559  -1.901  1.00  0.00    -0.116 N 
HETATM   25  O1  UNL     1       6.152   0.872  -1.611  1.00  0.00    -0.532 OA
HETATM   26  O2  UNL     1       4.617   0.320  -3.192  1.00  0.00    -0.532 OA
ENDBRANCH   1  24
TORSDOF 6
