REMARK  3 active torsions:
REMARK  status: ('A' for Active; 'I' for Inactive)
REMARK    1  A    between atoms: C1_2  and  C2_3 
REMARK    2  A    between atoms: C2_3  and  N1_4 
REMARK    3  A    between atoms: N1_4  and  C3_6 
ROOT
HETATM    1  C3  UNL     1      -1.976  -0.452  -0.003  1.00  0.00     0.057 A 
HETATM    2  C4  UNL     1      -2.522  -1.557   0.677  1.00  0.00     0.031 A 
HETATM    3  C5  UNL     1      -1.754  -2.631   1.058  1.00  0.00     0.004 A 
HETATM    4  C6  UNL     1      -0.400  -2.631   0.766  1.00  0.00     0.026 A 
HETATM    5  C7  UNL     1       0.144  -1.552   0.100  1.00  0.00     0.093 A 
HETATM    6  C8  UNL     1      -0.631  -0.489  -0.275  1.00  0.00     0.083 A 
HETATM    7  N2  UNL     1      -0.232   0.678  -0.978  1.00  0.00    -0.320 N 
ATOM      8  H2  UNL     1      -0.950   1.065  -1.591  1.00  0.00     0.169 HD
HETATM    9  C9  UNL     1       0.973   1.393  -0.979  1.00  0.00     0.257 C 
HETATM   10  O2  UNL     1       0.998   2.542  -1.488  1.00  0.00    -0.267 OA
HETATM   11  C10 UNL     1       2.270   0.979  -0.448  1.00  0.00     0.054 A 
HETATM   12  C11 UNL     1       3.134   2.071  -0.322  1.00  0.00     0.018 A 
HETATM   13  C12 UNL     1       4.420   1.942   0.158  1.00  0.00     0.001 A 
HETATM   14  C13 UNL     1       4.846   0.682   0.519  1.00  0.00     0.002 A 
HETATM   15  C14 UNL     1       3.995  -0.396   0.396  1.00  0.00     0.025 A 
HETATM   16  C15 UNL     1       2.697  -0.279  -0.086  1.00  0.00     0.080 A 
HETATM   17  S1  UNL     1       1.855  -1.821  -0.129  1.00  0.00     0.210 S 
HETATM   18  O3  UNL     1       2.146  -2.549  -1.411  1.00  0.00    -0.217 OA
HETATM   19  O4  UNL     1       2.382  -2.694   0.992  1.00  0.00    -0.217 OA
ENDROOT
BRANCH   1  20
HETATM   20  N1  UNL     1      -2.819   0.642  -0.349  1.00  0.00    -0.382 N 
ATOM     21  H1  UNL     1      -2.427   1.477  -0.785  1.00  0.00     0.160 HD
BRANCH  20  22
HETATM   22  C2  UNL     1      -4.265   0.556  -0.070  1.00  0.00     0.189 C 
BRANCH  22  23
HETATM   23  C1  UNL     1      -4.956   1.792  -0.511  1.00  0.00     0.250 C 
HETATM   24  O1  UNL     1      -4.295   2.676  -1.019  1.00  0.00    -0.305 OA
ENDBRANCH  22  23
ENDBRANCH  20  22
ENDBRANCH   1  20
TORSDOF 3
