REMARK  4 active torsions:
REMARK  status: ('A' for Active; 'I' for Inactive)
REMARK    1  A    between atoms: N1_1  and  S1_4 
REMARK    2  A    between atoms: S1_4  and  C1_7 
REMARK    3  A    between atoms: C5_13  and  C6_14 
REMARK    4  A    between atoms: C6_14  and  C7_15 
ROOT
HETATM    1  C1  UNL     1       3.668  -0.252  -0.887  1.00  0.00     0.082 A 
HETATM    2  C2  UNL     1       3.355  -1.457  -0.291  1.00  0.00     0.028 A 
HETATM    3  C3  UNL     1       2.155  -1.588   0.343  1.00  0.00     0.034 A 
HETATM    4  C4  UNL     1       1.260  -0.516   0.385  1.00  0.00     0.067 A 
HETATM    5  N2  UNL     1       0.073  -0.619   1.003  1.00  0.00    -0.352 N 
ATOM      6  H2  UNL     1      -0.166  -1.506   1.447  1.00  0.00     0.166 HD
HETATM    7  C5  UNL     1      -0.825   0.395   1.068  1.00  0.00     0.090 A 
HETATM    8  C13 UNL     1      -0.452   1.569   0.454  1.00  0.00     0.311 A 
HETATM    9  O3  UNL     1      -1.202   2.577   0.449  1.00  0.00    -0.258 OA
HETATM   10  O4  UNL     1       0.716   1.699  -0.164  1.00  0.00    -0.272 OA
HETATM   11  C14 UNL     1       1.579   0.686  -0.213  1.00  0.00     0.107 A 
HETATM   12  C15 UNL     1       2.801   0.832  -0.863  1.00  0.00     0.065 A 
ENDROOT
BRANCH   7  13
HETATM   13  C6  UNL     1      -2.094   0.184   1.759  1.00  0.00     0.102 C 
BRANCH  13  14
HETATM   14  C7  UNL     1      -3.268  -0.033   0.915  1.00  0.00    -0.052 A 
HETATM   15  C8  UNL     1      -4.100   1.025   0.636  1.00  0.00     0.007 A 
HETATM   16  C9  UNL     1      -5.239   0.894  -0.171  1.00  0.00     0.001 A 
HETATM   17  C10 UNL     1      -5.544  -0.327  -0.704  1.00  0.00     0.000 A 
HETATM   18  C11 UNL     1      -4.714  -1.389  -0.427  1.00  0.00     0.001 A 
HETATM   19  C12 UNL     1      -3.595  -1.266   0.363  1.00  0.00     0.007 A 
ENDBRANCH  13  14
ENDBRANCH   7  13
BRANCH   1  20
HETATM   20  S1  UNL     1       5.221  -0.139  -1.687  1.00  0.00     0.256 S 
HETATM   21  O1  UNL     1       5.676  -1.499  -2.150  1.00  0.00    -0.201 OA
HETATM   22  O2  UNL     1       5.181   0.846  -2.820  1.00  0.00    -0.201 OA
BRANCH  20  23
HETATM   23  N1  UNL     1       6.366   0.413  -0.513  1.00  0.00    -0.324 N 
ATOM     24  H12 UNL     1       7.192  -0.099  -0.202  1.00  0.00     0.169 HD
ATOM     25  H11 UNL     1       6.058   1.334  -0.200  1.00  0.00     0.169 HD
ENDBRANCH  20  23
ENDBRANCH   1  20
TORSDOF 4
