REMARK  11 active torsions:
REMARK  status: ('A' for Active; 'I' for Inactive)
REMARK    1  A    between atoms: C2_2  and  C3_3 
REMARK    2  A    between atoms: C3_3  and  C4_4 
REMARK    3  A    between atoms: C4_4  and  N1_5 
REMARK    4  A    between atoms: C8_13  and  C9_14 
REMARK       I    between atoms: C9_14  and  N4_16 
REMARK    5  A    between atoms: N4_16  and  C10_18 
REMARK    6  A    between atoms: N6_22  and  C12_23 
REMARK    7  A    between atoms: C12_23  and  C13_24 
REMARK       I    between atoms: C13_24  and  N7_26 
REMARK    8  A    between atoms: C16_29  and  C17_30 
REMARK    9  A    between atoms: C17_30  and  N8_31 
REMARK   10  A    between atoms: C20_34  and  N9_35 
REMARK   11  A    between atoms: N9_35  and  C21_38 
ROOT
HETATM    1  C10 UNL     1      -3.440   0.863  -0.937  1.00  0.00     0.069 A 
HETATM    2  C11 UNL     1      -2.653   0.407   0.083  1.00  0.00     0.138 A 
HETATM    3  N5  UNL     1      -1.502  -0.032  -0.499  1.00  0.00    -0.307 N 
ATOM      4  H5  UNL     1      -0.711  -0.434   0.005  1.00  0.00     0.186 HD
HETATM    5  N6  UNL     1      -1.554   0.134  -1.790  1.00  0.00    -0.293 N 
HETATM    6  C27 UNL     1      -2.717   0.681  -2.143  1.00  0.00     0.141 A 
ENDROOT
BRANCH   5   7
HETATM    7  C12 UNL     1      -0.458  -0.249  -2.696  1.00  0.00     0.251 C 
BRANCH   7   8
HETATM    8  C13 UNL     1       0.426   0.917  -2.847  1.00  0.00     0.239 C 
HETATM    9  O2  UNL     1       0.116   1.712  -3.815  1.00  0.00    -0.271 OA
HETATM   10  N7  UNL     1       1.529   1.179  -2.026  1.00  0.00    -0.351 N 
HETATM   11  C14 UNL     1       2.327   2.380  -2.302  1.00  0.00     0.126 C 
HETATM   12  C26 UNL     1       1.953   0.377  -0.923  1.00  0.00     0.126 C 
HETATM   13  C15 UNL     1       3.708   1.857  -2.634  1.00  0.00     0.026 C 
HETATM   14  C16 UNL     1       4.318   1.135  -1.450  1.00  0.00     0.017 C 
HETATM   15  C25 UNL     1       3.425   0.096  -0.870  1.00  0.00     0.026 C 
BRANCH  14  16
HETATM   16  C17 UNL     1       5.569   0.447  -1.951  1.00  0.00     0.277 C 
BRANCH  16  17
HETATM   17  N8  UNL     1       6.240  -0.277  -0.889  1.00  0.00     0.088 N 
HETATM   18  C18 UNL     1       6.828   0.554   0.115  1.00  0.00     0.274 C 
HETATM   19  C19 UNL     1       7.310  -0.243   1.289  1.00  0.00     0.063 C 
HETATM   20  C20 UNL     1       8.060  -1.469   0.945  1.00  0.00     0.189 C 
HETATM   21  C23 UNL     1       7.593  -2.145  -0.320  1.00  0.00     0.063 C 
HETATM   22  C24 UNL     1       7.275  -1.148  -1.408  1.00  0.00     0.274 C 
BRANCH  20  23
HETATM   23  N9  UNL     1       9.496  -1.325   0.868  1.00  0.00    -0.071 N 
ATOM     24  H92 UNL     1       9.921  -2.173   0.493  1.00  0.00     0.277 HD
ATOM     25  H91 UNL     1       9.751  -0.665   0.133  1.00  0.00     0.277 HD
BRANCH  23  26
HETATM   26  C21 UNL     1      10.108  -0.962   2.099  1.00  0.00     0.228 C 
HETATM   27  C22 UNL     1      10.046  -2.041   3.157  1.00  0.00     0.034 C 
ENDBRANCH  23  26
ENDBRANCH  20  23
ENDBRANCH  16  17
ENDBRANCH  14  16
ENDBRANCH   7   8
ENDBRANCH   5   7
BRANCH   1  28
HETATM   28  N4  UNL     1      -4.723   1.403  -0.832  1.00  0.00    -0.319 N 
HETATM   29  C9  UNL     1      -5.519   1.397   0.334  1.00  0.00     0.276 C 
HETATM   30  O1  UNL     1      -5.042   0.861   1.350  1.00  0.00    -0.266 OA
ATOM     31  H4  UNL     1      -5.118   1.838  -1.666  1.00  0.00     0.169 HD
BRANCH  29  32
HETATM   32  C8  UNL     1      -6.853   2.020   0.272  1.00  0.00     0.145 A 
HETATM   33  N3  UNL     1      -7.150   3.128  -0.482  1.00  0.00    -0.293 N 
HETATM   34  N2  UNL     1      -8.411   3.420  -0.286  1.00  0.00    -0.302 N 
ATOM     35  H3  UNL     1      -6.503   3.634  -1.087  1.00  0.00     0.187 HD
HETATM   36  C7  UNL     1      -8.977   2.563   0.565  1.00  0.00     0.056 A 
ATOM     37  H2  UNL     1      -8.897   4.201  -0.727  1.00  0.00     0.186 HD
HETATM   38  C6  UNL     1     -10.228   2.207   1.340  1.00  0.00     0.081 C 
HETATM   39  C28 UNL     1      -7.969   1.645   0.926  1.00  0.00     0.092 A 
HETATM   40  C5  UNL     1      -9.580   1.473   2.539  1.00  0.00     0.134 C 
HETATM   41  N1  UNL     1      -8.568   0.669   1.766  1.00  0.00    -0.357 N 
BRANCH  41  42
HETATM   42  C4  UNL     1      -8.452  -0.709   1.909  1.00  0.00     0.064 C 
BRANCH  42  43
HETATM   43  C3  UNL     1      -7.543  -1.524   1.054  1.00  0.00     0.044 C 
BRANCH  43  44
HETATM   44  C2  UNL     1      -7.741  -3.036   1.397  1.00  0.00     0.001 C 
HETATM   45  C1  UNL     1      -9.168  -3.433   1.129  1.00  0.00     0.005 C 
ENDBRANCH  43  44
ENDBRANCH  42  43
ENDBRANCH  41  42
ENDBRANCH  29  32
ENDBRANCH   1  28
TORSDOF 11
