REMARK  17 active torsions:
REMARK  status: ('A' for Active; 'I' for Inactive)
REMARK    1  A    between atoms: O1_2  and  C2_3 
REMARK    2  A    between atoms: C4_7  and  C5_8 
REMARK    3  A    between atoms: C6_9  and  C7_10 
REMARK    4  A    between atoms: C8_11  and  C9_12 
REMARK    5  A    between atoms: C10_13  and  C11_14 
REMARK    6  A    between atoms: C11_14  and  C12_15 
REMARK    7  A    between atoms: C12_15  and  C13_16 
REMARK    8  A    between atoms: C13_16  and  N2_17 
REMARK    9  A    between atoms: C20_24  and  C21_25 
REMARK       I    between atoms: C21_25  and  N3_27 
REMARK   10  A    between atoms: N3_27  and  C22_29 
REMARK   11  A    between atoms: C22_29  and  C23_30 
REMARK   12  A    between atoms: C23_30  and  C24_31 
REMARK   13  A    between atoms: C24_31  and  C25_32 
REMARK   14  A    between atoms: C25_32  and  C26_33 
REMARK   15  A    between atoms: C26_33  and  N4_34 
REMARK   16  A    between atoms: C27_38  and  C28_39 
REMARK   17  A    between atoms: C28_39  and  O3_40 
ROOT
HETATM    1  N2  UNL     1       2.136   0.616  -0.522  1.00  0.00    -0.360 N 
HETATM    2  C14 UNL     1       2.363   0.102   0.788  1.00  0.00     0.095 A 
HETATM    3  C15 UNL     1       1.180  -0.352   0.988  1.00  0.00    -0.016 A 
HETATM    4  C16 UNL     1       0.111  -1.014   1.740  1.00  0.00     0.048 C 
HETATM    5  C17 UNL     1      -1.259  -0.565   1.353  1.00  0.00     0.032 A 
HETATM    6  C18 UNL     1      -1.830  -0.882   0.033  1.00  0.00     0.029 A 
HETATM    7  C19 UNL     1      -3.335  -0.830  -0.084  1.00  0.00     0.022 C 
HETATM    8  C20 UNL     1      -3.639   0.621  -0.487  1.00  0.00     0.087 C 
HETATM    9  C27 UNL     1      -2.579   1.350   0.200  1.00  0.00     0.058 C 
HETATM   10  C29 UNL     1      -1.349   0.482   0.358  1.00  0.00     0.079 A 
HETATM   11  O4  UNL     1      -0.212   0.982  -0.221  1.00  0.00    -0.350 OA
HETATM   12  C30 UNL     1       0.813   0.099  -0.413  1.00  0.00     0.255 A 
ENDROOT
BRANCH   1  13
HETATM   13  C13 UNL     1       2.957   1.342  -1.483  1.00  0.00     0.125 C 
BRANCH  13  14
HETATM   14  C12 UNL     1       3.223   0.439  -2.663  1.00  0.00     0.023 C 
BRANCH  14  15
HETATM   15  C11 UNL     1       3.958  -0.817  -2.216  1.00  0.00     0.029 C 
BRANCH  15  16
HETATM   16  C10 UNL     1       4.196  -1.678  -3.405  1.00  0.00    -0.018 C 
HETATM   17  C9  UNL     1       5.397  -2.031  -3.809  1.00  0.00     0.061 C 
BRANCH  17  18
HETATM   18  C8  UNL     1       6.569  -1.596  -3.112  1.00  0.00    -0.065 C 
HETATM   19  C7  UNL     1       7.587  -1.236  -2.531  1.00  0.00    -0.010 C 
BRANCH  19  20
HETATM   20  C6  UNL     1       8.775  -0.838  -1.877  1.00  0.00    -0.007 C 
HETATM   21  C5  UNL     1       9.799  -0.514  -1.332  1.00  0.00    -0.027 C 
BRANCH  21  22
HETATM   22  C4  UNL     1      11.050  -0.123  -0.697  1.00  0.00     0.132 A 
HETATM   23  N1  UNL     1      12.090  -0.896  -0.430  1.00  0.00    -0.350 N 
HETATM   24  C3  UNL     1      13.136  -0.393   0.142  1.00  0.00     0.134 A 
ATOM     25  H1  UNL     1      12.067  -1.886  -0.674  1.00  0.00     0.166 HD
HETATM   26  C2  UNL     1      13.121   0.940   0.452  1.00  0.00     0.127 A 
HETATM   27  S1  UNL     1      11.560   1.396  -0.116  1.00  0.00    -0.037 SA
BRANCH  26  28
HETATM   28  O1  UNL     1      14.117   1.719   1.068  1.00  0.00    -0.347 OA
HETATM   29  C1  UNL     1      15.299   1.072   1.425  1.00  0.00     0.211 C 
ENDBRANCH  26  28
ENDBRANCH  21  22
ENDBRANCH  19  20
ENDBRANCH  17  18
ENDBRANCH  15  16
ENDBRANCH  14  15
ENDBRANCH  13  14
ENDBRANCH   1  13
BRANCH   9  30
HETATM   30  C28 UNL     1      -2.928   2.086   1.460  1.00  0.00     0.172 C 
BRANCH  30  31
HETATM   31  O3  UNL     1      -3.433   1.289   2.475  1.00  0.00    -0.400 OA
ATOM     32  H3  UNL     1      -3.654   1.755   3.273  1.00  0.00     0.209 HD
ENDBRANCH  30  31
ENDBRANCH   9  30
BRANCH   8  33
HETATM   33  C21 UNL     1      -5.036   0.914  -0.211  1.00  0.00     0.222 C 
HETATM   34  O2  UNL     1      -5.475   1.811   0.529  1.00  0.00    -0.273 OA
HETATM   35  N3  UNL     1      -5.991   0.082  -0.860  1.00  0.00    -0.361 N 
ATOM     36  H3  UNL     1      -5.663  -0.661  -1.476  1.00  0.00     0.162 HD
BRANCH  35  37
HETATM   37  C22 UNL     1      -7.404   0.259  -0.672  1.00  0.00     0.122 C 
BRANCH  37  38
HETATM   38  C23 UNL     1      -7.894   0.083   0.730  1.00  0.00     0.020 C 
BRANCH  38  39
HETATM   39  C24 UNL     1      -9.400   0.294   0.750  1.00  0.00     0.003 C 
BRANCH  39  40
HETATM   40  C25 UNL     1      -9.883   0.112   2.176  1.00  0.00     0.027 C 
BRANCH  40  41
HETATM   41  C26 UNL     1     -11.390   0.314   2.255  1.00  0.00     0.229 C 
BRANCH  41  42
HETATM   42  N4  UNL     1     -12.077  -0.646   1.410  1.00  0.00    -0.079 N 
ATOM     43  H43 UNL     1     -11.740  -0.614   0.448  1.00  0.00     0.274 HD
ATOM     44  H42 UNL     1     -11.811  -1.605   1.632  1.00  0.00     0.274 HD
ATOM     45  H41 UNL     1     -13.087  -0.511   1.463  1.00  0.00     0.274 HD
ENDBRANCH  41  42
ENDBRANCH  40  41
ENDBRANCH  39  40
ENDBRANCH  38  39
ENDBRANCH  37  38
ENDBRANCH  35  37
ENDBRANCH   8  33
TORSDOF 17
