REMARK  12 active torsions:
REMARK  status: ('A' for Active; 'I' for Inactive)
REMARK    1  A    between atoms: O1_2  and  C2_3 
REMARK    2  A    between atoms: C5_8  and  N2_9 
REMARK    3  A    between atoms: N2_9  and  C6_11 
REMARK    4  A    between atoms: C9_14  and  O2_15 
REMARK    5  A    between atoms: O2_15  and  C10_16 
REMARK    6  A    between atoms: C10_16  and  C11_17 
REMARK    7  A    between atoms: C11_17  and  N3_18 
REMARK    8  A    between atoms: C14_21  and  C15_22 
REMARK    9  A    between atoms: C19_28  and  N5_29 
REMARK   10  A    between atoms: C20_31  and  C21_32 
REMARK   11  A    between atoms: C21_32  and  N6_33 
REMARK   12  A    between atoms: C29_42  and  O3_43 
ROOT
HETATM    1  C2  UNL     1       1.312  -4.421  -0.352  1.00  0.00     0.103 A 
HETATM    2  C3  UNL     1       0.390  -3.412  -0.187  1.00  0.00     0.070 A 
HETATM    3  C4  UNL     1       0.808  -2.080  -0.054  1.00  0.00     0.066 A 
HETATM    4  N1  UNL     1      -0.086  -1.096   0.106  1.00  0.00    -0.191 N 
ATOM      5  H1  UNL     1      -1.085  -1.302   0.134  1.00  0.00     0.184 HD
HETATM    6  C5  UNL     1       0.350   0.153   0.228  1.00  0.00     0.684 A 
HETATM    7  N4  UNL     1       1.670   0.409   0.189  1.00  0.00    -0.175 N 
ATOM      8  H4  UNL     1       1.966   1.380   0.285  1.00  0.00     0.186 HD
HETATM    9  C19 UNL     1       2.626  -0.521   0.033  1.00  0.00     0.133 A 
HETATM   10  C27 UNL     1       2.147  -1.854  -0.097  1.00  0.00     0.039 A 
HETATM   11  C28 UNL     1       3.083  -2.881  -0.264  1.00  0.00     0.057 A 
HETATM   12  C29 UNL     1       2.670  -4.189  -0.395  1.00  0.00     0.102 A 
ENDROOT
BRANCH   6  13
HETATM   13  N2  UNL     1      -0.461   1.142   0.388  1.00  0.00    -0.192 N 
ATOM     14  H2  UNL     1      -0.105   2.094   0.479  1.00  0.00     0.184 HD
BRANCH  13  15
HETATM   15  C6  UNL     1      -1.853   0.887   0.436  1.00  0.00     0.050 A 
HETATM   16  C7  UNL     1      -2.466   0.808   1.666  1.00  0.00     0.033 A 
HETATM   17  C8  UNL     1      -3.813   0.562   1.683  1.00  0.00     0.039 A 
HETATM   18  C9  UNL     1      -4.550   0.396   0.513  1.00  0.00     0.075 A 
HETATM   19  C14 UNL     1      -3.945   0.474  -0.715  1.00  0.00    -0.019 A 
HETATM   20  C18 UNL     1      -2.574   0.724  -0.727  1.00  0.00     0.040 A 
BRANCH  18  21
HETATM   21  O2  UNL     1      -5.933   0.144   0.609  1.00  0.00    -0.349 OA
BRANCH  21  22
HETATM   22  C10 UNL     1      -6.530   0.065   1.894  1.00  0.00     0.206 C 
BRANCH  22  23
HETATM   23  C11 UNL     1      -7.986  -0.219   1.906  1.00  0.00     0.297 C 
BRANCH  23  24
HETATM   24  N3  UNL     1      -8.823   0.734   1.242  1.00  0.00     0.082 N 
HETATM   25  C12 UNL     1      -8.684   0.773  -0.185  1.00  0.00     0.309 C 
HETATM   26  C13 UNL     1     -10.210   0.391   1.533  1.00  0.00     0.309 C 
ENDBRANCH  23  24
ENDBRANCH  22  23
ENDBRANCH  21  22
ENDBRANCH  18  21
BRANCH  19  27
HETATM   27  C15 UNL     1      -4.642   0.326  -1.992  1.00  0.00     0.013 C 
HETATM   28  C16 UNL     1      -3.641   0.194  -3.113  1.00  0.00     0.015 C 
HETATM   29  C17 UNL     1      -5.552   1.482  -2.311  1.00  0.00     0.015 C 
ENDBRANCH  19  27
ENDBRANCH  13  15
ENDBRANCH   6  13
BRANCH   9  30
HETATM   30  N5  UNL     1       3.848  -0.369  -0.011  1.00  0.00    -0.353 N 
HETATM   31  C20 UNL     1       4.891   0.508   0.038  1.00  0.00     0.082 C 
ATOM     32  H5  UNL     1       4.253  -1.296  -0.139  1.00  0.00     0.166 HD
BRANCH  31  33
HETATM   33  C21 UNL     1       4.558   1.961   0.203  1.00  0.00     0.171 C 
BRANCH  33  34
HETATM   34  N6  UNL     1       5.744   2.796   0.236  1.00  0.00    -0.366 N 
HETATM   35  C22 UNL     1       6.576   2.670   1.352  1.00  0.00     0.093 C 
HETATM   36  C23 UNL     1       8.026   2.405   1.075  1.00  0.00     0.317 C 
HETATM   37  N7  UNL     1       8.490   3.006  -0.153  1.00  0.00     0.093 N 
HETATM   38  C24 UNL     1       8.661   4.425  -0.055  1.00  0.00     0.310 C 
HETATM   39  C25 UNL     1       7.654   2.629  -1.278  1.00  0.00     0.317 C 
HETATM   40  C26 UNL     1       6.280   3.156  -1.015  1.00  0.00     0.093 C 
ENDBRANCH  33  34
ENDBRANCH  31  33
ENDBRANCH   9  30
BRANCH   1  41
HETATM   41  O1  UNL     1       0.889  -5.735  -0.483  1.00  0.00    -0.353 OA
HETATM   42  C1  UNL     1      -0.445  -6.154  -0.467  1.00  0.00     0.210 C 
ENDBRANCH   1  41
BRANCH  12  43
HETATM   43  O3  UNL     1       3.567  -5.243  -0.563  1.00  0.00    -0.353 OA
HETATM   44  C30 UNL     1       4.951  -5.081  -0.616  1.00  0.00     0.210 C 
ENDBRANCH  12  43
TORSDOF 12
