REMARK  15 active torsions:
REMARK  status: ('A' for Active; 'I' for Inactive)
REMARK    1  A    between atoms: C3_5  and  N2_6 
REMARK    2  A    between atoms: N2_6  and  C4_8 
REMARK    3  A    between atoms: C9_16  and  N4_17 
REMARK    4  A    between atoms: N4_17  and  C10_19 
REMARK    5  A    between atoms: C12_21  and  C13_22 
REMARK    6  A    between atoms: C16_29  and  C17_30 
REMARK    7  A    between atoms: C17_30  and  O2_31 
REMARK    8  A    between atoms: C17_30  and  N7_33 
REMARK    9  A    between atoms: N7_33  and  C18_35 
REMARK   10  A    between atoms: C18_35  and  C19_36 
REMARK   11  A    between atoms: C19_36  and  C20_37 
REMARK   12  A    between atoms: C20_37  and  N8_38 
REMARK   13  A    between atoms: C23_41  and  O3_42 
REMARK   14  A    between atoms: O3_42  and  C24_43 
REMARK   15  A    between atoms: C24_43  and  C25_44 
ROOT
HETATM    1  C25 UNL     1       8.593  -0.502   1.599  1.00  0.00     0.150 C 
HETATM    2  C26 UNL     1       8.944  -1.893   1.455  1.00  0.00     0.061 C 
HETATM    3  N9  UNL     1       9.225  -3.011   1.329  1.00  0.00    -0.197 NA
ENDROOT
BRANCH   1   4
HETATM    4  C24 UNL     1       9.191   0.405   0.582  1.00  0.00     0.182 C 
BRANCH   4   5
HETATM    5  O3  UNL     1       8.859   0.169  -0.728  1.00  0.00    -0.385 OA
BRANCH   5   6
HETATM    6  C23 UNL     1       7.523   0.300  -0.970  1.00  0.00     0.127 C 
HETATM    7  C22 UNL     1       7.216   1.471  -1.898  1.00  0.00     0.076 C 
HETATM    8  C21 UNL     1       6.119   1.212  -2.861  1.00  0.00     0.060 C 
HETATM    9  N8  UNL     1       5.051   0.399  -2.433  1.00  0.00    -0.393 N 
HETATM   10  C28 UNL     1       5.350  -0.607  -1.453  1.00  0.00     0.124 C 
HETATM   11  C27 UNL     1       6.843  -0.906  -1.570  1.00  0.00     0.052 C 
BRANCH   9  12
HETATM   12  C20 UNL     1       3.809   1.088  -2.176  1.00  0.00     0.123 C 
BRANCH  12  13
HETATM   13  C19 UNL     1       2.725   0.175  -1.718  1.00  0.00     0.039 C 
BRANCH  13  14
HETATM   14  C18 UNL     1       1.428   0.897  -1.439  1.00  0.00     0.123 C 
BRANCH  14  15
HETATM   15  N7  UNL     1       0.421  -0.076  -0.980  1.00  0.00    -0.370 N 
ATOM     16  H7  UNL     1       0.660  -1.065  -0.908  1.00  0.00     0.161 HD
BRANCH  15  17
HETATM   17  C17 UNL     1      -0.855   0.358  -0.646  1.00  0.00     0.152 C 
BRANCH  17  18
HETATM   18  C16 UNL     1      -2.014  -0.336  -0.168  1.00  0.00     0.082 A 
HETATM   19  C2  UNL     1      -2.014  -1.596   0.370  1.00  0.00     0.041 A 
HETATM   20  C1  UNL     1      -0.743  -2.317   0.620  1.00  0.00     0.070 C 
HETATM   21  N1  UNL     1      -3.193  -2.199   0.735  1.00  0.00    -0.195 N 
HETATM   22  C3  UNL     1      -4.386  -1.614   0.597  1.00  0.00     0.680 A 
ATOM     23  H1  UNL     1      -3.156  -3.139   1.130  1.00  0.00     0.184 HD
HETATM   24  N3  UNL     1      -4.391  -0.387   0.077  1.00  0.00    -0.176 N 
HETATM   25  C9  UNL     1      -3.269   0.243  -0.295  1.00  0.00     0.139 A 
ATOM     26  H3  UNL     1      -5.284   0.091  -0.042  1.00  0.00     0.186 HD
BRANCH  22  27
HETATM   27  N2  UNL     1      -5.475  -2.213   0.947  1.00  0.00    -0.221 N 
ATOM     28  H2  UNL     1      -6.341  -1.692   0.807  1.00  0.00     0.178 HD
BRANCH  27  29
HETATM   29  C4  UNL     1      -5.608  -3.515   1.505  1.00  0.00     0.103 C 
HETATM   30  C5  UNL     1      -5.540  -4.644   0.501  1.00  0.00     0.052 C 
HETATM   31  C6  UNL     1      -6.027  -5.914   1.198  1.00  0.00     0.169 C 
HETATM   32  O1  UNL     1      -6.119  -5.756   2.568  1.00  0.00    -0.391 OA
HETATM   33  C7  UNL     1      -7.223  -4.938   2.802  1.00  0.00     0.169 C 
HETATM   34  C8  UNL     1      -6.995  -3.606   2.173  1.00  0.00     0.052 C 
ENDBRANCH  27  29
ENDBRANCH  22  27
BRANCH  25  35
HETATM   35  N4  UNL     1      -3.438   1.545  -0.809  1.00  0.00    -0.326 N 
ATOM     36  H4  UNL     1      -3.339   1.709  -1.811  1.00  0.00     0.169 HD
BRANCH  35  37
HETATM   37  C10 UNL     1      -3.722   2.552  -0.009  1.00  0.00     0.123 A 
HETATM   38  C11 UNL     1      -3.901   3.834  -0.435  1.00  0.00     0.076 A 
HETATM   39  C12 UNL     1      -4.144   4.608   0.685  1.00  0.00     0.033 A 
HETATM   40  N5  UNL     1      -4.107   3.788   1.745  1.00  0.00    -0.303 N 
HETATM   41  N6  UNL     1      -3.855   2.569   1.315  1.00  0.00    -0.285 N 
ATOM     42  H5  UNL     1      -4.250   4.061   2.717  1.00  0.00     0.186 HD
ATOM     43  H6  UNL     1      -3.773   1.749   1.916  1.00  0.00     0.188 HD
BRANCH  39  44
HETATM   44  C13 UNL     1      -4.418   6.075   0.746  1.00  0.00     0.037 A 
HETATM   45  C14 UNL     1      -5.677   6.550   0.094  1.00  0.00     0.011 A 
HETATM   46  C15 UNL     1      -4.377   6.822  -0.565  1.00  0.00     0.011 A 
ENDBRANCH  39  44
ENDBRANCH  35  37
ENDBRANCH  25  35
ENDBRANCH  17  18
BRANCH  17  47
HETATM   47  O2  UNL     1      -1.021   1.640  -0.800  1.00  0.00    -0.346 OA
ATOM     48  H2  UNL     1      -0.253   2.100  -1.117  1.00  0.00     0.219 HD
ENDBRANCH  17  47
ENDBRANCH  15  17
ENDBRANCH  14  15
ENDBRANCH  13  14
ENDBRANCH  12  13
ENDBRANCH   9  12
ENDBRANCH   5   6
ENDBRANCH   4   5
ENDBRANCH   1   4
TORSDOF 15
