REMARK  11 active torsions:
REMARK  status: ('A' for Active; 'I' for Inactive)
REMARK    1  A    between atoms: O1_2  and  C2_3 
REMARK    2  A    between atoms: C4_5  and  C5_6 
REMARK    3  A    between atoms: C5_6  and  C6_7 
REMARK    4  A    between atoms: C6_7  and  N1_8 
REMARK       I    between atoms: N1_8  and  C7_10 
REMARK    5  A    between atoms: C14_21  and  C15_22 
REMARK       I    between atoms: C15_22  and  N4_24 
REMARK       I    between atoms: N4_24  and  C16_26 
REMARK       I    between atoms: C16_26  and  N5_28 
REMARK    6  A    between atoms: N5_28  and  C18_30 
REMARK    7  A    between atoms: C18_30  and  C19_31 
REMARK       I    between atoms: C19_31  and  N6_33 
REMARK    8  A    between atoms: N6_33  and  C20_35 
REMARK    9  A    between atoms: N7_39  and  C24_40 
REMARK   10  A    between atoms: C24_40  and  C25_41 
REMARK   11  A    between atoms: C25_41  and  C26_42 
ROOT
HETATM    1  C2  UNL     1       2.469   0.777  -0.615  1.00  0.00     0.173 A 
HETATM    2  C3  UNL     1       2.186  -0.444  -1.044  1.00  0.00     0.100 A 
HETATM    3  C4  UNL     1       3.225  -1.445  -1.357  1.00  0.00    -0.003 A 
HETATM    4  C9  UNL     1       2.753  -2.602  -1.861  1.00  0.00     0.015 A 
HETATM    5  C10 UNL     1       3.663  -3.693  -2.233  1.00  0.00     0.069 C 
HETATM    6  N2  UNL     1       1.371  -2.866  -2.059  1.00  0.00    -0.349 N 
ATOM      7  H2  UNL     1       1.120  -3.775  -2.447  1.00  0.00     0.167 HD
HETATM    8  C11 UNL     1       0.439  -2.078  -1.798  1.00  0.00     0.084 A 
HETATM    9  C12 UNL     1      -0.999  -2.345  -2.000  1.00  0.00     0.089 C 
HETATM   10  N3  UNL     1       0.805  -0.784  -1.262  1.00  0.00    -0.305 N 
HETATM   11  C13 UNL     1      -0.242   0.136  -1.010  1.00  0.00     0.134 A 
HETATM   12  C14 UNL     1       0.055   1.365  -0.549  1.00  0.00     0.121 A 
HETATM   13  N7  UNL     1       1.406   1.716  -0.344  1.00  0.00    -0.320 N 
ENDROOT
BRANCH  12  14
HETATM   14  C15 UNL     1      -1.088   2.236  -0.318  1.00  0.00     0.277 C 
HETATM   15  O3  UNL     1      -0.944   3.398   0.114  1.00  0.00    -0.265 OA
HETATM   16  N4  UNL     1      -2.439   1.818  -0.570  1.00  0.00    -0.274 N 
HETATM   17  C16 UNL     1      -3.523   2.725  -0.297  1.00  0.00     0.325 C 
ATOM     18  H4  UNL     1      -2.629   0.886  -0.939  1.00  0.00     0.173 HD
HETATM   19  O4  UNL     1      -3.268   3.854   0.152  1.00  0.00    -0.247 OA
HETATM   20  N5  UNL     1      -4.859   2.327  -0.537  1.00  0.00    -0.330 N 
HETATM   21  C17 UNL     1      -5.924   3.273  -0.227  1.00  0.00     0.155 C 
BRANCH  20  22
HETATM   22  C18 UNL     1      -5.240   1.044  -1.085  1.00  0.00     0.229 C 
BRANCH  22  23
HETATM   23  C19 UNL     1      -5.453   0.011  -0.041  1.00  0.00     0.236 C 
HETATM   24  O5  UNL     1      -5.293   0.312   1.159  1.00  0.00    -0.272 OA
HETATM   25  N6  UNL     1      -5.833  -1.287  -0.450  1.00  0.00    -0.352 N 
ATOM     26  H6  UNL     1      -5.951  -1.479  -1.445  1.00  0.00     0.163 HD
BRANCH  25  27
HETATM   27  C20 UNL     1      -6.058  -2.348   0.502  1.00  0.00     0.022 C 
HETATM   28  C21 UNL     1      -7.150  -1.962   1.456  1.00  0.00     0.037 C 
HETATM   29  C22 UNL     1      -6.491  -3.624  -0.208  1.00  0.00     0.037 C 
HETATM   30  C23 UNL     1      -4.806  -2.658   1.305  1.00  0.00     0.037 C 
ENDBRANCH  25  27
ENDBRANCH  22  23
ENDBRANCH  20  22
ENDBRANCH  12  14
BRANCH  13  31
HETATM   31  C24 UNL     1       1.814   2.984   0.167  1.00  0.00     0.132 C 
BRANCH  31  32
HETATM   32  C25 UNL     1       2.399   2.876   1.579  1.00  0.00     0.024 C 
BRANCH  32  33
HETATM   33  C26 UNL     1       2.806   4.278   1.979  1.00  0.00    -0.021 C 
HETATM   34  C27 UNL     1       3.407   4.333   3.364  1.00  0.00     0.009 C 
HETATM   35  C28 UNL     1       1.695   5.263   1.794  1.00  0.00     0.009 C 
ENDBRANCH  32  33
ENDBRANCH  31  32
ENDBRANCH  13  31
BRANCH   1  36
HETATM   36  O1  UNL     1       3.779   1.127  -0.457  1.00  0.00    -0.339 OA
HETATM   37  C1  UNL     1       4.536   2.130  -1.084  1.00  0.00     0.211 C 
ENDBRANCH   1  36
BRANCH   3  38
HETATM   38  C5  UNL     1       4.617  -1.223  -1.021  1.00  0.00     0.062 C 
BRANCH  38  39
HETATM   39  C6  UNL     1       5.062  -1.333   0.398  1.00  0.00     0.127 C 
BRANCH  39  40
HETATM   40  N1  UNL     1       5.076  -2.575   1.075  1.00  0.00    -0.361 N 
HETATM   41  C7  UNL     1       5.970  -3.615   0.705  1.00  0.00     0.213 C 
HETATM   42  C8  UNL     1       5.998  -4.933   1.402  1.00  0.00     0.117 C 
HETATM   43  O2  UNL     1       6.779  -3.461  -0.236  1.00  0.00    -0.274 OA
ATOM     44  H1  UNL     1       4.428  -2.728   1.848  1.00  0.00     0.162 HD
ENDBRANCH  39  40
ENDBRANCH  38  39
ENDBRANCH   3  38
TORSDOF 11
