REMARK  12 active torsions:
REMARK  status: ('A' for Active; 'I' for Inactive)
REMARK    1  A    between atoms: N1_2  and  C3_4 
REMARK    2  A    between atoms: C3_4  and  C4_6 
REMARK    3  A    between atoms: N3_11  and  C7_12 
REMARK    4  A    between atoms: C7_12  and  C8_13 
REMARK    5  A    between atoms: C8_13  and  C9_14 
REMARK    6  A    between atoms: C9_14  and  C10_15 
REMARK    7  A    between atoms: C10_15  and  C11_16 
REMARK    8  A    between atoms: C11_16  and  N4_17 
REMARK    9  A    between atoms: N5_20  and  C14_21 
REMARK   10  A    between atoms: C14_21  and  C15_22 
REMARK   11  A    between atoms: C15_22  and  O1_23 
REMARK   12  A    between atoms: O1_23  and  C16_24 
ROOT
HETATM    1  N4  UNL     1       1.198   0.304   0.833  1.00  0.00     0.094 N 
HETATM    2  C12 UNL     1       0.724  -0.516  -0.297  1.00  0.00     0.293 C 
HETATM    3  C13 UNL     1      -0.624  -0.034  -0.762  1.00  0.00     0.157 C 
HETATM    4  N5  UNL     1      -1.271   0.818   0.198  1.00  0.00    -0.368 N 
HETATM    5  C27 UNL     1      -0.547   1.933   0.662  1.00  0.00     0.093 C 
HETATM    6  C28 UNL     1       0.934   1.697   0.494  1.00  0.00     0.317 C 
ENDROOT
BRANCH   4   7
HETATM    7  C14 UNL     1      -2.660   0.975   0.029  1.00  0.00     0.089 C 
BRANCH   7   8
HETATM    8  C15 UNL     1      -3.497  -0.247   0.307  1.00  0.00     0.220 C 
BRANCH   8   9
HETATM    9  O1  UNL     1      -4.858  -0.026   0.104  1.00  0.00    -0.344 OA
BRANCH   9  10
HETATM   10  C16 UNL     1      -5.866  -0.944   0.288  1.00  0.00     0.096 A 
HETATM   11  C17 UNL     1      -5.566  -2.213   0.719  1.00  0.00     0.039 A 
HETATM   12  C18 UNL     1      -6.584  -3.155   0.912  1.00  0.00     0.004 A 
HETATM   13  C19 UNL     1      -7.872  -2.776   0.660  1.00  0.00     0.016 A 
HETATM   14  C20 UNL     1      -8.214  -1.513   0.226  1.00  0.00     0.021 A 
HETATM   15  C21 UNL     1      -9.516  -1.143  -0.031  1.00  0.00     0.056 A 
HETATM   16  C24 UNL     1      -7.177  -0.599   0.044  1.00  0.00     0.079 A 
HETATM   17  N6  UNL     1     -10.496  -1.937   0.120  1.00  0.00    -0.397 N 
HETATM   18  C22 UNL     1      -9.821   0.141  -0.473  1.00  0.00     0.083 A 
ATOM     19  H62 UNL     1     -10.272  -2.878   0.444  1.00  0.00     0.156 HD
ATOM     20  H61 UNL     1     -11.460  -1.663  -0.070  1.00  0.00     0.156 HD
HETATM   21  C23 UNL     1      -8.782   1.015  -0.642  1.00  0.00     0.045 A 
HETATM   22  C26 UNL     1     -11.086   0.788  -0.818  1.00  0.00     0.256 A 
HETATM   23  N7  UNL     1      -7.526   0.631  -0.386  1.00  0.00    -0.354 N 
HETATM   24  C25 UNL     1      -9.325   2.314  -1.117  1.00  0.00     0.181 A 
ATOM     25  H7  UNL     1      -6.782   1.315  -0.525  1.00  0.00     0.166 HD
HETATM   26  N8  UNL     1     -10.753   2.112  -1.207  1.00  0.00    -0.351 N 
ATOM     27  H8  UNL     1     -11.425   2.819  -1.507  1.00  0.00     0.163 HD
HETATM   28  O2  UNL     1     -12.245   0.296  -0.784  1.00  0.00    -0.267 OA
ENDBRANCH   9  10
ENDBRANCH   8   9
ENDBRANCH   7   8
ENDBRANCH   4   7
BRANCH   1  29
HETATM   29  C11 UNL     1       2.645   0.039   0.926  1.00  0.00     0.273 C 
BRANCH  29  30
HETATM   30  C10 UNL     1       3.242   0.657   2.103  1.00  0.00     0.030 C 
BRANCH  30  31
HETATM   31  C9  UNL     1       4.691   0.451   2.324  1.00  0.00     0.003 C 
BRANCH  31  32
HETATM   32  C8  UNL     1       5.685   0.961   1.398  1.00  0.00     0.020 C 
BRANCH  32  33
HETATM   33  C7  UNL     1       5.898   0.505   0.023  1.00  0.00     0.130 C 
BRANCH  33  34
HETATM   34  N3  UNL     1       6.305  -0.874  -0.128  1.00  0.00    -0.339 N 
HETATM   35  C4  UNL     1       7.604  -1.298  -0.125  1.00  0.00     0.146 A 
HETATM   36  N2  UNL     1       7.643  -2.629  -0.303  1.00  0.00    -0.348 N 
HETATM   37  C5  UNL     1       6.391  -3.086  -0.423  1.00  0.00     0.107 A 
ATOM     38  H2  UNL     1       8.489  -3.198  -0.341  1.00  0.00     0.167 HD
HETATM   39  C6  UNL     1       5.582  -1.979  -0.312  1.00  0.00     0.109 A 
BRANCH  35  40
HETATM   40  C3  UNL     1       8.803  -0.506   0.031  1.00  0.00     0.142 C 
HETATM   41  S1  UNL     1       9.463  -0.385   1.524  1.00  0.00    -0.057 SA
BRANCH  40  42
HETATM   42  N1  UNL     1       9.446   0.158  -1.050  1.00  0.00    -0.378 N 
HETATM   43  C1  UNL     1       8.975   0.109  -2.422  1.00  0.00     0.150 C 
HETATM   44  C2  UNL     1      10.646   0.941  -0.810  1.00  0.00     0.150 C 
ENDBRANCH  40  42
ENDBRANCH  35  40
ENDBRANCH  33  34
ENDBRANCH  32  33
ENDBRANCH  31  32
ENDBRANCH  30  31
ENDBRANCH  29  30
ENDBRANCH   1  29
TORSDOF 12
