REMARK  15 active torsions:
REMARK  status: ('A' for Active; 'I' for Inactive)
REMARK    1  A    between atoms: C2_2  and  N1_3 
REMARK    2  A    between atoms: N1_3  and  C3_4 
REMARK       I    between atoms: N1_3  and  C5_6 
REMARK    3  A    between atoms: C5_6  and  C6_8 
REMARK    4  A    between atoms: C6_8  and  S1_9 
REMARK    5  A    between atoms: S1_9  and  C7_10 
REMARK    6  A    between atoms: C9_14  and  N3_15 
REMARK    7  A    between atoms: N3_15  and  C10_17 
REMARK    8  A    between atoms: C10_17  and  N4_19 
REMARK    9  A    between atoms: N4_19  and  C11_20 
REMARK   10  A    between atoms: N4_19  and  C13_24 
REMARK   11  A    between atoms: C11_20  and  C12_21 
REMARK   12  A    between atoms: C12_21  and  O2_22 
REMARK   13  A    between atoms: C13_24  and  C14_25 
REMARK       I    between atoms: C14_25  and  N5_27 
REMARK   14  A    between atoms: N5_27  and  C15_28 
REMARK   15  A    between atoms: C21_34  and  N6_35 
ROOT
HETATM    1  C7  UNL     1       3.349  -1.558  -1.615  1.00  0.00     0.146 A 
HETATM    2  N2  UNL     1       2.305  -2.270  -2.001  1.00  0.00    -0.344 N 
ATOM      3  H2  UNL     1       2.464  -3.040  -2.650  1.00  0.00     0.167 HD
HETATM    4  C8  UNL     1       1.065  -2.044  -1.596  1.00  0.00     0.123 A 
HETATM    5  C9  UNL     1       0.793  -0.961  -0.673  1.00  0.00     0.094 A 
HETATM    6  C21 UNL     1       1.922  -0.259  -0.330  1.00  0.00     0.134 A 
HETATM    7  N7  UNL     1       3.169  -0.565  -0.799  1.00  0.00    -0.321 N 
ATOM      8  H7  UNL     1       3.969  -0.005  -0.504  1.00  0.00     0.169 HD
ENDROOT
BRANCH   5   9
HETATM    9  N3  UNL     1      -0.408  -0.565  -0.159  1.00  0.00    -0.329 N 
ATOM     10  H3  UNL     1      -0.411   0.396   0.182  1.00  0.00     0.168 HD
BRANCH   9  11
HETATM   11  C10 UNL     1      -1.672  -1.237  -0.004  1.00  0.00     0.175 C 
HETATM   12  S2  UNL     1      -1.967  -2.751  -0.423  1.00  0.00    -0.041 SA
BRANCH  11  13
HETATM   13  N4  UNL     1      -2.665  -0.425   0.645  1.00  0.00    -0.346 N 
BRANCH  13  14
HETATM   14  C11 UNL     1      -2.514   0.866   1.157  1.00  0.00     0.151 C 
BRANCH  14  15
HETATM   15  C12 UNL     1      -2.826   0.870   2.665  1.00  0.00     0.183 C 
BRANCH  15  16
HETATM   16  O2  UNL     1      -2.642   2.178   3.115  1.00  0.00    -0.399 OA
ATOM     17  H2  UNL     1      -2.834   2.180   4.045  1.00  0.00     0.209 HD
ENDBRANCH  15  16
ENDBRANCH  14  15
ENDBRANCH  13  14
BRANCH  13  18
HETATM   18  C13 UNL     1      -4.001  -1.004   0.619  1.00  0.00     0.244 C 
BRANCH  18  19
HETATM   19  C14 UNL     1      -4.537  -0.749  -0.968  1.00  0.00     0.304 C 
HETATM   20  O3  UNL     1      -3.672  -0.182  -1.505  1.00  0.00    -0.256 OA
HETATM   21  N5  UNL     1      -5.707  -1.288  -0.893  1.00  0.00    -0.408 NA
BRANCH  21  22
HETATM   22  C15 UNL     1      -6.988  -1.873  -0.826  1.00  0.00     0.167 C 
HETATM   23  C16 UNL     1      -7.158  -2.468   0.553  1.00  0.00     0.039 C 
HETATM   24  C17 UNL     1      -7.906  -1.507   1.480  1.00  0.00     0.003 C 
HETATM   25  C18 UNL     1      -7.863  -0.061   1.125  1.00  0.00     0.000 C 
HETATM   26  C19 UNL     1      -8.206   0.210  -0.321  1.00  0.00     0.003 C 
HETATM   27  C20 UNL     1      -8.159  -1.032  -1.148  1.00  0.00     0.039 C 
ENDBRANCH  21  22
ENDBRANCH  18  19
ENDBRANCH  13  18
ENDBRANCH  11  13
ENDBRANCH   9  11
ENDBRANCH   5   9
BRANCH   6  28
HETATM   28  N6  UNL     1       1.844   0.924   0.476  1.00  0.00    -0.365 N 
HETATM   29  C22 UNL     1       1.500   1.230   1.792  1.00  0.00     0.124 C 
HETATM   30  C23 UNL     1       2.646   2.203   2.168  1.00  0.00     0.021 C 
HETATM   31  C24 UNL     1       3.329   2.563   0.862  1.00  0.00     0.021 C 
HETATM   32  C25 UNL     1       2.250   2.191  -0.177  1.00  0.00     0.124 C 
ENDBRANCH   6  28
BRANCH   1  33
HETATM   33  S1  UNL     1       4.975  -1.926  -2.206  1.00  0.00    -0.085 SA
BRANCH  33  34
HETATM   34  C6  UNL     1       5.641  -0.533  -3.142  1.00  0.00     0.185 C 
BRANCH  34  35
HETATM   35  C5  UNL     1       5.944   0.619  -2.137  1.00  0.00     0.229 C 
HETATM   36  N1  UNL     1       6.994   0.368  -1.267  1.00  0.00    -0.352 N 
HETATM   37  O1  UNL     1       5.229   1.608  -2.257  1.00  0.00    -0.273 OA
BRANCH  36  38
HETATM   38  C2  UNL     1       7.341   1.450  -0.282  1.00  0.00     0.121 C 
HETATM   39  C1  UNL     1       8.443   2.259  -0.910  1.00  0.00     0.026 C 
ENDBRANCH  36  38
BRANCH  36  40
HETATM   40  C3  UNL     1       7.820  -0.775  -1.200  1.00  0.00     0.121 C 
HETATM   41  C4  UNL     1       7.432  -1.718  -0.097  1.00  0.00     0.026 C 
ENDBRANCH  36  40
ENDBRANCH  34  35
ENDBRANCH  33  34
ENDBRANCH   1  33
TORSDOF 15
