REMARK  13 active torsions:
REMARK  status: ('A' for Active; 'I' for Inactive)
REMARK    1  A    between atoms: C2_2  and  O1_3 
REMARK    2  A    between atoms: O1_3  and  C3_4 
REMARK    3  A    between atoms: C3_4  and  C4_6 
REMARK    4  A    between atoms: C4_6  and  C5_7 
REMARK    5  A    between atoms: C5_7  and  C6_8 
REMARK    6  A    between atoms: C6_8  and  C7_9 
REMARK    7  A    between atoms: C6_8  and  C21_36 
REMARK       I    between atoms: C7_9  and  N1_11 
REMARK    8  A    between atoms: N1_11  and  N2_13 
REMARK    9  A    between atoms: C8_14  and  O4_15 
REMARK   10  A    between atoms: C9_17  and  C10_18 
REMARK   11  A    between atoms: C10_18  and  C11_19 
REMARK       I    between atoms: C11_19  and  N3_21 
REMARK   12  A    between atoms: C15_28  and  O6_29 
REMARK   13  A    between atoms: C17_31  and  O7_32 
ROOT
HETATM    1  N2  UNL     1       1.337   0.517  -0.284  1.00  0.00    -0.231 N 
HETATM    2  C8  UNL     1       1.985   1.685   0.132  1.00  0.00     0.161 C 
HETATM    3  C9  UNL     1       3.435   1.703   0.444  1.00  0.00     0.167 C 
HETATM    4  N4  UNL     1       4.134   0.736  -0.328  1.00  0.00    -0.375 N 
ATOM      5  H4  UNL     1       5.106   0.913  -0.581  1.00  0.00     0.160 HD
HETATM    6  C13 UNL     1       3.525  -0.458  -0.753  1.00  0.00     0.060 A 
HETATM    7  C14 UNL     1       4.352  -1.492  -1.183  1.00  0.00     0.071 A 
HETATM    8  C15 UNL     1       3.759  -2.674  -1.606  1.00  0.00     0.103 A 
HETATM    9  C17 UNL     1       2.377  -2.820  -1.600  1.00  0.00     0.103 A 
HETATM   10  C19 UNL     1       1.600  -1.767  -1.165  1.00  0.00     0.073 A 
HETATM   11  C20 UNL     1       2.155  -0.584  -0.740  1.00  0.00     0.088 A 
ENDROOT
BRANCH   1  12
HETATM   12  N1  UNL     1      -0.021   0.306  -0.282  1.00  0.00    -0.260 N 
HETATM   13  C7  UNL     1      -1.051   1.130  -0.775  1.00  0.00     0.245 C 
HETATM   14  O3  UNL     1      -0.879   2.251  -1.326  1.00  0.00    -0.271 OA
ATOM     15  H1  UNL     1      -0.326  -0.573   0.136  1.00  0.00     0.190 HD
BRANCH  13  16
HETATM   16  C6  UNL     1      -2.475   0.619  -0.623  1.00  0.00     0.113 C 
BRANCH  16  17
HETATM   17  C5  UNL     1      -2.673  -0.392  -1.698  1.00  0.00     0.028 C 
BRANCH  17  18
HETATM   18  C4  UNL     1      -2.505   0.147  -3.083  1.00  0.00     0.112 C 
BRANCH  18  19
HETATM   19  C3  UNL     1      -3.427   1.216  -3.464  1.00  0.00     0.258 C 
HETATM   20  O2  UNL     1      -3.229   1.836  -4.545  1.00  0.00    -0.265 OA
BRANCH  19  21
HETATM   21  O1  UNL     1      -4.524   1.619  -2.730  1.00  0.00    -0.322 OA
BRANCH  21  22
HETATM   22  C2  UNL     1      -5.422   2.630  -3.049  1.00  0.00     0.174 C 
HETATM   23  C1  UNL     1      -6.138   2.413  -4.361  1.00  0.00     0.034 C 
ENDBRANCH  21  22
ENDBRANCH  19  21
ENDBRANCH  18  19
ENDBRANCH  17  18
ENDBRANCH  16  17
BRANCH  16  24
HETATM   24  C21 UNL     1      -2.743   0.143   0.726  1.00  0.00    -0.038 A 
HETATM   25  C22 UNL     1      -3.040  -1.194   0.901  1.00  0.00     0.015 A 
HETATM   26  C23 UNL     1      -3.293  -1.693   2.183  1.00  0.00    -0.061 A 
HETATM   27  C24 UNL     1      -3.615  -3.151   2.328  1.00  0.00     0.048 C 
HETATM   28  C25 UNL     1      -3.257  -0.890   3.275  1.00  0.00     0.014 A 
HETATM   29  C26 UNL     1      -2.965   0.433   3.115  1.00  0.00    -0.055 A 
HETATM   30  C27 UNL     1      -2.921   1.317   4.303  1.00  0.00     0.049 C 
HETATM   31  C28 UNL     1      -2.710   0.939   1.843  1.00  0.00    -0.049 A 
HETATM   32  C29 UNL     1      -2.406   2.367   1.732  1.00  0.00     0.049 C 
ENDBRANCH  16  24
ENDBRANCH  13  16
ENDBRANCH   1  12
BRANCH   2  33
HETATM   33  O4  UNL     1       1.322   2.798   0.259  1.00  0.00    -0.346 OA
ATOM     34  H4  UNL     1       1.762   3.591   0.541  1.00  0.00     0.219 HD
ENDBRANCH   2  33
BRANCH   3  35
HETATM   35  C10 UNL     1       3.664   1.621   1.939  1.00  0.00     0.136 C 
BRANCH  35  36
HETATM   36  C11 UNL     1       5.065   1.666   2.354  1.00  0.00     0.219 C 
HETATM   37  O5  UNL     1       5.987   1.748   1.512  1.00  0.00    -0.274 OA
HETATM   38  N3  UNL     1       5.471   1.623   3.725  1.00  0.00    -0.365 N 
HETATM   39  C12 UNL     1       6.844   1.679   4.144  1.00  0.00     0.149 C 
ATOM     40  H3  UNL     1       4.749   1.549   4.442  1.00  0.00     0.161 HD
ENDBRANCH  35  36
ENDBRANCH   3  35
BRANCH   9  41
HETATM   41  O7  UNL     1       1.783  -3.983  -2.017  1.00  0.00    -0.353 OA
HETATM   42  C18 UNL     1       0.376  -4.093  -1.998  1.00  0.00     0.210 C 
ENDBRANCH   9  41
BRANCH   8  43
HETATM   43  O6  UNL     1       4.506  -3.737  -2.043  1.00  0.00    -0.353 OA
HETATM   44  C16 UNL     1       5.908  -3.792  -2.127  1.00  0.00     0.210 C 
ENDBRANCH   8  43
TORSDOF 13
