REMARK  13 active torsions:
REMARK  status: ('A' for Active; 'I' for Inactive)
REMARK    1  A    between atoms: C2_2  and  O1_3 
REMARK    2  A    between atoms: C3_5  and  O2_6 
REMARK    3  A    between atoms: C4_8  and  C5_9 
REMARK    4  A    between atoms: C5_9  and  O3_10 
REMARK    5  A    between atoms: C6_13  and  N1_14 
REMARK    6  A    between atoms: C7_15  and  C8_16 
REMARK    7  A    between atoms: C8_16  and  O4_17 
REMARK    8  A    between atoms: C11_21  and  O5_22 
REMARK    9  A    between atoms: C13_29  and  C14_30 
REMARK   10  A    between atoms: C14_30  and  O7_31 
REMARK   11  A    between atoms: C14_30  and  O8_33 
REMARK   12  A    between atoms: C15_36  and  C16_37 
REMARK   13  A    between atoms: C16_37  and  O10_38 
ROOT
HETATM    1  N1  UNL     1      -0.128  -1.081  -0.232  1.00  0.00    -0.311 N 
HETATM    2  C7  UNL     1       0.234  -1.381   1.165  1.00  0.00     0.038 C 
HETATM    3  C9  UNL     1       0.605  -0.196   1.969  1.00  0.00     0.028 C 
HETATM    4  C10 UNL     1       1.633   0.602   1.933  1.00  0.00     0.046 C 
HETATM    5  C11 UNL     1       2.838   0.698   1.126  1.00  0.00     0.277 C 
HETATM    6  N2  UNL     1       2.791  -0.256   0.089  1.00  0.00     0.014 N 
ATOM      7  H21 UNL     1       2.439  -1.181   0.337  1.00  0.00     0.287 HD
ATOM      8  H22 UNL     1       3.688  -0.610  -0.244  1.00  0.00     0.287 HD
HETATM    9  C12 UNL     1       1.998   0.507  -0.866  1.00  0.00     0.480 C 
HETATM   10  O6  UNL     1       1.463  -0.242  -1.819  1.00  0.00    -0.279 OA
HETATM   11  C13 UNL     1       0.812  -1.336  -1.185  1.00  0.00     0.182 C 
HETATM   12  O9  UNL     1       2.915   1.505  -1.083  1.00  0.00    -0.326 OA
HETATM   13  C15 UNL     1       2.963   1.965   0.275  1.00  0.00     0.217 C 
ENDROOT
BRANCH   1  14
HETATM   14  C6  UNL     1      -1.165  -0.210  -0.187  1.00  0.00     0.190 C 
HETATM   15  C2  UNL     1      -1.930   0.476  -1.175  1.00  0.00     0.111 C 
HETATM   16  C1  UNL     1      -3.047  -0.247  -1.902  1.00  0.00     0.051 C 
HETATM   17  C3  UNL     1      -2.749   1.475  -0.301  1.00  0.00     0.170 C 
HETATM   18  C4  UNL     1      -3.549   0.689   0.668  1.00  0.00     0.105 C 
HETATM   19  S1  UNL     1      -2.664  -0.918   0.694  1.00  0.00    -0.130 SA
BRANCH  15  20
HETATM   20  O1  UNL     1      -1.317   1.285  -2.108  1.00  0.00    -0.385 OA
ATOM     21  H1  UNL     1      -0.617   1.738  -1.652  1.00  0.00     0.210 HD
ENDBRANCH  15  20
BRANCH  17  22
HETATM   22  O2  UNL     1      -1.907   2.336   0.363  1.00  0.00    -0.391 OA
ATOM     23  H2  UNL     1      -2.406   2.944   0.895  1.00  0.00     0.210 HD
ENDBRANCH  17  22
BRANCH  18  24
HETATM   24  C5  UNL     1      -4.993   0.550   0.436  1.00  0.00     0.181 C 
BRANCH  24  25
HETATM   25  O3  UNL     1      -5.636   1.797   0.417  1.00  0.00    -0.400 OA
ATOM     26  H3  UNL     1      -6.570   1.707   0.267  1.00  0.00     0.209 HD
ENDBRANCH  24  25
ENDBRANCH  18  24
ENDBRANCH   1  14
BRANCH   2  27
HETATM   27  C8  UNL     1       0.913  -2.640   1.449  1.00  0.00     0.221 C 
BRANCH  27  28
HETATM   28  O4  UNL     1       1.126  -2.647   2.856  1.00  0.00    -0.395 OA
ATOM     29  H4  UNL     1       1.568  -3.467   3.041  1.00  0.00     0.209 HD
ENDBRANCH  27  28
ENDBRANCH   2  27
BRANCH  11  30
HETATM   30  C14 UNL     1       0.582  -2.450  -2.204  1.00  0.00     0.331 C 
BRANCH  30  31
HETATM   31  O7  UNL     1       0.407  -3.672  -1.590  1.00  0.00    -0.364 OA
ATOM     32  H7  UNL     1       0.264  -4.365  -2.224  1.00  0.00     0.213 HD
ENDBRANCH  30  31
BRANCH  30  33
HETATM   33  O8  UNL     1      -0.293  -2.141  -3.212  1.00  0.00    -0.364 OA
ATOM     34  H8  UNL     1      -0.436  -2.834  -3.846  1.00  0.00     0.213 HD
ENDBRANCH  30  33
ENDBRANCH  11  30
BRANCH   5  35
HETATM   35  O5  UNL     1       3.977   0.502   1.900  1.00  0.00    -0.360 OA
ATOM     36  H5  UNL     1       4.765   0.565   1.373  1.00  0.00     0.213 HD
ENDBRANCH   5  35
BRANCH  13  37
HETATM   37  C16 UNL     1       4.345   2.574   0.424  1.00  0.00     0.201 C 
BRANCH  37  38
HETATM   38  O10 UNL     1       5.312   1.606   0.173  1.00  0.00    -0.398 OA
ATOM     39  H10 UNL     1       6.177   1.987   0.266  1.00  0.00     0.209 HD
ENDBRANCH  37  38
ENDBRANCH  13  37
TORSDOF 13
