REMARK  10 active torsions:
REMARK  status: ('A' for Active; 'I' for Inactive)
REMARK    1  A    between atoms: N1_1  and  C1_4 
REMARK    2  A    between atoms: C2_7  and  N3_8 
REMARK    3  A    between atoms: N4_11  and  C3_12 
REMARK    4  A    between atoms: C5_16  and  N6_17 
REMARK       I    between atoms: N9_26  and  C8_27 
REMARK       I    between atoms: C8_27  and  N10_29 
REMARK    5  A    between atoms: N10_29  and  C9_31 
REMARK    6  A    between atoms: C9_31  and  C10_32 
REMARK    7  A    between atoms: N13_36  and  C11_37 
REMARK    8  A    between atoms: C11_37  and  C12_38 
REMARK    9  A    between atoms: C12_38  and  O2_39 
REMARK   10  A    between atoms: C13_41  and  O3_42 
ROOT
HETATM    1  C3  UNL     1      -2.645   0.975   0.491  1.00  0.00     0.720 A 
HETATM    2  N5  UNL     1      -3.836   1.622   0.766  1.00  0.00    -0.182 N 
ATOM      3  H5  UNL     1      -4.668   1.174   1.149  1.00  0.00     0.184 HD
HETATM    4  C4  UNL     1      -3.741   2.900   0.462  1.00  0.00     0.138 A 
HETATM    5  C5  UNL     1      -4.632   3.956   0.546  1.00  0.00     0.131 A 
HETATM    6  N7  UNL     1      -4.240   5.182   0.151  1.00  0.00    -0.337 N 
ATOM      7  H7  UNL     1      -4.900   5.957   0.215  1.00  0.00     0.168 HD
HETATM    8  C6  UNL     1      -3.004   5.414  -0.325  1.00  0.00     0.183 A 
HETATM    9  N8  UNL     1      -2.152   4.378  -0.400  1.00  0.00    -0.336 N 
ATOM     10  H8  UNL     1      -1.212   4.544  -0.760  1.00  0.00     0.168 HD
HETATM   11  C7  UNL     1      -2.485   3.133  -0.021  1.00  0.00     0.166 A 
HETATM   12  N9  UNL     1      -1.822   1.915   0.008  1.00  0.00    -0.077 N 
HETATM   13  C8  UNL     1      -0.502   1.830  -0.430  1.00  0.00     0.343 C 
HETATM   14  O1  UNL     1       0.073   2.897  -0.855  1.00  0.00    -0.246 OA
HETATM   15  N10 UNL     1       0.290   0.681  -0.461  1.00  0.00    -0.336 N 
ATOM     16  H10 UNL     1      -0.073  -0.218  -0.146  1.00  0.00     0.164 HD
ENDROOT
BRANCH   1  17
HETATM   17  N4  UNL     1      -2.460  -0.413   0.721  1.00  0.00     0.078 N 
HETATM   18  C2  UNL     1      -2.019  -0.863   1.918  1.00  0.00     0.716 A 
HETATM   19  N2  UNL     1      -1.880  -2.181   2.163  1.00  0.00    -0.022 N 
HETATM   20  C1  UNL     1      -2.180  -3.092   1.208  1.00  0.00     0.694 A 
ATOM     21  H2  UNL     1      -1.546  -2.494   3.075  1.00  0.00     0.203 HD
HETATM   22  N14 UNL     1      -2.618  -2.658   0.019  1.00  0.00    -0.140 N 
HETATM   23  C14 UNL     1      -2.750  -1.346  -0.207  1.00  0.00     0.376 A 
ATOM     24  H14 UNL     1      -2.851  -3.328  -0.714  1.00  0.00     0.189 HD
HETATM   25  O4  UNL     1      -3.166  -0.980  -1.342  1.00  0.00    -0.244 OA
BRANCH  18  26
HETATM   26  N3  UNL     1      -1.732   0.002   2.829  1.00  0.00    -0.233 N 
ATOM     27  H32 UNL     1      -1.399  -0.337   3.732  1.00  0.00     0.174 HD
ATOM     28  H31 UNL     1      -1.837   0.999   2.644  1.00  0.00     0.174 HD
ENDBRANCH  18  26
BRANCH  20  29
HETATM   29  N1  UNL     1      -2.056  -4.357   1.415  1.00  0.00    -0.234 N 
ATOM     30  H12 UNL     1      -1.722  -4.688   2.320  1.00  0.00     0.174 HD
ATOM     31  H11 UNL     1      -2.282  -5.044   0.695  1.00  0.00     0.174 HD
ENDBRANCH  20  29
ENDBRANCH   1  17
BRANCH  15  32
HETATM   32  C9  UNL     1       1.672   0.812  -0.966  1.00  0.00     0.187 C 
BRANCH  32  33
HETATM   33  C10 UNL     1       2.372  -0.495  -0.931  1.00  0.00     0.093 A 
HETATM   34  N11 UNL     1       1.855  -1.665  -0.505  1.00  0.00    -0.282 N 
HETATM   35  N12 UNL     1       2.784  -2.604  -0.627  1.00  0.00    -0.018 NA
ATOM     36  H11 UNL     1       0.909  -1.805  -0.149  1.00  0.00     0.184 HD
HETATM   37  N13 UNL     1       3.903  -2.101  -1.120  1.00  0.00    -0.251 N 
HETATM   38  C13 UNL     1       3.659  -0.792  -1.313  1.00  0.00     0.181 A 
BRANCH  37  39
HETATM   39  C11 UNL     1       5.150  -2.824  -1.398  1.00  0.00     0.175 C 
BRANCH  39  40
HETATM   40  C12 UNL     1       5.975  -2.744  -0.121  1.00  0.00     0.185 C 
BRANCH  40  41
HETATM   41  O2  UNL     1       7.193  -3.392  -0.241  1.00  0.00    -0.399 OA
ATOM     42  H2  UNL     1       7.708  -3.342   0.556  1.00  0.00     0.209 HD
ENDBRANCH  40  41
ENDBRANCH  39  40
ENDBRANCH  37  39
BRANCH  38  43
HETATM   43  O3  UNL     1       4.578   0.113  -1.822  1.00  0.00    -0.344 OA
ATOM     44  H3  UNL     1       5.467  -0.092  -2.086  1.00  0.00     0.219 HD
ENDBRANCH  38  43
ENDBRANCH  32  33
ENDBRANCH  15  32
BRANCH   5  45
HETATM   45  N6  UNL     1      -5.808   3.712   1.004  1.00  0.00    -0.383 N 
ATOM     46  H62 UNL     1      -6.105   2.783   1.303  1.00  0.00     0.157 HD
ATOM     47  H61 UNL     1      -6.465   4.490   1.066  1.00  0.00     0.157 HD
ENDBRANCH   5  45
TORSDOF 10
