REMARK  0 active torsions:
REMARK  status: ('A' for Active; 'I' for Inactive)
ROOT
HETATM    1  C1  UNL     1      -2.233  -0.523   0.908  1.00  0.00     0.068 C 
HETATM    2  C2  UNL     1      -1.143  -0.011  -0.006  1.00  0.00     0.216 C 
HETATM    3  C3  UNL     1      -1.739   1.046  -0.890  1.00  0.00     0.068 C 
HETATM    4  N1  UNL     1      -0.608  -1.092  -0.826  1.00  0.00    -0.059 NA
HETATM    5  O1  UNL     1       0.609  -0.648  -1.184  1.00  0.00    -0.244 OA
HETATM    6  C4  UNL     1       1.140  -0.074  -0.037  1.00  0.00     0.242 C 
HETATM    7  C5  UNL     1       2.117   0.985  -0.465  1.00  0.00     0.080 C 
HETATM    8  C6  UNL     1       1.930  -1.127   0.699  1.00  0.00     0.080 C 
HETATM    9  N2  UNL     1       0.026   0.433   0.709  1.00  0.00    -0.017 N 
ATOM     10  H21 UNL     1       0.033   0.164   1.693  1.00  0.00     0.283 HD
ATOM     11  H22 UNL     1       0.057   1.441   0.861  1.00  0.00     0.283 HD
ENDROOT
TORSDOF 0
