REMARK  8 active torsions:
REMARK  status: ('A' for Active; 'I' for Inactive)
REMARK    1  A    between atoms: C2_2  and  O1_3 
REMARK    2  A    between atoms: C2_2  and  C3_5 
REMARK    3  A    between atoms: C3_5  and  C4_6 
REMARK    4  A    between atoms: C5_10  and  N2_12 
REMARK       I    between atoms: N2_12  and  C6_14 
REMARK    5  A    between atoms: C6_14  and  C7_16 
REMARK    6  A    between atoms: C8_17  and  C9_18 
REMARK    7  A    between atoms: C10_19  and  C11_20 
REMARK    8  A    between atoms: C12_21  and  C13_22 
ROOT
HETATM    1  N2  UNL     1       1.601  -2.390  -0.414  1.00  0.00    -0.271 N 
ATOM      2  H2  UNL     1       1.855  -3.023   0.344  1.00  0.00     0.171 HD
HETATM    3  C6  UNL     1       0.237  -2.038  -0.587  1.00  0.00     0.260 C 
HETATM    4  O3  UNL     1       0.046  -1.218  -1.570  1.00  0.00    -0.267 OA
ENDROOT
BRANCH   3   5
HETATM    5  C7  UNL     1      -0.869  -2.511   0.223  1.00  0.00     0.065 A 
HETATM    6  C8  UNL     1      -1.945  -1.643   0.554  1.00  0.00    -0.019 A 
HETATM    7  C15 UNL     1      -3.020  -2.129   1.237  1.00  0.00     0.014 A 
HETATM    8  C16 UNL     1      -3.116  -3.445   1.631  1.00  0.00     0.022 A 
HETATM    9  C17 UNL     1      -2.088  -4.304   1.324  1.00  0.00     0.033 A 
HETATM   10 BR2  UNL     1      -2.171  -6.142   1.851  1.00  0.00    -0.049 Br
HETATM   11  C18 UNL     1      -0.995  -3.819   0.632  1.00  0.00     0.068 A 
HETATM   12 CL1  UNL     1       0.265  -4.988   0.231  1.00  0.00    -0.082 Cl
BRANCH   6  13
HETATM   13  C9  UNL     1      -1.820  -0.236   0.259  1.00  0.00     0.012 C 
HETATM   14  C10 UNL     1      -2.609   0.764   0.170  1.00  0.00     0.001 C 
BRANCH  14  15
HETATM   15  C11 UNL     1      -4.033   0.907   0.330  1.00  0.00     0.000 C 
HETATM   16  C12 UNL     1      -4.645   2.070   0.205  1.00  0.00     0.001 C 
BRANCH  16  17
HETATM   17  C13 UNL     1      -3.971   3.285  -0.097  1.00  0.00     0.007 C 
HETATM   18  C14 UNL     1      -4.676   4.417  -0.200  1.00  0.00     0.056 C 
HETATM   19 BR1  UNL     1      -6.541   4.372   0.059  1.00  0.00    -0.064 Br
ENDBRANCH  16  17
ENDBRANCH  14  15
ENDBRANCH   6  13
ENDBRANCH   3   5
BRANCH   1  20
HETATM   20  C5  UNL     1       2.647  -1.878  -1.281  1.00  0.00     0.442 A 
HETATM   21  O2  UNL     1       3.922  -2.242  -0.848  1.00  0.00    -0.187 OA
HETATM   22  N1  UNL     1       4.669  -1.119  -0.813  1.00  0.00    -0.241 N 
HETATM   23  C4  UNL     1       3.992  -0.057  -1.084  1.00  0.00     0.148 A 
ATOM     24  H1  UNL     1       5.665  -1.112  -0.595  1.00  0.00     0.196 HD
HETATM   25  O4  UNL     1       2.694  -0.480  -1.322  1.00  0.00    -0.253 OA
HETATM   26  F1  UNL     1       2.419  -2.292  -2.606  1.00  0.00    -0.156 F 
BRANCH  23  27
HETATM   27  C3  UNL     1       4.512   1.345  -1.131  1.00  0.00     0.117 C 
BRANCH  27  28
HETATM   28  C2  UNL     1       3.806   2.221  -0.127  1.00  0.00     0.121 C 
HETATM   29  C1  UNL     1       3.970   1.743   1.284  1.00  0.00     0.040 C 
BRANCH  28  30
HETATM   30  O1  UNL     1       4.191   3.551  -0.243  1.00  0.00    -0.396 OA
ATOM     31  H1  UNL     1       4.087   3.854  -1.137  1.00  0.00     0.210 HD
ENDBRANCH  28  30
ENDBRANCH  27  28
ENDBRANCH  23  27
ENDBRANCH   1  20
TORSDOF 8
