REMARK  6 active torsions:
REMARK  status: ('A' for Active; 'I' for Inactive)
REMARK    1  A    between atoms: N3_18  and  C9_19 
REMARK    2  A    between atoms: C12_24  and  N5_25 
REMARK    3  A    between atoms: N5_25  and  C13_27 
REMARK    4  A    between atoms: C16_30  and  C17_31 
REMARK    5  A    between atoms: C17_31  and  C18_32 
REMARK    6  A    between atoms: C18_32  and  C19_33 
ROOT
HETATM    1  C9  UNL     1      -2.589   0.644   0.608  1.00  0.00     0.127 A 
HETATM    2  C10 UNL     1      -2.528   1.910   1.172  1.00  0.00     0.067 A 
HETATM    3  C11 UNL     1      -1.318   2.503   1.451  1.00  0.00     0.110 A 
HETATM    4  N4  UNL     1      -0.210   1.830   1.165  1.00  0.00    -0.202 N 
ATOM      5  H4  UNL     1       0.689   2.266   1.370  1.00  0.00     0.183 HD
HETATM    6  C12 UNL     1      -0.215   0.581   0.609  1.00  0.00     0.679 A 
HETATM    7  N6  UNL     1      -1.414   0.032   0.350  1.00  0.00    -0.176 N 
ATOM      8  H6  UNL     1      -1.437  -0.900  -0.065  1.00  0.00     0.186 HD
ENDROOT
BRANCH   1   9
HETATM    9  N3  UNL     1      -3.855   0.066   0.335  1.00  0.00    -0.301 N 
HETATM   10  C8  UNL     1      -4.384  -1.036   1.060  1.00  0.00     0.228 C 
HETATM   11  C7  UNL     1      -5.866  -1.117   0.826  1.00  0.00     0.136 C 
HETATM   12  O1  UNL     1      -3.758  -1.843   1.794  1.00  0.00    -0.273 OA
HETATM   13  C6  UNL     1      -6.171  -0.079  -0.203  1.00  0.00     0.064 C 
HETATM   14  N1  UNL     1      -7.022   0.988   0.283  1.00  0.00    -0.358 N 
HETATM   15  C5  UNL     1      -6.829  -0.743  -1.393  1.00  0.00     0.119 C 
HETATM   16  C26 UNL     1      -4.831   0.438  -0.673  1.00  0.00     0.165 C 
HETATM   17  C1  UNL     1      -6.549   2.079   1.107  1.00  0.00     0.152 C 
HETATM   18  C2  UNL     1      -8.398   0.962  -0.069  1.00  0.00     0.153 C 
HETATM   19  N2  UNL     1      -9.082   2.062  -0.222  1.00  0.00    -0.384 N 
HETATM   20  C3  UNL     1      -9.049  -0.384  -0.260  1.00  0.00     0.364 C 
ATOM     21  H22 UNL     1      -8.641   2.973  -0.093  1.00  0.00     0.157 HD
ATOM     22  H21 UNL     1     -10.070   2.043  -0.475  1.00  0.00     0.157 HD
HETATM   23  F1  UNL     1     -10.304  -0.150  -0.818  1.00  0.00    -0.191 F 
HETATM   24  F2  UNL     1      -9.268  -0.913   1.000  1.00  0.00    -0.191 F 
HETATM   25  C4  UNL     1      -8.206  -1.248  -1.136  1.00  0.00     0.317 C 
HETATM   26  F3  UNL     1      -8.246  -2.532  -0.629  1.00  0.00    -0.199 F 
HETATM   27  F4  UNL     1      -8.851  -1.326  -2.379  1.00  0.00    -0.199 F 
ENDBRANCH   1   9
BRANCH   6  28
HETATM   28  N5  UNL     1       0.907   0.022   0.374  1.00  0.00    -0.221 N 
ATOM     29  H5  UNL     1       1.755   0.536   0.613  1.00  0.00     0.178 HD
BRANCH  28  30
HETATM   30  C13 UNL     1       1.056  -1.286  -0.206  1.00  0.00     0.099 C 
HETATM   31  C14 UNL     1       1.959  -2.176   0.619  1.00  0.00     0.026 C 
HETATM   32  C15 UNL     1       3.400  -1.750   0.541  1.00  0.00     0.006 C 
HETATM   33  C16 UNL     1       3.870  -1.317  -0.800  1.00  0.00    -0.014 C 
HETATM   34  C24 UNL     1       2.888  -0.456  -1.550  1.00  0.00     0.006 C 
HETATM   35  C25 UNL     1       1.575  -1.167  -1.629  1.00  0.00     0.026 C 
BRANCH  33  36
HETATM   36  C17 UNL     1       5.138  -0.496  -0.651  1.00  0.00     0.005 C 
BRANCH  36  37
HETATM   37  C18 UNL     1       6.259  -1.239  -0.006  1.00  0.00     0.005 C 
BRANCH  37  38
HETATM   38  C19 UNL     1       7.464  -0.359   0.107  1.00  0.00    -0.010 C 
HETATM   39  C20 UNL     1       7.186   0.887   0.949  1.00  0.00     0.031 C 
HETATM   40  C21 UNL     1       8.526   1.585   1.154  1.00  0.00     0.168 C 
HETATM   41  O2  UNL     1       9.538   0.965   0.442  1.00  0.00    -0.391 OA
HETATM   42  C22 UNL     1       9.274   0.900  -0.916  1.00  0.00     0.168 C 
HETATM   43  C23 UNL     1       7.987   0.124  -1.211  1.00  0.00     0.031 C 
ENDBRANCH  37  38
ENDBRANCH  36  37
ENDBRANCH  33  36
ENDBRANCH  28  30
ENDBRANCH   6  28
TORSDOF 6
