REMARK  6 active torsions:
REMARK  status: ('A' for Active; 'I' for Inactive)
REMARK       I    between atoms: C1_2  and  N1_3 
REMARK       I    between atoms: C1_2  and  N3_20 
REMARK    1  A    between atoms: N1_3  and  C2_5 
REMARK    2  A    between atoms: C5_8  and  N2_9 
REMARK    3  A    between atoms: N2_9  and  C6_11 
REMARK    4  A    between atoms: C15_23  and  O2_24 
REMARK    5  A    between atoms: O2_24  and  C16_25 
REMARK    6  A    between atoms: N4_28  and  C19_29 
ROOT
HETATM    1  O1  UNL     1      -1.723   0.679   2.156  1.00  0.00    -0.247 OA
HETATM    2  C1  UNL     1      -1.001   0.436   1.160  1.00  0.00     0.318 C 
HETATM    3  N1  UNL     1      -1.607   0.235  -0.091  1.00  0.00    -0.338 N 
ATOM      4  H1  UNL     1      -1.027   0.037  -0.907  1.00  0.00     0.164 HD
HETATM    5  N3  UNL     1       0.402   0.378   1.362  1.00  0.00    -0.331 N 
HETATM    6  C13 UNL     1       1.013   0.608   2.651  1.00  0.00     0.130 C 
HETATM    7  C14 UNL     1       2.439   1.116   2.406  1.00  0.00     0.055 C 
HETATM    8  C15 UNL     1       3.276   0.085   1.671  1.00  0.00     0.159 C 
HETATM    9  C25 UNL     1       2.403  -0.815   0.861  1.00  0.00     0.217 C 
HETATM   10  F4  UNL     1       3.046  -1.475  -0.156  1.00  0.00    -0.245 F 
HETATM   11  C26 UNL     1       1.295   0.070   0.267  1.00  0.00     0.167 C 
ENDROOT
BRANCH   3  12
HETATM   12  C2  UNL     1      -3.050   0.306  -0.235  1.00  0.00     0.086 C 
HETATM   13  C3  UNL     1      -3.502  -0.914  -0.986  1.00  0.00     0.027 C 
HETATM   14  C4  UNL     1      -5.004  -0.946  -1.170  1.00  0.00     0.027 C 
HETATM   15  C5  UNL     1      -5.653   0.308  -1.493  1.00  0.00     0.077 C 
HETATM   16  C11 UNL     1      -4.888   1.580  -1.205  1.00  0.00     0.027 C 
HETATM   17  C12 UNL     1      -3.415   1.467  -1.169  1.00  0.00     0.027 C 
BRANCH  15  18
HETATM   18  N2  UNL     1      -6.982   0.514  -1.088  1.00  0.00    -0.407 N 
ATOM     19  H2  UNL     1      -7.149   1.250  -0.402  1.00  0.00     0.154 HD
BRANCH  18  20
HETATM   20  C6  UNL     1      -8.079  -0.188  -1.534  1.00  0.00     0.149 C 
HETATM   21  C7  UNL     1      -8.125  -1.630  -1.141  1.00  0.00     0.031 C 
HETATM   22  C8  UNL     1      -8.451  -1.515   0.358  1.00  0.00     0.008 C 
HETATM   23  C9  UNL     1      -9.288  -0.262   0.477  1.00  0.00     0.081 C 
HETATM   24  C10 UNL     1      -9.400   0.294  -0.904  1.00  0.00     0.263 C 
HETATM   25  F1  UNL     1     -10.412  -0.370  -1.567  1.00  0.00    -0.204 F 
HETATM   26  F2  UNL     1      -9.514   1.656  -0.951  1.00  0.00    -0.204 F 
ENDBRANCH  18  20
ENDBRANCH  15  18
ENDBRANCH   3  12
BRANCH   8  27
HETATM   27  O2  UNL     1       4.146   0.766   0.824  1.00  0.00    -0.376 OA
BRANCH  27  28
HETATM   28  C16 UNL     1       5.445   0.492   1.182  1.00  0.00     0.141 C 
HETATM   29  C17 UNL     1       6.274   1.737   1.392  1.00  0.00     0.053 C 
HETATM   30  C18 UNL     1       7.148   1.783   0.159  1.00  0.00     0.127 C 
HETATM   31  N4  UNL     1       7.385   0.381  -0.077  1.00  0.00    -0.365 N 
HETATM   32  C24 UNL     1       6.126  -0.297   0.065  1.00  0.00     0.156 C 
BRANCH  31  33
HETATM   33  C19 UNL     1       8.629  -0.202  -0.388  1.00  0.00     0.105 A 
HETATM   34  C20 UNL     1       8.707  -1.560  -0.651  1.00  0.00     0.048 A 
HETATM   35  C21 UNL     1       9.879  -2.217  -0.965  1.00  0.00     0.008 A 
HETATM   36  C22 UNL     1      11.036  -1.451  -1.012  1.00  0.00     0.061 A 
HETATM   37  C23 UNL     1      10.936  -0.098  -0.745  1.00  0.00     0.189 A 
HETATM   38  F3  UNL     1      12.057   0.658  -0.789  1.00  0.00    -0.186 F 
HETATM   39  N5  UNL     1       9.776   0.498  -0.446  1.00  0.00    -0.319 N 
ATOM     40  H5  UNL     1       9.761   1.501  -0.259  1.00  0.00     0.169 HD
ENDBRANCH  31  33
ENDBRANCH  27  28
ENDBRANCH   8  27
TORSDOF 6
