REMARK  9 active torsions:
REMARK  status: ('A' for Active; 'I' for Inactive)
REMARK    1  A    between atoms: C5_5  and  C6_6 
REMARK       I    between atoms: C6_6  and  N1_8 
REMARK    2  A    between atoms: N1_8  and  C7_10 
REMARK    3  A    between atoms: C10_13  and  C11_14 
REMARK    4  A    between atoms: C11_14  and  N2_15 
REMARK    5  A    between atoms: N2_15  and  C12_17 
REMARK    6  A    between atoms: N3_23  and  C18_24 
REMARK    7  A    between atoms: C18_24  and  O2_25 
REMARK    8  A    between atoms: C18_24  and  C19_27 
REMARK    9  A    between atoms: C26_37  and  C27_38 
ROOT
HETATM    1  C7  UNL     1      -2.002   0.957  -0.549  1.00  0.00     0.084 C 
HETATM    2  C8  UNL     1      -1.437   2.255  -0.122  1.00  0.00     0.026 C 
HETATM    3  C9  UNL     1       0.028   2.208   0.102  1.00  0.00     0.012 C 
HETATM    4  C10 UNL     1       0.601   0.954  -0.548  1.00  0.00     0.024 C 
HETATM    5  C23 UNL     1       0.064  -0.302   0.009  1.00  0.00     0.012 C 
HETATM    6  C24 UNL     1      -1.444  -0.224   0.198  1.00  0.00     0.026 C 
ENDROOT
BRANCH   4   7
HETATM    7  C11 UNL     1       2.060   1.126  -0.711  1.00  0.00     0.060 C 
BRANCH   7   8
HETATM    8  N2  UNL     1       2.872   0.115  -1.251  1.00  0.00    -0.397 N 
ATOM      9  H2  UNL     1       3.219   0.198  -2.207  1.00  0.00     0.159 HD
BRANCH   8  10
HETATM   10  C12 UNL     1       3.213  -1.024  -0.471  1.00  0.00     0.084 C 
HETATM   11  C13 UNL     1       4.030  -0.626   0.752  1.00  0.00     0.050 C 
HETATM   12  C14 UNL     1       5.135  -1.595   1.043  1.00  0.00     0.090 C 
HETATM   13  C15 UNL     1       4.696  -3.031   0.733  1.00  0.00     0.050 C 
HETATM   14  N3  UNL     1       6.056  -1.654  -0.008  1.00  0.00    -0.350 N 
HETATM   15  C16 UNL     1       5.109  -2.656  -0.630  1.00  0.00     0.090 C 
HETATM   16  C17 UNL     1       4.012  -1.970  -1.361  1.00  0.00     0.050 C 
BRANCH  14  17
HETATM   17  C18 UNL     1       7.258  -1.202  -0.555  1.00  0.00     0.168 C 
BRANCH  17  18
HETATM   18  O2  UNL     1       7.557  -1.775  -1.728  1.00  0.00    -0.344 OA
ATOM     19  H2  UNL     1       8.375  -1.467  -2.100  1.00  0.00     0.219 HD
ENDBRANCH  17  18
BRANCH  17  20
HETATM   20  C19 UNL     1       8.256  -0.260  -0.153  1.00  0.00     0.102 A 
HETATM   21  C20 UNL     1       9.439   0.016  -0.885  1.00  0.00     0.054 A 
HETATM   22  C21 UNL     1      10.158   0.968  -0.220  1.00  0.00     0.110 A 
HETATM   23  N4  UNL     1       9.468   1.274   0.870  1.00  0.00    -0.310 N 
HETATM   24  N5  UNL     1       8.332   0.538   0.907  1.00  0.00    -0.293 N 
ATOM     25  H4  UNL     1       9.749   1.958   1.572  1.00  0.00     0.186 HD
HETATM   26  C22 UNL     1       7.427   0.726   2.015  1.00  0.00     0.178 C 
ENDBRANCH  17  20
ENDBRANCH  14  17
ENDBRANCH   8  10
ENDBRANCH   7   8
ENDBRANCH   4   7
BRANCH   1  27
HETATM   27  N1  UNL     1      -3.443   1.002  -0.384  1.00  0.00    -0.356 N 
HETATM   28  C6  UNL     1      -4.339   1.112  -1.453  1.00  0.00     0.222 C 
HETATM   29  O1  UNL     1      -3.829   1.183  -2.627  1.00  0.00    -0.273 OA
ATOM     30  H1  UNL     1      -3.823   0.951   0.561  1.00  0.00     0.162 HD
BRANCH  28  31
HETATM   31  C5  UNL     1      -5.805   1.153  -1.372  1.00  0.00     0.078 C 
HETATM   32  C4  UNL     1      -6.427  -0.170  -1.786  1.00  0.00     0.014 C 
HETATM   33  C3  UNL     1      -7.898  -0.135  -1.457  1.00  0.00     0.006 C 
HETATM   34  C2  UNL     1      -8.118  -0.230   0.038  1.00  0.00    -0.006 C 
HETATM   35  C1  UNL     1      -8.348  -1.690   0.357  1.00  0.00     0.010 C 
HETATM   36  C26 UNL     1      -6.833   0.225   0.734  1.00  0.00     0.098 C 
HETATM   37  C25 UNL     1      -6.297   1.464   0.012  1.00  0.00     0.028 C 
BRANCH  36  38
HETATM   38  C27 UNL     1      -7.149   0.653   2.150  1.00  0.00     0.391 C 
HETATM   39  F1  UNL     1      -8.043   1.689   2.060  1.00  0.00    -0.171 F 
HETATM   40  F2  UNL     1      -7.621  -0.380   2.931  1.00  0.00    -0.171 F 
HETATM   41  F3  UNL     1      -5.985   1.123   2.718  1.00  0.00    -0.171 F 
ENDBRANCH  36  38
ENDBRANCH  28  31
ENDBRANCH   1  27
TORSDOF 9
