REMARK  8 active torsions:
REMARK  status: ('A' for Active; 'I' for Inactive)
REMARK    1  A    between atoms: C2_2  and  N1_4 
REMARK    2  A    between atoms: N2_7  and  C5_8 
REMARK    3  A    between atoms: C5_8  and  C6_9 
REMARK    4  A    between atoms: C6_9  and  C7_10 
REMARK    5  A    between atoms: C7_10  and  O1_11 
REMARK    6  A    between atoms: O1_11  and  C8_12 
REMARK    7  A    between atoms: C13_19  and  O2_20 
REMARK    8  A    between atoms: C16_25  and  C17_26 
ROOT
HETATM    1  C7  UNL     1       1.147   1.236   0.816  1.00  0.00     0.181 C 
ENDROOT
BRANCH   1   2
HETATM    2  C6  UNL     1       0.875   1.080  -0.622  1.00  0.00     0.071 C 
BRANCH   2   3
HETATM    3  C5  UNL     1      -0.557   0.968  -1.018  1.00  0.00     0.060 C 
BRANCH   3   4
HETATM    4  N2  UNL     1      -1.397  -0.015  -0.518  1.00  0.00    -0.390 N 
HETATM    5  C4  UNL     1      -1.907   0.015   0.789  1.00  0.00     0.141 C 
HETATM    6  C3  UNL     1      -3.235   0.797   0.793  1.00  0.00     0.143 C 
HETATM    7  N1  UNL     1      -4.111  -0.123  -0.049  1.00  0.00    -0.367 N 
HETATM    8  C16 UNL     1      -3.663  -0.197  -1.384  1.00  0.00     0.116 C 
HETATM    9  C15 UNL     1      -2.235  -0.705  -1.476  1.00  0.00     0.148 C 
BRANCH   7  10
HETATM   10  C2  UNL     1      -5.150  -0.718   0.636  1.00  0.00     0.072 C 
HETATM   11  C1  UNL     1      -5.353  -0.411   2.099  1.00  0.00     0.081 C 
HETATM   12  S1  UNL     1      -6.169  -1.785  -0.026  1.00  0.00    -0.066 SA
ENDBRANCH   7  10
BRANCH   8  13
HETATM   13  C17 UNL     1      -4.538  -0.784  -2.384  1.00  0.00     0.141 C 
HETATM   14 CL1  UNL     1      -6.049   0.159  -2.545  1.00  0.00    -0.128 Cl
ENDBRANCH   8  13
ENDBRANCH   3   4
ENDBRANCH   2   3
ENDBRANCH   1   2
BRANCH   1  15
HETATM   15  O1  UNL     1       2.498   1.432   1.157  1.00  0.00    -0.346 OA
BRANCH  15  16
HETATM   16  C8  UNL     1       3.581   0.659   0.960  1.00  0.00     0.128 A 
HETATM   17  C9  UNL     1       4.362   0.786  -0.160  1.00  0.00     0.158 A 
HETATM   18  F1  UNL     1       4.086   1.709  -1.126  1.00  0.00    -0.203 F 
HETATM   19  C10 UNL     1       5.482   0.016  -0.406  1.00  0.00    -0.000 A 
HETATM   20  C11 UNL     1       6.307   0.182  -1.638  1.00  0.00     0.053 C 
HETATM   21  C12 UNL     1       5.827  -0.929   0.531  1.00  0.00     0.054 A 
HETATM   22 BR1  UNL     1       7.377  -2.017   0.229  1.00  0.00    -0.047 Br
HETATM   23  C13 UNL     1       5.066  -1.091   1.678  1.00  0.00     0.103 A 
HETATM   24  C14 UNL     1       3.955  -0.311   1.896  1.00  0.00     0.082 A 
HETATM   25 BR2  UNL     1       2.938  -0.576   3.503  1.00  0.00    -0.045 Br
BRANCH  23  26
HETATM   26  O2  UNL     1       5.430  -2.062   2.630  1.00  0.00    -0.358 OA
ATOM     27  H2  UNL     1       4.908  -2.173   3.416  1.00  0.00     0.217 HD
ENDBRANCH  23  26
ENDBRANCH  15  16
ENDBRANCH   1  15
TORSDOF 8
