REMARK  8 active torsions:
REMARK  status: ('A' for Active; 'I' for Inactive)
REMARK    1  A    between atoms: O1_2  and  C2_3 
REMARK    2  A    between atoms: C2_3  and  C3_4 
REMARK    3  A    between atoms: C2_3  and  C13_20 
REMARK    4  A    between atoms: C10_13  and  O2_14 
REMARK    5  A    between atoms: C13_20  and  O3_21 
REMARK    6  A    between atoms: C13_20  and  C14_23 
REMARK    7  A    between atoms: C14_23  and  C17_26 
REMARK    8  A    between atoms: C17_26  and  O4_28 
ROOT
HETATM    1  C3  UNL     1      -0.926  -0.494  -0.482  1.00  0.00     0.025 C 
HETATM    2  C4  UNL     1      -0.870  -1.853  -1.147  1.00  0.00     0.009 C 
HETATM    3  C5  UNL     1      -2.230  -2.155  -1.741  1.00  0.00     0.016 C 
HETATM    4  C6  UNL     1      -3.116  -2.327  -0.499  1.00  0.00     0.062 C 
HETATM    5 BR1  UNL     1      -4.906  -2.797  -0.956  1.00  0.00    -0.091 Br
HETATM    6  C7  UNL     1      -3.143  -1.065   0.316  1.00  0.00     0.009 C 
HETATM    7  C8  UNL     1      -3.964  -0.068  -0.429  1.00  0.00     0.024 C 
HETATM    8  C9  UNL     1      -4.009   1.306   0.132  1.00  0.00     0.090 C 
HETATM    9 BR2  UNL     1      -4.698   2.489  -1.255  1.00  0.00    -0.088 Br
HETATM   10  C10 UNL     1      -2.623   1.806   0.484  1.00  0.00     0.171 C 
HETATM   11  C11 UNL     1      -2.051   0.737   1.422  1.00  0.00     0.144 C 
HETATM   12 CL1  UNL     1      -0.795   1.361   2.455  1.00  0.00    -0.098 Cl
HETATM   13 CL2  UNL     1      -3.429   0.394   2.548  1.00  0.00    -0.098 Cl
HETATM   14  C12 UNL     1      -1.759  -0.552   0.710  1.00  0.00     0.039 C 
ENDROOT
BRANCH   1  15
HETATM   15  C2  UNL     1       0.447   0.115  -0.420  1.00  0.00     0.155 C 
BRANCH  15  16
HETATM   16  O1  UNL     1       0.822   0.224  -1.773  1.00  0.00    -0.388 OA
HETATM   17  C1  UNL     1       0.848   1.549  -2.186  1.00  0.00     0.202 C 
ENDBRANCH  15  16
BRANCH  15  18
HETATM   18  C13 UNL     1       1.467  -0.659   0.289  1.00  0.00     0.157 C 
BRANCH  18  19
HETATM   19  O3  UNL     1       1.629  -1.971  -0.190  1.00  0.00    -0.392 OA
ATOM     20  H3  UNL     1       2.291  -2.473   0.270  1.00  0.00     0.210 HD
ENDBRANCH  18  19
BRANCH  18  21
HETATM   21  C14 UNL     1       2.879  -0.115   0.305  1.00  0.00     0.006 C 
HETATM   22  C15 UNL     1       3.643  -1.178   1.143  1.00  0.00     0.020 C 
HETATM   23  C16 UNL     1       3.575  -0.141  -1.026  1.00  0.00     0.020 C 
BRANCH  21  24
HETATM   24  C17 UNL     1       3.050   1.151   1.078  1.00  0.00     0.124 C 
HETATM   25  C18 UNL     1       4.507   1.559   0.989  1.00  0.00     0.040 C 
BRANCH  24  26
HETATM   26  O4  UNL     1       2.819   0.873   2.428  1.00  0.00    -0.395 OA
ATOM     27  H4  UNL     1       2.928   1.678   2.920  1.00  0.00     0.210 HD
ENDBRANCH  24  26
ENDBRANCH  21  24
ENDBRANCH  18  21
ENDBRANCH  15  18
ENDBRANCH   1  15
BRANCH  10  28
HETATM   28  O2  UNL     1      -2.750   2.985   1.211  1.00  0.00    -0.391 OA
ATOM     29  H2  UNL     1      -1.881   3.299   1.432  1.00  0.00     0.210 HD
ENDBRANCH  10  28
TORSDOF 8
