REMARK  12 active torsions:
REMARK  status: ('A' for Active; 'I' for Inactive)
REMARK    1  A    between atoms: C5_5  and  C6_6 
REMARK    2  A    between atoms: C6_6  and  C7_7 
REMARK    3  A    between atoms: C7_7  and  C8_8 
REMARK    4  A    between atoms: C7_7  and  C19_24 
REMARK    5  A    between atoms: C7_7  and  C25_34 
REMARK    6  A    between atoms: C9_9  and  C10_10 
REMARK    7  A    between atoms: C10_10  and  C11_11 
REMARK    8  A    between atoms: C11_11  and  O1_12 
REMARK    9  A    between atoms: C11_11  and  C12_14 
REMARK   10  A    between atoms: C13_15  and  C14_16 
REMARK   11  A    between atoms: C18_21  and  O2_22 
REMARK   12  A    between atoms: C19_24  and  O3_25 
ROOT
HETATM    1  C7  UNL     1      -1.661  -0.444   0.862  1.00  0.00     0.203 C 
ENDROOT
BRANCH   1   2
HETATM    2  C6  UNL     1      -2.661   0.450   0.352  1.00  0.00     0.016 C 
BRANCH   2   3
HETATM    3  C5  UNL     1      -2.650   1.907   0.395  1.00  0.00    -0.078 C 
HETATM    4  C4  UNL     1      -1.575   2.687  -0.244  1.00  0.00     0.061 C 
HETATM    5  C3  UNL     1      -2.114   4.095  -0.409  1.00  0.00    -0.020 C 
HETATM    6  C2  UNL     1      -3.093   4.575   0.304  1.00  0.00    -0.087 C 
HETATM    7  C1  UNL     1      -3.535   5.985   0.043  1.00  0.00     0.043 C 
HETATM    8  C27 UNL     1      -3.830   3.845   1.375  1.00  0.00     0.038 C 
HETATM    9  C26 UNL     1      -3.078   2.541   1.723  1.00  0.00     0.038 C 
ENDBRANCH   2   3
ENDBRANCH   1   2
BRANCH   1  10
HETATM   10  C8  UNL     1      -0.383  -0.090   0.084  1.00  0.00    -0.074 C 
HETATM   11  C9  UNL     1       0.627   0.155  -0.519  1.00  0.00    -0.102 C 
BRANCH  11  12
HETATM   12  C10 UNL     1       1.868   0.454  -1.228  1.00  0.00     0.129 C 
BRANCH  12  13
HETATM   13  C11 UNL     1       2.999  -0.435  -0.705  1.00  0.00     0.151 C 
BRANCH  13  14
HETATM   14  O1  UNL     1       2.635  -1.741  -0.922  1.00  0.00    -0.391 OA
ATOM     15  H1  UNL     1       3.337  -2.293  -0.597  1.00  0.00     0.210 HD
ENDBRANCH  13  14
BRANCH  13  16
HETATM   16  C12 UNL     1       4.278  -0.038  -1.293  1.00  0.00     0.002 C 
HETATM   17  C13 UNL     1       5.407  -0.318  -0.651  1.00  0.00    -0.021 C 
BRANCH  17  18
HETATM   18  C14 UNL     1       6.717   0.089  -1.251  1.00  0.00     0.038 C 
HETATM   19  C15 UNL     1       7.611  -1.139  -1.339  1.00  0.00     0.031 C 
HETATM   20  C16 UNL     1       8.941  -0.728  -0.780  1.00  0.00     0.085 C 
HETATM   21 CL1  UNL     1      10.274  -1.174  -1.844  1.00  0.00    -0.125 Cl
HETATM   22  C17 UNL     1       8.899   0.793  -0.672  1.00  0.00     0.052 C 
HETATM   23  C18 UNL     1       7.449   1.024  -0.327  1.00  0.00     0.127 C 
BRANCH  23  24
HETATM   24  O2  UNL     1       7.039   2.318  -0.611  1.00  0.00    -0.395 OA
ATOM     25  H2  UNL     1       7.501   2.908  -0.028  1.00  0.00     0.210 HD
ENDBRANCH  23  24
ENDBRANCH  17  18
ENDBRANCH  13  16
ENDBRANCH  12  13
ENDBRANCH  11  12
ENDBRANCH   1  10
BRANCH   1  26
HETATM   26  C19 UNL     1      -1.967  -1.838   0.444  1.00  0.00     0.148 C 
HETATM   27  N1  UNL     1      -3.050  -2.647   0.601  1.00  0.00    -0.360 N 
HETATM   28  C20 UNL     1      -2.964  -4.026   0.013  1.00  0.00     0.155 C 
HETATM   29  C24 UNL     1      -4.288  -2.407   1.239  1.00  0.00     0.155 C 
HETATM   30  C21 UNL     1      -4.364  -4.490  -0.249  1.00  0.00     0.291 C 
HETATM   31  N2  UNL     1      -5.157  -3.414  -0.761  1.00  0.00     0.087 N 
HETATM   32  C22 UNL     1      -6.456  -3.960  -1.170  1.00  0.00     0.310 C 
HETATM   33  C23 UNL     1      -5.436  -2.380   0.222  1.00  0.00     0.291 C 
BRANCH  26  34
HETATM   34  O3  UNL     1      -0.967  -2.412  -0.222  1.00  0.00    -0.348 OA
ATOM     35  H3  UNL     1      -1.162  -3.302  -0.489  1.00  0.00     0.219 HD
ENDBRANCH  26  34
ENDBRANCH   1  26
BRANCH   1  36
HETATM   36  C25 UNL     1      -1.260  -0.467   2.289  1.00  0.00     0.417 C 
HETATM   37  F1  UNL     1      -0.279  -1.485   2.421  1.00  0.00    -0.168 F 
HETATM   38  F2  UNL     1      -0.473   0.668   2.617  1.00  0.00    -0.168 F 
HETATM   39  F3  UNL     1      -2.177  -0.695   3.229  1.00  0.00    -0.168 F 
ENDBRANCH   1  36
TORSDOF 12
