REMARK  6 active torsions:
REMARK  status: ('A' for Active; 'I' for Inactive)
REMARK    1  A    between atoms: C2_2  and  C3_3 
REMARK    2  A    between atoms: C4_6  and  C5_7 
REMARK    3  A    between atoms: C4_6  and  C10_15 
REMARK    4  A    between atoms: N2_10  and  C8_11 
REMARK    5  A    between atoms: C12_24  and  C13_25 
REMARK       I    between atoms: C13_25  and  N5_27 
REMARK    6  A    between atoms: N6_30  and  C16_31 
ROOT
HETATM    1  C3  UNL     1       2.865  -1.701  -0.521  1.00  0.00     0.005 C 
HETATM    2  N1  UNL     1       3.827  -1.021  -0.946  1.00  0.00    -0.361 N 
ATOM      3  H1  UNL     1       4.429  -1.485  -1.626  1.00  0.00     0.162 HD
HETATM    4  C4  UNL     1       4.197   0.328  -0.604  1.00  0.00     0.198 C 
HETATM    5  N3  UNL     1       3.260   0.864   0.352  1.00  0.00    -0.344 N 
ATOM      6  H3  UNL     1       3.127   1.872   0.429  1.00  0.00     0.163 HD
HETATM    7  C11 UNL     1       2.508  -0.037   1.203  1.00  0.00     0.091 C 
HETATM    8  N4  UNL     1       2.453   0.161   2.476  1.00  0.00    -0.388 N 
ATOM      9  H41 UNL     1       1.924  -0.473   3.075  1.00  0.00     0.157 HD
ATOM     10  H42 UNL     1       2.893   0.937   2.971  1.00  0.00     0.157 HD
HETATM   11  C12 UNL     1       1.870  -1.163   0.484  1.00  0.00     0.190 C 
ENDROOT
BRANCH  11  12
HETATM   12  C13 UNL     1       0.635  -0.745  -0.164  1.00  0.00     0.238 C 
HETATM   13  O1  UNL     1       0.583  -0.974  -1.438  1.00  0.00    -0.272 OA
HETATM   14  N5  UNL     1      -0.506  -0.139   0.358  1.00  0.00    -0.324 N 
HETATM   15  C14 UNL     1      -0.784   0.272   1.701  1.00  0.00     0.158 C 
HETATM   16  C26 UNL     1      -1.724   0.186  -0.428  1.00  0.00     0.401 C 
HETATM   17  C15 UNL     1      -2.256   0.581   1.698  1.00  0.00     0.295 C 
HETATM   18  N6  UNL     1      -2.747  -0.115   0.557  1.00  0.00     0.117 N 
BRANCH  18  19
HETATM   19  C16 UNL     1      -4.066   0.254   0.144  1.00  0.00     0.163 C 
HETATM   20  C17 UNL     1      -4.999  -0.109   1.306  1.00  0.00     0.046 C 
HETATM   21  C18 UNL     1      -6.434   0.099   0.890  1.00  0.00    -0.011 C 
HETATM   22  C19 UNL     1      -6.670   1.540   0.531  1.00  0.00     0.009 C 
HETATM   23  C23 UNL     1      -6.723  -0.781  -0.287  1.00  0.00     0.009 C 
HETATM   24  C20 UNL     1      -5.706   1.903  -0.576  1.00  0.00    -0.011 C 
HETATM   25  C21 UNL     1      -6.039   1.101  -1.799  1.00  0.00     0.009 C 
HETATM   26  C25 UNL     1      -4.261   1.707  -0.129  1.00  0.00     0.046 C 
HETATM   27  C22 UNL     1      -5.873  -0.367  -1.469  1.00  0.00    -0.011 C 
HETATM   28  C24 UNL     1      -4.421  -0.573  -1.082  1.00  0.00     0.046 C 
ENDBRANCH  18  19
ENDBRANCH  11  12
BRANCH   1  29
HETATM   29  C2  UNL     1       2.659  -3.086  -1.005  1.00  0.00     0.049 C 
HETATM   30  C1  UNL     1       3.746  -3.480  -2.010  1.00  0.00     0.011 C 
ENDBRANCH   1  29
BRANCH   4  31
HETATM   31  C5  UNL     1       5.540   0.280   0.026  1.00  0.00     0.053 A 
HETATM   32  C6  UNL     1       6.283  -0.872   0.169  1.00  0.00     0.034 A 
HETATM   33  C7  UNL     1       7.491  -0.547   0.774  1.00  0.00     0.095 A 
HETATM   34  N2  UNL     1       7.495   0.778   1.001  1.00  0.00    -0.320 N 
HETATM   35  C9  UNL     1       6.307   1.285   0.547  1.00  0.00     0.202 A 
HETATM   36  F1  UNL     1       6.033   2.606   0.672  1.00  0.00    -0.185 F 
BRANCH  34  37
HETATM   37  C8  UNL     1       8.569   1.529   1.618  1.00  0.00     0.245 C 
HETATM   38 CL1  UNL     1       9.707   2.103   0.353  1.00  0.00    -0.108 Cl
ENDBRANCH  34  37
ENDBRANCH   4  31
BRANCH   4  39
HETATM   39  C10 UNL     1       4.297   1.136  -1.880  1.00  0.00     0.406 C 
HETATM   40  F2  UNL     1       4.622   2.433  -1.730  1.00  0.00    -0.209 F 
HETATM   41  F3  UNL     1       3.119   0.954  -2.595  1.00  0.00    -0.209 F 
ENDBRANCH   4  39
TORSDOF 6
