REMARK  7 active torsions:
REMARK  status: ('A' for Active; 'I' for Inactive)
REMARK       I    between atoms: N2_3  and  C2_5 
REMARK       I    between atoms: C2_5  and  N5_16 
REMARK    1  A    between atoms: N3_6  and  C3_8 
REMARK    2  A    between atoms: C3_8  and  C4_9 
REMARK    3  A    between atoms: C4_9  and  N4_10 
REMARK    4  A    between atoms: N5_16  and  C10_18 
REMARK    5  A    between atoms: N6_21  and  C13_22 
REMARK    6  A    between atoms: C16_25  and  C17_26 
REMARK    7  A    between atoms: C21_34  and  N7_35 
ROOT
HETATM    1  N1  UNL     1       1.325  -1.108   4.046  1.00  0.00    -0.171 NA
HETATM    2  C1  UNL     1       1.162  -1.650   3.012  1.00  0.00     0.196 C 
HETATM    3  N2  UNL     1       0.954  -2.262   1.780  1.00  0.00    -0.126 N 
ATOM      4  H2  UNL     1       0.451  -3.147   1.719  1.00  0.00     0.197 HD
HETATM    5  C2  UNL     1       1.467  -1.617   0.576  1.00  0.00     0.687 C 
HETATM    6  N3  UNL     1       2.706  -1.537   0.536  1.00  0.00    -0.203 N 
ATOM      7  H3  UNL     1       3.078  -1.957   1.388  1.00  0.00     0.183 HD
HETATM    8  N5  UNL     1       0.556  -1.135  -0.408  1.00  0.00    -0.218 N 
ATOM      9  H5  UNL     1       0.770  -1.335  -1.385  1.00  0.00     0.178 HD
ENDROOT
BRANCH   6  10
HETATM   10  C3  UNL     1       3.772  -1.094  -0.226  1.00  0.00     0.109 C 
BRANCH  10  11
HETATM   11  C4  UNL     1       4.431   0.141   0.326  1.00  0.00     0.317 C 
BRANCH  11  12
HETATM   12  N4  UNL     1       5.618   0.580  -0.409  1.00  0.00     0.093 N 
HETATM   13  C5  UNL     1       6.079   1.744   0.278  1.00  0.00     0.273 C 
HETATM   14  C6  UNL     1       7.359   2.348  -0.141  1.00  0.00     0.030 C 
HETATM   15  C7  UNL     1       8.335   1.330  -0.612  1.00  0.00     0.003 C 
HETATM   16  C8  UNL     1       7.999  -0.066  -0.110  1.00  0.00     0.030 C 
HETATM   17  C9  UNL     1       6.596  -0.452  -0.486  1.00  0.00     0.273 C 
ENDBRANCH  11  12
ENDBRANCH  10  11
ENDBRANCH   6  10
BRANCH   8  18
HETATM   18  C10 UNL     1      -0.629  -0.396  -0.135  1.00  0.00     0.139 C 
HETATM   19  C11 UNL     1      -1.137   0.366  -1.367  1.00  0.00     0.048 C 
HETATM   20  C12 UNL     1      -1.808   1.584  -0.776  1.00  0.00     0.130 C 
HETATM   21  N6  UNL     1      -2.790   1.215   0.265  1.00  0.00    -0.357 N 
HETATM   22  C20 UNL     1      -2.596   0.111   1.106  1.00  0.00     0.102 C 
HETATM   23  C21 UNL     1      -1.774  -1.049   0.543  1.00  0.00     0.284 C 
BRANCH  21  24
HETATM   24  C13 UNL     1      -3.896   2.136   0.277  1.00  0.00     0.056 A 
HETATM   25  C14 UNL     1      -4.626   2.330  -0.888  1.00  0.00     0.032 A 
HETATM   26  C15 UNL     1      -5.627   3.271  -0.944  1.00  0.00     0.018 A 
HETATM   27  C16 UNL     1      -5.933   4.049   0.159  1.00  0.00     0.049 A 
HETATM   28  C18 UNL     1      -5.217   3.859   1.310  1.00  0.00     0.042 A 
HETATM   29  C19 UNL     1      -4.207   2.899   1.344  1.00  0.00     0.061 A 
HETATM   30 CL1  UNL     1      -3.350   2.737   2.843  1.00  0.00    -0.082 Cl
BRANCH  27  31
HETATM   31  C17 UNL     1      -6.996   5.099   0.082  1.00  0.00     0.417 C 
HETATM   32  F1  UNL     1      -8.191   4.619  -0.393  1.00  0.00    -0.166 F 
HETATM   33  F2  UNL     1      -7.235   5.632   1.332  1.00  0.00    -0.166 F 
HETATM   34  F3  UNL     1      -6.562   6.136  -0.749  1.00  0.00    -0.166 F 
ENDBRANCH  27  31
ENDBRANCH  21  24
BRANCH  23  35
HETATM   35  N7  UNL     1      -2.620  -1.890  -0.315  1.00  0.00     0.100 N 
HETATM   36  C22 UNL     1      -1.762  -2.929  -0.868  1.00  0.00     0.273 C 
HETATM   37  C23 UNL     1      -2.540  -4.098  -1.455  1.00  0.00     0.030 C 
HETATM   38  C24 UNL     1      -3.219  -4.781  -0.282  1.00  0.00     0.003 C 
HETATM   39  C25 UNL     1      -4.204  -3.746   0.216  1.00  0.00     0.030 C 
HETATM   40  C26 UNL     1      -3.589  -2.459   0.607  1.00  0.00     0.273 C 
ENDBRANCH  23  35
ENDBRANCH   8  18
TORSDOF 7
