REMARK  8 active torsions:
REMARK  status: ('A' for Active; 'I' for Inactive)
REMARK    1  A    between atoms: S1_2  and  C2_4 
REMARK    2  A    between atoms: C3_6  and  C4_7 
REMARK    3  A    between atoms: C6_11  and  N1_12 
REMARK    4  A    between atoms: C9_15  and  C10_17 
REMARK    5  A    between atoms: C10_17  and  C11_18 
REMARK       I    between atoms: C11_18  and  N2_20 
REMARK    6  A    between atoms: N2_20  and  C12_22 
REMARK    7  A    between atoms: C20_30  and  O4_31 
REMARK    8  A    between atoms: O4_31  and  C21_32 
ROOT
HETATM    1  C10 UNL     1       0.649  -1.661   1.179  1.00  0.00     0.146 C 
ENDROOT
BRANCH   1   2
HETATM    2  C9  UNL     1       2.002  -0.925   1.098  1.00  0.00     0.114 C 
HETATM    3  C8  UNL     1       2.244  -0.563  -0.311  1.00  0.00     0.064 C 
HETATM    4  C7  UNL     1       3.576  -0.886  -0.900  1.00  0.00     0.126 C 
HETATM    5  N1  UNL     1       4.586  -1.236   0.070  1.00  0.00    -0.378 N 
HETATM    6  C24 UNL     1       4.170  -2.247   1.037  1.00  0.00     0.126 C 
HETATM    7  C23 UNL     1       2.979  -1.788   1.800  1.00  0.00     0.064 C 
HETATM    8  F3  UNL     1       1.756   0.245   1.865  1.00  0.00    -0.242 F 
BRANCH   5   9
HETATM    9  C6  UNL     1       5.872  -0.639   0.077  1.00  0.00     0.076 A 
HETATM   10  C2  UNL     1       6.240   0.674   0.271  1.00  0.00     0.168 A 
HETATM   11  O2  UNL     1       7.561   0.766   0.189  1.00  0.00    -0.298 OA
HETATM   12  C3  UNL     1       8.105  -0.380  -0.043  1.00  0.00     0.120 A 
HETATM   13  C5  UNL     1       7.092  -1.303  -0.124  1.00  0.00     0.071 A 
BRANCH  10  14
HETATM   14  S1  UNL     1       5.144   1.985   0.574  1.00  0.00     0.072 S 
HETATM   15  C1  UNL     1       4.648   2.848  -0.876  1.00  0.00     0.135 C 
HETATM   16  O1  UNL     1       5.692   3.005   1.779  1.00  0.00    -0.251 OA
ENDBRANCH  10  14
BRANCH  12  17
HETATM   17  C4  UNL     1       9.561  -0.640  -0.194  1.00  0.00     0.410 C 
HETATM   18  F1  UNL     1       9.795  -1.128  -1.468  1.00  0.00    -0.207 F 
HETATM   19  F2  UNL     1       9.961  -1.597   0.727  1.00  0.00    -0.207 F 
ENDBRANCH  12  17
ENDBRANCH   5   9
ENDBRANCH   1   2
BRANCH   1  20
HETATM   20  C11 UNL     1      -0.432  -0.766   0.705  1.00  0.00     0.221 C 
HETATM   21  O3  UNL     1      -0.145   0.417   0.374  1.00  0.00    -0.273 OA
HETATM   22  N2  UNL     1      -1.781  -1.187   0.607  1.00  0.00    -0.356 N 
ATOM     23  H2  UNL     1      -2.042  -2.138   0.867  1.00  0.00     0.162 HD
BRANCH  22  24
HETATM   24  C12 UNL     1      -2.783  -0.264   0.138  1.00  0.00     0.089 C 
HETATM   25  C13 UNL     1      -3.310  -0.791  -1.165  1.00  0.00     0.030 C 
HETATM   26  C14 UNL     1      -4.472  -0.049  -1.721  1.00  0.00    -0.009 C 
HETATM   27  C15 UNL     1      -5.732  -0.759  -1.295  1.00  0.00     0.012 C 
HETATM   28  C22 UNL     1      -4.629   1.350  -1.211  1.00  0.00     0.044 C 
HETATM   29  C16 UNL     1      -5.962  -0.156   0.081  1.00  0.00     0.022 C 
HETATM   30  C17 UNL     1      -5.042  -0.959   1.014  1.00  0.00     0.014 C 
HETATM   31  C20 UNL     1      -5.395   1.214   0.082  1.00  0.00     0.076 C 
HETATM   32  C18 UNL     1      -3.825  -0.130   1.206  1.00  0.00     0.012 C 
HETATM   33  C19 UNL     1      -4.342   1.267   1.199  1.00  0.00     0.045 C 
BRANCH  31  34
HETATM   34  O4  UNL     1      -6.280   2.248   0.340  1.00  0.00    -0.295 OA
BRANCH  34  35
HETATM   35  C21 UNL     1      -7.397   2.598  -0.365  1.00  0.00     0.373 C 
HETATM   36  N3  UNL     1      -8.248   3.691  -0.011  1.00  0.00    -0.032 NA
HETATM   37  O5  UNL     1      -7.680   1.922  -1.368  1.00  0.00    -0.242 OA
ENDBRANCH  34  35
ENDBRANCH  31  34
ENDBRANCH  22  24
ENDBRANCH   1  20
TORSDOF 8
