REMARK  8 active torsions:
REMARK  status: ('A' for Active; 'I' for Inactive)
REMARK    1  A    between atoms: O1_2  and  C2_3 
REMARK    2  A    between atoms: C2_3  and  C3_4 
REMARK    3  A    between atoms: C3_4  and  N1_6 
REMARK    4  A    between atoms: N1_6  and  C5_8 
REMARK    5  A    between atoms: C7_12  and  N3_13 
REMARK    6  A    between atoms: N3_13  and  C8_15 
REMARK    7  A    between atoms: C11_19  and  C12_20 
REMARK    8  A    between atoms: C12_20  and  N4_21 
ROOT
HETATM    1  C5  UNL     1       4.062  -1.889  -0.182  1.00  0.00     0.124 A 
HETATM    2  N2  UNL     1       2.933  -1.297   0.216  1.00  0.00    -0.336 N 
ATOM      3  H2  UNL     1       3.014  -0.401   0.697  1.00  0.00     0.168 HD
HETATM    4  C6  UNL     1       1.685  -1.800   0.028  1.00  0.00     0.105 A 
HETATM    5  C7  UNL     1       0.568  -1.127   0.382  1.00  0.00     0.136 A 
HETATM    6  N5  UNL     1      -0.602  -1.708   0.064  1.00  0.00    -0.337 N 
ATOM      7  H5  UNL     1      -1.447  -1.203   0.330  1.00  0.00     0.168 HD
HETATM    8  C19 UNL     1      -0.778  -2.870  -0.560  1.00  0.00     0.182 A 
HETATM    9  N6  UNL     1       0.342  -3.532  -0.905  1.00  0.00    -0.350 N 
ATOM     10  H6  UNL     1       0.261  -4.430  -1.382  1.00  0.00     0.166 HD
HETATM   11  C20 UNL     1       1.550  -3.047  -0.640  1.00  0.00     0.065 A 
HETATM   12  C21 UNL     1       2.688  -3.689  -1.063  1.00  0.00     0.059 A 
HETATM   13  C22 UNL     1       3.903  -3.131  -0.841  1.00  0.00     0.080 A 
HETATM   14 CL3  UNL     1       5.320  -3.975  -1.386  1.00  0.00    -0.080 Cl
ENDROOT
BRANCH   5  15
HETATM   15  N3  UNL     1       0.626   0.018   1.096  1.00  0.00    -0.339 N 
ATOM     16  H3  UNL     1       1.454   0.496   1.451  1.00  0.00     0.167 HD
BRANCH  15  17
HETATM   17  C8  UNL     1      -0.813   0.425   1.247  1.00  0.00     0.060 A 
HETATM   18  C9  UNL     1      -1.720  -0.463   1.725  1.00  0.00     0.056 A 
HETATM   19  C10 UNL     1      -3.082  -0.273   1.442  1.00  0.00     0.051 A 
HETATM   20 CL1  UNL     1      -4.268  -1.401   2.058  1.00  0.00    -0.083 Cl
HETATM   21  C11 UNL     1      -3.515   0.795   0.689  1.00  0.00     0.042 A 
HETATM   22  C17 UNL     1      -2.522   1.696   0.244  1.00  0.00     0.153 A 
HETATM   23  F1  UNL     1      -2.838   2.779  -0.481  1.00  0.00    -0.203 F 
HETATM   24  C18 UNL     1      -1.171   1.517   0.520  1.00  0.00     0.100 A 
HETATM   25 CL2  UNL     1       0.041   2.639  -0.032  1.00  0.00    -0.079 Cl
BRANCH  21  26
HETATM   26  C12 UNL     1      -4.778   0.696  -0.046  1.00  0.00     0.110 C 
BRANCH  26  27
HETATM   27  N4  UNL     1      -5.927   1.428   0.170  1.00  0.00    -0.327 N 
HETATM   28  C13 UNL     1      -7.157   0.732   0.820  1.00  0.00     0.132 C 
HETATM   29  C14 UNL     1      -8.255   1.250  -0.088  1.00  0.00     0.029 C 
HETATM   30  C15 UNL     1      -7.943   2.749   0.064  1.00  0.00     0.105 C 
HETATM   31  C16 UNL     1      -6.443   2.671  -0.210  1.00  0.00     0.223 C 
HETATM   32  O2  UNL     1      -5.871   3.662  -0.714  1.00  0.00    -0.273 OA
ENDBRANCH  26  27
ENDBRANCH  21  26
ENDBRANCH  15  17
ENDBRANCH   5  15
BRANCH   1  33
HETATM   33  N1  UNL     1       5.217  -1.473  -0.033  1.00  0.00    -0.369 N 
ATOM     34  H1  UNL     1       5.861  -2.146  -0.448  1.00  0.00     0.161 HD
BRANCH  33  35
HETATM   35  C3  UNL     1       5.946  -0.434   0.488  1.00  0.00     0.103 C 
HETATM   36  C4  UNL     1       7.436  -0.862   0.431  1.00  0.00     0.034 C 
BRANCH  35  37
HETATM   37  C2  UNL     1       5.909   0.909  -0.198  1.00  0.00     0.191 C 
BRANCH  37  38
HETATM   38  O1  UNL     1       6.742   1.725   0.537  1.00  0.00    -0.394 OA
HETATM   39  C1  UNL     1       6.839   3.008   0.050  1.00  0.00     0.201 C 
ENDBRANCH  37  38
ENDBRANCH  35  37
ENDBRANCH  33  35
ENDBRANCH   1  33
TORSDOF 8
