REMARK  11 active torsions:
REMARK  status: ('A' for Active; 'I' for Inactive)
REMARK    1  A    between atoms: C2_2  and  O1_5 
REMARK    2  A    between atoms: O1_5  and  C5_6 
REMARK       I    between atoms: C5_6  and  N1_8 
REMARK    3  A    between atoms: N1_8  and  C6_10 
REMARK    4  A    between atoms: C6_10  and  C7_11 
REMARK    5  A    between atoms: N2_17  and  C10_18 
REMARK    6  A    between atoms: C10_18  and  O3_19 
REMARK    7  A    between atoms: C10_18  and  C11_21 
REMARK    8  A    between atoms: C11_21  and  N3_22 
REMARK    9  A    between atoms: N3_22  and  C12_24 
REMARK   10  A    between atoms: C12_24  and  C13_25 
REMARK       I    between atoms: C13_25  and  N4_27 
REMARK   11  A    between atoms: N4_27  and  C14_29 
ROOT
HETATM    1  C10 UNL     1       1.435   0.273  -0.218  1.00  0.00     0.142 C 
ENDROOT
BRANCH   1   2
HETATM    2  N2  UNL     1       0.209   0.587   0.362  1.00  0.00    -0.363 N 
HETATM    3  C9  UNL     1      -0.701  -0.514   0.781  1.00  0.00     0.127 C 
HETATM    4  C8  UNL     1      -1.955  -0.374  -0.069  1.00  0.00     0.060 C 
HETATM    5  C6  UNL     1      -2.668   0.946   0.178  1.00  0.00     0.135 C 
HETATM    6  C22 UNL     1      -1.784   1.839   1.028  1.00  0.00     0.060 C 
HETATM    7  C21 UNL     1      -0.333   1.881   0.654  1.00  0.00     0.127 C 
BRANCH   5   8
HETATM    8  N1  UNL     1      -3.848   0.628   0.934  1.00  0.00    -0.319 N 
HETATM    9  C5  UNL     1      -4.909  -0.238   0.612  1.00  0.00     0.362 C 
HETATM   10  O2  UNL     1      -5.001  -0.912  -0.433  1.00  0.00    -0.238 OA
ATOM     11  H1  UNL     1      -3.928   1.099   1.835  1.00  0.00     0.166 HD
BRANCH   9  12
HETATM   12  O1  UNL     1      -5.996  -0.408   1.498  1.00  0.00    -0.294 OA
BRANCH  12  13
HETATM   13  C2  UNL     1      -7.066  -1.250   1.211  1.00  0.00     0.061 C 
HETATM   14  C1  UNL     1      -6.654  -2.691   0.992  1.00  0.00     0.046 C 
HETATM   15  C3  UNL     1      -7.941  -0.822   0.081  1.00  0.00     0.046 C 
HETATM   16  C4  UNL     1      -7.946  -1.263   2.472  1.00  0.00     0.046 C 
ENDBRANCH  12  13
ENDBRANCH   9  12
ENDBRANCH   5   8
BRANCH   5  17
HETATM   17  C7  UNL     1      -3.030   1.640  -1.092  1.00  0.00     0.412 C 
HETATM   18  F1  UNL     1      -3.811   0.979  -1.964  1.00  0.00    -0.168 F 
HETATM   19  F2  UNL     1      -1.893   2.148  -1.745  1.00  0.00    -0.168 F 
HETATM   20  F3  UNL     1      -3.737   2.812  -0.744  1.00  0.00    -0.168 F 
ENDBRANCH   5  17
ENDBRANCH   1   2
BRANCH   1  21
HETATM   21  O3  UNL     1       1.639  -1.037  -0.245  1.00  0.00    -0.348 OA
ATOM     22  H3  UNL     1       2.476  -1.251  -0.641  1.00  0.00     0.219 HD
ENDBRANCH   1  21
BRANCH   1  23
HETATM   23  C11 UNL     1       2.477   1.127  -0.778  1.00  0.00     0.098 C 
HETATM   24  C17 UNL     1       2.921   2.195   0.160  1.00  0.00     0.042 C 
HETATM   25  C18 UNL     1       3.654   3.203  -0.748  1.00  0.00     0.045 C 
HETATM   26  C19 UNL     1       2.965   3.092  -2.092  1.00  0.00     0.116 C 
HETATM   27 CL1  UNL     1       4.257   2.859  -3.310  1.00  0.00    -0.102 Cl
HETATM   28 CL2  UNL     1       2.112   4.586  -2.530  1.00  0.00    -0.102 Cl
HETATM   29  C20 UNL     1       2.045   1.888  -2.040  1.00  0.00     0.082 C 
BRANCH  23  30
HETATM   30  N3  UNL     1       3.639   0.323  -1.107  1.00  0.00    -0.378 N 
ATOM     31  H3  UNL     1       3.930   0.196  -2.076  1.00  0.00     0.160 HD
BRANCH  30  32
HETATM   32  C12 UNL     1       4.352  -0.276  -0.056  1.00  0.00     0.159 C 
BRANCH  32  33
HETATM   33  C13 UNL     1       5.497  -1.061  -0.657  1.00  0.00     0.256 C 
HETATM   34  O4  UNL     1       5.615  -1.067  -1.889  1.00  0.00    -0.267 OA
HETATM   35  N4  UNL     1       6.409  -1.767   0.148  1.00  0.00    -0.352 N 
ATOM     36  H4  UNL     1       6.300  -1.758   1.162  1.00  0.00     0.163 HD
BRANCH  35  37
HETATM   37  C14 UNL     1       7.500  -2.506  -0.449  1.00  0.00     0.084 A 
HETATM   38  C15 UNL     1       7.989  -3.681   0.286  1.00  0.00     0.027 A 
HETATM   39  C16 UNL     1       8.776  -2.410   0.350  1.00  0.00     0.027 A 
ENDBRANCH  35  37
ENDBRANCH  32  33
ENDBRANCH  30  32
ENDBRANCH  23  30
ENDBRANCH   1  23
TORSDOF 11
