REMARK  9 active torsions:
REMARK  status: ('A' for Active; 'I' for Inactive)
REMARK    1  A    between atoms: C8_9  and  C9_10 
REMARK    2  A    between atoms: C9_10  and  C10_11 
REMARK       I    between atoms: N2_18  and  C15_19 
REMARK    3  A    between atoms: C15_19  and  C16_21 
REMARK    4  A    between atoms: C16_21  and  C17_22 
REMARK    5  A    between atoms: C17_22  and  C18_23 
REMARK    6  A    between atoms: C17_22  and  C20_28 
REMARK    7  A    between atoms: C18_23  and  C19_24 
REMARK    8  A    between atoms: C20_28  and  O3_29 
REMARK    9  A    between atoms: N3_31  and  O4_33 
ROOT
HETATM    1  C1  UNL     1      -5.908  -2.574   0.576  1.00  0.00     0.309 C 
HETATM    2  N1  UNL     1      -4.581  -2.089   0.973  1.00  0.00     0.085 N 
HETATM    3  C2  UNL     1      -4.296  -0.817   0.355  1.00  0.00     0.272 C 
HETATM    4  C3  UNL     1      -4.058   0.203   1.475  1.00  0.00     0.034 C 
HETATM    5  C4  UNL     1      -3.440   1.433   0.826  1.00  0.00     0.028 C 
HETATM    6  C5  UNL     1      -2.622   2.125   1.856  1.00  0.00    -0.031 C 
HETATM    7  C6  UNL     1      -1.569   2.897   1.517  1.00  0.00    -0.030 C 
HETATM    8  C7  UNL     1      -1.165   3.100   0.083  1.00  0.00     0.041 C 
HETATM    9  C8  UNL     1      -0.111   2.158  -0.404  1.00  0.00     0.082 C 
HETATM   10  C14 UNL     1       0.903   1.820   0.667  1.00  0.00     0.231 C 
HETATM   11  O1  UNL     1       1.129   2.711   1.511  1.00  0.00    -0.273 OA
HETATM   12  N2  UNL     1       1.601   0.599   0.778  1.00  0.00    -0.288 N 
HETATM   13  C15 UNL     1       3.030   0.623   1.036  1.00  0.00     0.227 C 
HETATM   14  O2  UNL     1       3.581   1.761   1.162  1.00  0.00    -0.273 OA
HETATM   15  C21 UNL     1       1.013  -0.709   0.649  1.00  0.00     0.136 C 
HETATM   16  C22 UNL     1      -0.285  -0.852   1.408  1.00  0.00     0.048 C 
HETATM   17  C23 UNL     1      -0.434  -2.246   1.972  1.00  0.00     0.234 C 
HETATM   18  N4  UNL     1      -1.257  -3.019   1.089  1.00  0.00    -0.073 N 
ATOM     19  H41 UNL     1      -0.780  -3.871   0.793  1.00  0.00     0.277 HD
ATOM     20  H42 UNL     1      -1.353  -2.562   0.182  1.00  0.00     0.277 HD
HETATM   21  C24 UNL     1      -2.561  -3.321   1.666  1.00  0.00     0.262 C 
HETATM   22  C25 UNL     1      -3.617  -3.101   0.608  1.00  0.00     0.299 C 
ENDROOT
BRANCH  13  23
HETATM   23  C16 UNL     1       3.846  -0.604   1.154  1.00  0.00     0.116 C 
BRANCH  23  24
HETATM   24  C17 UNL     1       4.204  -1.255  -0.132  1.00  0.00     0.079 C 
BRANCH  24  25
HETATM   25  C18 UNL     1       5.030  -0.519  -1.108  1.00  0.00     0.130 C 
BRANCH  25  26
HETATM   26  C19 UNL     1       6.416  -0.156  -0.718  1.00  0.00     0.388 C 
HETATM   27  F2  UNL     1       6.962   0.533  -1.818  1.00  0.00    -0.171 F 
HETATM   28  F3  UNL     1       7.234  -1.286  -0.607  1.00  0.00    -0.171 F 
HETATM   29  F4  UNL     1       6.577   0.663   0.354  1.00  0.00    -0.171 F 
ENDBRANCH  25  26
ENDBRANCH  24  25
BRANCH  24  30
HETATM   30  C20 UNL     1       4.783  -2.638   0.135  1.00  0.00     0.140 C 
HETATM   31  N3  UNL     1       4.880  -3.047   1.344  1.00  0.00    -0.251 N 
ATOM     32  H3  UNL     1       4.571  -2.447   2.109  1.00  0.00     0.196 HD
BRANCH  30  33
HETATM   33  O3  UNL     1       5.204  -3.456  -0.891  1.00  0.00    -0.348 OA
ATOM     34  H3  UNL     1       5.565  -4.319  -0.724  1.00  0.00     0.219 HD
ENDBRANCH  30  33
BRANCH  31  35
HETATM   35  O4  UNL     1       5.395  -4.282   1.616  1.00  0.00    -0.288 OA
ATOM     36  H4  UNL     1       5.467  -4.586   2.513  1.00  0.00     0.244 HD
ENDBRANCH  31  35
ENDBRANCH  24  30
ENDBRANCH  23  24
ENDBRANCH  13  23
BRANCH   9  37
HETATM   37  C9  UNL     1       0.713   2.810  -1.477  1.00  0.00     0.019 C 
BRANCH  37  38
HETATM   38  C10 UNL     1       0.142   3.281  -2.717  1.00  0.00    -0.008 C 
HETATM   39  C11 UNL     1      -0.591   2.327  -3.635  1.00  0.00     0.042 C 
HETATM   40  C12 UNL     1      -1.227   3.590  -4.252  1.00  0.00     0.170 C 
HETATM   41  F1  UNL     1      -2.548   3.482  -4.556  1.00  0.00    -0.249 F 
HETATM   42  C13 UNL     1      -0.978   4.230  -2.853  1.00  0.00     0.042 C 
ENDBRANCH  37  38
ENDBRANCH   9  37
TORSDOF 9
