REMARK  13 active torsions:
REMARK  status: ('A' for Active; 'I' for Inactive)
REMARK    1  A    between atoms: C2_2  and  O1_3 
REMARK    2  A    between atoms: C2_2  and  C10_19 
REMARK    3  A    between atoms: O1_3  and  C3_4 
REMARK       I    between atoms: C3_4  and  N1_6 
REMARK       I    between atoms: N1_6  and  C4_8 
REMARK    4  A    between atoms: C4_8  and  C5_10 
REMARK    5  A    between atoms: C5_10  and  N2_11 
REMARK    6  A    between atoms: C5_10  and  C6_15 
REMARK       I    between atoms: C10_19  and  N3_21 
REMARK       I    between atoms: N3_21  and  C11_23 
REMARK       I    between atoms: C11_23  and  N4_25 
REMARK    7  A    between atoms: N4_25  and  C12_27 
REMARK    8  A    between atoms: C12_27  and  C13_28 
REMARK    9  A    between atoms: C13_28  and  O6_29 
REMARK   10  A    between atoms: O6_29  and  C14_30 
REMARK   11  A    between atoms: N6_36  and  O8_37 
REMARK   12  A    between atoms: N7_41  and  C19_42 
REMARK   13  A    between atoms: C19_42  and  O10_43 
ROOT
HETATM    1  C14 UNL     1       6.149  -0.357   0.735  1.00  0.00     0.177 A 
HETATM    2  C15 UNL     1       6.051   0.334   1.910  1.00  0.00     0.166 A 
HETATM    3  C16 UNL     1       5.266  -0.194   3.003  1.00  0.00     0.110 C 
HETATM    4  N5  UNL     1       4.675  -0.629   3.869  1.00  0.00    -0.191 NA
HETATM    5  C17 UNL     1       6.757   1.495   2.168  1.00  0.00     0.300 A 
HETATM    6  O7  UNL     1       6.642   2.124   3.285  1.00  0.00    -0.264 OA
HETATM    7  N6  UNL     1       7.591   1.998   1.243  1.00  0.00    -0.132 N 
HETATM    8  C18 UNL     1       7.686   1.311   0.103  1.00  0.00     0.359 A 
HETATM    9  O9  UNL     1       8.481   1.784  -0.776  1.00  0.00    -0.244 OA
HETATM   10  N7  UNL     1       7.035   0.200  -0.181  1.00  0.00    -0.254 N 
ENDROOT
BRANCH   1  11
HETATM   11  O6  UNL     1       5.493  -1.484   0.393  1.00  0.00    -0.329 OA
BRANCH  11  12
HETATM   12  C13 UNL     1       4.287  -1.708  -0.309  1.00  0.00     0.222 C 
BRANCH  12  13
HETATM   13  C12 UNL     1       3.131  -1.132   0.402  1.00  0.00     0.092 C 
BRANCH  13  14
HETATM   14  N4  UNL     1       1.835  -1.225  -0.088  1.00  0.00    -0.320 N 
HETATM   15  C11 UNL     1       1.341  -0.535  -1.361  1.00  0.00     0.326 C 
HETATM   16  N3  UNL     1       0.006  -0.620  -1.493  1.00  0.00    -0.277 N 
HETATM   17  O5  UNL     1       2.285  -0.059  -1.938  1.00  0.00    -0.247 OA
HETATM   18  C10 UNL     1      -0.171   0.588  -2.730  1.00  0.00     0.255 C 
ATOM     19  H3  UNL     1      -0.682  -1.205  -1.019  1.00  0.00     0.173 HD
HETATM   20  O4  UNL     1       0.824   0.903  -3.176  1.00  0.00    -0.270 OA
ATOM     21  H4  UNL     1       1.168  -1.791   0.436  1.00  0.00     0.169 HD
BRANCH  18  22
HETATM   22  C2  UNL     1      -1.561   0.939  -2.918  1.00  0.00     0.222 C 
HETATM   23  C1  UNL     1      -1.691   2.504  -2.801  1.00  0.00     0.050 C 
BRANCH  22  24
HETATM   24  O1  UNL     1      -2.366   0.416  -1.925  1.00  0.00    -0.289 OA
BRANCH  24  25
HETATM   25  C3  UNL     1      -3.555  -0.176  -1.900  1.00  0.00     0.368 C 
HETATM   26  O2  UNL     1      -4.223  -0.356  -2.892  1.00  0.00    -0.238 OA
HETATM   27  N1  UNL     1      -4.085  -0.633  -0.603  1.00  0.00    -0.271 N 
HETATM   28  C4  UNL     1      -5.272  -1.187  -0.351  1.00  0.00     0.257 C 
ATOM     29  H1  UNL     1      -3.469  -0.511   0.200  1.00  0.00     0.174 HD
HETATM   30  O3  UNL     1      -6.144  -1.571  -1.233  1.00  0.00    -0.271 OA
BRANCH  28  31
HETATM   31  C5  UNL     1      -5.720  -1.435   1.106  1.00  0.00     0.282 C 
BRANCH  31  32
HETATM   32  N2  UNL     1      -6.828  -2.337   1.147  1.00  0.00    -0.066 N 
ATOM     33  H23 UNL     1      -7.600  -2.014   0.564  1.00  0.00     0.275 HD
ATOM     34  H22 UNL     1      -6.623  -3.210   0.661  1.00  0.00     0.275 HD
ATOM     35  H21 UNL     1      -7.124  -2.501   2.109  1.00  0.00     0.275 HD
ENDBRANCH  31  32
BRANCH  31  36
HETATM   36  C6  UNL     1      -6.182  -0.127   1.686  1.00  0.00    -0.014 C 
HETATM   37  C7  UNL     1      -5.109   0.957   1.635  1.00  0.00     0.017 C 
HETATM   38  C8  UNL     1      -7.432   0.382   1.053  1.00  0.00     0.017 C 
HETATM   39  C9  UNL     1      -6.450  -0.314   3.178  1.00  0.00     0.017 C 
ENDBRANCH  31  36
ENDBRANCH  28  31
ENDBRANCH  24  25
ENDBRANCH  22  24
ENDBRANCH  18  22
ENDBRANCH  13  14
ENDBRANCH  12  13
ENDBRANCH  11  12
ENDBRANCH   1  11
BRANCH  10  40
HETATM   40  C19 UNL     1       7.292  -0.577  -1.390  1.00  0.00     0.302 C 
BRANCH  40  41
HETATM   41  O10 UNL     1       8.315  -1.542  -1.056  1.00  0.00    -0.382 OA
ATOM     42  H10 UNL     1       8.482  -2.048  -1.843  1.00  0.00     0.211 HD
ENDBRANCH  40  41
ENDBRANCH  10  40
BRANCH   7  43
HETATM   43  O8  UNL     1       8.248   3.174   1.533  1.00  0.00    -0.276 OA
ATOM     44  H8  UNL     1       8.838   3.530   0.879  1.00  0.00     0.245 HD
ENDBRANCH   7  43
TORSDOF 13
