REMARK  10 active torsions:
REMARK  status: ('A' for Active; 'I' for Inactive)
REMARK    1  A    between atoms: C3_7  and  O2_8 
REMARK    2  A    between atoms: C4_10  and  C5_11 
REMARK    3  A    between atoms: C5_11  and  O3_12 
REMARK    4  A    between atoms: C5_11  and  C6_14 
REMARK    5  A    between atoms: C5_11  and  C10_23 
REMARK    6  A    between atoms: C6_14  and  C7_15 
REMARK    7  A    between atoms: C7_15  and  N3_16 
REMARK    8  A    between atoms: C10_23  and  N6_24 
REMARK       I    between atoms: N6_24  and  C11_26 
REMARK    9  A    between atoms: C11_26  and  C12_28 
REMARK   10  A    between atoms: C17_37  and  C18_38 
ROOT
HETATM    1  C5  UNL     1      -2.296  -0.536   0.287  1.00  0.00     0.112 C 
ENDROOT
BRANCH   1   2
HETATM    2  C4  UNL     1      -3.427  -1.333  -0.306  1.00  0.00     0.097 A 
HETATM    3  C3  UNL     1      -3.966  -0.953  -1.512  1.00  0.00     0.159 A 
HETATM    4  N2  UNL     1      -4.997  -1.714  -1.994  1.00  0.00    -0.288 N 
HETATM    5  C2  UNL     1      -5.473  -2.783  -1.340  1.00  0.00     0.331 A 
ATOM      6  H2  UNL     1      -5.420  -1.457  -2.886  1.00  0.00     0.172 HD
HETATM    7  N1  UNL     1      -4.951  -3.161  -0.161  1.00  0.00    -0.270 N 
HETATM    8  O1  UNL     1      -6.433  -3.453  -1.836  1.00  0.00    -0.246 OA
HETATM    9  C1  UNL     1      -5.472  -4.315   0.537  1.00  0.00     0.164 C 
HETATM   10  C19 UNL     1      -3.936  -2.448   0.361  1.00  0.00     0.264 A 
HETATM   11  O8  UNL     1      -3.433  -2.800   1.482  1.00  0.00    -0.267 OA
BRANCH   3  12
HETATM   12  O2  UNL     1      -3.501   0.131  -2.203  1.00  0.00    -0.345 OA
ATOM     13  H2  UNL     1      -2.786   0.659  -1.869  1.00  0.00     0.219 HD
ENDBRANCH   3  12
ENDBRANCH   1   2
BRANCH   1  14
HETATM   14  O3  UNL     1      -2.021  -1.242   1.502  1.00  0.00    -0.383 OA
ATOM     15  H3  UNL     1      -1.307  -0.739   1.876  1.00  0.00     0.211 HD
ENDBRANCH   1  14
BRANCH   1  16
HETATM   16  C6  UNL     1      -2.704   0.818   0.682  1.00  0.00     0.066 C 
BRANCH  16  17
HETATM   17  C7  UNL     1      -1.687   1.727   1.271  1.00  0.00     0.153 C 
BRANCH  17  18
HETATM   18  N3  UNL     1      -2.386   2.982   1.589  1.00  0.00    -0.287 N 
HETATM   19  C8  UNL     1      -2.981   3.236   2.763  1.00  0.00     0.201 A 
HETATM   20  N4  UNL     1      -3.528   4.482   2.720  1.00  0.00    -0.346 N 
HETATM   21  C9  UNL     1      -3.262   4.984   1.516  1.00  0.00     0.198 A 
ATOM     22  H4  UNL     1      -4.044   4.944   3.469  1.00  0.00     0.167 HD
HETATM   23  N5  UNL     1      -2.566   4.052   0.846  1.00  0.00    -0.293 N 
ATOM     24  H5  UNL     1      -2.224   4.159  -0.109  1.00  0.00     0.188 HD
ENDBRANCH  17  18
ENDBRANCH  16  17
ENDBRANCH   1  16
BRANCH   1  25
HETATM   25  C10 UNL     1      -1.114  -0.738  -0.566  1.00  0.00     0.166 C 
BRANCH  25  26
HETATM   26  N6  UNL     1       0.159  -0.347  -0.028  1.00  0.00    -0.352 N 
HETATM   27  C11 UNL     1       1.290  -0.515  -0.871  1.00  0.00     0.274 C 
HETATM   28  O4  UNL     1       1.215  -0.979  -2.037  1.00  0.00    -0.266 OA
ATOM     29  H6  UNL     1       0.247   0.033   0.914  1.00  0.00     0.162 HD
BRANCH  27  30
HETATM   30  C12 UNL     1       2.600  -0.123  -0.343  1.00  0.00     0.169 A 
HETATM   31  N7  UNL     1       2.722   0.378   0.897  1.00  0.00    -0.353 N 
HETATM   32  C13 UNL     1       3.927   0.725   1.346  1.00  0.00     0.137 A 
ATOM     33  H7  UNL     1       1.900   0.492   1.489  1.00  0.00     0.165 HD
HETATM   34  C14 UNL     1       5.063   0.587   0.578  1.00  0.00     0.122 A 
HETATM   35  N8  UNL     1       4.923   0.083  -0.664  1.00  0.00    -0.295 N 
HETATM   36  N9  UNL     1       6.456   0.878   0.815  1.00  0.00    -0.359 N 
HETATM   37  C15 UNL     1       3.730  -0.268  -1.129  1.00  0.00     0.281 A 
HETATM   38  C16 UNL     1       6.247   0.022  -1.302  1.00  0.00     0.170 C 
HETATM   39  O5  UNL     1       3.596  -0.746  -2.307  1.00  0.00    -0.265 OA
HETATM   40  C17 UNL     1       7.027   1.022  -0.497  1.00  0.00     0.203 C 
ATOM     41  H9  UNL     1       6.931   0.963   1.714  1.00  0.00     0.162 HD
BRANCH  40  42
HETATM   42  C18 UNL     1       8.475   0.807  -0.530  1.00  0.00     0.198 C 
HETATM   43  O6  UNL     1       9.110   0.530   0.495  1.00  0.00    -0.646 OA
HETATM   44  O7  UNL     1       9.140   0.919  -1.742  1.00  0.00    -0.646 OA
ENDBRANCH  40  42
ENDBRANCH  27  30
ENDBRANCH  25  26
ENDBRANCH   1  25
TORSDOF 10
