REMARK  13 active torsions:
REMARK  status: ('A' for Active; 'I' for Inactive)
REMARK    1  A    between atoms: C2_2  and  C4_4 
REMARK    2  A    between atoms: C4_4  and  O1_5 
REMARK    3  A    between atoms: C4_4  and  C5_7 
REMARK    4  A    between atoms: C5_7  and  O2_8 
REMARK    5  A    between atoms: C5_7  and  N1_10 
REMARK    6  A    between atoms: N1_10  and  C6_12 
REMARK    7  A    between atoms: C6_12  and  C7_13 
REMARK    8  A    between atoms: C7_13  and  C8_14 
REMARK       I    between atoms: C8_14  and  N2_16 
REMARK    9  A    between atoms: N2_16  and  N3_18 
REMARK   10  A    between atoms: N3_18  and  C9_20 
REMARK   11  A    between atoms: C10_23  and  N5_24 
REMARK   12  A    between atoms: N5_24  and  C11_26 
REMARK   13  A    between atoms: N6_36  and  O7_37 
ROOT
HETATM    1  C9  UNL     1      -1.837  -0.693  -0.269  1.00  0.00     0.700 A 
HETATM    2  N4  UNL     1      -3.052  -0.144  -0.433  1.00  0.00    -0.174 N 
ATOM      3  H4  UNL     1      -3.236   0.391  -1.282  1.00  0.00     0.186 HD
HETATM    4  C10 UNL     1      -4.023  -0.269   0.464  1.00  0.00     0.138 A 
HETATM    5  C16 UNL     1      -3.738  -1.010   1.623  1.00  0.00     0.123 A 
HETATM    6  C17 UNL     1      -4.711  -1.177   2.606  1.00  0.00     0.293 A 
HETATM    7  O6  UNL     1      -5.827  -0.660   2.431  1.00  0.00    -0.264 OA
HETATM    8  N6  UNL     1      -4.424  -1.885   3.708  1.00  0.00    -0.133 N 
HETATM    9  C18 UNL     1      -3.192  -2.420   3.837  1.00  0.00     0.357 A 
HETATM   10  O8  UNL     1      -2.917  -3.092   4.881  1.00  0.00    -0.244 OA
HETATM   11  N7  UNL     1      -2.240  -2.270   2.900  1.00  0.00    -0.286 N 
HETATM   12  C19 UNL     1      -0.930  -2.864   3.080  1.00  0.00     0.163 C 
HETATM   13  C20 UNL     1      -2.484  -1.562   1.767  1.00  0.00     0.146 A 
HETATM   14  N8  UNL     1      -1.530  -1.407   0.824  1.00  0.00    -0.174 N 
ATOM     15  H8  UNL     1      -0.605  -1.820   0.939  1.00  0.00     0.186 HD
ENDROOT
BRANCH   1  16
HETATM   16  N3  UNL     1      -0.907  -0.548  -1.178  1.00  0.00    -0.129 N 
ATOM     17  H3  UNL     1      -1.109  -0.010  -2.021  1.00  0.00     0.205 HD
BRANCH  16  18
HETATM   18  N2  UNL     1       0.359  -1.118  -1.014  1.00  0.00    -0.255 N 
HETATM   19  C8  UNL     1       1.543  -0.394  -1.288  1.00  0.00     0.241 C 
HETATM   20  O3  UNL     1       1.548   0.792  -1.691  1.00  0.00    -0.271 OA
ATOM     21  H2  UNL     1       0.431  -2.082  -0.688  1.00  0.00     0.190 HD
BRANCH  19  22
HETATM   22  C7  UNL     1       2.848  -1.055  -1.095  1.00  0.00     0.148 C 
BRANCH  22  23
HETATM   23  C6  UNL     1       4.019  -0.145  -1.432  1.00  0.00     0.067 C 
BRANCH  23  24
HETATM   24  N1  UNL     1       5.263  -0.781  -1.246  1.00  0.00    -0.374 N 
ATOM     25  H1  UNL     1       5.298  -1.749  -0.928  1.00  0.00     0.161 HD
BRANCH  24  26
HETATM   26  C5  UNL     1       6.443  -0.089  -1.496  1.00  0.00     0.246 C 
BRANCH  26  27
HETATM   27  C4  UNL     1       6.792   1.102  -0.662  1.00  0.00     0.170 C 
BRANCH  27  28
HETATM   28  C2  UNL     1       7.138   0.833   0.763  1.00  0.00     0.010 C 
HETATM   29  C1  UNL     1       6.030   0.304   1.598  1.00  0.00     0.012 C 
HETATM   30  C3  UNL     1       8.299  -0.143   0.892  1.00  0.00     0.012 C 
ENDBRANCH  27  28
BRANCH  27  31
HETATM   31  O1  UNL     1       8.022   1.628  -1.241  1.00  0.00    -0.391 OA
ATOM     32  H1  UNL     1       7.802   1.799  -2.149  1.00  0.00     0.210 HD
ENDBRANCH  27  31
ENDBRANCH  26  27
BRANCH  26  33
HETATM   33  O2  UNL     1       6.513   0.369  -2.847  1.00  0.00    -0.374 OA
ATOM     34  H2  UNL     1       6.291  -0.388  -3.377  1.00  0.00     0.212 HD
ENDBRANCH  26  33
ENDBRANCH  24  26
ENDBRANCH  23  24
ENDBRANCH  22  23
ENDBRANCH  19  22
ENDBRANCH  16  18
ENDBRANCH   1  16
BRANCH   4  35
HETATM   35  N5  UNL     1      -5.194   0.204   0.399  1.00  0.00    -0.347 N 
ATOM     36  H5  UNL     1      -5.782  -0.014   1.203  1.00  0.00     0.163 HD
BRANCH  35  37
HETATM   37  C11 UNL     1      -5.826   0.980  -0.592  1.00  0.00     0.249 C 
HETATM   38  C12 UNL     1      -6.182   0.250  -1.869  1.00  0.00     0.225 C 
HETATM   39  O4  UNL     1      -6.420   1.328  -2.729  1.00  0.00    -0.351 OA
HETATM   40  C13 UNL     1      -5.937   2.472  -2.118  1.00  0.00     0.159 C 
HETATM   41  C14 UNL     1      -5.226   3.321  -3.160  1.00  0.00     0.078 C 
HETATM   42  C15 UNL     1      -6.994   3.286  -1.421  1.00  0.00     0.078 C 
HETATM   43  O5  UNL     1      -5.039   2.027  -1.119  1.00  0.00    -0.330 OA
ENDBRANCH  35  37
ENDBRANCH   4  35
BRANCH   8  44
HETATM   44  O7  UNL     1      -5.410  -2.025   4.653  1.00  0.00    -0.276 OA
ATOM     45  H7  UNL     1      -5.207  -2.527   5.434  1.00  0.00     0.245 HD
ENDBRANCH   8  44
TORSDOF 13
