REMARK  14 active torsions:
REMARK  status: ('A' for Active; 'I' for Inactive)
REMARK    1  A    between atoms: O1_2  and  C2_3 
REMARK    2  A    between atoms: C2_3  and  C3_5 
REMARK    3  A    between atoms: C3_5  and  C4_7 
REMARK    4  A    between atoms: C4_7  and  O4_8 
REMARK    5  A    between atoms: C4_7  and  C5_10 
REMARK    6  A    between atoms: C5_10  and  N1_12 
REMARK       I    between atoms: N1_12  and  C7_14 
REMARK    7  A    between atoms: C7_14  and  C8_16 
REMARK    8  A    between atoms: C8_16  and  C10_18 
REMARK    9  A    between atoms: C10_18  and  O6_19 
REMARK   10  A    between atoms: C10_18  and  N2_21 
REMARK   11  A    between atoms: N2_21  and  C11_23 
REMARK   12  A    between atoms: C11_23  and  C12_27 
REMARK       I    between atoms: C12_27  and  N4_29 
REMARK   13  A    between atoms: C17_34  and  O8_35 
REMARK   14  A    between atoms: N5_42  and  O11_43 
ROOT
HETATM    1  N2  UNL     1      -0.135   0.577  -1.279  1.00  0.00    -0.345 N 
ATOM      2  H2  UNL     1       0.010   0.876  -2.243  1.00  0.00     0.163 HD
ENDROOT
BRANCH   1   3
HETATM    3  C10 UNL     1       1.000   0.064  -0.523  1.00  0.00     0.232 C 
BRANCH   3   4
HETATM    4  C8  UNL     1       2.265   0.069  -1.360  1.00  0.00     0.122 C 
HETATM    5  C9  UNL     1       2.064  -0.765  -2.618  1.00  0.00     0.024 C 
BRANCH   4   6
HETATM    6  C7  UNL     1       3.366  -0.568  -0.580  1.00  0.00     0.226 C 
HETATM    7  N1  UNL     1       3.914   0.017   0.581  1.00  0.00    -0.353 N 
ATOM      8  H1  UNL     1       3.563   0.912   0.921  1.00  0.00     0.163 HD
HETATM    9  O5  UNL     1       3.836  -1.680  -0.970  1.00  0.00    -0.273 OA
BRANCH   7  10
HETATM   10  C5  UNL     1       4.976  -0.663   1.283  1.00  0.00     0.117 C 
HETATM   11  C6  UNL     1       4.524  -1.025   2.692  1.00  0.00     0.035 C 
BRANCH  10  12
HETATM   12  C4  UNL     1       6.179   0.260   1.355  1.00  0.00     0.220 C 
BRANCH  12  13
HETATM   13  C3  UNL     1       6.639   0.602   0.004  1.00  0.00     0.254 C 
HETATM   14  O3  UNL     1       5.881   1.234  -0.797  1.00  0.00    -0.284 OA
BRANCH  13  15
HETATM   15  C2  UNL     1       7.956   0.234  -0.453  1.00  0.00     0.331 C 
HETATM   16  O2  UNL     1       8.773  -0.395   0.279  1.00  0.00    -0.256 OA
BRANCH  15  17
HETATM   17  O1  UNL     1       8.397   0.554  -1.731  1.00  0.00    -0.320 OA
HETATM   18  C1  UNL     1       9.694   0.183  -2.160  1.00  0.00     0.213 C 
ENDBRANCH  15  17
ENDBRANCH  13  15
ENDBRANCH  12  13
BRANCH  12  19
HETATM   19  O4  UNL     1       7.174  -0.420   2.032  1.00  0.00    -0.385 OA
ATOM     20  H4  UNL     1       6.876  -0.641   2.907  1.00  0.00     0.210 HD
ENDBRANCH  12  19
ENDBRANCH  10  12
ENDBRANCH   7  10
ENDBRANCH   4   6
ENDBRANCH   3   4
BRANCH   3  21
HETATM   21  O6  UNL     1       1.134   0.754   0.653  1.00  0.00    -0.376 OA
ATOM     22  H6  UNL     1       0.342   0.751   1.177  1.00  0.00     0.212 HD
ENDBRANCH   3  21
ENDBRANCH   1   3
BRANCH   1  23
HETATM   23  C11 UNL     1      -1.426   0.674  -0.722  1.00  0.00     0.167 C 
HETATM   24  N3  UNL     1      -1.796   1.755  -0.157  1.00  0.00    -0.381 N 
ATOM     25  H32 UNL     1      -1.156   2.548  -0.108  1.00  0.00     0.157 HD
ATOM     26  H31 UNL     1      -2.730   1.825   0.246  1.00  0.00     0.157 HD
BRANCH  23  27
HETATM   27  C12 UNL     1      -2.332  -0.448  -0.792  1.00  0.00     0.303 C 
HETATM   28  O7  UNL     1      -1.932  -1.501  -1.360  1.00  0.00    -0.263 OA
HETATM   29  N4  UNL     1      -3.657  -0.400  -0.239  1.00  0.00    -0.246 N 
HETATM   30  C13 UNL     1      -4.497  -1.586  -0.360  1.00  0.00     0.168 C 
HETATM   31  N5  UNL     1      -4.101   0.745   0.384  1.00  0.00    -0.063 NA
HETATM   32  C14 UNL     1      -5.935  -1.155  -0.442  1.00  0.00     0.066 C 
HETATM   33  C15 UNL     1      -6.739  -2.050  -1.369  1.00  0.00     0.028 C 
HETATM   34  C16 UNL     1      -5.954   0.241  -1.051  1.00  0.00     0.082 C 
HETATM   35  C20 UNL     1      -6.517  -1.107   0.914  1.00  0.00     0.269 C 
HETATM   36  C17 UNL     1      -5.385   1.216  -0.024  1.00  0.00     0.184 C 
HETATM   37  C18 UNL     1      -6.390   1.277   1.101  1.00  0.00     0.181 C 
HETATM   38  C19 UNL     1      -6.149   2.395   2.056  1.00  0.00     0.045 C 
HETATM   39  O9  UNL     1      -6.423   0.006   1.721  1.00  0.00    -0.311 OA
HETATM   40  O10 UNL     1      -7.119  -2.166   1.302  1.00  0.00    -0.264 OA
BRANCH  36  41
HETATM   41  O8  UNL     1      -5.329   2.480  -0.597  1.00  0.00    -0.369 OA
ATOM     42  H8  UNL     1      -4.975   3.087   0.042  1.00  0.00     0.212 HD
ENDBRANCH  36  41
BRANCH  31  43
HETATM   43  O11 UNL     1      -3.924   0.732   1.719  1.00  0.00    -0.291 OA
ATOM     44  H11 UNL     1      -4.230   1.522   2.149  1.00  0.00     0.239 HD
ENDBRANCH  31  43
ENDBRANCH  23  27
ENDBRANCH   1  23
TORSDOF 14
