REMARK  11 active torsions:
REMARK  status: ('A' for Active; 'I' for Inactive)
REMARK    1  A    between atoms: C2_2  and  O1_3 
REMARK    2  A    between atoms: O1_3  and  C3_4 
REMARK    3  A    between atoms: C4_5  and  C6_7 
REMARK    4  A    between atoms: C9_12  and  C10_13 
REMARK    5  A    between atoms: C10_13  and  O3_14 
REMARK    6  A    between atoms: C10_13  and  C11_16 
REMARK    7  A    between atoms: C11_16  and  O4_17 
REMARK    8  A    between atoms: C11_16  and  O5_20 
REMARK    9  A    between atoms: O4_17  and  C12_18 
REMARK   10  A    between atoms: O5_20  and  C14_21 
REMARK   11  A    between atoms: C16_24  and  O7_26 
ROOT
HETATM    1  C6  UNL     1      -3.395  -0.132  -1.879  1.00  0.00     0.138 C 
HETATM    2  C7  UNL     1      -4.667  -0.611  -1.345  1.00  0.00     0.060 C 
HETATM    3  N1  UNL     1      -5.688  -0.978  -0.904  1.00  0.00    -0.197 NA
ENDROOT
BRANCH   1   4
HETATM    4  C4  UNL     1      -2.213  -0.679  -1.071  1.00  0.00     0.019 C 
HETATM    5  C3  UNL     1      -2.356  -0.210   0.375  1.00  0.00     0.175 C 
HETATM    6  C16 UNL     1      -1.151  -0.540   1.191  1.00  0.00     0.110 C 
HETATM    7  C9  UNL     1       0.097  -0.294   0.336  1.00  0.00     0.191 C 
HETATM    8  C17 UNL     1      -1.135  -1.971   1.679  1.00  0.00     0.051 C 
HETATM    9  O2  UNL     1      -0.222   0.602  -0.664  1.00  0.00    -0.379 OA
HETATM   10  C8  UNL     1      -0.954  -0.093  -1.624  1.00  0.00     0.181 C 
HETATM   11  C5  UNL     1      -2.289  -2.180  -1.189  1.00  0.00     0.021 C 
BRANCH   5  12
HETATM   12  O1  UNL     1      -2.468   1.193   0.297  1.00  0.00    -0.355 OA
BRANCH  12  13
HETATM   13  C2  UNL     1      -2.626   2.070   1.325  1.00  0.00     0.125 C 
HETATM   14  C1  UNL     1      -2.230   3.323   1.170  1.00  0.00     0.037 C 
ENDBRANCH  12  13
ENDBRANCH   5  12
BRANCH   6  15
HETATM   15  O7  UNL     1      -1.146   0.270   2.322  1.00  0.00    -0.385 OA
ATOM     16  H7  UNL     1      -0.379   0.060   2.841  1.00  0.00     0.210 HD
ENDBRANCH   6  15
BRANCH   7  17
HETATM   17  C10 UNL     1       1.223   0.122   1.223  1.00  0.00     0.205 C 
BRANCH  17  18
HETATM   18  O3  UNL     1       0.980   1.313   1.885  1.00  0.00    -0.388 OA
ATOM     19  H3  UNL     1       1.697   1.578   2.450  1.00  0.00     0.210 HD
ENDBRANCH  17  18
BRANCH  17  20
HETATM   20  C11 UNL     1       2.537   0.233   0.493  1.00  0.00     0.300 C 
BRANCH  20  21
HETATM   21  O4  UNL     1       3.619   0.479   1.324  1.00  0.00    -0.358 OA
BRANCH  21  22
HETATM   22  C12 UNL     1       4.403   1.541   0.982  1.00  0.00     0.166 C 
HETATM   23  C13 UNL     1       3.631   2.833   0.987  1.00  0.00     0.033 C 
ENDBRANCH  21  22
ENDBRANCH  20  21
BRANCH  20  24
HETATM   24  O5  UNL     1       2.797  -1.088  -0.042  1.00  0.00    -0.287 OA
BRANCH  24  25
HETATM   25  C14 UNL     1       2.896  -1.259  -1.414  1.00  0.00     0.257 C 
HETATM   26  C15 UNL     1       3.160  -2.607  -1.937  1.00  0.00     0.126 C 
HETATM   27  O6  UNL     1       2.753  -0.238  -2.131  1.00  0.00    -0.266 OA
ENDBRANCH  24  25
ENDBRANCH  20  24
ENDBRANCH  17  20
ENDBRANCH   7  17
ENDBRANCH   1   4
TORSDOF 11
