REMARK  11 active torsions:
REMARK  status: ('A' for Active; 'I' for Inactive)
REMARK    1  A    between atoms: C2_2  and  O2_4 
REMARK    2  A    between atoms: O2_4  and  C3_5 
REMARK    3  A    between atoms: C3_5  and  C4_6 
REMARK    4  A    between atoms: C3_5  and  C6_11 
REMARK    5  A    between atoms: C4_6  and  O3_7 
REMARK    6  A    between atoms: O3_7  and  C5_8 
REMARK    7  A    between atoms: C8_13  and  C9_14 
REMARK    8  A    between atoms: C10_15  and  C11_16 
REMARK    9  A    between atoms: C11_16  and  C13_18 
REMARK   10  A    between atoms: C16_22  and  O7_23 
REMARK   11  A    between atoms: C17_25  and  O8_26 
ROOT
HETATM    1  C9  UNL     1      -0.081  -1.077   0.564  1.00  0.00    -0.003 C 
HETATM    2  C10 UNL     1       0.930  -0.388   1.063  1.00  0.00    -0.020 C 
ENDROOT
BRANCH   1   3
HETATM    3  C8  UNL     1      -1.370  -0.492   0.264  1.00  0.00     0.005 C 
HETATM    4  C6  UNL     1      -2.384  -1.139  -0.227  1.00  0.00    -0.052 C 
HETATM    5  C7  UNL     1      -2.261  -2.586  -0.518  1.00  0.00     0.046 C 
BRANCH   4   6
HETATM    6  C3  UNL     1      -3.697  -0.441  -0.509  1.00  0.00     0.185 C 
BRANCH   6   7
HETATM    7  O2  UNL     1      -3.619   0.905  -0.064  1.00  0.00    -0.310 OA
BRANCH   7   8
HETATM    8  C2  UNL     1      -4.407   1.405   0.956  1.00  0.00     0.255 C 
HETATM    9  C1  UNL     1      -4.310   2.830   1.409  1.00  0.00     0.126 C 
HETATM   10  O1  UNL     1      -5.223   0.624   1.507  1.00  0.00    -0.266 OA
ENDBRANCH   7   8
ENDBRANCH   6   7
BRANCH   6  11
HETATM   11  C4  UNL     1      -4.038  -0.550  -1.969  1.00  0.00     0.219 C 
BRANCH  11  12
HETATM   12  O3  UNL     1      -5.271   0.050  -2.231  1.00  0.00    -0.293 OA
BRANCH  12  13
HETATM   13  C5  UNL     1      -6.507  -0.311  -1.752  1.00  0.00     0.332 C 
HETATM   14  O4  UNL     1      -6.582  -1.304  -0.983  1.00  0.00    -0.624 OA
HETATM   15  O5  UNL     1      -7.667   0.386  -2.093  1.00  0.00    -0.624 OA
ENDBRANCH  12  13
ENDBRANCH  11  12
ENDBRANCH   6  11
ENDBRANCH   4   6
ENDBRANCH   1   3
BRANCH   2  16
HETATM   16  C11 UNL     1       2.216  -1.004   1.355  1.00  0.00     0.035 C 
HETATM   17  C12 UNL     1       2.492  -0.864   2.858  1.00  0.00     0.017 C 
BRANCH  16  18
HETATM   18  C13 UNL     1       3.397  -0.473   0.647  1.00  0.00     0.160 C 
HETATM   19  O6  UNL     1       3.351  -0.556  -0.739  1.00  0.00    -0.375 OA
HETATM   20  C14 UNL     1       4.625  -0.050  -1.068  1.00  0.00     0.149 C 
HETATM   21  C15 UNL     1       4.721   0.295  -2.535  1.00  0.00     0.042 C 
HETATM   22  C16 UNL     1       4.864   1.136  -0.172  1.00  0.00     0.178 C 
HETATM   23  C17 UNL     1       3.738   0.959   0.862  1.00  0.00     0.178 C 
BRANCH  22  24
HETATM   24  O7  UNL     1       4.707   2.290  -0.910  1.00  0.00    -0.390 OA
ATOM     25  H7  UNL     1       4.858   3.038  -0.345  1.00  0.00     0.210 HD
ENDBRANCH  22  24
BRANCH  23  26
HETATM   26  O8  UNL     1       2.769   1.867   0.516  1.00  0.00    -0.390 OA
ATOM     27  H8  UNL     1       2.987   2.781   0.653  1.00  0.00     0.210 HD
ENDBRANCH  23  26
ENDBRANCH  16  18
ENDBRANCH   2  16
TORSDOF 11
