REMARK  9 active torsions:
REMARK  status: ('A' for Active; 'I' for Inactive)
REMARK    1  A    between atoms: C2_2  and  C3_3 
REMARK    2  A    between atoms: C2_2  and  C7_7 
REMARK    3  A    between atoms: C7_7  and  O1_8 
REMARK    4  A    between atoms: C7_7  and  C8_10 
REMARK    5  A    between atoms: C8_10  and  O2_11 
REMARK    6  A    between atoms: C8_10  and  C13_16 
REMARK    7  A    between atoms: O2_11  and  C9_12 
REMARK    8  A    between atoms: C9_12  and  C11_14 
REMARK    9  A    between atoms: C16_22  and  O6_23 
ROOT
HETATM    1  C8  UNL     1       0.284   0.183   0.458  1.00  0.00     0.213 C 
ENDROOT
BRANCH   1   2
HETATM    2  C7  UNL     1      -0.684  -0.889   0.876  1.00  0.00     0.184 C 
BRANCH   2   3
HETATM    3  C2  UNL     1      -1.888  -1.061   0.058  1.00  0.00    -0.031 C 
HETATM    4  C1  UNL     1      -2.284  -0.269  -0.903  1.00  0.00     0.022 C 
BRANCH   3   5
HETATM    5  C3  UNL     1      -2.754  -2.232   0.376  1.00  0.00    -0.058 C 
HETATM    6  C4  UNL     1      -3.982  -2.386  -0.433  1.00  0.00     0.048 C 
HETATM    7  C5  UNL     1      -2.469  -3.091   1.312  1.00  0.00    -0.024 C 
HETATM    8  C6  UNL     1      -3.365  -4.248   1.594  1.00  0.00     0.036 C 
ENDBRANCH   3   5
ENDBRANCH   2   3
BRANCH   2   9
HETATM    9  O1  UNL     1      -1.159  -0.589   2.201  1.00  0.00    -0.388 OA
ATOM     10  H1  UNL     1      -0.379  -0.478   2.731  1.00  0.00     0.210 HD
ENDBRANCH   2   9
ENDBRANCH   1   2
BRANCH   1  11
HETATM   11  O2  UNL     1      -0.337   1.368   0.362  1.00  0.00    -0.373 OA
BRANCH  11  12
HETATM   12  C9  UNL     1      -0.085   2.337   1.259  1.00  0.00     0.117 C 
HETATM   13  C10 UNL     1       0.561   3.511   0.516  1.00  0.00     0.039 C 
BRANCH  12  14
HETATM   14  C11 UNL     1      -1.278   2.911   1.969  1.00  0.00     0.027 C 
HETATM   15  C12 UNL     1      -0.736   3.983   2.925  1.00  0.00     0.007 C 
ENDBRANCH  12  14
ENDBRANCH  11  12
ENDBRANCH   1  11
BRANCH   1  16
HETATM   16  C13 UNL     1       1.163  -0.298  -0.633  1.00  0.00     0.331 C 
HETATM   17  O3  UNL     1       0.634  -0.481  -1.873  1.00  0.00    -0.204 OA
HETATM   18  O4  UNL     1       1.478  -0.214  -2.858  1.00  0.00    -0.220 OA
HETATM   19  C14 UNL     1       2.678  -0.852  -2.526  1.00  0.00     0.290 C 
HETATM   20  C15 UNL     1       3.684  -0.723  -3.612  1.00  0.00     0.217 C 
HETATM   21  C17 UNL     1       3.323  -0.030  -1.425  1.00  0.00     0.306 C 
HETATM   22  O5  UNL     1       3.604  -1.275  -4.685  1.00  0.00    -0.289 OA
HETATM   23  C16 UNL     1       4.732   0.190  -3.079  1.00  0.00     0.334 C 
HETATM   24  O7  UNL     1       4.003   0.953  -2.143  1.00  0.00    -0.321 OA
HETATM   25  O8  UNL     1       2.318   0.535  -0.682  1.00  0.00    -0.323 OA
BRANCH  23  26
HETATM   26  O6  UNL     1       5.697  -0.511  -2.349  1.00  0.00    -0.365 OA
ATOM     27  H6  UNL     1       6.366   0.072  -2.009  1.00  0.00     0.213 HD
ENDBRANCH  23  26
ENDBRANCH   1  16
TORSDOF 9
