REMARK  9 active torsions:
REMARK  status: ('A' for Active; 'I' for Inactive)
REMARK    1  A    between atoms: C2_2  and  O1_5 
REMARK    2  A    between atoms: O1_5  and  C5_6 
REMARK    3  A    between atoms: C5_6  and  C6_8 
REMARK    4  A    between atoms: C6_8  and  C7_9 
REMARK    5  A    between atoms: C7_9  and  N1_10 
REMARK    6  A    between atoms: C9_12  and  O3_14 
REMARK    7  A    between atoms: O3_14  and  N2_15 
REMARK       I    between atoms: N2_15  and  C11_17 
REMARK    8  A    between atoms: C11_17  and  C12_19 
REMARK    9  A    between atoms: C12_19  and  C13_20 
ROOT
HETATM    1  C13 UNL     1       6.792  -1.373   0.374  1.00  0.00     0.271 C 
HETATM    2  C14 UNL     1       6.352  -2.753   0.384  1.00  0.00     0.111 C 
HETATM    3  N3  UNL     1       5.995  -3.852   0.398  1.00  0.00    -0.194 NA
HETATM    4  N4  UNL     1       7.651  -1.003  -0.716  1.00  0.00    -0.035 N 
ATOM      5  H41 UNL     1       7.196  -0.623  -1.546  1.00  0.00     0.281 HD
ATOM      6  H42 UNL     1       8.096  -1.767  -1.225  1.00  0.00     0.281 HD
HETATM    7  C15 UNL     1       8.533  -0.106   0.007  1.00  0.00     0.312 C 
HETATM    8  S1  UNL     1       8.260  -1.187   1.466  1.00  0.00    -0.087 SA
ENDROOT
BRANCH   1   9
HETATM    9  C12 UNL     1       5.729  -0.356   0.712  1.00  0.00     0.171 C 
BRANCH   9  10
HETATM   10  C11 UNL     1       4.595  -0.386  -0.212  1.00  0.00     0.245 C 
HETATM   11  N2  UNL     1       3.466   0.461  -0.111  1.00  0.00    -0.234 N 
ATOM     12  H2  UNL     1       3.457   1.133   0.656  1.00  0.00     0.197 HD
HETATM   13  O4  UNL     1       4.622  -1.220  -1.160  1.00  0.00    -0.271 OA
BRANCH  11  14
HETATM   14  O3  UNL     1       2.405   0.458  -0.936  1.00  0.00    -0.263 OA
BRANCH  14  15
HETATM   15  C9  UNL     1       1.342   1.102  -0.320  1.00  0.00     0.138 C 
HETATM   16  C8  UNL     1       0.051   1.162  -1.142  1.00  0.00     0.314 C 
HETATM   17  N1  UNL     1      -0.644   0.955   0.110  1.00  0.00     0.095 N 
HETATM   18  C16 UNL     1       0.486   0.167   0.549  1.00  0.00     0.314 C 
HETATM   19  C10 UNL     1       1.634   2.431   0.292  1.00  0.00     0.052 C 
BRANCH  17  20
HETATM   20  C7  UNL     1      -1.918   0.324   0.055  1.00  0.00     0.282 C 
BRANCH  20  21
HETATM   21  C6  UNL     1      -2.927   1.237  -0.600  1.00  0.00     0.141 C 
BRANCH  21  22
HETATM   22  C5  UNL     1      -4.283   0.595  -0.655  1.00  0.00     0.261 C 
HETATM   23  O2  UNL     1      -5.012   0.565  -1.652  1.00  0.00    -0.265 OA
BRANCH  22  24
HETATM   24  O1  UNL     1      -4.733  -0.006   0.511  1.00  0.00    -0.311 OA
BRANCH  24  25
HETATM   25  C2  UNL     1      -5.974  -0.655   0.663  1.00  0.00     0.060 C 
HETATM   26  C1  UNL     1      -7.139   0.263   0.416  1.00  0.00     0.045 C 
HETATM   27  C3  UNL     1      -6.065  -1.128   2.099  1.00  0.00     0.045 C 
HETATM   28  C4  UNL     1      -6.137  -1.867  -0.214  1.00  0.00     0.045 C 
ENDBRANCH  24  25
ENDBRANCH  22  24
ENDBRANCH  21  22
ENDBRANCH  20  21
ENDBRANCH  17  20
ENDBRANCH  14  15
ENDBRANCH  11  14
ENDBRANCH   9  10
ENDBRANCH   1   9
TORSDOF 9
