REMARK  9 active torsions:
REMARK  status: ('A' for Active; 'I' for Inactive)
REMARK    1  A    between atoms: N1_6  and  C4_7 
REMARK    2  A    between atoms: C4_7  and  N2_8 
REMARK    3  A    between atoms: N2_8  and  C5_10 
REMARK    4  A    between atoms: C6_11  and  C7_12 
REMARK    5  A    between atoms: C7_12  and  O2_13 
REMARK    6  A    between atoms: C7_12  and  O3_15 
REMARK    7  A    between atoms: C9_21  and  C10_22 
REMARK    8  A    between atoms: N5_23  and  O5_25 
REMARK    9  A    between atoms: C11_27  and  O6_28 
ROOT
HETATM    1  C5  UNL     1      -0.201   0.951  -0.126  1.00  0.00     0.137 A 
HETATM    2  C6  UNL     1      -0.602   2.283  -0.035  1.00  0.00     0.111 A 
HETATM    3  C8  UNL     1      -1.971   2.351  -0.195  1.00  0.00     0.277 A 
HETATM    4  O4  UNL     1      -2.662   3.402  -0.169  1.00  0.00    -0.266 OA
HETATM    5  N3  UNL     1      -2.370   1.084  -0.376  1.00  0.00    -0.250 N 
HETATM    6  N4  UNL     1      -1.332   0.257  -0.336  1.00  0.00    -0.258 N 
HETATM    7  C9  UNL     1      -1.803  -1.117  -0.531  1.00  0.00     0.180 C 
HETATM    8  C11 UNL     1      -3.064  -0.889  -1.344  1.00  0.00     0.168 C 
HETATM    9  C12 UNL     1      -3.607   0.341  -0.609  1.00  0.00     0.187 C 
ENDROOT
BRANCH   1  10
HETATM   10  N2  UNL     1       1.138   0.507  -0.008  1.00  0.00    -0.358 N 
ATOM     11  H2  UNL     1       1.886   1.179   0.162  1.00  0.00     0.162 HD
BRANCH  10  12
HETATM   12  C4  UNL     1       1.442  -0.895  -0.128  1.00  0.00     0.251 C 
BRANCH  12  13
HETATM   13  N1  UNL     1       2.857  -1.173   0.059  1.00  0.00    -0.326 N 
HETATM   14  C1  UNL     1       3.814  -1.192  -0.967  1.00  0.00     0.231 C 
HETATM   15  O1  UNL     1       3.688  -1.695  -2.144  1.00  0.00    -0.272 OA
HETATM   16  C2  UNL     1       5.096  -0.542  -0.592  1.00  0.00     0.178 C 
HETATM   17  S1  UNL     1       5.134  -0.924   1.195  1.00  0.00    -0.140 SA
HETATM   18  C3  UNL     1       3.401  -1.468   1.369  1.00  0.00     0.202 C 
ENDBRANCH  12  13
ENDBRANCH  10  12
ENDBRANCH   1  10
BRANCH   2  19
HETATM   19  C7  UNL     1       0.245   3.490   0.199  1.00  0.00     0.297 C 
BRANCH  19  20
HETATM   20  O2  UNL     1       1.147   3.260   1.220  1.00  0.00    -0.367 OA
ATOM     21  H2  UNL     1       1.686   4.028   1.369  1.00  0.00     0.213 HD
ENDBRANCH  19  20
BRANCH  19  22
HETATM   22  O3  UNL     1       0.906   3.803  -1.000  1.00  0.00    -0.367 OA
ATOM     23  H3  UNL     1       1.445   4.571  -0.851  1.00  0.00     0.213 HD
ENDBRANCH  19  22
ENDBRANCH   2  19
BRANCH   7  24
HETATM   24  C10 UNL     1      -2.269  -1.684   0.776  1.00  0.00     0.116 C 
HETATM   25  N5  UNL     1      -2.796  -2.844   0.767  1.00  0.00    -0.282 N 
ATOM     26  H5  UNL     1      -2.877  -3.332  -0.125  1.00  0.00     0.192 HD
BRANCH  25  27
HETATM   27  O5  UNL     1      -3.259  -3.469   1.895  1.00  0.00    -0.290 OA
ATOM     28  H5  UNL     1      -3.652  -4.334   1.888  1.00  0.00     0.244 HD
ENDBRANCH  25  27
ENDBRANCH   7  24
BRANCH   8  29
HETATM   29  O6  UNL     1      -3.954  -1.955  -1.244  1.00  0.00    -0.391 OA
ATOM     30  H6  UNL     1      -4.743  -1.812  -1.753  1.00  0.00     0.210 HD
ENDBRANCH   8  29
TORSDOF 9
