REMARK  11 active torsions:
REMARK  status: ('A' for Active; 'I' for Inactive)
REMARK    1  A    between atoms: C2_2  and  N1_3 
REMARK    2  A    between atoms: C3_4  and  O1_5 
REMARK    3  A    between atoms: C7_10  and  N2_11 
REMARK    4  A    between atoms: C10_15  and  O2_16 
REMARK    5  A    between atoms: N4_18  and  C11_19 
REMARK    6  A    between atoms: C11_19  and  C12_20 
REMARK    7  A    between atoms: C12_20  and  O3_21 
REMARK    8  A    between atoms: C12_20  and  C13_23 
REMARK    9  A    between atoms: C12_20  and  C14_26 
REMARK   10  A    between atoms: C13_23  and  O4_24 
REMARK   11  A    between atoms: C14_26  and  O5_27 
ROOT
HETATM    1  N2  UNL     1       1.555   2.907   0.616  1.00  0.00    -0.284 N 
HETATM    2  C8  UNL     1       1.423   3.305   1.999  1.00  0.00     0.169 C 
HETATM    3  C9  UNL     1       2.382   3.667  -0.212  1.00  0.00     0.184 C 
HETATM    4  N3  UNL     1       3.069   4.319  -0.905  1.00  0.00    -0.172 NA
ENDROOT
BRANCH   1   5
HETATM    5  C7  UNL     1       0.853   1.771   0.137  1.00  0.00     0.112 A 
HETATM    6  C6  UNL     1       1.273   0.452   0.111  1.00  0.00     0.091 A 
HETATM    7  C5  UNL     1       0.286  -0.353  -0.438  1.00  0.00     0.059 A 
HETATM    8  C15 UNL     1       2.453  -0.123   0.527  1.00  0.00     0.264 A 
HETATM    9  C4  UNL     1       0.459  -1.716  -0.577  1.00  0.00     0.087 A 
HETATM   10  N4  UNL     1      -0.739   0.473  -0.749  1.00  0.00    -0.322 N 
HETATM   11  C3  UNL     1       1.656  -2.249  -0.148  1.00  0.00     0.147 A 
HETATM   12  N1  UNL     1       2.624  -1.452   0.392  1.00  0.00    -0.294 N 
HETATM   13  C10 UNL     1      -0.425   1.738  -0.416  1.00  0.00     0.172 A 
HETATM   14  O6  UNL     1       3.331   0.628   1.021  1.00  0.00    -0.267 OA
BRANCH  11  15
HETATM   15  O1  UNL     1       1.959  -3.602  -0.229  1.00  0.00    -0.346 OA
ATOM     16  H1  UNL     1       1.285  -4.157  -0.605  1.00  0.00     0.219 HD
ENDBRANCH  11  15
BRANCH  12  17
HETATM   17  C2  UNL     1       3.870  -2.013   0.839  1.00  0.00     0.130 C 
HETATM   18  C1  UNL     1       4.914  -2.037  -0.256  1.00  0.00     0.027 C 
ENDBRANCH  12  17
BRANCH  10  19
HETATM   19  C11 UNL     1      -1.968   0.045  -1.345  1.00  0.00     0.173 C 
BRANCH  19  20
HETATM   20  C12 UNL     1      -3.041  -0.346  -0.379  1.00  0.00     0.116 C 
BRANCH  20  21
HETATM   21  O3  UNL     1      -2.695  -1.393   0.454  1.00  0.00    -0.384 OA
ATOM     22  H3  UNL     1      -3.376  -1.641   1.068  1.00  0.00     0.210 HD
ENDBRANCH  20  21
BRANCH  20  23
HETATM   23  C13 UNL     1      -4.221  -0.848  -1.224  1.00  0.00     0.205 C 
BRANCH  23  24
HETATM   24  O4  UNL     1      -5.299  -1.205  -0.451  1.00  0.00    -0.398 OA
ATOM     25  H4  UNL     1      -6.029  -1.516  -0.974  1.00  0.00     0.209 HD
ENDBRANCH  23  24
ENDBRANCH  20  23
BRANCH  20  26
HETATM   26  C14 UNL     1      -3.509   0.806   0.485  1.00  0.00     0.205 C 
BRANCH  26  27
HETATM   27  O5  UNL     1      -4.613   0.419   1.238  1.00  0.00    -0.398 OA
ATOM     28  H5  UNL     1      -4.907   1.142   1.780  1.00  0.00     0.209 HD
ENDBRANCH  26  27
ENDBRANCH  20  26
ENDBRANCH  19  20
ENDBRANCH  10  19
BRANCH  13  29
HETATM   29  O2  UNL     1      -1.187   2.902  -0.561  1.00  0.00    -0.344 OA
ATOM     30  H2  UNL     1      -2.059   2.879  -0.938  1.00  0.00     0.219 HD
ENDBRANCH  13  29
ENDBRANCH   1   5
TORSDOF 11
