REMARK  7 active torsions:
REMARK  status: ('A' for Active; 'I' for Inactive)
REMARK    1  A    between atoms: C2_7  and  C3_8 
REMARK    2  A    between atoms: C4_10  and  O2_11 
REMARK    3  A    between atoms: N3_13  and  C5_14 
REMARK    4  A    between atoms: C5_14  and  O3_15 
REMARK    5  A    between atoms: O3_15  and  N4_16 
REMARK    6  A    between atoms: N5_20  and  O4_21 
REMARK    7  A    between atoms: O4_21  and  S1_22 
ROOT
HETATM    1  N4  UNL     1      -0.446  -0.204  -1.014  1.00  0.00    -0.250 N 
ATOM      2  H4  UNL     1      -1.149   0.282  -1.571  1.00  0.00     0.196 HD
HETATM    3  C6  UNL     1       0.710   0.362  -0.772  1.00  0.00     0.136 C 
HETATM    4  C7  UNL     1       1.728  -0.348   0.037  1.00  0.00     0.240 C 
HETATM    5  N5  UNL     1       3.052   0.059  -0.422  1.00  0.00    -0.202 N 
HETATM    6  C8  UNL     1       3.298   1.365  -0.932  1.00  0.00     0.231 C 
HETATM    7  N6  UNL     1       4.649   1.853  -1.001  1.00  0.00    -0.060 NA
HETATM    8  N7  UNL     1       2.333   2.118  -1.332  1.00  0.00    -0.270 N 
ATOM      9  H7  UNL     1       2.530   3.051  -1.693  1.00  0.00     0.189 HD
HETATM   10  N8  UNL     1       1.016   1.657  -1.271  1.00  0.00    -0.284 N 
ATOM     11  H8  UNL     1       0.259   2.261  -1.591  1.00  0.00     0.188 HD
ENDROOT
BRANCH   1  12
HETATM   12  O3  UNL     1      -0.705  -1.457  -0.513  1.00  0.00    -0.258 OA
BRANCH  12  13
HETATM   13  C5  UNL     1      -1.518  -1.567   0.616  1.00  0.00     0.353 C 
BRANCH  13  14
HETATM   14  N3  UNL     1      -2.840  -1.011   0.359  1.00  0.00    -0.136 N 
HETATM   15  C1  UNL     1      -3.938  -1.639  -0.122  1.00  0.00     0.682 A 
HETATM   16  N1  UNL     1      -3.932  -2.900  -0.431  1.00  0.00    -0.234 N 
HETATM   17  N2  UNL     1      -4.955  -0.760  -0.208  1.00  0.00    -0.184 N 
ATOM     18  H12 UNL     1      -4.760  -3.373  -0.794  1.00  0.00     0.174 HD
ATOM     19  H11 UNL     1      -3.162  -3.566  -0.366  1.00  0.00     0.174 HD
HETATM   20  C2  UNL     1      -4.531   0.443   0.214  1.00  0.00     0.138 A 
ATOM     21  H2  UNL     1      -5.896  -0.973  -0.540  1.00  0.00     0.184 HD
HETATM   22  C4  UNL     1      -3.218   0.274   0.563  1.00  0.00     0.191 A 
BRANCH  20  23
HETATM   23  C3  UNL     1      -5.322   1.667   0.280  1.00  0.00     0.293 C 
HETATM   24  O1  UNL     1      -6.514   1.734  -0.059  1.00  0.00    -0.300 OA
ENDBRANCH  20  23
BRANCH  22  25
HETATM   25  O2  UNL     1      -2.376   1.284   1.062  1.00  0.00    -0.344 OA
ATOM     26  H2  UNL     1      -1.465   1.167   1.304  1.00  0.00     0.219 HD
ENDBRANCH  22  25
ENDBRANCH  13  14
ENDBRANCH  12  13
ENDBRANCH   1  12
BRANCH   5  27
HETATM   27  O4  UNL     1       4.091  -0.820  -0.368  1.00  0.00    -0.127 OA
BRANCH  27  28
HETATM   28  S1  UNL     1       4.700  -0.760   1.218  1.00  0.00     0.274 S 
HETATM   29  O5  UNL     1       4.497   0.619   1.785  1.00  0.00    -0.571 OA
HETATM   30  O6  UNL     1       3.899  -1.717   2.062  1.00  0.00    -0.571 OA
HETATM   31  O7  UNL     1       6.323  -1.195   1.251  1.00  0.00    -0.571 OA
ENDBRANCH  27  28
ENDBRANCH   5  27
TORSDOF 7
