REMARK  8 active torsions:
REMARK  status: ('A' for Active; 'I' for Inactive)
REMARK    1  A    between atoms: N1_4  and  C4_5 
REMARK    2  A    between atoms: C5_7  and  C6_8 
REMARK    3  A    between atoms: C6_8  and  S1_9 
REMARK    4  A    between atoms: S1_9  and  C7_10 
REMARK    5  A    between atoms: C7_10  and  C8_11 
REMARK    6  A    between atoms: C8_11  and  C9_12 
REMARK    7  A    between atoms: C14_19  and  N3_20 
REMARK    8  A    between atoms: N3_20  and  O2_22 
ROOT
HETATM    1  C4  UNL     1      -1.120  -1.015  -0.969  1.00  0.00     0.263 C 
HETATM    2  O1  UNL     1       0.134  -0.747  -0.462  1.00  0.00    -0.358 OA
HETATM    3  C5  UNL     1       0.795  -1.883  -0.142  1.00  0.00     0.135 C 
HETATM    4  C11 UNL     1      -0.225  -3.020  -0.139  1.00  0.00     0.056 C 
HETATM    5  C12 UNL     1      -1.528  -2.263  -0.243  1.00  0.00     0.145 C 
HETATM    6  C13 UNL     1      -2.037  -2.003   1.085  1.00  0.00     0.068 C 
HETATM    7  N2  UNL     1      -2.466  -1.797   2.145  1.00  0.00    -0.197 NA
ENDROOT
BRANCH   1   8
HETATM    8  N1  UNL     1      -1.958   0.109  -0.699  1.00  0.00    -0.162 N 
HETATM    9  C3  UNL     1      -1.497   1.205  -0.076  1.00  0.00     0.124 A 
HETATM   10  C2  UNL     1      -2.297   2.298   0.193  1.00  0.00     0.023 A 
HETATM   11  C1  UNL     1      -1.824   3.520   0.877  1.00  0.00     0.056 C 
HETATM   12  C15 UNL     1      -3.621   2.256  -0.197  1.00  0.00     0.266 A 
HETATM   13  N4  UNL     1      -4.066   1.153  -0.818  1.00  0.00    -0.154 N 
HETATM   14  O3  UNL     1      -4.408   3.228   0.021  1.00  0.00    -0.267 OA
HETATM   15  C14 UNL     1      -3.247   0.095  -1.066  1.00  0.00     0.709 A 
ATOM     16  H4  UNL     1      -5.042   1.106  -1.111  1.00  0.00     0.187 HD
BRANCH  15  17
HETATM   17  N3  UNL     1      -3.722  -0.913  -1.654  1.00  0.00    -0.098 N 
ATOM     18  H3  UNL     1      -3.121  -1.714  -1.848  1.00  0.00     0.213 HD
BRANCH  17  19
HETATM   19  O2  UNL     1      -5.038  -0.943  -2.036  1.00  0.00    -0.276 OA
ATOM     20  H2  UNL     1      -5.396  -1.703  -2.479  1.00  0.00     0.245 HD
ENDBRANCH  17  19
ENDBRANCH  15  17
ENDBRANCH   1   8
BRANCH   3  21
HETATM   21  C6  UNL     1       1.403  -1.868   1.222  1.00  0.00     0.105 C 
BRANCH  21  22
HETATM   22  S1  UNL     1       2.625  -0.643   1.598  1.00  0.00    -0.167 SA
BRANCH  22  23
HETATM   23  C7  UNL     1       4.183  -0.779   0.743  1.00  0.00     0.075 C 
BRANCH  23  24
HETATM   24  C8  UNL     1       4.156  -0.222  -0.642  1.00  0.00     0.030 C 
BRANCH  24  25
HETATM   25  C9  UNL     1       4.018   1.274  -0.656  1.00  0.00     0.079 C 
HETATM   26  C10 UNL     1       2.813   1.852  -0.007  1.00  0.00     0.026 C 
HETATM   27 CL1  UNL     1       5.469   2.026   0.079  1.00  0.00    -0.125 Cl
ENDBRANCH  24  25
ENDBRANCH  23  24
ENDBRANCH  22  23
ENDBRANCH  21  22
ENDBRANCH   3  21
TORSDOF 8
