REMARK  7 active torsions:
REMARK  status: ('A' for Active; 'I' for Inactive)
REMARK    1  A    between atoms: C2_2  and  O1_3 
REMARK    2  A    between atoms: O1_3  and  C3_4 
REMARK    3  A    between atoms: C3_4  and  C4_5 
REMARK    4  A    between atoms: N1_7  and  C6_8 
REMARK    5  A    between atoms: C8_11  and  C9_12 
REMARK    6  A    between atoms: C12_16  and  C13_17 
REMARK    7  A    between atoms: C13_17  and  O3_18 
ROOT
HETATM    1  C4  UNL     1       3.038   0.322  -0.426  1.00  0.00     0.049 A 
HETATM    2  C5  UNL     1       1.789  -0.222  -0.340  1.00  0.00     0.111 A 
HETATM    3  N1  UNL     1       0.658   0.543  -0.260  1.00  0.00    -0.304 N 
HETATM    4  C14 UNL     1       0.828   1.876  -0.264  1.00  0.00     0.182 A 
HETATM    5  S1  UNL     1      -0.408   2.941  -0.131  1.00  0.00    -0.040 SA
HETATM    6  N2  UNL     1       2.070   2.450  -0.351  1.00  0.00    -0.299 N 
ATOM      7  H2  UNL     1       2.149   3.467  -0.353  1.00  0.00     0.171 HD
HETATM    8  C15 UNL     1       3.178   1.711  -0.433  1.00  0.00     0.257 A 
HETATM    9  O5  UNL     1       4.323   2.275  -0.517  1.00  0.00    -0.267 OA
ENDROOT
BRANCH   3  10
HETATM   10  C6  UNL     1      -0.662  -0.032  -0.243  1.00  0.00     0.254 C 
HETATM   11  C7  UNL     1      -1.380   0.149  -1.542  1.00  0.00     0.222 C 
HETATM   12  O2  UNL     1      -2.676  -0.324  -1.461  1.00  0.00    -0.376 OA
HETATM   13  C8  UNL     1      -3.300   0.246  -0.381  1.00  0.00     0.191 C 
HETATM   14  C12 UNL     1      -2.664  -0.265   0.866  1.00  0.00     0.180 C 
HETATM   15  O4  UNL     1      -1.357   0.277   0.887  1.00  0.00    -0.354 OA
BRANCH  13  16
HETATM   16  C9  UNL     1      -4.788   0.228  -0.422  1.00  0.00     0.124 C 
HETATM   17  C10 UNL     1      -5.458  -1.084  -0.493  1.00  0.00     0.054 C 
HETATM   18  C11 UNL     1      -5.320   1.040   0.738  1.00  0.00     0.054 C 
HETATM   19  F1  UNL     1      -5.143   0.955  -1.569  1.00  0.00    -0.241 F 
ENDBRANCH  13  16
BRANCH  14  20
HETATM   20  C13 UNL     1      -2.534  -1.780   0.848  1.00  0.00     0.198 C 
BRANCH  20  21
HETATM   21  O3  UNL     1      -1.827  -2.193   1.991  1.00  0.00    -0.398 OA
ATOM     22  H3  UNL     1      -1.746  -3.139   1.980  1.00  0.00     0.209 HD
ENDBRANCH  20  21
ENDBRANCH  14  20
ENDBRANCH   3  10
BRANCH   1  23
HETATM   23  C3  UNL     1       4.301  -0.451  -0.571  1.00  0.00     0.213 C 
BRANCH  23  24
HETATM   24  O1  UNL     1       5.199   0.060   0.405  1.00  0.00    -0.387 OA
BRANCH  24  25
HETATM   25  C2  UNL     1       6.361  -0.679   0.295  1.00  0.00     0.163 C 
HETATM   26  C1  UNL     1       7.441  -0.115   1.203  1.00  0.00     0.033 C 
ENDBRANCH  24  25
ENDBRANCH  23  24
ENDBRANCH   1  23
TORSDOF 7
