REMARK  9 active torsions:
REMARK  status: ('A' for Active; 'I' for Inactive)
REMARK    1  A    between atoms: C2_2  and  C5_5 
REMARK    2  A    between atoms: C8_8  and  O1_9 
REMARK    3  A    between atoms: O1_9  and  C9_10 
REMARK    4  A    between atoms: C9_10  and  C10_11 
REMARK    5  A    between atoms: C10_11  and  O2_12 
REMARK    6  A    between atoms: C10_11  and  C11_14 
REMARK    7  A    between atoms: C11_14  and  N1_15 
REMARK    8  A    between atoms: C12_18  and  C13_19 
REMARK    9  A    between atoms: C13_19  and  O3_20 
ROOT
HETATM    1  C10 UNL     1       2.377   1.184   0.305  1.00  0.00     0.162 C 
ENDROOT
BRANCH   1   2
HETATM    2  C9  UNL     1       1.496   0.650  -0.793  1.00  0.00     0.201 C 
BRANCH   2   3
HETATM    3  O1  UNL     1       0.190   0.431  -0.439  1.00  0.00    -0.382 OA
BRANCH   3   4
HETATM    4  C8  UNL     1      -0.556   1.503  -0.036  1.00  0.00     0.139 C 
HETATM    5  C7  UNL     1      -1.637   1.731  -1.041  1.00  0.00     0.034 C 
HETATM    6  C6  UNL     1      -2.934   1.057  -0.820  1.00  0.00     0.008 C 
HETATM    7  C5  UNL     1      -2.816   0.097   0.322  1.00  0.00    -0.006 C 
HETATM    8  C16 UNL     1      -2.445   0.945   1.528  1.00  0.00     0.028 C 
HETATM    9  C15 UNL     1      -0.993   1.294   1.359  1.00  0.00     0.111 C 
HETATM   10 CL1  UNL     1      -0.717   2.792   2.319  1.00  0.00    -0.122 Cl
BRANCH   7  11
HETATM   11  C2  UNL     1      -4.070  -0.700   0.563  1.00  0.00    -0.048 C 
HETATM   12  C1  UNL     1      -4.415  -1.498  -0.650  1.00  0.00     0.015 C 
HETATM   13  C3  UNL     1      -5.224   0.108   1.052  1.00  0.00     0.015 C 
HETATM   14  C4  UNL     1      -3.724  -1.709   1.668  1.00  0.00     0.015 C 
ENDBRANCH   7  11
ENDBRANCH   3   4
ENDBRANCH   2   3
ENDBRANCH   1   2
BRANCH   1  15
HETATM   15  O2  UNL     1       2.411   0.303   1.398  1.00  0.00    -0.392 OA
ATOM     16  H2  UNL     1       2.967   0.640   2.091  1.00  0.00     0.210 HD
ENDBRANCH   1  15
BRANCH   1  17
HETATM   17  C11 UNL     1       3.750   1.461  -0.213  1.00  0.00     0.186 C 
BRANCH  17  18
HETATM   18  N1  UNL     1       4.433   0.260  -0.749  1.00  0.00    -0.248 N 
HETATM   19  N2  UNL     1       5.061  -0.503   0.083  1.00  0.00    -0.290 N 
HETATM   20  C12 UNL     1       5.668  -1.591  -0.330  1.00  0.00     0.095 A 
ATOM     21  H2  UNL     1       5.085  -0.257   1.073  1.00  0.00     0.187 HD
HETATM   22  S1  UNL     1       5.337  -1.543  -1.999  1.00  0.00    -0.011 SA
HETATM   23  C14 UNL     1       4.422  -0.090  -2.031  1.00  0.00     0.306 A 
HETATM   24  O4  UNL     1       3.883   0.484  -3.049  1.00  0.00    -0.258 OA
BRANCH  20  25
HETATM   25  C13 UNL     1       6.430  -2.561   0.527  1.00  0.00     0.230 C 
BRANCH  25  26
HETATM   26  O3  UNL     1       6.905  -3.572  -0.340  1.00  0.00    -0.394 OA
ATOM     27  H3  UNL     1       7.387  -4.186   0.202  1.00  0.00     0.209 HD
ENDBRANCH  25  26
ENDBRANCH  20  25
ENDBRANCH  17  18
ENDBRANCH   1  17
TORSDOF 9
