REMARK  6 active torsions:
REMARK  status: ('A' for Active; 'I' for Inactive)
REMARK    1  A    between atoms: O1_2  and  C2_3 
REMARK    2  A    between atoms: N1_5  and  C4_6 
REMARK    3  A    between atoms: C11_16  and  O3_17 
REMARK    4  A    between atoms: O3_17  and  C12_18 
REMARK    5  A    between atoms: N3_26  and  C20_27 
REMARK    6  A    between atoms: C24_31  and  N4_32 
ROOT
HETATM    1  C4  UNL     1      -2.584  -0.089   0.153  1.00  0.00     0.073 A 
HETATM    2  C5  UNL     1      -1.689  -1.003  -0.362  1.00  0.00     0.063 A 
HETATM    3  C6  UNL     1      -0.327  -0.740  -0.370  1.00  0.00     0.053 A 
HETATM    4  C7  UNL     1       0.161   0.450   0.141  1.00  0.00     0.071 A 
HETATM    5  C8  UNL     1      -0.715   1.384   0.664  1.00  0.00     0.103 A 
HETATM    6  N2  UNL     1      -0.241   2.623   1.200  1.00  0.00    -0.098 NA
HETATM    7  C9  UNL     1      -2.060   1.084   0.653  1.00  0.00     0.168 A 
HETATM    8  F1  UNL     1      -2.948   1.992   1.164  1.00  0.00    -0.202 F 
HETATM    9  C10 UNL     1       1.531   0.741   0.144  1.00  0.00     0.221 A 
HETATM   10  O2  UNL     1       1.858   1.847   0.632  1.00  0.00    -0.284 OA
HETATM   11  C11 UNL     1       2.434  -0.158  -0.365  1.00  0.00     0.136 A 
HETATM   12  C19 UNL     1       1.891  -1.352  -0.873  1.00  0.00     0.132 A 
HETATM   13  N3  UNL     1       0.573  -1.593  -0.858  1.00  0.00    -0.348 N 
ENDROOT
BRANCH   1  14
HETATM   14  N1  UNL     1      -3.986  -0.310   0.184  1.00  0.00    -0.374 N 
HETATM   15  C3  UNL     1      -4.981   0.538  -0.481  1.00  0.00     0.157 C 
HETATM   16  C2  UNL     1      -6.208   0.498   0.428  1.00  0.00     0.170 C 
HETATM   17  C24 UNL     1      -5.933  -0.606   1.434  1.00  0.00     0.231 C 
HETATM   18  C23 UNL     1      -4.757  -1.351   0.830  1.00  0.00     0.158 C 
BRANCH  16  19
HETATM   19  O1  UNL     1      -6.374   1.726   1.084  1.00  0.00    -0.387 OA
HETATM   20  C1  UNL     1      -7.588   2.298   0.710  1.00  0.00     0.202 C 
ENDBRANCH  16  19
BRANCH  17  21
HETATM   21  N4  UNL     1      -7.060  -1.460   1.655  1.00  0.00    -0.071 N 
ATOM     22  H43 UNL     1      -7.879  -0.917   1.927  1.00  0.00     0.274 HD
ATOM     23  H42 UNL     1      -7.400  -1.847   0.775  1.00  0.00     0.274 HD
ATOM     24  H41 UNL     1      -6.875  -2.201   2.331  1.00  0.00     0.274 HD
ENDBRANCH  17  21
ENDBRANCH   1  14
BRANCH  13  25
HETATM   25  C20 UNL     1       0.072  -2.850  -1.398  1.00  0.00     0.090 A 
HETATM   26  C21 UNL     1       0.851  -4.089  -1.309  1.00  0.00     0.028 A 
HETATM   27  C22 UNL     1      -0.268  -3.874  -0.338  1.00  0.00     0.028 A 
ENDBRANCH  13  25
BRANCH  11  28
HETATM   28  O3  UNL     1       3.759   0.015  -0.413  1.00  0.00    -0.340 OA
BRANCH  28  29
HETATM   29  C12 UNL     1       4.629   1.019  -0.027  1.00  0.00     0.134 C 
HETATM   30  C13 UNL     1       5.469   1.364  -1.250  1.00  0.00     0.033 C 
HETATM   31  C14 UNL     1       6.585   0.374  -1.210  1.00  0.00     0.008 C 
HETATM   32  C15 UNL     1       6.702  -0.111   0.205  1.00  0.00    -0.003 A 
HETATM   33  C16 UNL     1       6.923   0.959   1.226  1.00  0.00    -0.007 A 
HETATM   34  C18 UNL     1       5.587   0.429   0.989  1.00  0.00     0.024 A 
HETATM   35  C17 UNL     1       7.372   2.327   0.847  1.00  0.00     0.011 C 
ENDBRANCH  28  29
ENDBRANCH  11  28
TORSDOF 6
