REMARK  8 active torsions:
REMARK  status: ('A' for Active; 'I' for Inactive)
REMARK    1  A    between atoms: C2_2  and  C3_3 
REMARK    2  A    between atoms: C3_3  and  C4_4 
REMARK    3  A    between atoms: C4_4  and  N1_5 
REMARK    4  A    between atoms: N1_5  and  C5_6 
REMARK    5  A    between atoms: C5_6  and  O1_7 
REMARK    6  A    between atoms: C5_6  and  N2_9 
REMARK    7  A    between atoms: N2_9  and  C6_11 
REMARK    8  A    between atoms: C10_16  and  C11_17 
REMARK       I    between atoms: N3_21  and  C14_23 
ROOT
HETATM    1  C11 UNL     1       2.225  -1.164  -0.292  1.00  0.00     0.030 C 
HETATM    2  S1  UNL     1       3.173  -1.430  -1.793  1.00  0.00    -0.125 SA
HETATM    3  C12 UNL     1       4.406  -0.099  -1.810  1.00  0.00     0.133 C 
HETATM    4  C13 UNL     1       4.621   0.485  -0.489  1.00  0.00     0.020 C 
HETATM    5  N3  UNL     1       5.459   1.445  -0.378  1.00  0.00    -0.333 N 
ATOM      6  H3  UNL     1       5.575   1.817   0.565  1.00  0.00     0.168 HD
HETATM    7  C14 UNL     1       6.213   2.037  -1.331  1.00  0.00     0.217 C 
HETATM    8  C15 UNL     1       7.238   3.098  -0.987  1.00  0.00     0.117 C 
HETATM    9  O2  UNL     1       6.161   1.797  -2.594  1.00  0.00    -0.274 OA
HETATM   10  C16 UNL     1       4.007   0.134   0.831  1.00  0.00     0.181 C 
HETATM   11  C17 UNL     1       3.217   1.268   1.334  1.00  0.00     0.073 C 
HETATM   12  N4  UNL     1       2.561   2.170   1.704  1.00  0.00    -0.196 NA
HETATM   13  C18 UNL     1       3.187  -1.114   0.843  1.00  0.00     0.192 C 
HETATM   14  C19 UNL     1       2.735  -1.504   2.144  1.00  0.00     0.092 C 
HETATM   15  N5  UNL     1       2.355  -1.774   3.194  1.00  0.00    -0.195 NA
HETATM   16  C20 UNL     1       4.253  -2.188   0.513  1.00  0.00     0.092 C 
HETATM   17  N6  UNL     1       5.061  -2.996   0.219  1.00  0.00    -0.195 NA
ENDROOT
BRANCH   1  18
HETATM   18  C10 UNL     1       0.881  -1.683  -0.185  1.00  0.00     0.020 A 
HETATM   19  C9  UNL     1       0.567  -2.772  -1.040  1.00  0.00     0.127 A 
HETATM   20  C8  UNL     1      -0.728  -3.148  -1.131  1.00  0.00     0.045 A 
HETATM   21  F1  UNL     1       1.606  -3.320  -1.703  1.00  0.00    -0.205 F 
HETATM   22  C7  UNL     1      -1.735  -2.495  -0.419  1.00  0.00     0.032 A 
HETATM   23  C6  UNL     1      -1.482  -1.445   0.402  1.00  0.00     0.037 A 
HETATM   24  C21 UNL     1      -0.132  -1.041   0.522  1.00  0.00     0.045 A 
BRANCH  23  25
HETATM   25  N2  UNL     1      -2.432  -0.656   1.088  1.00  0.00    -0.311 N 
ATOM     26  H2  UNL     1      -2.074  -0.057   1.832  1.00  0.00     0.170 HD
BRANCH  25  27
HETATM   27  C5  UNL     1      -3.835  -0.607   0.852  1.00  0.00     0.293 C 
BRANCH  27  28
HETATM   28  N1  UNL     1      -4.473   0.382   1.037  1.00  0.00    -0.410 NA
BRANCH  28  29
HETATM   29  C4  UNL     1      -5.553   1.233   1.110  1.00  0.00     0.226 C 
BRANCH  29  30
HETATM   30  C3  UNL     1      -6.770   0.755   0.282  1.00  0.00     0.059 C 
BRANCH  30  31
HETATM   31  C2  UNL     1      -7.856   1.717   0.421  1.00  0.00    -0.034 C 
HETATM   32  C1  UNL     1      -8.259   2.413  -0.652  1.00  0.00     0.007 C 
ENDBRANCH  30  31
ENDBRANCH  29  30
ENDBRANCH  28  29
ENDBRANCH  27  28
BRANCH  27  33
HETATM   33  O1  UNL     1      -4.567  -1.746   0.373  1.00  0.00    -0.322 OA
ATOM     34  H1  UNL     1      -4.058  -2.535   0.225  1.00  0.00     0.222 HD
ENDBRANCH  27  33
ENDBRANCH  25  27
ENDBRANCH  23  25
ENDBRANCH   1  18
TORSDOF 8
