REMARK  7 active torsions:
REMARK  status: ('A' for Active; 'I' for Inactive)
REMARK    1  A    between atoms: C4_4  and  N1_5 
REMARK    2  A    between atoms: N2_10  and  C6_11 
REMARK    3  A    between atoms: C7_12  and  O1_13 
REMARK    4  A    between atoms: O1_13  and  C8_14 
REMARK    5  A    between atoms: C16_23  and  C17_24 
REMARK    6  A    between atoms: C17_24  and  O3_25 
REMARK    7  A    between atoms: N4_31  and  C20_32 
ROOT
HETATM    1  C6  UNL     1      -1.077  -0.012   0.023  1.00  0.00     0.106 A 
HETATM    2  C7  UNL     1      -0.143  -0.775  -0.611  1.00  0.00     0.109 A 
HETATM    3  C16 UNL     1      -0.507  -2.119  -0.875  1.00  0.00     0.030 A 
HETATM    4  C18 UNL     1      -1.734  -2.606  -0.503  1.00  0.00     0.074 A 
HETATM    5  N3  UNL     1      -2.311  -3.819  -0.634  1.00  0.00    -0.350 N 
ATOM      6  H3  UNL     1      -1.887  -4.638  -1.071  1.00  0.00     0.166 HD
HETATM    7  C19 UNL     1      -3.538  -3.764  -0.091  1.00  0.00     0.184 A 
HETATM    8  N4  UNL     1      -3.795  -2.542   0.399  1.00  0.00    -0.334 N 
HETATM    9  C23 UNL     1      -2.666  -1.820   0.141  1.00  0.00     0.105 A 
HETATM   10  C24 UNL     1      -2.347  -0.519   0.409  1.00  0.00     0.174 A 
HETATM   11  F1  UNL     1      -3.263   0.272   1.048  1.00  0.00    -0.201 F 
ENDROOT
BRANCH   1  12
HETATM   12  N2  UNL     1      -0.986   1.380   0.352  1.00  0.00    -0.370 N 
HETATM   13  C2  UNL     1      -1.376   2.499  -0.527  1.00  0.00     0.082 C 
HETATM   14  C1  UNL     1      -0.230   3.290  -1.041  1.00  0.00     0.032 C 
HETATM   15  C3  UNL     1      -2.274   3.355   0.350  1.00  0.00     0.059 C 
HETATM   16  C4  UNL     1      -1.659   3.173   1.716  1.00  0.00     0.203 C 
HETATM   17  C5  UNL     1      -0.623   2.063   1.573  1.00  0.00     0.156 C 
BRANCH  16  18
HETATM   18  N1  UNL     1      -1.077   4.419   2.135  1.00  0.00    -0.073 N 
ATOM     19  H13 UNL     1      -0.411   4.786   1.455  1.00  0.00     0.274 HD
ATOM     20  H12 UNL     1      -1.746   5.189   2.109  1.00  0.00     0.274 HD
ATOM     21  H11 UNL     1      -0.661   4.296   3.058  1.00  0.00     0.274 HD
ENDBRANCH  16  18
ENDBRANCH   1  12
BRANCH   2  22
HETATM   22  O1  UNL     1       1.058  -0.320  -0.974  1.00  0.00    -0.343 OA
BRANCH  22  23
HETATM   23  C8  UNL     1       2.358  -0.292  -0.600  1.00  0.00     0.130 C 
HETATM   24  C9  UNL     1       3.335  -0.664  -1.702  1.00  0.00     0.039 C 
HETATM   25  C10 UNL     1       4.752  -0.558  -1.220  1.00  0.00     0.012 C 
HETATM   26  C11 UNL     1       5.066  -1.400  -0.031  1.00  0.00     0.172 C 
HETATM   27  C14 UNL     1       5.085   0.897  -0.871  1.00  0.00     0.013 C 
HETATM   28  O2  UNL     1       5.435  -0.702   1.093  1.00  0.00    -0.390 OA
HETATM   29  C12 UNL     1       4.566   0.308   1.452  1.00  0.00     0.172 C 
HETATM   30  C13 UNL     1       4.199   1.209   0.304  1.00  0.00     0.012 C 
HETATM   31  C15 UNL     1       2.752   1.073  -0.110  1.00  0.00     0.039 C 
ENDBRANCH  22  23
ENDBRANCH   2  22
BRANCH   3  32
HETATM   32  C17 UNL     1       0.449  -3.010  -1.566  1.00  0.00     0.208 C 
BRANCH  32  33
HETATM   33  O3  UNL     1      -0.101  -4.284  -1.728  1.00  0.00    -0.396 OA
ATOM     34  H3  UNL     1       0.513  -4.857  -2.172  1.00  0.00     0.209 HD
ENDBRANCH  32  33
ENDBRANCH   3  32
BRANCH   8  35
HETATM   35  C20 UNL     1      -4.983  -2.058   1.059  1.00  0.00     0.091 A 
HETATM   36  C21 UNL     1      -6.138  -1.630   0.234  1.00  0.00     0.028 A 
HETATM   37  C22 UNL     1      -6.198  -2.953   0.945  1.00  0.00     0.028 A 
ENDBRANCH   8  35
TORSDOF 7
