REMARK  7 active torsions:
REMARK  status: ('A' for Active; 'I' for Inactive)
REMARK    1  A    between atoms: C2_2  and  O1_5 
REMARK    2  A    between atoms: O1_5  and  C5_6 
REMARK       I    between atoms: C5_6  and  N1_8 
REMARK    3  A    between atoms: C8_11  and  N2_12 
REMARK    4  A    between atoms: C10_14  and  C11_15 
REMARK    5  A    between atoms: C11_15  and  N3_17 
REMARK    6  A    between atoms: C11_15  and  C15_22 
REMARK    7  A    between atoms: N3_17  and  C12_19 
ROOT
HETATM    1  N2  UNL     1       0.787   0.190  -0.239  1.00  0.00    -0.348 N 
HETATM    2  C9  UNL     1       1.936  -0.528  -0.326  1.00  0.00     0.105 A 
HETATM    3  C10 UNL     1       3.008   0.316  -0.475  1.00  0.00     0.042 A 
HETATM    4  C16 UNL     1       2.490   1.582  -0.479  1.00  0.00     0.023 A 
HETATM    5  C17 UNL     1       3.142   2.781  -0.600  1.00  0.00     0.102 A 
HETATM    6  N4  UNL     1       2.421   3.909  -0.576  1.00  0.00    -0.371 N 
ATOM      7  H4  UNL     1       2.886   4.812  -0.665  1.00  0.00     0.164 HD
HETATM    8  C18 UNL     1       1.086   3.854  -0.435  1.00  0.00     0.132 A 
HETATM    9  C19 UNL     1       0.392   2.677  -0.310  1.00  0.00     0.159 A 
HETATM   10  F2  UNL     1      -0.952   2.624  -0.167  1.00  0.00    -0.202 F 
HETATM   11  C20 UNL     1       1.104   1.492  -0.331  1.00  0.00     0.087 A 
ENDROOT
BRANCH   1  12
HETATM   12  C8  UNL     1      -0.552  -0.338  -0.077  1.00  0.00     0.092 C 
HETATM   13  C7  UNL     1      -0.954  -0.477   1.383  1.00  0.00     0.045 C 
HETATM   14  C6  UNL     1      -2.139  -1.405   1.529  1.00  0.00     0.130 C 
HETATM   15  N1  UNL     1      -2.734  -1.562   0.221  1.00  0.00    -0.328 N 
HETATM   16  C5  UNL     1      -4.004  -1.065  -0.149  1.00  0.00     0.363 C 
HETATM   17  C22 UNL     1      -1.955  -2.285  -0.773  1.00  0.00     0.130 C 
HETATM   18  O2  UNL     1      -4.500  -1.215  -1.292  1.00  0.00    -0.238 OA
HETATM   19  C21 UNL     1      -0.541  -1.745  -0.700  1.00  0.00     0.045 C 
BRANCH  16  20
HETATM   20  O1  UNL     1      -4.791  -0.360   0.769  1.00  0.00    -0.294 OA
BRANCH  20  21
HETATM   21  C2  UNL     1      -6.067   0.144   0.405  1.00  0.00     0.061 C 
HETATM   22  C1  UNL     1      -6.996  -0.970  -0.023  1.00  0.00     0.046 C 
HETATM   23  C3  UNL     1      -5.970   1.230  -0.615  1.00  0.00     0.046 C 
HETATM   24  C4  UNL     1      -6.665   0.757   1.668  1.00  0.00     0.046 C 
ENDBRANCH  20  21
ENDBRANCH  16  20
ENDBRANCH   1  12
BRANCH   3  25
HETATM   25  C11 UNL     1       4.399  -0.105  -0.599  1.00  0.00     0.291 C 
HETATM   26  F1  UNL     1       4.862   0.459  -1.805  1.00  0.00    -0.202 F 
BRANCH  25  27
HETATM   27  N3  UNL     1       5.276   0.378   0.406  1.00  0.00    -0.371 N 
ATOM     28  H3  UNL     1       4.922   0.793   1.268  1.00  0.00     0.157 HD
BRANCH  27  29
HETATM   29  C12 UNL     1       6.673   0.257   0.157  1.00  0.00     0.080 A 
HETATM   30  C13 UNL     1       7.531   1.017   1.176  1.00  0.00     0.027 A 
HETATM   31  C14 UNL     1       7.582  -0.491   1.105  1.00  0.00     0.027 A 
ENDBRANCH  27  29
ENDBRANCH  25  27
BRANCH  25  32
HETATM   32  C15 UNL     1       4.572  -1.564  -0.785  1.00  0.00     0.241 C 
HETATM   33  O3  UNL     1       5.377  -2.256  -0.118  1.00  0.00    -0.644 OA
HETATM   34  O4  UNL     1       3.828  -2.283  -1.741  1.00  0.00    -0.644 OA
ENDBRANCH  25  32
ENDBRANCH   3  25
TORSDOF 7
