REMARK  14 active torsions:
REMARK  status: ('A' for Active; 'I' for Inactive)
REMARK    1  A    between atoms: C2_2  and  C3_3 
REMARK    2  A    between atoms: C3_3  and  N1_4 
REMARK    3  A    between atoms: N1_4  and  C4_7 
REMARK    4  A    between atoms: C4_7  and  C5_8 
REMARK    5  A    between atoms: C5_8  and  C6_9 
REMARK    6  A    between atoms: C6_9  and  N2_10 
REMARK    7  A    between atoms: N2_10  and  C7_12 
REMARK    8  A    between atoms: C16_25  and  N5_26 
REMARK    9  A    between atoms: N5_26  and  C17_28 
REMARK   10  A    between atoms: C17_28  and  C18_29 
REMARK   11  A    between atoms: C18_29  and  O1_30 
REMARK   12  A    between atoms: O1_30  and  C19_31 
REMARK   13  A    between atoms: C19_31  and  C20_32 
REMARK   14  A    between atoms: C20_32  and  N6_33 
ROOT
HETATM    1  C7  UNL     1      -0.670  -2.460  -0.002  1.00  0.00     0.113 A 
HETATM    2  N3  UNL     1      -1.952  -2.945  -0.059  1.00  0.00    -0.352 N 
ATOM      3  H3  UNL     1      -2.716  -2.289  -0.221  1.00  0.00     0.166 HD
HETATM    4  C8  UNL     1      -2.243  -4.246   0.090  1.00  0.00     0.090 A 
HETATM    5  C9  UNL     1      -1.273  -5.165   0.305  1.00  0.00     0.029 A 
HETATM    6  C10 UNL     1       0.019  -4.721   0.370  1.00  0.00    -0.020 A 
HETATM    7  C11 UNL     1       1.024  -5.663   0.477  1.00  0.00     0.013 A 
HETATM    8  C12 UNL     1       2.320  -5.273   0.447  1.00  0.00     0.013 A 
HETATM    9  C13 UNL     1       2.653  -3.945   0.319  1.00  0.00    -0.020 A 
HETATM   10  C14 UNL     1       3.964  -3.593   0.373  1.00  0.00     0.029 A 
HETATM   11  C15 UNL     1       4.294  -2.277   0.336  1.00  0.00     0.090 A 
HETATM   12  N4  UNL     1       3.338  -1.341   0.253  1.00  0.00    -0.352 N 
ATOM     13  H4  UNL     1       3.613  -0.359   0.233  1.00  0.00     0.166 HD
HETATM   14  C16 UNL     1       2.004  -1.653   0.194  1.00  0.00     0.113 A 
HETATM   15  C21 UNL     1       1.645  -2.955   0.212  1.00  0.00     0.033 A 
HETATM   16  C22 UNL     1       0.327  -3.352   0.223  1.00  0.00     0.033 A 
ENDROOT
BRANCH   1  17
HETATM   17  N2  UNL     1      -0.590  -1.284  -0.417  1.00  0.00    -0.376 N 
ATOM     18  H2  UNL     1       0.335  -0.854  -0.397  1.00  0.00     0.161 HD
BRANCH  17  19
HETATM   19  C6  UNL     1      -1.669  -0.473  -0.921  1.00  0.00     0.123 C 
BRANCH  19  20
HETATM   20  C5  UNL     1      -2.564   0.225  -0.010  1.00  0.00     0.047 C 
BRANCH  20  21
HETATM   21  C4  UNL     1      -1.979   1.216   0.959  1.00  0.00     0.234 C 
BRANCH  21  22
HETATM   22  N1  UNL     1      -2.995   1.816   1.794  1.00  0.00    -0.072 N 
ATOM     23  H12 UNL     1      -2.567   2.295   2.586  1.00  0.00     0.277 HD
ATOM     24  H11 UNL     1      -3.520   1.095   2.289  1.00  0.00     0.277 HD
BRANCH  22  25
HETATM   25  C3  UNL     1      -3.894   2.703   1.097  1.00  0.00     0.259 C 
BRANCH  25  26
HETATM   26  C2  UNL     1      -3.113   3.904   0.691  1.00  0.00    -0.010 C 
HETATM   27  C1  UNL     1      -3.457   5.090   1.125  1.00  0.00     0.008 C 
ENDBRANCH  25  26
ENDBRANCH  22  25
ENDBRANCH  21  22
ENDBRANCH  20  21
ENDBRANCH  19  20
ENDBRANCH  17  19
ENDBRANCH   1  17
BRANCH  14  28
HETATM   28  N5  UNL     1       1.270  -0.657   0.410  1.00  0.00    -0.373 N 
ATOM     29  H5  UNL     1       0.258  -0.779   0.382  1.00  0.00     0.161 HD
BRANCH  28  30
HETATM   30  C17 UNL     1       1.809   0.669   0.700  1.00  0.00     0.147 C 
BRANCH  30  31
HETATM   31  C18 UNL     1       2.026   1.569  -0.442  1.00  0.00     0.187 C 
BRANCH  31  32
HETATM   32  O1  UNL     1       0.948   1.929  -1.199  1.00  0.00    -0.388 OA
BRANCH  32  33
HETATM   33  C19 UNL     1       1.299   2.759  -2.230  1.00  0.00     0.195 C 
BRANCH  33  34
HETATM   34  C20 UNL     1       1.943   4.051  -1.820  1.00  0.00     0.255 C 
BRANCH  34  35
HETATM   35  N6  UNL     1       1.140   4.884  -0.982  1.00  0.00    -0.077 N 
ATOM     36  H63 UNL     1       0.238   5.064  -1.424  1.00  0.00     0.274 HD
ATOM     37  H62 UNL     1       0.834   4.366  -0.159  1.00  0.00     0.274 HD
ATOM     38  H61 UNL     1       1.578   5.762  -0.703  1.00  0.00     0.274 HD
ENDBRANCH  34  35
ENDBRANCH  33  34
ENDBRANCH  32  33
ENDBRANCH  31  32
ENDBRANCH  30  31
ENDBRANCH  28  30
ENDBRANCH  14  28
TORSDOF 14
