REMARK  13 active torsions:
REMARK  status: ('A' for Active; 'I' for Inactive)
REMARK    1  A    between atoms: O1_1  and  C1_3 
REMARK    2  A    between atoms: C4_6  and  O2_7 
REMARK    3  A    between atoms: C5_9  and  C6_10 
REMARK    4  A    between atoms: C6_10  and  O3_11 
REMARK    5  A    between atoms: O3_11  and  C7_12 
REMARK    6  A    between atoms: C7_12  and  C8_13 
REMARK    7  A    between atoms: C8_13  and  O4_14 
REMARK    8  A    between atoms: O4_14  and  C9_15 
REMARK    9  A    between atoms: C9_15  and  C10_16 
REMARK   10  A    between atoms: C10_16  and  C11_17 
REMARK   11  A    between atoms: C11_17  and  C12_18 
REMARK   12  A    between atoms: C12_18  and  N1_19 
REMARK   13  A    between atoms: N1_19  and  C13_22 
ROOT
HETATM    1  C10 UNL     1       0.567  -0.359  -0.646  1.00  0.00     0.028 C 
ENDROOT
BRANCH   1   2
HETATM    2  C9  UNL     1      -0.843  -0.697  -0.981  1.00  0.00     0.167 C 
BRANCH   2   3
HETATM    3  O4  UNL     1      -1.496  -1.170   0.122  1.00  0.00    -0.389 OA
BRANCH   3   4
HETATM    4  C8  UNL     1      -1.612  -0.326   1.190  1.00  0.00     0.193 C 
BRANCH   4   5
HETATM    5  C7  UNL     1      -2.370   0.943   0.861  1.00  0.00     0.194 C 
BRANCH   5   6
HETATM    6  O3  UNL     1      -3.647   0.735   0.427  1.00  0.00    -0.384 OA
BRANCH   6   7
HETATM    7  C6  UNL     1      -4.489   0.079   1.287  1.00  0.00     0.209 C 
BRANCH   7   8
HETATM    8  C5  UNL     1      -5.863  -0.085   0.688  1.00  0.00     0.001 A 
HETATM    9  C4  UNL     1      -6.859  -0.725   1.392  1.00  0.00     0.074 A 
HETATM   10  C3  UNL     1      -8.136  -0.881   0.842  1.00  0.00     0.040 A 
HETATM   11  C2  UNL     1      -8.427  -0.399  -0.414  1.00  0.00     0.039 A 
HETATM   12  C1  UNL     1      -7.422   0.245  -1.118  1.00  0.00     0.066 A 
HETATM   13  C22 UNL     1      -6.150   0.399  -0.568  1.00  0.00     0.048 A 
BRANCH   9  14
HETATM   14  O2  UNL     1      -6.575  -1.212   2.654  1.00  0.00    -0.360 OA
ATOM     15  H2  UNL     1      -5.708  -1.106   3.027  1.00  0.00     0.217 HD
ENDBRANCH   9  14
BRANCH  12  16
HETATM   16  O1  UNL     1      -7.719   0.727  -2.380  1.00  0.00    -0.361 OA
ATOM     17  H1  UNL     1      -7.030   1.168  -2.863  1.00  0.00     0.217 HD
ENDBRANCH  12  16
ENDBRANCH   7   8
ENDBRANCH   6   7
ENDBRANCH   5   6
ENDBRANCH   4   5
ENDBRANCH   3   4
ENDBRANCH   2   3
ENDBRANCH   1   2
BRANCH   1  18
HETATM   18  C11 UNL     1       1.276   0.155  -1.890  1.00  0.00     0.029 C 
BRANCH  18  19
HETATM   19  C12 UNL     1       2.714   0.443  -1.429  1.00  0.00     0.235 C 
BRANCH  19  20
HETATM   20  N1  UNL     1       2.620   1.431  -0.384  1.00  0.00    -0.051 N 
ATOM     21  H12 UNL     1       2.171   2.289  -0.706  1.00  0.00     0.280 HD
ATOM     22  H11 UNL     1       1.942   1.169   0.331  1.00  0.00     0.280 HD
BRANCH  20  23
HETATM   23  C13 UNL     1       3.945   1.682   0.180  1.00  0.00     0.308 A 
HETATM   24  C14 UNL     1       4.413   0.407   0.790  1.00  0.00     0.039 A 
HETATM   25  C15 UNL     1       5.494  -0.245   0.414  1.00  0.00    -0.025 A 
HETATM   26  C16 UNL     1       5.844  -1.431   1.052  1.00  0.00     0.012 A 
HETATM   27  C20 UNL     1       6.292   0.228  -0.606  1.00  0.00    -0.011 A 
HETATM   28  C17 UNL     1       6.965  -2.136   0.684  1.00  0.00     0.001 A 
HETATM   29  C18 UNL     1       7.773  -1.661  -0.344  1.00  0.00     0.001 A 
HETATM   30  C19 UNL     1       7.421  -0.487  -0.971  1.00  0.00     0.013 A 
HETATM   31  C21 UNL     1       5.946   1.356  -1.202  1.00  0.00     0.097 A 
HETATM   32  N2  UNL     1       4.803   2.124  -0.869  1.00  0.00    -0.368 N 
ATOM     33  H2  UNL     1       4.596   2.985  -1.375  1.00  0.00     0.161 HD
ENDBRANCH  20  23
ENDBRANCH  19  20
ENDBRANCH  18  19
ENDBRANCH   1  18
TORSDOF 13
