REMARK  14 active torsions:
REMARK  status: ('A' for Active; 'I' for Inactive)
REMARK    1  A    between atoms: N1_1  and  C1_5 
REMARK    2  A    between atoms: C1_5  and  C2_6 
REMARK    3  A    between atoms: C2_6  and  C3_7 
REMARK    4  A    between atoms: C3_7  and  N2_8 
REMARK    5  A    between atoms: N2_8  and  C4_11 
REMARK    6  A    between atoms: C4_11  and  C5_12 
REMARK    7  A    between atoms: C5_12  and  C6_13 
REMARK    8  A    between atoms: C6_13  and  N3_14 
REMARK    9  A    between atoms: N3_14  and  C7_17 
REMARK   10  A    between atoms: C7_17  and  C8_18 
REMARK   11  A    between atoms: C8_18  and  N4_19 
REMARK   12  A    between atoms: N4_19  and  C9_21 
REMARK   13  A    between atoms: C11_23  and  C12_24 
REMARK   14  A    between atoms: N5_32  and  O1_33 
ROOT
HETATM    1  N4  UNL     1       0.736   1.359  -0.684  1.00  0.00    -0.375 N 
ATOM      2  H4  UNL     1       0.824   0.737  -1.488  1.00  0.00     0.161 HD
ENDROOT
BRANCH   1   3
HETATM    3  C8  UNL     1      -0.477   2.052  -0.459  1.00  0.00     0.148 C 
BRANCH   3   4
HETATM    4  C7  UNL     1      -1.634   1.779  -1.324  1.00  0.00     0.251 C 
BRANCH   4   5
HETATM    5  N3  UNL     1      -2.175   0.445  -1.311  1.00  0.00    -0.074 N 
ATOM      6  H32 UNL     1      -1.484  -0.249  -1.596  1.00  0.00     0.277 HD
ATOM      7  H31 UNL     1      -2.851   0.301  -2.061  1.00  0.00     0.277 HD
BRANCH   5   8
HETATM    8  C6  UNL     1      -2.744   0.141   0.004  1.00  0.00     0.234 C 
BRANCH   8   9
HETATM    9  C5  UNL     1      -3.904   0.994   0.341  1.00  0.00     0.055 C 
BRANCH   9  10
HETATM   10  C4  UNL     1      -5.103   0.962  -0.493  1.00  0.00     0.233 C 
BRANCH  10  11
HETATM   11  N2  UNL     1      -5.843  -0.285  -0.557  1.00  0.00    -0.075 N 
ATOM     12  H22 UNL     1      -5.263  -1.054  -0.893  1.00  0.00     0.277 HD
ATOM     13  H21 UNL     1      -6.535  -0.278  -1.306  1.00  0.00     0.277 HD
BRANCH  11  14
HETATM   14  C3  UNL     1      -6.440  -0.582   0.723  1.00  0.00     0.233 C 
BRANCH  14  15
HETATM   15  C2  UNL     1      -7.421  -1.703   0.754  1.00  0.00     0.055 C 
BRANCH  15  16
HETATM   16  C1  UNL     1      -8.603  -1.373  -0.132  1.00  0.00     0.231 C 
BRANCH  16  17
HETATM   17  N1  UNL     1      -9.601  -2.406  -0.111  1.00  0.00    -0.079 N 
ATOM     18  H13 UNL     1      -9.200  -3.312  -0.353  1.00  0.00     0.274 HD
ATOM     19  H12 UNL     1      -9.900  -2.611   0.842  1.00  0.00     0.274 HD
ATOM     20  H11 UNL     1     -10.398  -2.184  -0.708  1.00  0.00     0.274 HD
ENDBRANCH  16  17
ENDBRANCH  15  16
ENDBRANCH  14  15
ENDBRANCH  11  14
ENDBRANCH  10  11
ENDBRANCH   9  10
ENDBRANCH   8   9
ENDBRANCH   5   8
ENDBRANCH   4   5
ENDBRANCH   3   4
ENDBRANCH   1   3
BRANCH   1  21
HETATM   21  C9  UNL     1       1.731   1.510   0.122  1.00  0.00     0.101 A 
HETATM   22  C10 UNL     1       2.884   0.804  -0.153  1.00  0.00     0.060 A 
HETATM   23  C11 UNL     1       3.986   0.965   0.699  1.00  0.00    -0.020 A 
HETATM   24  C21 UNL     1       3.823   1.826   1.756  1.00  0.00     0.029 A 
HETATM   25  C22 UNL     1       2.677   2.526   2.027  1.00  0.00     0.090 A 
HETATM   26  N6  UNL     1       1.637   2.337   1.171  1.00  0.00    -0.353 N 
ATOM     27  H6  UNL     1       0.763   2.838   1.332  1.00  0.00     0.166 HD
BRANCH  23  28
HETATM   28  C12 UNL     1       5.252   0.280   0.449  1.00  0.00    -0.007 A 
HETATM   29  C13 UNL     1       5.363  -0.956  -0.135  1.00  0.00     0.027 A 
HETATM   30  C14 UNL     1       6.628  -1.502  -0.358  1.00  0.00    -0.006 A 
HETATM   31  C15 UNL     1       6.770  -2.739  -0.959  1.00  0.00     0.014 A 
HETATM   32  C19 UNL     1       7.779  -0.832  -0.005  1.00  0.00     0.072 A 
HETATM   33  C16 UNL     1       8.029  -3.281  -1.195  1.00  0.00     0.001 A 
HETATM   34  C17 UNL     1       9.179  -2.603  -0.840  1.00  0.00     0.002 A 
HETATM   35  C18 UNL     1       9.047  -1.377  -0.244  1.00  0.00     0.033 A 
HETATM   36  N5  UNL     1       7.645   0.377   0.568  1.00  0.00    -0.234 N 
HETATM   37  C20 UNL     1       6.442   0.934   0.797  1.00  0.00     0.135 A 
BRANCH  36  38
HETATM   38  O1  UNL     1       8.827   1.026   0.918  1.00  0.00    -0.283 OA
ATOM     39  H1  UNL     1       8.732   1.880   1.323  1.00  0.00     0.245 HD
ENDBRANCH  36  38
ENDBRANCH  23  28
ENDBRANCH   1  21
TORSDOF 14
