REMARK  12 active torsions:
REMARK  status: ('A' for Active; 'I' for Inactive)
REMARK    1  A    between atoms: C3_5  and  N2_6 
REMARK    2  A    between atoms: N2_6  and  C4_8 
REMARK    3  A    between atoms: C4_8  and  C5_9 
REMARK    4  A    between atoms: C5_9  and  C6_10 
REMARK    5  A    between atoms: C6_10  and  C7_11 
REMARK    6  A    between atoms: C7_11  and  O1_12 
REMARK    7  A    between atoms: O1_12  and  C8_13 
REMARK    8  A    between atoms: C8_13  and  C9_14 
REMARK    9  A    between atoms: C9_14  and  O2_15 
REMARK   10  A    between atoms: O2_15  and  C10_16 
REMARK   11  A    between atoms: C10_16  and  C11_17 
REMARK   12  A    between atoms: C11_17  and  N3_18 
REMARK       I    between atoms: N3_18  and  C12_20 
ROOT
HETATM    1  C4  UNL     1      -1.356  -1.649   0.684  1.00  0.00     0.121 C 
ENDROOT
BRANCH   1   2
HETATM    2  N2  UNL     1      -2.056  -0.431   0.298  1.00  0.00    -0.376 N 
ATOM      3  H2  UNL     1      -1.522   0.372  -0.034  1.00  0.00     0.161 HD
BRANCH   2   4
HETATM    4  C3  UNL     1      -3.342  -0.354   0.370  1.00  0.00     0.115 A 
HETATM    5  N1  UNL     1      -4.106  -1.378   0.801  1.00  0.00    -0.332 N 
HETATM    6  C2  UNL     1      -5.437  -1.292   0.872  1.00  0.00     0.079 A 
ATOM      7  H1  UNL     1      -3.652  -2.247   1.082  1.00  0.00     0.168 HD
HETATM    8  C1  UNL     1      -6.209  -2.461   1.355  1.00  0.00     0.089 C 
HETATM    9  N6  UNL     1      -6.058  -0.161   0.511  1.00  0.00    -0.345 N 
HETATM   10  C19 UNL     1      -5.386   0.895   0.076  1.00  0.00     0.053 A 
ATOM     11  H6  UNL     1      -7.075  -0.112   0.573  1.00  0.00     0.167 HD
HETATM   12  C13 UNL     1      -3.998   0.801   0.003  1.00  0.00     0.035 A 
HETATM   13  C17 UNL     1      -6.078   2.036  -0.283  1.00  0.00    -0.034 A 
HETATM   14  C14 UNL     1      -3.292   1.900  -0.450  1.00  0.00     0.017 A 
HETATM   15  C15 UNL     1      -3.941   3.046  -0.814  1.00  0.00     0.002 A 
HETATM   16  C16 UNL     1      -5.319   3.099  -0.727  1.00  0.00     0.009 A 
HETATM   17  C18 UNL     1      -7.533   2.178  -0.222  1.00  0.00     0.050 C 
ENDBRANCH   2   4
ENDBRANCH   1   2
BRANCH   1  18
HETATM   18  C5  UNL     1      -0.576  -2.155  -0.494  1.00  0.00     0.022 C 
BRANCH  18  19
HETATM   19  C6  UNL     1       0.436  -1.179  -0.999  1.00  0.00     0.028 C 
BRANCH  19  20
HETATM   20  C7  UNL     1       1.425  -0.895   0.137  1.00  0.00     0.167 C 
BRANCH  20  21
HETATM   21  O1  UNL     1       2.026  -2.064   0.513  1.00  0.00    -0.389 OA
BRANCH  21  22
HETATM   22  C8  UNL     1       2.930  -1.998   1.537  1.00  0.00     0.193 C 
BRANCH  22  23
HETATM   23  C9  UNL     1       4.080  -1.085   1.197  1.00  0.00     0.193 C 
BRANCH  23  24
HETATM   24  O2  UNL     1       4.738  -1.541   0.065  1.00  0.00    -0.387 OA
BRANCH  24  25
HETATM   25  C10 UNL     1       5.812  -0.793  -0.327  1.00  0.00     0.187 C 
BRANCH  25  26
HETATM   26  C11 UNL     1       5.519   0.640  -0.659  1.00  0.00     0.148 C 
BRANCH  26  27
HETATM   27  N3  UNL     1       6.743   1.339  -1.066  1.00  0.00    -0.363 N 
HETATM   28  C12 UNL     1       7.804   1.612  -0.163  1.00  0.00     0.181 C 
HETATM   29  N4  UNL     1       8.753   0.742   0.071  1.00  0.00    -0.374 N 
HETATM   30  N5  UNL     1       7.821   2.867   0.493  1.00  0.00    -0.064 NA
ATOM     31  H42 UNL     1       8.741  -0.162  -0.401  1.00  0.00     0.158 HD
ATOM     32  H41 UNL     1       9.515   0.938   0.720  1.00  0.00     0.158 HD
ATOM     33  H3  UNL     1       6.835   1.641  -2.036  1.00  0.00     0.162 HD
ENDBRANCH  26  27
ENDBRANCH  25  26
ENDBRANCH  24  25
ENDBRANCH  23  24
ENDBRANCH  22  23
ENDBRANCH  21  22
ENDBRANCH  20  21
ENDBRANCH  19  20
ENDBRANCH  18  19
ENDBRANCH   1  18
TORSDOF 12
