REMARK  11 active torsions:
REMARK  status: ('A' for Active; 'I' for Inactive)
REMARK    1  A    between atoms: O1_2  and  C2_3 
REMARK    2  A    between atoms: C5_6  and  C6_7 
REMARK    3  A    between atoms: C6_7  and  N1_8 
REMARK    4  A    between atoms: N1_8  and  C7_11 
REMARK    5  A    between atoms: C7_11  and  C8_12 
REMARK    6  A    between atoms: C8_12  and  N2_13 
REMARK    7  A    between atoms: N2_13  and  C9_15 
REMARK    8  A    between atoms: C9_15  and  C10_19 
REMARK    9  A    between atoms: C10_19  and  C11_20 
REMARK   10  A    between atoms: C18_27  and  N4_28 
REMARK   11  A    between atoms: N4_28  and  S1_30 
ROOT
HETATM    1  N1  UNL     1      -0.079  -1.100   0.116  1.00  0.00    -0.070 N 
ATOM      2  H11 UNL     1       0.178  -2.074   0.278  1.00  0.00     0.277 HD
ATOM      3  H12 UNL     1      -0.194  -1.120  -0.897  1.00  0.00     0.277 HD
ENDROOT
BRANCH   1   4
HETATM    4  C6  UNL     1       1.009  -0.214   0.491  1.00  0.00     0.270 C 
BRANCH   4   5
HETATM    5  C5  UNL     1       2.210  -0.683  -0.251  1.00  0.00    -0.030 A 
HETATM    6  C4  UNL     1       2.142  -1.664  -1.232  1.00  0.00     0.012 A 
HETATM    7  C3  UNL     1       3.259  -2.094  -1.905  1.00  0.00     0.040 A 
HETATM    8  C2  UNL     1       4.497  -1.583  -1.648  1.00  0.00     0.095 A 
HETATM    9  C18 UNL     1       4.607  -0.595  -0.670  1.00  0.00     0.076 A 
HETATM   10  C17 UNL     1       3.479  -0.172  -0.002  1.00  0.00     0.041 A 
BRANCH   8  11
HETATM   11  O1  UNL     1       5.644  -2.018  -2.331  1.00  0.00    -0.354 OA
HETATM   12  C1  UNL     1       5.565  -3.017  -3.329  1.00  0.00     0.210 C 
ENDBRANCH   8  11
BRANCH   9  13
HETATM   13  N4  UNL     1       5.896  -0.044  -0.381  1.00  0.00    -0.282 N 
ATOM     14  H4  UNL     1       6.707  -0.463  -0.836  1.00  0.00     0.178 HD
BRANCH  13  15
HETATM   15  S1  UNL     1       6.163   1.273   0.680  1.00  0.00     0.227 S 
HETATM   16  C19 UNL     1       5.633   0.854   2.320  1.00  0.00     0.186 C 
HETATM   17  O2  UNL     1       7.617   1.612   0.690  1.00  0.00    -0.206 OA
HETATM   18  O3  UNL     1       5.429   2.497   0.193  1.00  0.00    -0.206 OA
ENDBRANCH  13  15
ENDBRANCH   9  13
ENDBRANCH   4   5
ENDBRANCH   1   4
BRANCH   1  19
HETATM   19  C7  UNL     1      -1.320  -0.792   0.759  1.00  0.00     0.252 C 
BRANCH  19  20
HETATM   20  C8  UNL     1      -2.327  -1.837   0.298  1.00  0.00     0.148 C 
BRANCH  20  21
HETATM   21  N2  UNL     1      -3.629  -1.656   0.882  1.00  0.00    -0.378 N 
ATOM     22  H2  UNL     1      -4.012  -2.329   1.547  1.00  0.00     0.160 HD
BRANCH  21  23
HETATM   23  C9  UNL     1      -4.369  -0.486   0.489  1.00  0.00     0.074 C 
HETATM   24  N3  UNL     1      -4.742  -0.310  -0.730  1.00  0.00    -0.389 N 
ATOM     25  H32 UNL     1      -4.516  -1.000  -1.446  1.00  0.00     0.157 HD
ATOM     26  H31 UNL     1      -5.267   0.519  -1.009  1.00  0.00     0.157 HD
BRANCH  23  27
HETATM   27  C10 UNL     1      -4.696   0.514   1.526  1.00  0.00     0.114 C 
BRANCH  27  28
HETATM   28  C11 UNL     1      -5.391   1.661   0.887  1.00  0.00    -0.051 A 
HETATM   29  C12 UNL     1      -6.742   1.696   0.707  1.00  0.00     0.007 A 
HETATM   30  C13 UNL     1      -7.362   2.786   0.114  1.00  0.00     0.001 A 
HETATM   31  C14 UNL     1      -6.548   3.818  -0.277  1.00  0.00     0.000 A 
HETATM   32  C15 UNL     1      -5.181   3.824  -0.115  1.00  0.00     0.001 A 
HETATM   33  C16 UNL     1      -4.603   2.721   0.479  1.00  0.00     0.007 A 
ENDBRANCH  27  28
ENDBRANCH  23  27
ENDBRANCH  21  23
ENDBRANCH  20  21
ENDBRANCH  19  20
ENDBRANCH   1  19
TORSDOF 11
