REMARK  13 active torsions:
REMARK  status: ('A' for Active; 'I' for Inactive)
REMARK    1  A    between atoms: C1_4  and  C2_5 
REMARK    2  A    between atoms: C1_4  and  N2_14 
REMARK    3  A    between atoms: C2_5  and  C3_6 
REMARK    4  A    between atoms: C7_10  and  O1_11 
REMARK    5  A    between atoms: N2_14  and  C9_16 
REMARK    6  A    between atoms: C9_16  and  C10_17 
REMARK    7  A    between atoms: C10_17  and  O2_18 
REMARK    8  A    between atoms: O2_18  and  C11_19 
REMARK    9  A    between atoms: C11_19  and  C12_20 
REMARK   10  A    between atoms: C12_20  and  O3_21 
REMARK   11  A    between atoms: O3_21  and  C13_22 
REMARK   12  A    between atoms: C13_22  and  C14_23 
REMARK   13  A    between atoms: C14_23  and  C15_24 
ROOT
HETATM    1  C10 UNL     1      -1.544   0.905   0.400  1.00  0.00     0.187 C 
ENDROOT
BRANCH   1   2
HETATM    2  C9  UNL     1      -2.670  -0.053   0.730  1.00  0.00     0.147 C 
BRANCH   2   3
HETATM    3  N2  UNL     1      -3.029  -0.866  -0.397  1.00  0.00    -0.378 N 
ATOM      4  H2  UNL     1      -2.817  -1.863  -0.372  1.00  0.00     0.160 HD
BRANCH   3   5
HETATM    5  C1  UNL     1      -3.659  -0.338  -1.528  1.00  0.00     0.074 C 
HETATM    6  N1  UNL     1      -3.214   0.636  -2.209  1.00  0.00    -0.389 N 
ATOM      7  H12 UNL     1      -3.674   1.021  -3.034  1.00  0.00     0.157 HD
ATOM      8  H11 UNL     1      -2.340   1.075  -1.919  1.00  0.00     0.157 HD
BRANCH   5   9
HETATM    9  C2  UNL     1      -4.950  -0.987  -1.956  1.00  0.00     0.114 C 
BRANCH   9  10
HETATM   10  C3  UNL     1      -5.942  -0.899  -0.854  1.00  0.00    -0.049 A 
HETATM   11  C4  UNL     1      -6.002  -1.912   0.095  1.00  0.00     0.007 A 
HETATM   12  C5  UNL     1      -6.941  -1.809   1.114  1.00  0.00     0.003 A 
HETATM   13  C6  UNL     1      -7.794  -0.728   1.183  1.00  0.00     0.036 A 
HETATM   14  C7  UNL     1      -7.748   0.285   0.251  1.00  0.00     0.066 A 
HETATM   15  C8  UNL     1      -6.797   0.163  -0.766  1.00  0.00     0.044 A 
BRANCH  14  16
HETATM   16  O1  UNL     1      -8.604   1.380   0.311  1.00  0.00    -0.361 OA
ATOM     17  H1  UNL     1      -8.572   2.079  -0.332  1.00  0.00     0.217 HD
ENDBRANCH  14  16
ENDBRANCH   9  10
ENDBRANCH   5   9
ENDBRANCH   3   5
ENDBRANCH   2   3
ENDBRANCH   1   2
BRANCH   1  18
HETATM   18  O2  UNL     1      -0.412   0.218   0.002  1.00  0.00    -0.387 OA
BRANCH  18  19
HETATM   19  C11 UNL     1       0.657   1.004  -0.353  1.00  0.00     0.193 C 
BRANCH  19  20
HETATM   20  C12 UNL     1       1.081   1.859   0.804  1.00  0.00     0.193 C 
BRANCH  20  21
HETATM   21  O3  UNL     1       2.175   2.678   0.498  1.00  0.00    -0.389 OA
BRANCH  21  22
HETATM   22  C13 UNL     1       3.304   1.994   0.128  1.00  0.00     0.175 C 
BRANCH  22  23
HETATM   23  C14 UNL     1       3.790   1.049   1.209  1.00  0.00     0.102 C 
BRANCH  23  24
HETATM   24  C15 UNL     1       5.018   0.339   0.724  1.00  0.00     0.084 A 
HETATM   25  N3  UNL     1       5.049  -0.825   0.058  1.00  0.00    -0.344 N 
HETATM   26  C16 UNL     1       6.316  -1.157  -0.212  1.00  0.00     0.060 A 
ATOM     27  H3  UNL     1       4.230  -1.374  -0.203  1.00  0.00     0.167 HD
HETATM   28  C17 UNL     1       6.902  -2.228  -0.860  1.00  0.00     0.032 A 
HETATM   29  C21 UNL     1       7.098  -0.154   0.311  1.00  0.00     0.060 A 
HETATM   30  C18 UNL     1       8.275  -2.266  -0.968  1.00  0.00     0.002 A 
HETATM   31  C19 UNL     1       9.076  -1.263  -0.446  1.00  0.00     0.002 A 
HETATM   32  C20 UNL     1       8.490  -0.213   0.190  1.00  0.00     0.032 A 
HETATM   33  N4  UNL     1       6.280   0.746   0.877  1.00  0.00    -0.344 N 
ATOM     34  H4  UNL     1       6.574   1.602   1.348  1.00  0.00     0.167 HD
ENDBRANCH  23  24
ENDBRANCH  22  23
ENDBRANCH  21  22
ENDBRANCH  20  21
ENDBRANCH  19  20
ENDBRANCH  18  19
ENDBRANCH   1  18
TORSDOF 13
