REMARK  16 active torsions:
REMARK  status: ('A' for Active; 'I' for Inactive)
REMARK    1  A    between atoms: C2_2  and  O1_3 
REMARK    2  A    between atoms: C2_2  and  C3_5 
REMARK       I    between atoms: C3_5  and  N1_7 
REMARK    3  A    between atoms: N1_7  and  C4_9 
REMARK    4  A    between atoms: C4_9  and  C5_10 
REMARK    5  A    between atoms: C4_9  and  C16_29 
REMARK       I    between atoms: C5_10  and  N2_12 
REMARK    6  A    between atoms: N2_12  and  O4_14 
REMARK    7  A    between atoms: O4_14  and  C6_15 
REMARK    8  A    between atoms: C6_15  and  C7_17 
REMARK       I    between atoms: N3_21  and  C11_22 
REMARK    9  A    between atoms: C11_22  and  O7_24 
REMARK   10  A    between atoms: O7_24  and  C12_25 
REMARK   11  A    between atoms: C16_29  and  C17_31 
REMARK   12  A    between atoms: C17_31  and  O9_32 
REMARK   13  A    between atoms: C17_31  and  C18_34 
REMARK   14  A    between atoms: C19_36  and  O11_37 
REMARK   15  A    between atoms: C20_39  and  O12_40 
REMARK   16  A    between atoms: C21_42  and  O13_43 
ROOT
HETATM    1  C4  UNL     1      -2.810  -0.409   0.448  1.00  0.00     0.252 C 
ENDROOT
BRANCH   1   2
HETATM    2  N1  UNL     1      -3.454  -1.695   0.201  1.00  0.00    -0.339 N 
HETATM    3  C3  UNL     1      -4.136  -1.966  -1.005  1.00  0.00     0.247 C 
HETATM    4  O2  UNL     1      -4.186  -1.070  -1.882  1.00  0.00    -0.271 OA
ATOM      5  H1  UNL     1      -3.410  -2.418   0.919  1.00  0.00     0.163 HD
BRANCH   3   6
HETATM    6  C2  UNL     1      -4.794  -3.257  -1.274  1.00  0.00     0.206 C 
HETATM    7  C1  UNL     1      -4.299  -3.929  -2.509  1.00  0.00     0.049 C 
BRANCH   6   8
HETATM    8  O1  UNL     1      -4.584  -4.101  -0.177  1.00  0.00    -0.387 OA
ATOM      9  H1  UNL     1      -4.899  -3.673   0.610  1.00  0.00     0.210 HD
ENDBRANCH   6   8
ENDBRANCH   3   6
ENDBRANCH   1   2
BRANCH   1  10
HETATM   10  C5  UNL     1      -1.416  -0.649   0.854  1.00  0.00     0.272 C 
HETATM   11  O3  UNL     1      -0.996  -1.860   0.934  1.00  0.00    -0.269 OA
HETATM   12  N2  UNL     1      -0.495   0.369   1.170  1.00  0.00    -0.224 N 
ATOM     13  H2  UNL     1      -0.797   1.342   1.112  1.00  0.00     0.198 HD
BRANCH  12  14
HETATM   14  O4  UNL     1       0.789   0.098   1.551  1.00  0.00    -0.195 OA
BRANCH  14  15
HETATM   15  C6  UNL     1       1.848  -0.114   0.701  1.00  0.00     0.304 C 
HETATM   16  O5  UNL     1       1.647  -0.060  -0.539  1.00  0.00    -0.261 OA
BRANCH  15  17
HETATM   17  C7  UNL     1       3.223  -0.406   1.214  1.00  0.00     0.191 C 
HETATM   18  C8  UNL     1       3.203  -1.761   1.907  1.00  0.00     0.037 C 
HETATM   19  C9  UNL     1       3.741  -2.745   0.899  1.00  0.00     0.022 C 
HETATM   20  C10 UNL     1       3.982  -1.915  -0.368  1.00  0.00     0.129 C 
HETATM   21  N3  UNL     1       4.142  -0.566   0.116  1.00  0.00    -0.314 N 
HETATM   22  C11 UNL     1       5.025   0.418  -0.378  1.00  0.00     0.364 C 
HETATM   23  O6  UNL     1       5.114   1.575   0.094  1.00  0.00    -0.238 OA
BRANCH  22  24
HETATM   24  O7  UNL     1       5.866   0.127  -1.452  1.00  0.00    -0.294 OA
BRANCH  24  25
HETATM   25  C12 UNL     1       6.768   1.062  -1.988  1.00  0.00     0.061 C 
HETATM   26  C13 UNL     1       6.109   2.300  -2.511  1.00  0.00     0.046 C 
HETATM   27  C14 UNL     1       7.822   1.484  -0.982  1.00  0.00     0.046 C 
HETATM   28  C15 UNL     1       7.477   0.382  -3.145  1.00  0.00     0.046 C 
ENDBRANCH  24  25
ENDBRANCH  22  24
ENDBRANCH  15  17
ENDBRANCH  14  15
ENDBRANCH  12  14
ENDBRANCH   1  10
BRANCH   1  29
HETATM   29  C16 UNL     1      -3.486   0.252   1.614  1.00  0.00     0.193 C 
HETATM   30  O8  UNL     1      -3.855  -0.482   2.513  1.00  0.00    -0.292 OA
BRANCH  29  31
HETATM   31  C17 UNL     1      -3.684   1.720   1.648  1.00  0.00     0.250 C 
BRANCH  31  32
HETATM   32  O9  UNL     1      -3.343   2.329   0.449  1.00  0.00    -0.381 OA
ATOM     33  H9  UNL     1      -3.470   3.270   0.471  1.00  0.00     0.211 HD
ENDBRANCH  31  32
BRANCH  31  34
HETATM   34  C18 UNL     1      -5.092   2.069   1.950  1.00  0.00     0.128 A 
HETATM   35  O10 UNL     1      -5.809   1.491   2.911  1.00  0.00    -0.284 OA
HETATM   36  C19 UNL     1      -7.025   2.015   2.934  1.00  0.00     0.220 A 
HETATM   37  C20 UNL     1      -7.132   2.979   1.954  1.00  0.00     0.160 A 
HETATM   38  C21 UNL     1      -5.903   3.003   1.339  1.00  0.00     0.137 A 
BRANCH  36  39
HETATM   39  O11 UNL     1      -8.082   1.688   3.791  1.00  0.00    -0.339 OA
ATOM     40  H11 UNL     1      -8.954   2.064   3.807  1.00  0.00     0.220 HD
ENDBRANCH  36  39
BRANCH  37  41
HETATM   41  O12 UNL     1      -8.240   3.760   1.650  1.00  0.00    -0.354 OA
ATOM     42  H12 UNL     1      -8.314   4.424   0.975  1.00  0.00     0.218 HD
ENDBRANCH  37  41
BRANCH  38  43
HETATM   43  O13 UNL     1      -5.510   3.814   0.284  1.00  0.00    -0.356 OA
ATOM     44  H13 UNL     1      -6.068   4.457  -0.137  1.00  0.00     0.218 HD
ENDBRANCH  38  43
ENDBRANCH  31  34
ENDBRANCH  29  31
ENDBRANCH   1  29
TORSDOF 16
