REMARK  6 active torsions:
REMARK  status: ('A' for Active; 'I' for Inactive)
REMARK    1  A    between atoms: C5_5  and  O1_6 
REMARK    2  A    between atoms: C5_5  and  C6_8 
REMARK    3  A    between atoms: C9_11  and  N1_12 
REMARK    4  A    between atoms: N1_12  and  C10_14 
REMARK    5  A    between atoms: N2_16  and  C12_17 
REMARK    6  A    between atoms: C15_20  and  N3_21 
ROOT
HETATM    1  N1  UNL     1       0.037   1.905  -0.099  1.00  0.00    -0.401 N 
ATOM      2  H1  UNL     1      -0.550   2.661   0.253  1.00  0.00     0.154 HD
ENDROOT
BRANCH   1   3
HETATM    3  C9  UNL     1      -0.576   0.745  -0.571  1.00  0.00     0.111 C 
HETATM    4  C8  UNL     1      -1.732   1.202  -1.499  1.00  0.00     0.028 C 
HETATM    5  C7  UNL     1      -2.954   1.600  -0.679  1.00  0.00     0.010 C 
HETATM    6  C6  UNL     1      -3.309   0.602   0.367  1.00  0.00     0.023 C 
HETATM    7  C23 UNL     1      -2.536  -0.645   0.112  1.00  0.00     0.046 C 
HETATM    8  C22 UNL     1      -1.054  -0.288   0.378  1.00  0.00     0.192 C 
HETATM    9  F2  UNL     1      -0.352  -1.488   0.263  1.00  0.00    -0.247 F 
BRANCH   6  10
HETATM   10  C5  UNL     1      -4.761   0.434   0.647  1.00  0.00     0.066 C 
HETATM   11  C4  UNL     1      -5.625   0.056  -0.511  1.00  0.00     0.075 C 
HETATM   12  C2  UNL     1      -6.949  -0.543  -0.099  1.00  0.00     0.056 C 
HETATM   13  C1  UNL     1      -8.021   0.223  -0.896  1.00  0.00     0.045 C 
HETATM   14  C3  UNL     1      -7.080  -1.978  -0.568  1.00  0.00     0.045 C 
HETATM   15  O3  UNL     1      -7.292  -0.369   1.212  1.00  0.00    -0.381 OA
HETATM   16  C25 UNL     1      -6.353  -0.576   2.167  1.00  0.00     0.171 C 
HETATM   17  C24 UNL     1      -4.953  -0.699   1.670  1.00  0.00     0.064 C 
BRANCH  10  18
HETATM   18  O1  UNL     1      -5.312   1.570   1.236  1.00  0.00    -0.389 OA
ATOM     19  H1  UNL     1      -4.762   1.810   1.973  1.00  0.00     0.210 HD
ENDBRANCH  10  18
ENDBRANCH   6  10
ENDBRANCH   1   3
BRANCH   1  20
HETATM   20  C10 UNL     1       1.431   2.072  -0.090  1.00  0.00     0.189 C 
HETATM   21  C11 UNL     1       2.144   1.168   0.882  1.00  0.00     0.166 C 
HETATM   22  N2  UNL     1       3.137   0.978  -0.166  1.00  0.00    -0.311 N 
HETATM   23  C21 UNL     1       2.236   1.450  -1.155  1.00  0.00     0.248 C 
HETATM   24  O2  UNL     1       2.186   1.357  -2.389  1.00  0.00    -0.271 OA
BRANCH  22  25
HETATM   25  C12 UNL     1       4.482   0.492  -0.093  1.00  0.00     0.076 A 
HETATM   26  C13 UNL     1       5.549   1.336   0.120  1.00  0.00     0.035 A 
HETATM   27  C14 UNL     1       6.866   0.869   0.186  1.00  0.00     0.032 A 
HETATM   28  C15 UNL     1       7.125  -0.470   0.035  1.00  0.00     0.033 A 
HETATM   29  C19 UNL     1       6.059  -1.322  -0.178  1.00  0.00     0.073 A 
HETATM   30  C20 UNL     1       4.761  -0.850  -0.241  1.00  0.00     0.145 A 
HETATM   31  F1  UNL     1       3.709  -1.715  -0.449  1.00  0.00    -0.204 F 
BRANCH  28  32
HETATM   32  N3  UNL     1       8.489  -0.944   0.094  1.00  0.00    -0.381 N 
HETATM   33  C16 UNL     1       9.147  -2.059  -0.591  1.00  0.00     0.124 C 
HETATM   34  C17 UNL     1      10.296  -1.968   0.335  1.00  0.00     0.040 C 
HETATM   35  C18 UNL     1       9.728  -0.643   0.748  1.00  0.00     0.124 C 
ENDBRANCH  28  32
ENDBRANCH  22  25
ENDBRANCH   1  20
TORSDOF 6
