REMARK  5 active torsions:
REMARK  status: ('A' for Active; 'I' for Inactive)
REMARK       I    between atoms: C1_2  and  N1_3 
REMARK       I    between atoms: C1_2  and  N5_29 
REMARK    1  A    between atoms: N1_3  and  C2_5 
REMARK    2  A    between atoms: C5_8  and  N2_9 
REMARK    3  A    between atoms: C11_16  and  N3_17 
REMARK    4  A    between atoms: N4_20  and  C14_21 
REMARK    5  A    between atoms: N5_29  and  C20_31 
ROOT
HETATM    1  C2  UNL     1       0.940   0.843   0.920  1.00  0.00     0.063 A 
HETATM    2  C3  UNL     1       1.345   1.970   1.586  1.00  0.00     0.034 A 
HETATM    3  C4  UNL     1       0.543   3.102   1.759  1.00  0.00     0.031 A 
HETATM    4  C5  UNL     1      -0.722   3.093   1.236  1.00  0.00     0.032 A 
HETATM    5  C10 UNL     1      -1.124   1.978   0.578  1.00  0.00     0.061 A 
HETATM    6  C11 UNL     1      -0.346   0.835   0.389  1.00  0.00     0.059 A 
ENDROOT
BRANCH   6   7
HETATM    7  N3  UNL     1      -0.857  -0.284  -0.306  1.00  0.00    -0.376 N 
HETATM    8  C12 UNL     1      -1.901  -1.079   0.319  1.00  0.00     0.153 C 
HETATM    9  C13 UNL     1      -2.403  -2.189  -0.535  1.00  0.00     0.292 C 
HETATM   10  N4  UNL     1      -2.478  -1.979  -1.935  1.00  0.00     0.096 N 
HETATM   11  C18 UNL     1      -1.632  -0.958  -2.483  1.00  0.00     0.292 C 
HETATM   12  C19 UNL     1      -0.418  -0.687  -1.607  1.00  0.00     0.153 C 
BRANCH  10  13
HETATM   13  C14 UNL     1      -3.811  -1.731  -2.452  1.00  0.00     0.234 C 
HETATM   14  C15 UNL     1      -4.818  -2.836  -2.243  1.00  0.00     0.115 C 
HETATM   15  C16 UNL     1      -4.257  -3.499  -3.499  1.00  0.00     0.247 C 
HETATM   16  F1  UNL     1      -5.280  -4.002  -4.276  1.00  0.00    -0.206 F 
HETATM   17  F2  UNL     1      -3.226  -4.375  -3.224  1.00  0.00    -0.206 F 
HETATM   18  C17 UNL     1      -3.804  -2.110  -3.937  1.00  0.00     0.115 C 
ENDBRANCH  10  13
ENDBRANCH   6   7
BRANCH   1  19
HETATM   19  N1  UNL     1       1.768  -0.302   0.780  1.00  0.00    -0.307 N 
HETATM   20  C1  UNL     1       3.117  -0.450   1.081  1.00  0.00     0.321 C 
HETATM   21  O1  UNL     1       3.826   0.465   1.529  1.00  0.00    -0.247 OA
HETATM   22  N5  UNL     1       3.781  -1.705   0.879  1.00  0.00    -0.338 N 
ATOM     23  H5  UNL     1       3.236  -2.489   0.520  1.00  0.00     0.164 HD
ATOM     24  H1  UNL     1       1.308  -1.132   0.406  1.00  0.00     0.170 HD
BRANCH  22  25
HETATM   25  C20 UNL     1       5.173  -1.913   1.157  1.00  0.00     0.086 C 
HETATM   26  C21 UNL     1       5.914  -2.542   0.002  1.00  0.00     0.025 C 
HETATM   27  C22 UNL     1       6.169  -3.984   0.439  1.00  0.00     0.002 C 
HETATM   28  C23 UNL     1       6.361  -3.860   1.944  1.00  0.00     0.002 C 
HETATM   29  C24 UNL     1       5.373  -2.814   2.338  1.00  0.00     0.025 C 
ENDBRANCH  22  25
ENDBRANCH   1  19
BRANCH   4  30
HETATM   30  N2  UNL     1      -1.581   4.199   1.370  1.00  0.00    -0.377 N 
HETATM   31  C6  UNL     1      -1.187   5.500   1.891  1.00  0.00     0.149 C 
HETATM   32  C7  UNL     1      -1.435   6.508   0.784  1.00  0.00     0.187 C 
HETATM   33  O2  UNL     1      -2.701   6.401   0.237  1.00  0.00    -0.388 OA
HETATM   34  C8  UNL     1      -3.522   5.549   0.973  1.00  0.00     0.187 C 
HETATM   35  C9  UNL     1      -3.003   4.122   0.994  1.00  0.00     0.149 C 
ENDBRANCH   4  30
TORSDOF 5
