REMARK  7 active torsions:
REMARK  status: ('A' for Active; 'I' for Inactive)
REMARK    1  A    between atoms: C2_2  and  O1_3 
REMARK    2  A    between atoms: O1_3  and  C3_4 
REMARK    3  A    between atoms: C5_7  and  O2_8 
REMARK    4  A    between atoms: C7_12  and  O3_13 
REMARK    5  A    between atoms: C8_15  and  C9_16 
REMARK    6  A    between atoms: C9_16  and  N1_17 
REMARK    7  A    between atoms: N2_20  and  C12_21 
ROOT
HETATM    1  C3  UNL     1       3.056  -0.262   0.411  1.00  0.00     0.103 A 
HETATM    2  C4  UNL     1       4.068  -1.240   0.616  1.00  0.00     0.079 A 
HETATM    3 BR1  UNL     1       5.909  -0.731   0.633  1.00  0.00    -0.045 Br
HETATM    4  C5  UNL     1       3.676  -2.496   0.836  1.00  0.00     0.106 A 
HETATM    5  C6  UNL     1       2.357  -2.871   0.884  1.00  0.00     0.079 A 
HETATM    6 BR2  UNL     1       1.861  -4.673   1.150  1.00  0.00    -0.045 Br
HETATM    7  C7  UNL     1       1.350  -1.904   0.704  1.00  0.00     0.100 A 
HETATM    8  C8  UNL     1       1.707  -0.630   0.454  1.00  0.00     0.049 A 
ENDROOT
BRANCH   8   9
HETATM    9  C9  UNL     1       0.699   0.425   0.207  1.00  0.00     0.107 C 
BRANCH   9  10
HETATM   10  N1  UNL     1      -0.237   0.391  -0.791  1.00  0.00    -0.366 N 
HETATM   11  C10 UNL     1      -1.037   1.612  -0.811  1.00  0.00     0.157 C 
HETATM   12  C11 UNL     1      -2.304   1.344  -0.008  1.00  0.00     0.293 C 
HETATM   13  N2  UNL     1      -3.105   0.431  -0.849  1.00  0.00     0.098 N 
HETATM   14  C15 UNL     1      -2.328  -0.827  -0.818  1.00  0.00     0.317 C 
HETATM   15  C16 UNL     1      -0.940  -0.619  -1.374  1.00  0.00     0.093 C 
BRANCH  13  16
HETATM   16  C12 UNL     1      -4.359   0.140  -0.154  1.00  0.00     0.215 C 
HETATM   17  C13 UNL     1      -5.049   1.361   0.326  1.00  0.00     0.042 C 
HETATM   18  C14 UNL     1      -4.399  -0.974   0.773  1.00  0.00     0.042 C 
ENDBRANCH  13  16
ENDBRANCH   9  10
ENDBRANCH   8   9
BRANCH   1  19
HETATM   19  O1  UNL     1       3.583   0.948   0.190  1.00  0.00    -0.349 OA
BRANCH  19  20
HETATM   20  C2  UNL     1       4.169   1.641  -0.839  1.00  0.00     0.171 C 
HETATM   21  C1  UNL     1       4.751   2.984  -0.327  1.00  0.00     0.034 C 
ENDBRANCH  19  20
ENDBRANCH   1  19
BRANCH   7  22
HETATM   22  O3  UNL     1       0.040  -2.384   0.848  1.00  0.00    -0.358 OA
ATOM     23  H3  UNL     1      -0.640  -1.731   0.727  1.00  0.00     0.217 HD
ENDBRANCH   7  22
BRANCH   4  24
HETATM   24  O2  UNL     1       4.701  -3.495   1.038  1.00  0.00    -0.358 OA
ATOM     25  H2  UNL     1       4.422  -4.389   1.195  1.00  0.00     0.217 HD
ENDBRANCH   4  24
TORSDOF 7
