REMARK  6 active torsions:
REMARK  status: ('A' for Active; 'I' for Inactive)
REMARK    1  A    between atoms: C2_2  and  O1_3 
REMARK    2  A    between atoms: O1_3  and  C3_4 
REMARK    3  A    between atoms: C3_4  and  C4_6 
REMARK    4  A    between atoms: C4_6  and  N1_9 
REMARK    5  A    between atoms: C8_11  and  N2_12 
REMARK       I    between atoms: N2_12  and  C9_14 
REMARK    6  A    between atoms: C9_14  and  C10_16 
ROOT
HETATM    1  N2  UNL     1      -0.062  -1.456  -2.046  1.00  0.00    -0.323 N 
ATOM      2  H2  UNL     1       0.307  -1.856  -2.909  1.00  0.00     0.169 HD
HETATM    3  C9  UNL     1       0.841  -1.277  -0.997  1.00  0.00     0.253 C 
HETATM    4  O3  UNL     1       0.471  -0.797   0.090  1.00  0.00    -0.271 OA
ENDROOT
BRANCH   1   5
HETATM    5  C8  UNL     1      -1.439  -1.137  -2.028  1.00  0.00     0.075 A 
HETATM    6  C7  UNL     1      -2.208  -0.600  -1.032  1.00  0.00     0.125 A 
HETATM    7  N1  UNL     1      -3.487  -0.434  -1.373  1.00  0.00    -0.325 N 
HETATM    8  C21 UNL     1      -3.568  -0.887  -2.665  1.00  0.00     0.131 A 
HETATM    9  C20 UNL     1      -2.343  -1.316  -3.079  1.00  0.00     0.101 A 
HETATM   10 CL2  UNL     1      -5.018  -0.925  -3.683  1.00  0.00    -0.062 Cl
HETATM   11 CL1  UNL     1      -1.893  -1.986  -4.635  1.00  0.00    -0.078 Cl
BRANCH   7  12
HETATM   12  C4  UNL     1      -4.652   0.064  -0.722  1.00  0.00     0.118 C 
HETATM   13  C5  UNL     1      -5.193   1.321  -1.427  1.00  0.00     0.049 C 
HETATM   14  C6  UNL     1      -5.726  -1.033  -0.790  1.00  0.00     0.049 C 
BRANCH  12  15
HETATM   15  C3  UNL     1      -4.523   0.418   0.690  1.00  0.00     0.287 C 
HETATM   16  O2  UNL     1      -3.469   0.462   1.357  1.00  0.00    -0.262 OA
BRANCH  15  17
HETATM   17  O1  UNL     1      -5.680   0.759   1.445  1.00  0.00    -0.320 OA
BRANCH  17  18
HETATM   18  C2  UNL     1      -5.594   1.101   2.793  1.00  0.00     0.174 C 
HETATM   19  C1  UNL     1      -6.989   1.403   3.284  1.00  0.00     0.034 C 
ENDBRANCH  17  18
ENDBRANCH  15  17
ENDBRANCH  12  15
ENDBRANCH   7  12
ENDBRANCH   1   5
BRANCH   3  20
HETATM   20  C10 UNL     1       2.281  -1.645  -1.110  1.00  0.00     0.278 C 
HETATM   21  C11 UNL     1       2.954  -0.992  -2.268  1.00  0.00     0.045 C 
HETATM   22  C12 UNL     1       4.053  -0.177  -1.671  1.00  0.00     0.042 C 
HETATM   23  C13 UNL     1       3.937  -0.319  -0.174  1.00  0.00     0.134 C 
HETATM   24  C14 UNL     1       3.476   1.021   0.420  1.00  0.00     0.075 C 
HETATM   25  C17 UNL     1       5.295  -0.513   0.423  1.00  0.00     0.052 C 
HETATM   26  N4  UNL     1       3.012  -1.374   0.085  1.00  0.00    -0.053 N 
HETATM   27  C15 UNL     1       4.635   1.477   1.262  1.00  0.00     0.225 C 
HETATM   28  C16 UNL     1       5.806   0.941   0.418  1.00  0.00     0.044 C 
HETATM   29  N3  UNL     1       4.715   0.601   2.408  1.00  0.00     0.089 N 
HETATM   30  C18 UNL     1       5.166  -0.692   1.929  1.00  0.00     0.279 C 
HETATM   31  C19 UNL     1       5.527   1.126   3.465  1.00  0.00     0.310 C 
ATOM     32  H42 UNL     1       2.403  -1.173   0.878  1.00  0.00     0.279 HD
ATOM     33  H41 UNL     1       3.465  -2.206   0.463  1.00  0.00     0.279 HD
ENDBRANCH   3  20
TORSDOF 6
