REMARK  8 active torsions:
REMARK  status: ('A' for Active; 'I' for Inactive)
REMARK    1  A    between atoms: C2_2  and  C3_3 
REMARK    2  A    between atoms: C3_3  and  N1_6 
REMARK    3  A    between atoms: N1_6  and  C5_8 
REMARK    4  A    between atoms: C6_9  and  O1_10 
REMARK    5  A    between atoms: O1_10  and  C7_11 
REMARK    6  A    between atoms: C7_11  and  C8_13 
REMARK    7  A    between atoms: C8_13  and  O3_14 
REMARK    8  A    between atoms: C23_32  and  O5_33 
ROOT
HETATM    1  C5  UNL     1      -1.828  -0.969  -0.940  1.00  0.00     0.115 C 
HETATM    2  C6  UNL     1      -1.852  -1.565   0.452  1.00  0.00     0.155 C 
HETATM    3  C9  UNL     1      -0.791  -0.776   1.236  1.00  0.00     0.040 C 
HETATM    4  C10 UNL     1      -0.069   0.014   0.211  1.00  0.00    -0.001 C 
HETATM    5  C11 UNL     1      -0.330  -0.783  -1.070  1.00  0.00     0.015 C 
HETATM    6  C12 UNL     1       0.122   0.046  -2.203  1.00  0.00     0.007 C 
HETATM    7  C13 UNL     1       1.648   0.132  -2.106  1.00  0.00     0.009 C 
HETATM    8  C14 UNL     1       2.167  -0.288  -0.769  1.00  0.00     0.033 C 
HETATM    9  C15 UNL     1       1.382   0.208   0.399  1.00  0.00    -0.003 C 
HETATM   10  C16 UNL     1       1.644   1.638   0.768  1.00  0.00     0.006 C 
HETATM   11  C17 UNL     1       2.860   2.231   0.152  1.00  0.00     0.014 C 
HETATM   12  C18 UNL     1       3.996   1.261   0.007  1.00  0.00     0.012 C 
HETATM   13  C19 UNL     1       5.108   1.978  -0.749  1.00  0.00     0.020 C 
HETATM   14  C20 UNL     1       4.436   0.852   1.392  1.00  0.00     0.101 C 
HETATM   15 CL1  UNL     1       5.680   1.894   2.065  1.00  0.00    -0.124 Cl
HETATM   16  C21 UNL     1       4.886  -0.582   1.307  1.00  0.00     0.102 C 
HETATM   17  C22 UNL     1       4.361  -1.087   0.018  1.00  0.00     0.163 C 
HETATM   18  O4  UNL     1       4.516  -2.238  -0.364  1.00  0.00    -0.295 OA
HETATM   19  C23 UNL     1       3.633   0.015  -0.711  1.00  0.00     0.130 C 
ENDROOT
BRANCH   1  20
HETATM   20  N1  UNL     1      -2.546   0.255  -1.078  1.00  0.00    -0.384 N 
ATOM     21  H1  UNL     1      -2.054   1.103  -1.360  1.00  0.00     0.160 HD
BRANCH  20  22
HETATM   22  C3  UNL     1      -3.941   0.299  -0.825  1.00  0.00     0.032 C 
HETATM   23  C4  UNL     1      -4.787  -0.504  -1.439  1.00  0.00     0.213 C 
HETATM   24  F1  UNL     1      -6.114  -0.440  -1.183  1.00  0.00    -0.217 F 
BRANCH  22  25
HETATM   25  C2  UNL     1      -4.450   1.279   0.155  1.00  0.00     0.054 C 
HETATM   26  C1  UNL     1      -4.125   2.705  -0.251  1.00  0.00     0.011 C 
ENDBRANCH  22  25
ENDBRANCH  20  22
ENDBRANCH   1  20
BRANCH   2  27
HETATM   27  O1  UNL     1      -3.087  -1.594   1.067  1.00  0.00    -0.312 OA
BRANCH  27  28
HETATM   28  C7  UNL     1      -3.633  -2.781   1.491  1.00  0.00     0.282 C 
HETATM   29  O2  UNL     1      -3.014  -3.848   1.324  1.00  0.00    -0.263 OA
BRANCH  28  30
HETATM   30  C8  UNL     1      -4.976  -2.854   2.166  1.00  0.00     0.275 C 
BRANCH  30  31
HETATM   31  O3  UNL     1      -5.309  -4.143   2.497  1.00  0.00    -0.391 OA
ATOM     32  H3  UNL     1      -6.157  -4.189   2.923  1.00  0.00     0.210 HD
ENDBRANCH  30  31
ENDBRANCH  28  30
ENDBRANCH  27  28
ENDBRANCH   2  27
BRANCH  19  33
HETATM   33  O5  UNL     1       4.129  -0.022  -2.024  1.00  0.00    -0.381 OA
ATOM     34  H5  UNL     1       5.059   0.170  -1.987  1.00  0.00     0.211 HD
ENDBRANCH  19  33
TORSDOF 8
