REMARK  6 active torsions:
REMARK  status: ('A' for Active; 'I' for Inactive)
REMARK    1  A    between atoms: C2_2  and  N1_3 
REMARK    2  A    between atoms: C2_2  and  C17_24 
REMARK    3  A    between atoms: N1_3  and  N2_5 
REMARK    4  A    between atoms: C10_14  and  C12_16 
REMARK    5  A    between atoms: C19_26  and  S1_27 
REMARK    6  A    between atoms: S1_27  and  C20_28 
ROOT
HETATM    1  C17 UNL     1       4.847  -0.680   0.120  1.00  0.00     0.035 A 
HETATM    2  C18 UNL     1       5.565   0.223  -0.625  1.00  0.00     0.049 A 
HETATM    3  C19 UNL     1       6.894  -0.131  -0.571  1.00  0.00     0.045 A 
HETATM    4  C21 UNL     1       6.982  -1.265   0.218  1.00  0.00     0.131 A 
HETATM    5  C22 UNL     1       8.191  -1.998   0.559  1.00  0.00     0.119 C 
HETATM    6  N4  UNL     1       9.142  -2.599   0.831  1.00  0.00    -0.190 NA
HETATM    7  N5  UNL     1       5.730  -1.560   0.613  1.00  0.00    -0.348 N 
ATOM      8  H5  UNL     1       5.485  -2.350   1.210  1.00  0.00     0.166 HD
ENDROOT
BRANCH   3   9
HETATM    9  S1  UNL     1       8.294   0.689  -1.359  1.00  0.00    -0.058 SA
BRANCH   9  10
HETATM   10  C20 UNL     1       8.976   1.955  -0.230  1.00  0.00     0.420 C 
HETATM   11  F1  UNL     1       8.003   2.945  -0.083  1.00  0.00    -0.202 F 
HETATM   12  F2  UNL     1      10.032   2.539  -0.898  1.00  0.00    -0.202 F 
ENDBRANCH   9  10
ENDBRANCH   3   9
BRANCH   1  13
HETATM   13  C2  UNL     1       3.382  -0.718   0.368  1.00  0.00     0.145 C 
HETATM   14  C1  UNL     1       3.030  -2.140   0.815  1.00  0.00     0.040 C 
BRANCH  13  15
HETATM   15  N1  UNL     1       2.646  -0.487  -0.858  1.00  0.00    -0.325 N 
ATOM     16  H1  UNL     1       3.188  -0.249  -1.688  1.00  0.00     0.181 HD
BRANCH  15  17
HETATM   17  N2  UNL     1       1.272  -0.561  -1.002  1.00  0.00    -0.292 N 
HETATM   18  C3  UNL     1       0.387  -0.102  -0.183  1.00  0.00     0.100 C 
HETATM   19  C4  UNL     1       0.579   0.611   1.105  1.00  0.00     0.080 C 
HETATM   20  N3  UNL     1      -1.022  -0.239  -0.464  1.00  0.00    -0.301 N 
HETATM   21  C5  UNL     1      -0.870   1.043   1.407  1.00  0.00     0.034 C 
HETATM   22  C6  UNL     1      -1.697  -0.081   0.805  1.00  0.00     0.099 C 
HETATM   23  C7  UNL     1      -3.138   0.249   0.637  1.00  0.00     0.013 C 
HETATM   24  C8  UNL     1      -3.995  -0.997   0.636  1.00  0.00     0.008 C 
HETATM   25  C14 UNL     1      -3.456   0.946  -0.668  1.00  0.00     0.001 C 
HETATM   26  C9  UNL     1      -5.423  -0.604   0.762  1.00  0.00     0.017 C 
HETATM   27  C10 UNL     1      -5.868   0.552  -0.037  1.00  0.00     0.010 C 
HETATM   28  C11 UNL     1      -6.804   0.043  -1.145  1.00  0.00     0.023 C 
HETATM   29  C13 UNL     1      -4.864   1.431  -0.640  1.00  0.00     0.021 C 
HETATM   30  C15 UNL     1      -3.125   0.092  -1.870  1.00  0.00     0.108 C 
HETATM   31  C16 UNL     1      -1.751  -0.474  -1.650  1.00  0.00     0.226 C 
HETATM   32  O2  UNL     1      -1.235  -1.179  -2.550  1.00  0.00    -0.273 OA
ATOM     33  H2  UNL     1       0.923  -1.025  -1.841  1.00  0.00     0.188 HD
BRANCH  27  34
HETATM   34  C12 UNL     1      -6.762   1.394   0.848  1.00  0.00     0.240 C 
HETATM   35  O1  UNL     1      -6.303   2.314   1.504  1.00  0.00    -0.306 OA
ENDBRANCH  27  34
ENDBRANCH  15  17
ENDBRANCH  13  15
ENDBRANCH   1  13
TORSDOF 6
