REMARK  1 active torsions:
REMARK  status: ('A' for Active; 'I' for Inactive)
REMARK    1  A    between atoms: N1_1  and  N2_4 
REMARK       I    between atoms: N2_4  and  C1_6 
REMARK       I    between atoms: C1_6  and  N3_8 
ROOT
HETATM    1  N2  UNL     1       1.767   0.302  -0.025  1.00  0.00    -0.257 N 
ATOM      2  H2  UNL     1       1.606   1.308   0.028  1.00  0.00     0.191 HD
HETATM    3  C1  UNL     1       0.690  -0.601  -0.093  1.00  0.00     0.349 C 
HETATM    4  O1  UNL     1       0.856  -1.822  -0.158  1.00  0.00    -0.244 OA
HETATM    5  N3  UNL     1      -0.645  -0.061  -0.086  1.00  0.00    -0.208 N 
HETATM    6  C2  UNL     1      -1.003   1.228  -0.020  1.00  0.00     0.214 A 
HETATM    7  N4  UNL     1      -2.356   1.288  -0.040  1.00  0.00    -0.291 N 
ATOM      8  H4  UNL     1      -2.907   2.145  -0.002  1.00  0.00     0.188 HD
HETATM    9  N5  UNL     1      -2.853   0.063  -0.116  1.00  0.00    -0.250 N 
ATOM     10  H5  UNL     1      -3.837  -0.202  -0.147  1.00  0.00     0.192 HD
HETATM   11  C3  UNL     1      -1.798  -0.752  -0.143  1.00  0.00     0.350 A 
HETATM   12  O2  UNL     1      -1.876  -2.006  -0.213  1.00  0.00    -0.244 OA
ENDROOT
BRANCH   1  13
HETATM   13  N1  UNL     1       3.065  -0.219  -0.032  1.00  0.00    -0.341 N 
ATOM     14  H12 UNL     1       3.210  -1.227  -0.085  1.00  0.00     0.177 HD
ATOM     15  H11 UNL     1       3.846   0.436   0.017  1.00  0.00     0.177 HD
ENDBRANCH   1  13
TORSDOF 1
