REMARK  2 active torsions:
REMARK  status: ('A' for Active; 'I' for Inactive)
REMARK    1  A    between atoms: C2_3  and  N2_4 
REMARK    2  A    between atoms: C3_9  and  N4_10 
ROOT
HETATM    1  C1  UNL     1       2.265   0.738   0.011  1.00  0.00     0.180 C 
HETATM    2  N1  UNL     1       0.840   0.430  -0.003  1.00  0.00    -0.136 N 
HETATM    3  C2  UNL     1       0.402  -0.842   0.027  1.00  0.00     0.696 A 
HETATM    4  N3  UNL     1      -0.911  -1.134   0.014  1.00  0.00    -0.022 N 
ATOM      5  H3  UNL     1      -1.205  -2.111   0.038  1.00  0.00     0.203 HD
HETATM    6  C3  UNL     1      -1.846  -0.167  -0.030  1.00  0.00     0.694 A 
HETATM    7  N5  UNL     1      -1.402   1.103  -0.059  1.00  0.00    -0.140 N 
ATOM      8  H5  UNL     1      -2.081   1.863  -0.091  1.00  0.00     0.189 HD
HETATM    9  C4  UNL     1      -0.089   1.401  -0.047  1.00  0.00     0.354 A 
HETATM   10  O1  UNL     1       0.334   2.592  -0.074  1.00  0.00    -0.245 OA
ENDROOT
BRANCH   3  11
HETATM   11  N2  UNL     1       1.300  -1.766   0.068  1.00  0.00    -0.234 N 
ATOM     12  H22 UNL     1       2.296  -1.545   0.078  1.00  0.00     0.174 HD
ATOM     13  H21 UNL     1       0.968  -2.730   0.091  1.00  0.00     0.174 HD
ENDBRANCH   3  11
BRANCH   6  14
HETATM   14  N4  UNL     1      -3.117  -0.449  -0.042  1.00  0.00    -0.234 N 
ATOM     15  H42 UNL     1      -3.454  -1.412  -0.020  1.00  0.00     0.174 HD
ATOM     16  H41 UNL     1      -3.826   0.284  -0.075  1.00  0.00     0.174 HD
ENDBRANCH   6  14
TORSDOF 2
