REMARK  2 active torsions:
REMARK  status: ('A' for Active; 'I' for Inactive)
REMARK    1  A    between atoms: N1_1  and  C1_4 
REMARK    2  A    between atoms: N3_9  and  N4_10 
ROOT
HETATM    1  C1  UNL     1       1.621  -0.006  -0.058  1.00  0.00     0.684 A 
HETATM    2  N2  UNL     1       0.877  -1.126  -0.034  1.00  0.00    -0.140 N 
ATOM      3  H2  UNL     1       1.346  -2.031  -0.054  1.00  0.00     0.189 HD
HETATM    4  C2  UNL     1      -0.466  -1.090   0.015  1.00  0.00     0.363 A 
HETATM    5  O1  UNL     1      -1.137  -2.154   0.036  1.00  0.00    -0.244 OA
HETATM    6  N3  UNL     1      -1.121   0.101   0.044  1.00  0.00    -0.159 N 
HETATM    7  C3  UNL     1      -0.386   1.229   0.021  1.00  0.00     0.363 A 
HETATM    8  O2  UNL     1      -1.014   2.322   0.048  1.00  0.00    -0.244 OA
HETATM    9  N5  UNL     1       0.957   1.165  -0.029  1.00  0.00    -0.140 N 
ATOM     10  H5  UNL     1       1.491   2.034  -0.046  1.00  0.00     0.189 HD
ENDROOT
BRANCH   1  11
HETATM   11  N1  UNL     1       2.925  -0.044  -0.106  1.00  0.00    -0.234 N 
ATOM     12  H12 UNL     1       3.428  -0.931  -0.128  1.00  0.00     0.174 HD
ATOM     13  H11 UNL     1       3.489   0.805  -0.124  1.00  0.00     0.174 HD
ENDBRANCH   1  11
BRANCH   6  14
HETATM   14  N4  UNL     1      -2.506   0.173   0.095  1.00  0.00    -0.330 N 
ATOM     15  H42 UNL     1      -3.063  -0.681   0.112  1.00  0.00     0.177 HD
ATOM     16  H41 UNL     1      -2.997   1.067   0.117  1.00  0.00     0.177 HD
ENDBRANCH   6  14
TORSDOF 2
