REMARK  2 active torsions:
REMARK  status: ('A' for Active; 'I' for Inactive)
REMARK    1  A    between atoms: O1_1  and  C1_3 
REMARK    2  A    between atoms: C7_10  and  O2_11 
ROOT
HETATM    1  C1  UNL     1       1.462  -0.460   0.177  1.00  0.00     0.154 C 
HETATM    2  C2  UNL     1       1.453   1.027   0.287  1.00  0.00     0.036 C 
HETATM    3  C3  UNL     1       0.424   1.726  -0.517  1.00  0.00     0.033 C 
HETATM    4  C4  UNL     1      -0.943   1.764   0.104  1.00  0.00     0.272 C 
HETATM    5  N1  UNL     1      -1.509   0.477   0.342  1.00  0.00     0.091 N 
HETATM    6  C5  UNL     1      -1.703  -0.269  -0.868  1.00  0.00     0.275 C 
HETATM    7  C6  UNL     1      -0.579  -1.258  -0.892  1.00  0.00     0.072 C 
HETATM    8  C7  UNL     1       0.155  -1.120   0.406  1.00  0.00     0.111 C 
HETATM    9  C8  UNL     1      -0.797  -0.333   1.270  1.00  0.00     0.312 C 
ENDROOT
BRANCH   1  10
HETATM   10  O1  UNL     1       1.995  -0.916  -1.042  1.00  0.00    -0.392 OA
ATOM     11  H1  UNL     1       2.001  -1.863  -1.112  1.00  0.00     0.210 HD
ENDBRANCH   1  10
BRANCH   8  12
HETATM   12  O2  UNL     1       0.393  -2.397   0.942  1.00  0.00    -0.385 OA
ATOM     13  H2  UNL     1      -0.445  -2.820   1.089  1.00  0.00     0.210 HD
ENDBRANCH   8  12
TORSDOF 2
