REMARK  2 active torsions:
REMARK  status: ('A' for Active; 'I' for Inactive)
REMARK    1  A    between atoms: O1_1  and  C1_3 
REMARK    2  A    between atoms: C6_9  and  O3_10 
ROOT
HETATM    1  C1  UNL     1      -1.230  -0.414   1.114  1.00  0.00     0.286 C 
HETATM    2  O2  UNL     1      -0.154  -1.207   1.365  1.00  0.00    -0.353 OA
HETATM    3  C2  UNL     1       0.677  -1.464   0.313  1.00  0.00     0.134 A 
HETATM    4  C3  UNL     1       1.758  -0.541  -0.092  1.00  0.00     0.022 A 
HETATM    5  C4  UNL     1       1.567   0.926  -0.232  1.00  0.00     0.015 C 
HETATM    6  C5  UNL     1       0.120   0.731  -0.664  1.00  0.00     0.027 C 
HETATM    7  C6  UNL     1      -0.814   0.918   0.494  1.00  0.00     0.177 C 
HETATM    8  C7  UNL     1       0.456  -0.696  -0.917  1.00  0.00     0.028 A 
ENDROOT
BRANCH   1   9
HETATM    9  O1  UNL     1      -2.263  -1.013   0.426  1.00  0.00    -0.369 OA
ATOM     10  H1  UNL     1      -3.015  -0.459   0.251  1.00  0.00     0.212 HD
ENDBRANCH   1   9
BRANCH   7  11
HETATM   11  O3  UNL     1      -1.936   1.659   0.169  1.00  0.00    -0.390 OA
ATOM     12  H3  UNL     1      -1.677   2.488  -0.217  1.00  0.00     0.210 HD
ENDBRANCH   7  11
TORSDOF 2
