REMARK  2 active torsions:
REMARK  status: ('A' for Active; 'I' for Inactive)
REMARK    1  A    between atoms: O1_1  and  C1_3 
REMARK    2  A    between atoms: C7_10  and  O3_11 
ROOT
HETATM    1  C1  UNL     1      -1.350   0.088   0.156  1.00  0.00     0.149 C 
HETATM    2  C2  UNL     1      -0.577   1.023  -0.690  1.00  0.00     0.034 C 
HETATM    3  C3  UNL     1       0.623   1.641  -0.033  1.00  0.00     0.005 C 
HETATM    4  C4  UNL     1       1.780   0.670   0.110  1.00  0.00     0.035 C 
HETATM    5  C5  UNL     1       1.280  -0.553   0.769  1.00  0.00     0.153 A 
HETATM    6  O2  UNL     1       1.580  -1.825   0.418  1.00  0.00    -0.373 OA
HETATM    7  C6  UNL     1       0.550  -1.355  -0.322  1.00  0.00     0.182 A 
HETATM    8  C7  UNL     1      -0.872  -1.362   0.064  1.00  0.00     0.178 C 
ENDROOT
BRANCH   1   9
HETATM    9  O1  UNL     1      -1.478   0.503   1.475  1.00  0.00    -0.393 OA
ATOM     10  H1  UNL     1      -1.975  -0.098   2.018  1.00  0.00     0.210 HD
ENDBRANCH   1   9
BRANCH   8  11
HETATM   11  O3  UNL     1      -1.586  -2.051  -0.943  1.00  0.00    -0.390 OA
ATOM     12  H3  UNL     1      -1.289  -2.952  -1.000  1.00  0.00     0.210 HD
ENDBRANCH   8  11
TORSDOF 2
