REMARK  2 active torsions:
REMARK  status: ('A' for Active; 'I' for Inactive)
REMARK    1  A    between atoms: O1_1  and  C1_3 
REMARK    2  A    between atoms: C7_10  and  O3_11 
ROOT
HETATM    1  C1  UNL     1      -0.994  -0.346  -0.852  1.00  0.00     0.153 C 
HETATM    2  C2  UNL     1       0.351   0.272  -1.156  1.00  0.00     0.021 C 
HETATM    3  C3  UNL     1       1.488  -0.591  -0.589  1.00  0.00     0.033 C 
HETATM    4  C4  UNL     1       1.517  -0.575   0.897  1.00  0.00     0.168 C 
HETATM    5  O2  UNL     1       0.431  -0.084   1.529  1.00  0.00    -0.383 OA
HETATM    6  C5  UNL     1      -0.258   0.927   0.972  1.00  0.00     0.153 C 
HETATM    7  C6  UNL     1       0.375   1.529  -0.270  1.00  0.00     0.042 C 
HETATM    8  C7  UNL     1      -1.543   0.349   0.359  1.00  0.00     0.176 C 
ENDROOT
BRANCH   1   9
HETATM    9  O1  UNL     1      -0.889  -1.718  -0.684  1.00  0.00    -0.393 OA
ATOM     10  H1  UNL     1      -1.735  -2.107  -0.493  1.00  0.00     0.210 HD
ENDBRANCH   1   9
BRANCH   8  11
HETATM   11  O3  UNL     1      -2.198  -0.482   1.237  1.00  0.00    -0.390 OA
ATOM     12  H3  UNL     1      -2.546  -0.042   2.004  1.00  0.00     0.210 HD
ENDBRANCH   8  11
TORSDOF 2
