REMARK  1 active torsions:
REMARK  status: ('A' for Active; 'I' for Inactive)
REMARK    1  A    between atoms: N2_4  and  N3_6 
ROOT
HETATM    1  N3  UNL     1       1.799  -0.747   0.210  1.00  0.00    -0.269 N 
ATOM      2  H3  UNL     1       1.881  -1.733   0.459  1.00  0.00     0.190 HD
HETATM    3  C1  UNL     1       0.612  -0.255   0.096  1.00  0.00     0.133 C 
HETATM    4  C2  UNL     1      -0.611  -1.077   0.314  1.00  0.00     0.087 C 
HETATM    5  C3  UNL     1      -1.758  -0.129  -0.034  1.00  0.00     0.035 C 
HETATM    6  C4  UNL     1      -1.108   1.138  -0.538  1.00  0.00     0.177 C 
HETATM    7  O1  UNL     1       0.266   1.044  -0.229  1.00  0.00    -0.338 OA
ENDROOT
BRANCH   1   8
HETATM    8  N2  UNL     1       2.966  -0.036   0.020  1.00  0.00    -0.248 N 
HETATM    9  N1  UNL     1       3.007   1.188   0.340  1.00  0.00    -0.331 N 
ATOM     10  H12 UNL     1       2.176   1.630   0.734  1.00  0.00     0.178 HD
ATOM     11  H11 UNL     1       3.870   1.714   0.200  1.00  0.00     0.178 HD
ATOM     12  H2  UNL     1       3.788  -0.493  -0.375  1.00  0.00     0.207 HD
ENDBRANCH   1   8
TORSDOF 1
