REMARK  2 active torsions:
REMARK  status: ('A' for Active; 'I' for Inactive)
REMARK    1  A    between atoms: O1_1  and  N1_3 
REMARK    2  A    between atoms: N1_3  and  C1_4 
ROOT
HETATM    1  C1  UNL     1       1.110   0.136   0.023  1.00  0.00     0.109 C 
HETATM    2  C2  UNL     1       0.765   1.746  -0.219  1.00  0.00     0.050 C 
HETATM    3  C3  UNL     1      -0.607   1.496   0.019  1.00  0.00    -0.029 C 
HETATM    4  C4  UNL     1      -1.468   0.983   0.200  1.00  0.00    -0.031 C 
HETATM    5  C5  UNL     1      -2.329  -0.092   0.432  1.00  0.00     0.027 C 
HETATM    6  C6  UNL     1      -1.064  -1.182   0.469  1.00  0.00     0.005 C 
HETATM    7  C7  UNL     1      -0.035  -0.667  -0.493  1.00  0.00     0.024 C 
ENDROOT
BRANCH   1   8
HETATM    8  N1  UNL     1       2.374  -0.096  -0.606  1.00  0.00    -0.099 NA
BRANCH   8   9
HETATM    9  O1  UNL     1       2.656  -1.403  -0.410  1.00  0.00    -0.296 OA
ATOM     10  H1  UNL     1       3.495  -1.557  -0.828  1.00  0.00     0.238 HD
ENDBRANCH   8   9
ENDBRANCH   1   8
TORSDOF 2
