REMARK  2 active torsions:
REMARK  status: ('A' for Active; 'I' for Inactive)
REMARK    1  A    between atoms: O1_1  and  C1_3 
REMARK    2  A    between atoms: C6_9  and  O2_10 
ROOT
HETATM    1  C1  UNL     1      -1.383   0.206  -0.554  1.00  0.00     0.174 C 
HETATM    2  C2  UNL     1      -0.107   1.011  -0.541  1.00  0.00     0.271 C 
HETATM    3  N1  UNL     1       0.843   0.094   0.042  1.00  0.00    -0.059 N 
HETATM    4  C3  UNL     1       2.231   0.430   0.126  1.00  0.00     0.265 A 
HETATM    5  C4  UNL     1       1.736  -0.663  -0.787  1.00  0.00     0.265 A 
HETATM    6  C5  UNL     1       0.171  -0.540   1.134  1.00  0.00     0.271 C 
HETATM    7  C6  UNL     1      -1.292  -0.483   0.811  1.00  0.00     0.174 C 
ENDROOT
BRANCH   1   8
HETATM    8  O1  UNL     1      -2.475   1.070  -0.611  1.00  0.00    -0.391 OA
ATOM      9  H1  UNL     1      -3.278   0.563  -0.619  1.00  0.00     0.210 HD
ENDBRANCH   1   8
BRANCH   7  10
HETATM   10  O2  UNL     1      -1.890  -1.724   0.720  1.00  0.00    -0.391 OA
ATOM     11  H2  UNL     1      -1.834  -2.151   1.567  1.00  0.00     0.210 HD
ENDBRANCH   7  10
TORSDOF 2
