REMARK  1 active torsions:
REMARK  status: ('A' for Active; 'I' for Inactive)
REMARK    1  A    between atoms: C3_3  and  O1_4 
ROOT
HETATM    1  C1  UNL     1       2.220  -0.764  -0.110  1.00  0.00     0.030 C 
HETATM    2  C2  UNL     1       0.815  -0.355  -0.392  1.00  0.00     0.102 C 
HETATM    3  C3  UNL     1       0.549   1.076   0.101  1.00  0.00     0.157 C 
HETATM    4  C4  UNL     1      -0.818   0.845   0.732  1.00  0.00     0.125 C 
HETATM    5  C5  UNL     1      -1.782   0.331  -0.280  1.00  0.00     0.041 C 
HETATM    6  C6  UNL     1      -1.390  -1.152  -0.365  1.00  0.00     0.112 C 
HETATM    7  N1  UNL     1      -0.113  -1.186   0.369  1.00  0.00    -0.228 NA
HETATM    8  N2  UNL     1      -0.495  -0.383   1.482  1.00  0.00    -0.157 NA
ENDROOT
BRANCH   3   9
HETATM    9  O1  UNL     1       0.531   1.986  -0.912  1.00  0.00    -0.392 OA
ATOM     10  H1  UNL     1       0.367   2.871  -0.607  1.00  0.00     0.210 HD
ENDBRANCH   3   9
TORSDOF 1
