REMARK  1 active torsions:
REMARK  status: ('A' for Active; 'I' for Inactive)
REMARK    1  A    between atoms: O1_1  and  C1_3 
ROOT
HETATM    1  C1  UNL     1      -1.139   0.808   0.560  1.00  0.00     0.154 C 
HETATM    2  C2  UNL     1      -1.912  -0.288  -0.198  1.00  0.00     0.064 C 
HETATM    3  C3  UNL     1      -0.835  -1.349  -0.505  1.00  0.00     0.278 C 
HETATM    4  N1  UNL     1       0.282  -0.491  -0.647  1.00  0.00     0.122 N 
HETATM    5  C4  UNL     1       1.577  -1.033  -0.516  1.00  0.00     0.503 C 
HETATM    6  N2  UNL     1       2.355   0.140  -0.078  1.00  0.00    -0.046 N 
ATOM      7  H21 UNL     1       2.908   0.564  -0.823  1.00  0.00     0.279 HD
ATOM      8  H22 UNL     1       3.135  -0.094   0.536  1.00  0.00     0.279 HD
HETATM    9  C5  UNL     1       1.383   1.061   0.530  1.00  0.00     0.272 C 
HETATM   10  C6  UNL     1       0.199   0.197   0.666  1.00  0.00     0.279 C 
ENDROOT
BRANCH   1  11
HETATM   11  O1  UNL     1      -1.076   1.975  -0.161  1.00  0.00    -0.393 OA
ATOM     12  H1  UNL     1      -0.599   2.651   0.306  1.00  0.00     0.210 HD
ENDBRANCH   1  11
TORSDOF 1
