REMARK  6 active torsions:
REMARK  status: ('A' for Active; 'I' for Inactive)
REMARK    1  A    between atoms: C4_4  and  C5_5 
REMARK    2  A    between atoms: C5_5  and  C7_7 
REMARK    3  A    between atoms: C7_7  and  C8_8 
REMARK    4  A    between atoms: C8_8  and  C9_9 
REMARK    5  A    between atoms: C10_10  and  C11_11 
REMARK    6  A    between atoms: C12_14  and  C13_15 
ROOT
HETATM    1  C9  UNL     1       0.479   0.062  -0.078  1.00  0.00     0.089 C 
HETATM    2  C10 UNL     1      -0.082  -0.657  -1.056  1.00  0.00     0.097 C 
HETATM    3  O1  UNL     1      -1.347  -1.170  -0.643  1.00  0.00    -0.338 OA
HETATM    4  C12 UNL     1      -1.869  -0.135   0.208  1.00  0.00     0.209 C 
HETATM    5  C22 UNL     1      -0.557   0.000   0.996  1.00  0.00     0.199 C 
HETATM    6  O2  UNL     1      -0.403   0.044   2.210  1.00  0.00    -0.289 OA
ENDROOT
BRANCH   4   7
HETATM    7  C13 UNL     1      -2.871  -0.716   1.105  1.00  0.00     0.039 C 
HETATM    8  C14 UNL     1      -4.041  -1.449   0.509  1.00  0.00    -0.036 C 
HETATM    9  C15 UNL     1      -3.915  -2.957   0.493  1.00  0.00     0.015 C 
HETATM   10  C16 UNL     1      -4.532  -0.838  -0.763  1.00  0.00     0.010 C 
HETATM   11  C21 UNL     1      -4.856  -0.924   1.687  1.00  0.00     0.019 C 
HETATM   12  C17 UNL     1      -5.077   0.555  -0.525  1.00  0.00     0.002 C 
HETATM   13  C18 UNL     1      -4.393   1.245   0.634  1.00  0.00     0.010 C 
HETATM   14  C19 UNL     1      -3.910   0.256   1.655  1.00  0.00    -0.036 C 
HETATM   15  C20 UNL     1      -3.506   0.833   2.977  1.00  0.00     0.015 C 
ENDBRANCH   4   7
BRANCH   2  16
HETATM   16  C11 UNL     1       0.479  -0.920  -2.396  1.00  0.00     0.288 C 
HETATM   17  F1  UNL     1       0.587  -2.323  -2.562  1.00  0.00    -0.248 F 
ENDBRANCH   2  16
BRANCH   1  18
HETATM   18  C8  UNL     1       1.747   0.753  -0.075  1.00  0.00    -0.110 C 
BRANCH  18  19
HETATM   19  C7  UNL     1       2.813   1.335  -0.072  1.00  0.00     0.063 C 
BRANCH  19  20
HETATM   20  C5  UNL     1       3.902   1.544  -1.059  1.00  0.00    -0.054 C 
HETATM   21  C6  UNL     1       3.794   1.015  -2.412  1.00  0.00     0.049 C 
BRANCH  20  22
HETATM   22  C4  UNL     1       5.228   1.372  -0.464  1.00  0.00     0.009 C 
HETATM   23  C2  UNL     1       6.204   0.540  -0.667  1.00  0.00    -0.087 C 
HETATM   24  C1  UNL     1       7.480   0.672   0.167  1.00  0.00     0.043 C 
HETATM   25  C3  UNL     1       6.200  -0.568  -1.618  1.00  0.00     0.043 C 
ENDBRANCH  20  22
ENDBRANCH  19  20
ENDBRANCH  18  19
ENDBRANCH   1  18
TORSDOF 6
