REMARK  6 active torsions:
REMARK  status: ('A' for Active; 'I' for Inactive)
REMARK    1  A    between atoms: C2_2  and  C3_3 
REMARK    2  A    between atoms: C13_14  and  N1_15 
REMARK    3  A    between atoms: N1_15  and  C14_16 
REMARK    4  A    between atoms: N1_15  and  C16_18 
REMARK    5  A    between atoms: C19_21  and  C20_22 
REMARK    6  A    between atoms: C20_22  and  C21_23 
ROOT
HETATM    1  C3  UNL     1      -2.361  -1.587   0.400  1.00  0.00     0.001 C 
HETATM    2  C4  UNL     1      -2.737  -2.445   1.590  1.00  0.00     0.025 C 
HETATM    3  C5  UNL     1      -1.101  -2.193  -0.222  1.00  0.00     0.019 C 
HETATM    4  C6  UNL     1       0.176  -1.800   0.489  1.00  0.00     0.017 C 
HETATM    5  C7  UNL     1       0.488  -0.285   0.292  1.00  0.00     0.015 C 
HETATM    6  C8  UNL     1       0.948   0.164   1.667  1.00  0.00     0.023 C 
HETATM    7  C9  UNL     1      -0.852   0.231  -0.077  1.00  0.00    -0.036 C 
HETATM    8  C10 UNL     1      -1.039   0.928  -1.129  1.00  0.00     0.058 C 
HETATM    9  C11 UNL     1       0.005   1.275  -2.045  1.00  0.00     0.151 C 
HETATM   10  O1  UNL     1      -0.215   1.848  -3.166  1.00  0.00    -0.293 OA
HETATM   11  C12 UNL     1       1.407   0.971  -1.703  1.00  0.00     0.119 C 
HETATM   12  C13 UNL     1       1.577  -0.047  -0.671  1.00  0.00     0.242 C 
HETATM   13  C18 UNL     1      -1.954  -0.190   0.833  1.00  0.00    -0.031 C 
HETATM   14  C19 UNL     1      -2.856   0.711   1.396  1.00  0.00     0.067 C 
ENDROOT
BRANCH  12  15
HETATM   15  N1  UNL     1       2.875   0.090   0.032  1.00  0.00     0.093 N 
BRANCH  15  16
HETATM   16  C14 UNL     1       3.880  -0.620  -0.766  1.00  0.00     0.268 C 
HETATM   17  C15 UNL     1       5.203  -0.801  -0.134  1.00  0.00     0.037 C 
ENDBRANCH  15  16
BRANCH  15  18
HETATM   18  C16 UNL     1       3.259   1.463   0.133  1.00  0.00     0.268 C 
HETATM   19  C17 UNL     1       4.375   1.737   1.097  1.00  0.00     0.037 C 
ENDBRANCH  15  18
ENDBRANCH  12  15
BRANCH   1  20
HETATM   20  C2  UNL     1      -3.443  -1.645  -0.562  1.00  0.00    -0.023 C 
HETATM   21  C1  UNL     1      -3.454  -2.367  -1.673  1.00  0.00     0.008 C 
ENDBRANCH   1  20
BRANCH  14  22
HETATM   22  C20 UNL     1      -3.717   1.377   0.710  1.00  0.00    -0.091 C 
BRANCH  22  23
HETATM   23  C21 UNL     1      -4.582   2.132   0.058  1.00  0.00     0.135 C 
HETATM   24  C22 UNL     1      -4.071   3.403  -0.401  1.00  0.00     0.092 C 
HETATM   25  F1  UNL     1      -5.764   1.577  -0.054  1.00  0.00    -0.202 F 
ENDBRANCH  22  23
ENDBRANCH  14  22
TORSDOF 6
