REMARK  3 active torsions:
REMARK  status: ('A' for Active; 'I' for Inactive)
REMARK    1  A    between atoms: O1_2  and  C2_3 
REMARK    2  A    between atoms: C2_3  and  C3_4 
REMARK    3  A    between atoms: C3_4  and  N1_5 
ROOT
HETATM    1  N1  UNL     1       3.690   0.110   0.302  1.00  0.00    -0.391 N 
HETATM    2  C4  UNL     1       3.105  -1.017   0.925  1.00  0.00     0.122 C 
HETATM    3  C5  UNL     1       1.701  -0.692   1.329  1.00  0.00     0.029 C 
HETATM    4  C6  UNL     1       0.819  -0.349   0.166  1.00  0.00    -0.035 C 
HETATM    5  C7  UNL     1       0.625  -1.579  -0.675  1.00  0.00     0.010 C 
HETATM    6  C8  UNL     1      -0.010  -2.721   0.045  1.00  0.00     0.001 C 
HETATM    7  C9  UNL     1      -1.314  -3.167  -0.632  1.00  0.00     0.000 C 
HETATM    8  C10 UNL     1      -2.520  -2.583   0.118  1.00  0.00     0.001 C 
HETATM    9  C11 UNL     1      -3.127  -1.445  -0.596  1.00  0.00     0.016 C 
HETATM   10  C12 UNL     1      -2.899  -0.089   0.031  1.00  0.00     0.008 C 
HETATM   11  C13 UNL     1      -3.861   0.815  -0.688  1.00  0.00    -0.012 C 
HETATM   12  C14 UNL     1      -4.576   1.754  -0.111  1.00  0.00    -0.087 C 
HETATM   13  C15 UNL     1      -5.517   2.611  -0.926  1.00  0.00     0.043 C 
HETATM   14  C16 UNL     1      -4.523   2.043   1.349  1.00  0.00     0.036 C 
HETATM   15  C17 UNL     1      -3.261   1.428   1.905  1.00  0.00     0.042 C 
HETATM   16  C18 UNL     1      -3.282  -0.040   1.473  1.00  0.00     0.182 C 
HETATM   17  F1  UNL     1      -4.613  -0.433   1.564  1.00  0.00    -0.248 F 
HETATM   18  C19 UNL     1      -1.525   0.453  -0.255  1.00  0.00     0.017 C 
HETATM   19  C20 UNL     1      -0.494   0.154   0.759  1.00  0.00     0.011 C 
HETATM   20  C21 UNL     1       1.500   0.702  -0.654  1.00  0.00     0.054 C 
HETATM   21  C22 UNL     1       2.820   1.154  -0.068  1.00  0.00     0.059 C 
ENDROOT
BRANCH   1  22
HETATM   22  C3  UNL     1       4.798  -0.150  -0.544  1.00  0.00     0.148 C 
BRANCH  22  23
HETATM   23  C2  UNL     1       5.418   1.016  -1.200  1.00  0.00     0.186 C 
BRANCH  23  24
HETATM   24  O1  UNL     1       5.881   1.926  -0.281  1.00  0.00    -0.394 OA
HETATM   25  C1  UNL     1       6.843   1.374   0.545  1.00  0.00     0.201 C 
ENDBRANCH  23  24
ENDBRANCH  22  23
ENDBRANCH   1  22
TORSDOF 3
