REMARK  5 active torsions:
REMARK  status: ('A' for Active; 'I' for Inactive)
REMARK    1  A    between atoms: C11_12  and  C12_13 
REMARK    2  A    between atoms: C12_13  and  C13_14 
REMARK    3  A    between atoms: C13_14  and  C14_15 
REMARK    4  A    between atoms: C18_19  and  O2_20 
REMARK    5  A    between atoms: O2_20  and  C19_21 
ROOT
HETATM    1  C1  UNL     1      -5.253   1.085   1.744  1.00  0.00     0.016 C 
HETATM    2  C2  UNL     1      -4.191   0.326   1.599  1.00  0.00    -0.062 C 
HETATM    3  C3  UNL     1      -2.777   0.772   1.760  1.00  0.00     0.077 C 
HETATM    4  C4  UNL     1      -2.082  -0.065   0.768  1.00  0.00    -0.009 C 
HETATM    5  C5  UNL     1      -2.830  -1.143   0.489  1.00  0.00     0.020 C 
HETATM    6  C6  UNL     1      -2.637  -2.290  -0.401  1.00  0.00     0.162 C 
HETATM    7  O1  UNL     1      -3.747  -2.594  -0.946  1.00  0.00    -0.292 OA
HETATM    8  C7  UNL     1      -1.538  -3.164  -0.825  1.00  0.00     0.117 C 
HETATM    9  C8  UNL     1      -0.391  -2.497  -1.451  1.00  0.00    -0.076 C 
HETATM   10  C9  UNL     1       0.272  -3.340  -2.530  1.00  0.00     0.044 C 
HETATM   11  C10 UNL     1       0.223  -1.338  -1.318  1.00  0.00     0.012 C 
HETATM   12  C11 UNL     1       0.103  -0.123  -0.501  1.00  0.00    -0.024 C 
HETATM   13  C18 UNL     1      -0.781   0.398   0.311  1.00  0.00     0.082 C 
HETATM   14  C21 UNL     1      -4.107  -1.098   1.258  1.00  0.00     0.148 C 
HETATM   15 CL1  UNL     1      -3.941  -2.161   2.647  1.00  0.00    -0.115 Cl
ENDROOT
BRANCH  12  16
HETATM   16  C12 UNL     1       1.355   0.647  -0.542  1.00  0.00     0.042 C 
BRANCH  16  17
HETATM   17  C13 UNL     1       2.438  -0.354  -0.057  1.00  0.00     0.014 C 
BRANCH  17  18
HETATM   18  C14 UNL     1       3.790   0.316  -0.045  1.00  0.00    -0.044 A 
HETATM   19  C15 UNL     1       3.884   1.517   0.852  1.00  0.00     0.015 C 
HETATM   20  C16 UNL     1       4.724   0.144  -1.178  1.00  0.00     0.010 A 
HETATM   21  C17 UNL     1       4.963  -0.650   0.051  1.00  0.00     0.010 A 
ENDBRANCH  17  18
ENDBRANCH  16  17
ENDBRANCH  12  16
BRANCH  13  22
HETATM   22  O2  UNL     1      -0.376   1.610   0.791  1.00  0.00    -0.350 OA
BRANCH  22  23
HETATM   23  C19 UNL     1      -0.832   2.744   0.016  1.00  0.00     0.171 C 
HETATM   24  C20 UNL     1      -0.390   4.050   0.590  1.00  0.00     0.034 C 
ENDBRANCH  22  23
ENDBRANCH  13  22
TORSDOF 5
