REMARK  4 active torsions:
REMARK  status: ('A' for Active; 'I' for Inactive)
REMARK    1  A    between atoms: N1_2  and  N2_4 
REMARK       I    between atoms: N2_4  and  C2_6 
REMARK    2  A    between atoms: C2_6  and  C3_8 
REMARK    3  A    between atoms: C3_8  and  S1_9 
REMARK    4  A    between atoms: S1_9  and  C4_10 
ROOT
HETATM    1  C4  UNL     1       0.294  -0.522  -0.434  1.00  0.00     0.069 C 
HETATM    2  N3  UNL     1       0.220  -1.020   0.753  1.00  0.00    -0.264 N 
ATOM      3  H3  UNL     1       0.956  -1.662   1.048  1.00  0.00     0.194 HD
HETATM    4  O2  UNL     1      -0.788  -0.741   1.649  1.00  0.00    -0.279 OA
HETATM    5  C5  UNL     1      -1.406   0.541   1.440  1.00  0.00     0.211 C 
HETATM    6  C6  UNL     1      -1.939   0.484   0.017  1.00  0.00    -0.011 C 
HETATM    7  C7  UNL     1      -2.813  -0.764  -0.048  1.00  0.00     0.012 C 
HETATM    8  C8  UNL     1      -4.132  -0.178   0.481  1.00  0.00     0.001 C 
HETATM    9  C9  UNL     1      -4.239   1.072  -0.362  1.00  0.00     0.001 C 
HETATM   10  C10 UNL     1      -2.818   1.632  -0.335  1.00  0.00     0.012 C 
HETATM   11  C11 UNL     1      -0.764   0.420  -0.897  1.00  0.00     0.078 C 
ENDROOT
BRANCH   1  12
HETATM   12  S1  UNL     1       1.600  -0.883  -1.595  1.00  0.00    -0.105 SA
BRANCH  12  13
HETATM   13  C3  UNL     1       2.825  -2.023  -0.948  1.00  0.00     0.185 C 
BRANCH  13  14
HETATM   14  C2  UNL     1       3.544  -1.370   0.152  1.00  0.00     0.245 C 
HETATM   15  N2  UNL     1       4.709  -0.617  -0.126  1.00  0.00    -0.271 N 
ATOM     16  H2  UNL     1       5.026  -0.544  -1.093  1.00  0.00     0.190 HD
HETATM   17  O1  UNL     1       3.139  -1.473   1.319  1.00  0.00    -0.271 OA
BRANCH  15  18
HETATM   18  N1  UNL     1       5.443   0.030   0.871  1.00  0.00    -0.319 N 
HETATM   19  C1  UNL     1       6.212   1.012   0.562  1.00  0.00     0.139 C 
ATOM     20  H1  UNL     1       5.369  -0.276   1.841  1.00  0.00     0.185 HD
ENDBRANCH  15  18
ENDBRANCH  13  14
ENDBRANCH  12  13
ENDBRANCH   1  12
TORSDOF 4
