REMARK  5 active torsions:
REMARK  status: ('A' for Active; 'I' for Inactive)
REMARK    1  A    between atoms: N1_2  and  C2_3 
REMARK       I    between atoms: N1_2  and  C11_16 
REMARK    2  A    between atoms: C2_3  and  C3_4 
REMARK    3  A    between atoms: C3_4  and  O1_5 
REMARK    4  A    between atoms: C5_8  and  S1_9 
REMARK    5  A    between atoms: S1_9  and  C6_10 
ROOT
HETATM    1  C3  UNL     1      -1.448   0.181  -1.183  1.00  0.00     0.179 C 
HETATM    2  C4  UNL     1      -0.108  -0.394  -1.399  1.00  0.00     0.087 C 
HETATM    3  C5  UNL     1       0.743   0.423  -0.477  1.00  0.00     0.077 C 
HETATM    4  C10 UNL     1      -0.041   1.704  -0.349  1.00  0.00     0.187 C 
HETATM    5  O2  UNL     1      -1.364   1.347  -0.403  1.00  0.00    -0.352 OA
ENDROOT
BRANCH   1   6
HETATM    6  C2  UNL     1      -2.307  -0.835  -0.417  1.00  0.00     0.196 C 
BRANCH   6   7
HETATM    7  N1  UNL     1      -3.557  -0.231  -0.027  1.00  0.00    -0.326 N 
HETATM    8  C1  UNL     1      -4.718  -0.224  -0.883  1.00  0.00     0.156 C 
HETATM    9  C11 UNL     1      -3.623   0.392   1.248  1.00  0.00     0.285 C 
HETATM   10  O3  UNL     1      -2.597   0.379   1.981  1.00  0.00    -0.630 OA
HETATM   11  O4  UNL     1      -4.757   1.010   1.718  1.00  0.00    -0.630 OA
ENDBRANCH   6   7
ENDBRANCH   1   6
BRANCH   1  12
HETATM   12  O1  UNL     1      -2.090   0.509  -2.363  1.00  0.00    -0.364 OA
ATOM     13  H1  UNL     1      -1.558   1.138  -2.837  1.00  0.00     0.213 HD
ENDBRANCH   1  12
BRANCH   3  14
HETATM   14  S1  UNL     1       2.438   0.634  -0.998  1.00  0.00    -0.153 SA
BRANCH  14  15
HETATM   15  C6  UNL     1       3.479   0.141   0.434  1.00  0.00    -0.003 C 
HETATM   16  C7  UNL     1       3.156   1.213   1.495  1.00  0.00     0.026 C 
HETATM   17  C8  UNL     1       2.991  -1.209   0.903  1.00  0.00     0.026 C 
HETATM   18  C9  UNL     1       4.935   0.161   0.117  1.00  0.00     0.026 C 
ENDBRANCH  14  15
ENDBRANCH   3  14
TORSDOF 5
