REMARK  5 active torsions:
REMARK  status: ('A' for Active; 'I' for Inactive)
REMARK    1  A    between atoms: C2_2  and  C3_3 
REMARK    2  A    between atoms: C3_3  and  C4_4 
REMARK    3  A    between atoms: C4_4  and  C5_5 
REMARK    4  A    between atoms: C5_5  and  C6_6 
REMARK    5  A    between atoms: C13_14  and  O2_15 
ROOT
HETATM    1  C6  UNL     1       2.174  -0.943   0.030  1.00  0.00     0.126 C 
HETATM    2  O1  UNL     1       1.164  -0.908  -0.949  1.00  0.00    -0.385 OA
HETATM    3  C7  UNL     1       0.082  -1.601  -0.375  1.00  0.00     0.178 C 
HETATM    4  C8  UNL     1      -0.559  -0.840   0.733  1.00  0.00    -0.010 C 
HETATM    5  C9  UNL     1      -0.691  -1.756   1.945  1.00  0.00     0.018 C 
HETATM    6  C10 UNL     1      -1.983  -0.383   0.361  1.00  0.00     0.007 C 
HETATM    7  C11 UNL     1      -2.956  -1.483   0.337  1.00  0.00     0.015 C 
HETATM    8  C12 UNL     1      -4.090  -1.311   1.360  1.00  0.00     0.013 C 
HETATM    9  C13 UNL     1      -3.558  -1.964  -0.906  1.00  0.00     0.122 C 
HETATM   10  C14 UNL     1      -4.506  -1.072  -1.637  1.00  0.00     0.033 C 
HETATM   11  C15 UNL     1      -3.716  -0.037  -2.354  1.00  0.00     0.011 C 
HETATM   12  C16 UNL     1      -3.094   1.002  -1.464  1.00  0.00    -0.044 C 
HETATM   13  C17 UNL     1      -2.635   2.088  -2.464  1.00  0.00     0.015 C 
HETATM   14  C18 UNL     1      -4.072   1.679  -0.552  1.00  0.00     0.015 C 
HETATM   15  C19 UNL     1      -1.849   0.527  -0.782  1.00  0.00    -0.001 C 
HETATM   16  C20 UNL     1      -1.169   1.801  -0.252  1.00  0.00     0.006 C 
HETATM   17  C21 UNL     1       0.181   1.543   0.341  1.00  0.00     0.011 C 
HETATM   18  C22 UNL     1       0.306   0.315   1.158  1.00  0.00    -0.029 C 
HETATM   19  C23 UNL     1       0.008   0.699   2.615  1.00  0.00     0.016 C 
HETATM   20  C24 UNL     1       1.775  -0.125   1.170  1.00  0.00     0.019 C 
HETATM   21  C25 UNL     1       2.614   1.036   1.562  1.00  0.00     0.013 C 
ENDROOT
BRANCH   1  22
HETATM   22  C5  UNL     1       3.478  -0.769  -0.631  1.00  0.00     0.032 C 
BRANCH  22  23
HETATM   23  C4  UNL     1       3.676   0.494  -1.424  1.00  0.00     0.002 C 
BRANCH  23  24
HETATM   24  C3  UNL     1       5.047   0.529  -2.051  1.00  0.00    -0.000 C 
BRANCH  24  25
HETATM   25  C2  UNL     1       6.184   0.484  -1.088  1.00  0.00    -0.005 C 
HETATM   26  C1  UNL     1       7.530   0.539  -1.798  1.00  0.00     0.005 C 
ENDBRANCH  24  25
ENDBRANCH  23  24
ENDBRANCH  22  23
ENDBRANCH   1  22
BRANCH   9  27
HETATM   27  O2  UNL     1      -4.317  -3.118  -0.564  1.00  0.00    -0.395 OA
ATOM     28  H2  UNL     1      -4.708  -3.430  -1.371  1.00  0.00     0.210 HD
ENDBRANCH   9  27
TORSDOF 5
