REMARK  5 active torsions:
REMARK  status: ('A' for Active; 'I' for Inactive)
REMARK    1  A    between atoms: C2_2  and  C3_3 
REMARK    2  A    between atoms: C3_3  and  C4_4 
REMARK    3  A    between atoms: C4_4  and  O1_5 
REMARK    4  A    between atoms: O1_5  and  C5_6 
REMARK    5  A    between atoms: C14_15  and  O2_16 
ROOT
HETATM    1  C5  UNL     1       3.065   0.070   0.349  1.00  0.00     0.122 C 
HETATM    2  C6  UNL     1       2.482  -1.058   1.185  1.00  0.00     0.032 C 
HETATM    3  C7  UNL     1       1.154  -1.424   0.505  1.00  0.00     0.008 C 
HETATM    4  C8  UNL     1       0.223  -0.259   0.796  1.00  0.00    -0.001 C 
HETATM    5  C9  UNL     1      -1.165  -0.590   0.354  1.00  0.00    -0.001 C 
HETATM    6  C10 UNL     1      -1.217  -1.330  -0.964  1.00  0.00     0.006 C 
HETATM    7  C11 UNL     1      -2.580  -1.954  -1.121  1.00  0.00     0.006 C 
HETATM    8  C12 UNL     1      -3.619  -1.241  -0.274  1.00  0.00    -0.003 C 
HETATM    9  C13 UNL     1      -4.966  -1.634  -0.779  1.00  0.00     0.037 C 
HETATM   10  C14 UNL     1      -6.108  -0.917  -0.140  1.00  0.00     0.118 C 
HETATM   11  C15 UNL     1      -5.851   0.568  -0.242  1.00  0.00     0.032 C 
HETATM   12  C16 UNL     1      -4.568   0.852   0.523  1.00  0.00     0.012 C 
HETATM   13  C17 UNL     1      -3.403   0.253  -0.273  1.00  0.00    -0.033 C 
HETATM   14  C18 UNL     1      -3.478   0.832  -1.651  1.00  0.00     0.016 C 
HETATM   15  C19 UNL     1      -2.101   0.566   0.438  1.00  0.00    -0.032 C 
HETATM   16  C20 UNL     1      -2.473   0.711   1.924  1.00  0.00     0.016 C 
HETATM   17  C21 UNL     1      -1.537   1.878   0.008  1.00  0.00     0.011 C 
HETATM   18  C22 UNL     1      -0.163   1.813  -0.573  1.00  0.00     0.010 C 
HETATM   19  C23 UNL     1       0.776   1.015   0.283  1.00  0.00    -0.038 C 
HETATM   20  C24 UNL     1       1.226   1.942   1.422  1.00  0.00     0.015 C 
HETATM   21  C25 UNL     1       2.044   0.739  -0.520  1.00  0.00     0.041 C 
ENDROOT
BRANCH   1  22
HETATM   22  O1  UNL     1       4.105  -0.449  -0.378  1.00  0.00    -0.386 OA
BRANCH  22  23
HETATM   23  C4  UNL     1       5.315   0.121   0.011  1.00  0.00     0.168 C 
BRANCH  23  24
HETATM   24  C3  UNL     1       6.457  -0.458  -0.797  1.00  0.00     0.026 C 
BRANCH  24  25
HETATM   25  C2  UNL     1       7.781   0.128  -0.410  1.00  0.00    -0.002 C 
HETATM   26  C1  UNL     1       8.878  -0.487  -1.248  1.00  0.00     0.005 C 
ENDBRANCH  24  25
ENDBRANCH  23  24
ENDBRANCH  22  23
ENDBRANCH   1  22
BRANCH  10  27
HETATM   27  O2  UNL     1      -7.265  -1.225  -0.853  1.00  0.00    -0.396 OA
ATOM     28  H2  UNL     1      -7.992  -0.769  -0.446  1.00  0.00     0.210 HD
ENDBRANCH  10  27
TORSDOF 5
