REMARK  5 active torsions:
REMARK  status: ('A' for Active; 'I' for Inactive)
REMARK    1  A    between atoms: C2_2  and  C3_3 
REMARK    2  A    between atoms: C2_2  and  C19_23 
REMARK    3  A    between atoms: C3_3  and  C4_8 
REMARK    4  A    between atoms: N1_4  and  O1_6 
REMARK    5  A    between atoms: C14_18  and  C16_20 
ROOT
HETATM    1  C4  UNL     1      -0.311  -0.317   0.619  1.00  0.00     0.009 A 
HETATM    2  C5  UNL     1       0.578  -1.417   1.050  1.00  0.00     0.017 A 
HETATM    3  C6  UNL     1      -0.571  -1.920   1.905  1.00  0.00     0.012 A 
HETATM    4  C7  UNL     1      -1.467  -0.780   1.369  1.00  0.00    -0.027 A 
HETATM    5  C8  UNL     1      -2.006  -0.044   2.551  1.00  0.00     0.016 C 
HETATM    6  C9  UNL     1      -2.587  -1.429   0.603  1.00  0.00     0.005 C 
HETATM    7  C10 UNL     1      -2.045  -2.389  -0.456  1.00  0.00     0.016 C 
HETATM    8  C11 UNL     1      -1.834  -1.118  -1.255  1.00  0.00    -0.035 C 
HETATM    9  C12 UNL     1      -1.858  -1.409  -2.715  1.00  0.00     0.016 C 
HETATM   10  C13 UNL     1      -0.675  -0.301  -0.859  1.00  0.00     0.026 C 
HETATM   11  C14 UNL     1      -3.097  -0.675  -0.592  1.00  0.00    -0.029 C 
HETATM   12  C15 UNL     1      -4.336  -1.431  -1.114  1.00  0.00     0.016 C 
ENDROOT
BRANCH   1  13
HETATM   13  C3  UNL     1       0.321   1.016   0.920  1.00  0.00     0.023 C 
HETATM   14  N1  UNL     1      -0.075   1.720   1.897  1.00  0.00    -0.276 N 
ATOM     15  H1  UNL     1      -0.840   1.282   2.410  1.00  0.00     0.193 HD
BRANCH  13  16
HETATM   16  C2  UNL     1       1.417   1.486   0.068  1.00  0.00     0.034 C 
HETATM   17  C1  UNL     1       1.770   2.965   0.315  1.00  0.00     0.016 C 
BRANCH  16  18
HETATM   18  C19 UNL     1       2.652   0.673  -0.058  1.00  0.00    -0.005 C 
HETATM   19  C20 UNL     1       3.390   1.265  -1.296  1.00  0.00     0.005 C 
HETATM   20  C21 UNL     1       3.896   0.126  -2.164  1.00  0.00     0.000 C 
HETATM   21  C22 UNL     1       5.051  -0.610  -1.571  1.00  0.00     0.000 C 
HETATM   22  C23 UNL     1       4.818  -1.040  -0.144  1.00  0.00     0.000 C 
HETATM   23  C24 UNL     1       4.931   0.161   0.731  1.00  0.00     0.000 C 
HETATM   24  C25 UNL     1       3.613   0.797   1.103  1.00  0.00     0.005 C 
ENDBRANCH  16  18
ENDBRANCH  13  16
BRANCH  14  25
HETATM   25  O1  UNL     1       0.271   2.887   2.406  1.00  0.00    -0.290 OA
ATOM     26  H1  UNL     1      -0.026   3.415   3.138  1.00  0.00     0.244 HD
ENDBRANCH  14  25
ENDBRANCH   1  13
BRANCH  11  27
HETATM   27  C16 UNL     1      -3.443   0.745  -0.491  1.00  0.00    -0.013 C 
HETATM   28  C17 UNL     1      -3.905   1.194  -1.888  1.00  0.00     0.010 C 
HETATM   29  C18 UNL     1      -4.727   0.826   0.356  1.00  0.00     0.010 C 
ENDBRANCH  11  27
TORSDOF 5
