REMARK  6 active torsions:
REMARK  status: ('A' for Active; 'I' for Inactive)
REMARK    1  A    between atoms: C2_2  and  C4_4 
REMARK    2  A    between atoms: C4_4  and  C5_5 
REMARK    3  A    between atoms: C5_5  and  C6_6 
REMARK    4  A    between atoms: C6_6  and  C7_7 
REMARK    5  A    between atoms: C7_7  and  C9_9 
REMARK    6  A    between atoms: C17_17  and  O1_18 
ROOT
HETATM    1  C9  UNL     1      -1.109  -1.792  -1.573  1.00  0.00    -0.002 C 
HETATM    2  C10 UNL     1      -0.899  -2.992  -0.647  1.00  0.00     0.006 C 
HETATM    3  C11 UNL     1       0.126  -2.431   0.323  1.00  0.00     0.006 C 
HETATM    4  C12 UNL     1       1.073  -1.792  -0.704  1.00  0.00    -0.002 C 
HETATM    5  C13 UNL     1       2.174  -1.046  -0.101  1.00  0.00    -0.005 C 
HETATM    6  C14 UNL     1       1.940  -0.964   1.414  1.00  0.00     0.006 C 
HETATM    7  C15 UNL     1       3.169  -0.400   2.053  1.00  0.00     0.008 C 
HETATM    8  C16 UNL     1       3.648   0.880   1.493  1.00  0.00     0.023 C 
HETATM    9  C17 UNL     1       5.168   0.909   1.711  1.00  0.00     0.123 C 
HETATM   10  C18 UNL     1       5.644   0.156   0.491  1.00  0.00     0.033 C 
HETATM   11  C19 UNL     1       4.816   0.833  -0.607  1.00  0.00     0.012 C 
HETATM   12  C20 UNL     1       3.460   1.100   0.053  1.00  0.00    -0.034 C 
HETATM   13  C21 UNL     1       3.181   2.595  -0.158  1.00  0.00     0.016 C 
HETATM   14  C22 UNL     1       2.404   0.341  -0.635  1.00  0.00    -0.001 C 
HETATM   15  C23 UNL     1       1.069   1.018  -0.687  1.00  0.00     0.006 C 
HETATM   16  C24 UNL     1       0.214   0.355  -1.747  1.00  0.00     0.010 C 
HETATM   17  C25 UNL     1       0.211  -1.131  -1.727  1.00  0.00    -0.036 C 
HETATM   18  C26 UNL     1       0.842  -1.522  -3.096  1.00  0.00     0.016 C 
ENDROOT
BRANCH   1  19
HETATM   19  C7  UNL     1      -2.323  -1.035  -1.282  1.00  0.00    -0.014 C 
HETATM   20  C8  UNL     1      -3.518  -1.989  -1.494  1.00  0.00     0.010 C 
BRANCH  19  21
HETATM   21  C6  UNL     1      -2.516  -0.433   0.058  1.00  0.00     0.005 C 
BRANCH  21  22
HETATM   22  C5  UNL     1      -3.838   0.351   0.151  1.00  0.00     0.001 C 
BRANCH  22  23
HETATM   23  C4  UNL     1      -3.936   0.928   1.570  1.00  0.00     0.004 C 
BRANCH  23  24
HETATM   24  C2  UNL     1      -5.197   1.710   1.753  1.00  0.00    -0.023 C 
HETATM   25  C1  UNL     1      -6.420   0.857   1.529  1.00  0.00     0.009 C 
HETATM   26  C3  UNL     1      -5.267   2.919   0.839  1.00  0.00     0.009 C 
ENDBRANCH  23  24
ENDBRANCH  22  23
ENDBRANCH  21  22
ENDBRANCH  19  21
ENDBRANCH   1  19
BRANCH   9  27
HETATM   27  O1  UNL     1       5.659   2.182   1.808  1.00  0.00    -0.395 OA
ATOM     28  H1  UNL     1       6.599   2.200   1.943  1.00  0.00     0.210 HD
ENDBRANCH   9  27
TORSDOF 6
