REMARK  5 active torsions:
REMARK  status: ('A' for Active; 'I' for Inactive)
REMARK    1  A    between atoms: N3_4  and  C2_6 
REMARK    2  A    between atoms: C2_6  and  C3_7 
REMARK    3  A    between atoms: C3_7  and  O1_8 
REMARK    4  A    between atoms: O1_8  and  C4_9 
REMARK    5  A    between atoms: N4_12  and  N5_13 
ROOT
HETATM    1  C4  UNL     1      -0.930  -0.223  -0.466  1.00  0.00     0.137 C 
HETATM    2  C5  UNL     1      -1.834  -0.986   0.515  1.00  0.00     0.049 C 
HETATM    3  C6  UNL     1      -3.064  -0.079   0.430  1.00  0.00     0.115 C 
HETATM    4  N4  UNL     1      -3.174   0.303  -0.962  1.00  0.00    -0.235 NA
HETATM    5  C7  UNL     1      -1.936  -0.024  -1.604  1.00  0.00     0.144 C 
ENDROOT
BRANCH   1   6
HETATM    6  O1  UNL     1      -0.701   1.004   0.084  1.00  0.00    -0.383 OA
BRANCH   6   7
HETATM    7  C3  UNL     1       0.603   1.397   0.213  1.00  0.00     0.187 C 
BRANCH   7   8
HETATM    8  C2  UNL     1       1.377   0.453   1.095  1.00  0.00     0.148 C 
BRANCH   8   9
HETATM    9  N3  UNL     1       2.743   0.952   1.171  1.00  0.00    -0.365 N 
HETATM   10  C1  UNL     1       3.738   0.275   0.699  1.00  0.00     0.197 C 
HETATM   11  N1  UNL     1       5.060   0.788   0.788  1.00  0.00    -0.067 NA
HETATM   12  N2  UNL     1       3.535  -0.979   0.091  1.00  0.00    -0.067 NA
ATOM     13  H3  UNL     1       2.919   1.857   1.607  1.00  0.00     0.161 HD
ENDBRANCH   8   9
ENDBRANCH   7   8
ENDBRANCH   6   7
ENDBRANCH   1   6
BRANCH   4  14
HETATM   14  N5  UNL     1      -4.191  -0.477  -1.528  1.00  0.00    -0.363 NA
ATOM     15  H52 UNL     1      -5.073  -0.244  -1.071  1.00  0.00     0.171 HD
ATOM     16  H51 UNL     1      -4.269  -0.208  -2.509  1.00  0.00     0.171 HD
ENDBRANCH   4  14
TORSDOF 5
