REMARK  4 active torsions:
REMARK  status: ('A' for Active; 'I' for Inactive)
REMARK    1  A    between atoms: C1_2  and  N2_4 
REMARK    2  A    between atoms: N2_4  and  N3_6 
REMARK    3  A    between atoms: C2_8  and  C3_9 
REMARK    4  A    between atoms: C3_9  and  N4_10 
ROOT
HETATM    1  N3  UNL     1       1.483   0.202   0.247  1.00  0.00    -0.312 N 
ATOM      2  H3  UNL     1       1.347   1.196   0.432  1.00  0.00     0.185 HD
HETATM    3  C2  UNL     1       0.446  -0.561   0.302  1.00  0.00     0.099 C 
ENDROOT
BRANCH   1   4
HETATM    4  N2  UNL     1       2.765  -0.224  -0.043  1.00  0.00    -0.279 N 
ATOM      5  H2  UNL     1       3.027  -1.188   0.165  1.00  0.00     0.189 HD
BRANCH   4   6
HETATM    6  C1  UNL     1       3.727   0.644  -0.623  1.00  0.00     0.199 C 
HETATM    7  N1  UNL     1       5.034   0.183  -0.910  1.00  0.00    -0.068 NA
HETATM    8  S1  UNL     1       3.377   2.205  -0.985  1.00  0.00    -0.043 SA
ENDBRANCH   4   6
ENDBRANCH   1   4
BRANCH   3   9
HETATM    9  C3  UNL     1      -0.841   0.058   0.624  1.00  0.00     0.168 C 
BRANCH   9  10
HETATM   10  N4  UNL     1      -1.955  -0.848   0.538  1.00  0.00    -0.362 N 
HETATM   11  C4  UNL     1      -3.117  -0.348   0.281  1.00  0.00     0.197 C 
HETATM   12  N5  UNL     1      -3.330   1.046   0.082  1.00  0.00    -0.067 NA
HETATM   13  N6  UNL     1      -4.283  -1.182   0.178  1.00  0.00    -0.067 NA
ATOM     14  H4  UNL     1      -1.831  -1.851   0.675  1.00  0.00     0.162 HD
ENDBRANCH   9  10
ENDBRANCH   3   9
TORSDOF 4
