REMARK  6 active torsions:
REMARK  status: ('A' for Active; 'I' for Inactive)
REMARK    1  A    between atoms: N1_2  and  C2_5 
REMARK    2  A    between atoms: C2_5  and  C3_6 
REMARK    3  A    between atoms: C4_7  and  C5_8 
REMARK    4  A    between atoms: C5_8  and  N2_9 
REMARK    5  A    between atoms: C7_14  and  C8_15 
REMARK    6  A    between atoms: N4_17  and  N5_19 
ROOT
HETATM    1  C3  UNL     1       0.306   0.247  -0.442  1.00  0.00     0.028 C 
HETATM    2  C4  UNL     1       0.467   1.291   0.642  1.00  0.00     0.018 C 
HETATM    3  C6  UNL     1      -1.054   1.379   0.643  1.00  0.00     0.019 C 
HETATM    4  C7  UNL     1      -1.013  -0.104   0.240  1.00  0.00     0.058 C 
ENDROOT
BRANCH   4   5
HETATM    5  C8  UNL     1      -2.096  -0.510  -0.657  1.00  0.00     0.111 C 
HETATM    6  N3  UNL     1      -2.624   0.314  -1.690  1.00  0.00    -0.086 NA
HETATM    7  N4  UNL     1      -2.630  -1.678  -0.534  1.00  0.00    -0.297 N 
ATOM      8  H4  UNL     1      -3.384  -1.960  -1.160  1.00  0.00     0.187 HD
BRANCH   7   9
HETATM    9  N5  UNL     1      -2.179  -2.556   0.452  1.00  0.00    -0.344 N 
ATOM     10  H52 UNL     1      -1.424  -2.258   1.069  1.00  0.00     0.176 HD
ATOM     11  H51 UNL     1      -2.601  -3.479   0.549  1.00  0.00     0.176 HD
ENDBRANCH   7   9
ENDBRANCH   4   5
BRANCH   1  12
HETATM   12  C2  UNL     1       1.350  -0.813  -0.425  1.00  0.00     0.237 C 
BRANCH  12  13
HETATM   13  N1  UNL     1       1.357  -1.536   0.811  1.00  0.00    -0.079 N 
HETATM   14  C1  UNL     1       2.421  -2.548   0.692  1.00  0.00     0.267 C 
ATOM     15  H12 UNL     1       0.448  -1.930   1.055  1.00  0.00     0.276 HD
ATOM     16  H11 UNL     1       1.458  -0.937   1.630  1.00  0.00     0.276 HD
ENDBRANCH  12  13
ENDBRANCH   1  12
BRANCH   2  17
HETATM   17  C5  UNL     1       1.161   2.557   0.216  1.00  0.00     0.234 C 
BRANCH  17  18
HETATM   18  N2  UNL     1       0.462   3.238  -0.849  1.00  0.00    -0.079 N 
ATOM     19  H23 UNL     1       0.309   2.617  -1.644  1.00  0.00     0.274 HD
ATOM     20  H22 UNL     1      -0.509   3.419  -0.594  1.00  0.00     0.274 HD
ATOM     21  H21 UNL     1       0.932   4.096  -1.138  1.00  0.00     0.274 HD
ENDBRANCH  17  18
ENDBRANCH   2  17
TORSDOF 6
