REMARK  3 active torsions:
REMARK  status: ('A' for Active; 'I' for Inactive)
REMARK    1  A    between atoms: N1_2  and  C2_5 
REMARK    2  A    between atoms: C2_5  and  C3_6 
REMARK    3  A    between atoms: C5_8  and  N2_9 
REMARK       I    between atoms: N3_14  and  C8_15 
ROOT
HETATM    1  C3  UNL     1       0.510  -0.275  -0.927  1.00  0.00     0.114 C 
HETATM    2  C4  UNL     1      -0.545  -1.381  -0.968  1.00  0.00     0.061 C 
HETATM    3  C5  UNL     1      -1.890  -0.689  -0.953  1.00  0.00     0.205 C 
HETATM    4  C7  UNL     1      -1.531   0.728  -1.352  1.00  0.00     0.159 C 
HETATM    5  N3  UNL     1      -0.270   0.876  -0.602  1.00  0.00    -0.347 N 
HETATM    6  C8  UNL     1      -0.033   1.981   0.234  1.00  0.00     0.184 C 
HETATM    7  N4  UNL     1      -0.125   1.853   1.494  1.00  0.00    -0.374 N 
ATOM      8  H41 UNL     1       0.047   2.655   2.101  1.00  0.00     0.158 HD
ATOM      9  H42 UNL     1      -0.371   0.952   1.903  1.00  0.00     0.158 HD
HETATM   10  N5  UNL     1       0.306   3.221  -0.329  1.00  0.00    -0.064 NA
ENDROOT
BRANCH   1  11
HETATM   11  C2  UNL     1       1.535  -0.681   0.071  1.00  0.00     0.257 C 
BRANCH  11  12
HETATM   12  N1  UNL     1       2.618   0.285   0.221  1.00  0.00    -0.077 N 
HETATM   13  C1  UNL     1       3.552  -0.265   1.216  1.00  0.00     0.267 C 
ATOM     14  H12 UNL     1       2.289   1.222   0.455  1.00  0.00     0.276 HD
ATOM     15  H11 UNL     1       3.068   0.522  -0.663  1.00  0.00     0.276 HD
ENDBRANCH  11  12
ENDBRANCH   1  11
BRANCH   3  16
HETATM   16  N2  UNL     1      -2.415  -0.614   0.401  1.00  0.00    -0.073 N 
HETATM   17  C6  UNL     1      -2.664  -1.888   0.998  1.00  0.00     0.267 C 
ATOM     18  H22 UNL     1      -1.801  -0.055   0.993  1.00  0.00     0.277 HD
ATOM     19  H21 UNL     1      -3.254  -0.035   0.428  1.00  0.00     0.277 HD
ENDBRANCH   3  16
TORSDOF 3
