REMARK  4 active torsions:
REMARK  status: ('A' for Active; 'I' for Inactive)
REMARK    1  A    between atoms: N1_2  and  C2_5 
REMARK    2  A    between atoms: N2_8  and  C5_9 
REMARK    3  A    between atoms: C5_9  and  C6_10 
REMARK    4  A    between atoms: N4_12  and  N5_14 
ROOT
HETATM    1  C2  UNL     1      -1.846   0.022  -0.501  1.00  0.00     0.215 C 
HETATM    2  C3  UNL     1      -2.051  -1.478  -0.356  1.00  0.00     0.065 C 
HETATM    3  C4  UNL     1      -0.663  -1.983  -0.639  1.00  0.00     0.275 C 
HETATM    4  N2  UNL     1       0.254  -0.849  -0.467  1.00  0.00     0.097 N 
HETATM    5  C7  UNL     1      -0.517   0.122   0.287  1.00  0.00     0.305 C 
ENDROOT
BRANCH   4   6
HETATM    6  C5  UNL     1       1.449  -1.289   0.228  1.00  0.00     0.346 C 
BRANCH   6   7
HETATM    7  C6  UNL     1       2.465  -0.221   0.272  1.00  0.00     0.135 C 
HETATM    8  N3  UNL     1       3.755  -0.492   0.834  1.00  0.00    -0.084 NA
HETATM    9  N4  UNL     1       2.278   0.967  -0.175  1.00  0.00    -0.296 N 
ATOM     10  H4  UNL     1       1.374   1.196  -0.588  1.00  0.00     0.187 HD
BRANCH   9  11
HETATM   11  N5  UNL     1       3.250   1.952  -0.121  1.00  0.00    -0.344 N 
ATOM     12  H52 UNL     1       4.148   1.706   0.295  1.00  0.00     0.176 HD
ATOM     13  H51 UNL     1       3.101   2.896  -0.476  1.00  0.00     0.176 HD
ENDBRANCH   9  11
ENDBRANCH   6   7
ENDBRANCH   4   6
BRANCH   1  14
HETATM   14  N1  UNL     1      -2.859   0.792   0.146  1.00  0.00    -0.073 N 
HETATM   15  C1  UNL     1      -2.859   2.152  -0.315  1.00  0.00     0.267 C 
ATOM     16  H12 UNL     1      -2.775   0.742   1.161  1.00  0.00     0.277 HD
ATOM     17  H11 UNL     1      -3.778   0.362   0.042  1.00  0.00     0.277 HD
ENDBRANCH   1  14
TORSDOF 4
