REMARK  4 active torsions:
REMARK  status: ('A' for Active; 'I' for Inactive)
REMARK    1  A    between atoms: N1_1  and  C1_5 
REMARK    2  A    between atoms: C3_7  and  N2_8 
REMARK    3  A    between atoms: N2_8  and  S1_10 
REMARK    4  A    between atoms: S1_10  and  N3_11 
ROOT
HETATM    1  C1  UNL     1      -2.011  -0.138   0.753  1.00  0.00     0.187 C 
HETATM    2  C2  UNL     1      -0.852   0.852   0.665  1.00  0.00     0.058 C 
HETATM    3  C3  UNL     1       0.043  -0.327   0.326  1.00  0.00     0.098 C 
HETATM    4  C4  UNL     1      -1.205  -1.066  -0.129  1.00  0.00     0.058 C 
ENDROOT
BRANCH   3   5
HETATM    5  N2  UNL     1       0.974  -0.015  -0.719  1.00  0.00    -0.298 N 
ATOM      6  H2  UNL     1       0.698   0.422  -1.598  1.00  0.00     0.174 HD
BRANCH   5   7
HETATM    7  S1  UNL     1       2.591  -0.444  -0.356  1.00  0.00     0.313 S 
HETATM    8  O1  UNL     1       3.377  -0.833  -1.579  1.00  0.00    -0.183 OA
HETATM    9  O2  UNL     1       2.662  -1.640   0.581  1.00  0.00    -0.183 OA
BRANCH   7  10
HETATM   10  N3  UNL     1       3.427   0.870   0.433  1.00  0.00    -0.312 N 
ATOM     11  H32 UNL     1       2.995   1.770   0.643  1.00  0.00     0.170 HD
ATOM     12  H31 UNL     1       4.390   0.614   0.649  1.00  0.00     0.170 HD
ENDBRANCH   7  10
ENDBRANCH   5   7
ENDBRANCH   3   5
BRANCH   1  13
HETATM   13  N1  UNL     1      -3.243   0.342   0.198  1.00  0.00    -0.075 N 
ATOM     14  H13 UNL     1      -3.502   1.232   0.624  1.00  0.00     0.274 HD
ATOM     15  H12 UNL     1      -3.105   0.644  -0.767  1.00  0.00     0.274 HD
ATOM     16  H11 UNL     1      -4.017  -0.319   0.257  1.00  0.00     0.274 HD
ENDBRANCH   1  13
TORSDOF 4
