REMARK  5 active torsions:
REMARK  status: ('A' for Active; 'I' for Inactive)
REMARK    1  A    between atoms: C5_6  and  C6_7 
REMARK    2  A    between atoms: C5_6  and  N2_10 
REMARK    3  A    between atoms: C6_7  and  O1_8 
REMARK    4  A    between atoms: N2_10  and  N3_12 
REMARK    5  A    between atoms: N3_12  and  N4_13 
ROOT
HETATM    1  C1  UNL     1      -2.640   0.631  -0.268  1.00  0.00     0.272 C 
HETATM    2  N1  UNL     1      -1.568  -0.299  -0.026  1.00  0.00    -0.072 N 
HETATM    3  C2  UNL     1      -1.992  -1.678  -0.155  1.00  0.00     0.272 C 
HETATM    4  C3  UNL     1      -1.090  -0.089   1.323  1.00  0.00     0.239 C 
HETATM    5  C4  UNL     1      -0.067   1.012   1.127  1.00  0.00     0.064 C 
HETATM    6  C5  UNL     1       0.689   0.416  -0.072  1.00  0.00     0.091 C 
HETATM    7  C7  UNL     1      -0.468  -0.042  -0.919  1.00  0.00     0.270 C 
ENDROOT
BRANCH   6   8
HETATM    8  C6  UNL     1       1.506   1.492  -0.730  1.00  0.00     0.198 C 
BRANCH   8   9
HETATM    9  O1  UNL     1       0.600   2.482  -1.179  1.00  0.00    -0.398 OA
ATOM     10  H1  UNL     1       1.116   3.162  -1.595  1.00  0.00     0.209 HD
ENDBRANCH   8   9
ENDBRANCH   6   8
BRANCH   6  11
HETATM   11  N2  UNL     1       1.458  -0.670   0.440  1.00  0.00    -0.306 N 
ATOM     12  H2  UNL     1       1.444  -0.926   1.427  1.00  0.00     0.178 HD
BRANCH  11  13
HETATM   13  N3  UNL     1       2.217  -1.349  -0.477  1.00  0.00    -0.034 NA
BRANCH  13  14
HETATM   14  N4  UNL     1       3.221  -2.051   0.242  1.00  0.00    -0.329 N 
ATOM     15  H42 UNL     1       3.342  -2.041   1.255  1.00  0.00     0.174 HD
ATOM     16  H41 UNL     1       3.786  -2.556  -0.441  1.00  0.00     0.174 HD
ENDBRANCH  13  14
ENDBRANCH  11  13
ENDBRANCH   6  11
TORSDOF 5
