REMARK  3 active torsions:
REMARK  status: ('A' for Active; 'I' for Inactive)
REMARK       I    between atoms: C1_4  and  N3_6 
REMARK    1  A    between atoms: N3_6  and  C2_8 
REMARK    2  A    between atoms: C4_10  and  C5_11 
REMARK    3  A    between atoms: C7_14  and  N4_15 
ROOT
HETATM    1  C2  UNL     1      -0.025  -0.507   0.100  1.00  0.00     0.115 C 
HETATM    2  C3  UNL     1       1.299  -0.973   0.667  1.00  0.00     0.038 C 
HETATM    3  C4  UNL     1       2.268   0.029   0.062  1.00  0.00     0.051 C 
HETATM    4  C6  UNL     1       1.463   1.296  -0.075  1.00  0.00     0.046 C 
HETATM    5  C7  UNL     1       0.062   0.986   0.384  1.00  0.00     0.207 C 
ENDROOT
BRANCH   1   6
HETATM    6  N3  UNL     1      -1.144  -1.122   0.773  1.00  0.00    -0.358 N 
HETATM    7  C1  UNL     1      -2.484  -0.831   0.406  1.00  0.00     0.182 C 
HETATM    8  N1  UNL     1      -3.442  -0.774   1.298  1.00  0.00    -0.374 N 
HETATM    9  N2  UNL     1      -2.895  -0.581  -0.931  1.00  0.00    -0.064 NA
ATOM     10  H12 UNL     1      -4.405  -0.565   1.034  1.00  0.00     0.158 HD
ATOM     11  H11 UNL     1      -3.147  -0.953   2.258  1.00  0.00     0.158 HD
ATOM     12  H3  UNL     1      -0.968  -1.782   1.531  1.00  0.00     0.162 HD
ENDBRANCH   1   6
BRANCH   5  13
HETATM   13  N4  UNL     1      -0.856   1.755  -0.405  1.00  0.00    -0.073 N 
ATOM     14  H43 UNL     1      -0.732   1.564  -1.399  1.00  0.00     0.274 HD
ATOM     15  H42 UNL     1      -1.811   1.416  -0.289  1.00  0.00     0.274 HD
ATOM     16  H41 UNL     1      -0.798   2.755  -0.215  1.00  0.00     0.274 HD
ENDBRANCH   5  13
BRANCH   3  17
HETATM   17  C5  UNL     1       2.715  -0.494  -1.268  1.00  0.00     0.235 C 
HETATM   18  O1  UNL     1       3.679  -0.029  -1.858  1.00  0.00    -0.306 OA
ENDBRANCH   3  17
TORSDOF 3
