REMARK  6 active torsions:
REMARK  status: ('A' for Active; 'I' for Inactive)
REMARK    1  A    between atoms: O1_2  and  C2_3 
REMARK    2  A    between atoms: N1_5  and  O2_6 
REMARK    3  A    between atoms: C7_11  and  N2_12 
REMARK    4  A    between atoms: N2_12  and  C8_14 
REMARK    5  A    between atoms: C12_20  and  N4_21 
REMARK    6  A    between atoms: N4_21  and  C13_23 
ROOT
HETATM    1  C8  UNL     1      -0.262  -0.433   0.244  1.00  0.00     0.684 A 
HETATM    2  N3  UNL     1      -0.927  -1.522  -0.182  1.00  0.00    -0.201 N 
ATOM      3  H3  UNL     1      -1.940  -1.476  -0.290  1.00  0.00     0.183 HD
HETATM    4  C9  UNL     1      -0.281  -2.681  -0.472  1.00  0.00     0.116 A 
HETATM    5  C10 UNL     1       1.093  -2.717  -0.317  1.00  0.00    -0.001 A 
HETATM    6  C11 UNL     1       1.855  -3.956  -0.618  1.00  0.00     0.054 C 
HETATM    7  C12 UNL     1       1.785  -1.606   0.120  1.00  0.00     0.129 A 
HETATM    8  N7  UNL     1       1.075  -0.497   0.386  1.00  0.00    -0.176 N 
ATOM      9  H7  UNL     1       1.571   0.333   0.710  1.00  0.00     0.186 HD
ENDROOT
BRANCH   1  10
HETATM   10  N2  UNL     1      -0.856   0.657   0.519  1.00  0.00    -0.189 N 
ATOM     11  H2  UNL     1      -0.269   1.429   0.836  1.00  0.00     0.184 HD
BRANCH  10  12
HETATM   12  C7  UNL     1      -2.223   0.909   0.433  1.00  0.00     0.086 A 
HETATM   13  C2  UNL     1      -2.811   1.152  -0.787  1.00  0.00     0.113 A 
HETATM   14  C3  UNL     1      -4.176   1.401  -0.852  1.00  0.00     0.162 A 
HETATM   15  N1  UNL     1      -4.923   1.404   0.284  1.00  0.00    -0.238 N 
HETATM   16  C4  UNL     1      -4.363   1.169   1.482  1.00  0.00     0.038 A 
HETATM   17  C5  UNL     1      -5.212   1.178   2.726  1.00  0.00     0.071 C 
HETATM   18  C6  UNL     1      -3.018   0.922   1.560  1.00  0.00     0.060 A 
BRANCH  13  19
HETATM   19  O1  UNL     1      -1.986   1.132  -1.902  1.00  0.00    -0.352 OA
HETATM   20  C1  UNL     1      -2.562   1.379  -3.169  1.00  0.00     0.210 C 
ENDBRANCH  13  19
BRANCH  15  21
HETATM   21  O2  UNL     1      -6.275   1.647   0.251  1.00  0.00    -0.283 OA
ATOM     22  H2  UNL     1      -6.797   1.649   1.045  1.00  0.00     0.245 HD
ENDBRANCH  15  21
ENDBRANCH  10  12
ENDBRANCH   1  10
BRANCH   7  23
HETATM   23  N4  UNL     1       3.059  -1.672   0.253  1.00  0.00    -0.339 N 
ATOM     24  H4  UNL     1       3.511  -2.558   0.026  1.00  0.00     0.167 HD
BRANCH  23  25
HETATM   25  C13 UNL     1       3.879  -0.620   0.686  1.00  0.00     0.068 A 
HETATM   26  C14 UNL     1       4.022  -0.050   1.934  1.00  0.00     0.138 A 
HETATM   27  N5  UNL     1       4.941   0.923   1.799  1.00  0.00    -0.308 N 
HETATM   28  N6  UNL     1       5.386   1.011   0.575  1.00  0.00    -0.306 N 
ATOM     29  H5  UNL     1       5.253   1.522   2.563  1.00  0.00     0.186 HD
HETATM   30  C15 UNL     1       6.377   1.924   0.014  1.00  0.00     0.177 C 
HETATM   31  C16 UNL     1       4.746   0.068  -0.137  1.00  0.00     0.140 A 
ENDBRANCH  23  25
ENDBRANCH   7  23
TORSDOF 6
