REMARK  6 active torsions:
REMARK  status: ('A' for Active; 'I' for Inactive)
REMARK    1  A    between atoms: C3_4  and  C4_5 
REMARK    2  A    between atoms: C4_5  and  C5_6 
REMARK    3  A    between atoms: C13_15  and  O3_16 
REMARK    4  A    between atoms: C15_18  and  C16_19 
REMARK    5  A    between atoms: C17_21  and  O5_22 
REMARK    6  A    between atoms: C18_24  and  O6_25 
ROOT
HETATM    1  C1  UNL     1      -1.206  -3.781  -0.661  1.00  0.00     0.052 C 
HETATM    2  C2  UNL     1      -0.665  -2.653  -0.542  1.00  0.00     0.081 A 
HETATM    3  O1  UNL     1       0.634  -2.430  -0.568  1.00  0.00    -0.307 OA
HETATM    4  C3  UNL     1       1.226  -1.256  -0.417  1.00  0.00     0.127 A 
HETATM    5  C11 UNL     1       0.434  -0.180  -0.212  1.00  0.00     0.219 A 
HETATM    6  O2  UNL     1       0.917   0.968  -0.052  1.00  0.00    -0.284 OA
HETATM    7  C12 UNL     1      -0.968  -0.306  -0.169  1.00  0.00     0.067 A 
HETATM    8  C13 UNL     1      -1.820   0.755   0.036  1.00  0.00     0.099 A 
HETATM    9  C15 UNL     1      -3.209   0.551   0.067  1.00  0.00     0.072 A 
HETATM   10  C17 UNL     1      -3.789  -0.675  -0.104  1.00  0.00     0.116 A 
HETATM   11  C18 UNL     1      -2.894  -1.739  -0.311  1.00  0.00     0.114 A 
HETATM   12  C19 UNL     1      -1.509  -1.556  -0.338  1.00  0.00     0.050 A 
ENDROOT
BRANCH   4  13
HETATM   13  C4  UNL     1       2.563  -1.230  -0.483  1.00  0.00     0.053 C 
BRANCH  13  14
HETATM   14  C5  UNL     1       3.320  -0.008  -0.342  1.00  0.00    -0.034 A 
HETATM   15  C6  UNL     1       3.877   0.260   0.905  1.00  0.00     0.011 A 
HETATM   16  C7  UNL     1       4.616   1.412   1.035  1.00  0.00     0.001 A 
HETATM   17  C8  UNL     1       4.804   2.275  -0.042  1.00  0.00     0.000 A 
HETATM   18  C9  UNL     1       4.216   1.941  -1.275  1.00  0.00     0.001 A 
HETATM   19  C10 UNL     1       3.470   0.807  -1.440  1.00  0.00     0.011 A 
ENDBRANCH  13  14
ENDBRANCH   4  13
BRANCH   8  20
HETATM   20  O3  UNL     1      -1.295   2.017   0.221  1.00  0.00    -0.354 OA
HETATM   21  C14 UNL     1      -1.029   2.413   1.578  1.00  0.00     0.210 C 
ENDBRANCH   8  20
BRANCH  11  22
HETATM   22  O6  UNL     1      -3.393  -2.963  -0.487  1.00  0.00    -0.357 OA
ATOM     23  H6  UNL     1      -2.788  -3.682  -0.627  1.00  0.00     0.217 HD
ENDBRANCH  11  22
BRANCH   9  24
HETATM   24  C16 UNL     1      -4.041   1.764   0.299  1.00  0.00     0.275 C 
HETATM   25  O4  UNL     1      -5.287   1.701   0.348  1.00  0.00    -0.301 OA
ENDBRANCH   9  24
BRANCH  10  26
HETATM   26  O5  UNL     1      -5.136  -0.956  -0.083  1.00  0.00    -0.357 OA
ATOM     27  H5  UNL     1      -5.539  -1.808  -0.202  1.00  0.00     0.217 HD
ENDBRANCH  10  26
TORSDOF 6
