REMARK  4 active torsions:
REMARK  status: ('A' for Active; 'I' for Inactive)
REMARK    1  A    between atoms: O1_2  and  C2_3 
REMARK    2  A    between atoms: C10_15  and  C11_16 
REMARK    3  A    between atoms: C11_16  and  N3_17 
REMARK    4  A    between atoms: N3_17  and  C12_19 
ROOT
HETATM    1  C2  UNL     1      -3.628   0.503   0.041  1.00  0.00     0.090 A 
HETATM    2  C3  UNL     1      -4.936   0.324   0.432  1.00  0.00    -0.028 A 
HETATM    3  C4  UNL     1      -5.878   1.441   0.238  1.00  0.00     0.051 C 
HETATM    4  C5  UNL     1      -5.317  -0.893   0.991  1.00  0.00     0.012 A 
HETATM    5  C6  UNL     1      -4.423  -1.925   1.164  1.00  0.00     0.032 A 
HETATM    6  C7  UNL     1      -3.118  -1.733   0.769  1.00  0.00     0.065 A 
HETATM    7  N1  UNL     1      -2.045  -2.521   0.804  1.00  0.00    -0.289 N 
ATOM      8  H1  UNL     1      -2.048  -3.474   1.168  1.00  0.00     0.188 HD
HETATM    9  N2  UNL     1      -0.969  -1.917   0.308  1.00  0.00    -0.202 N 
HETATM   10  C8  UNL     1       0.304  -2.310   0.144  1.00  0.00     0.270 A 
HETATM   11  O2  UNL     1       0.685  -3.459   0.488  1.00  0.00    -0.266 OA
HETATM   12  C9  UNL     1       1.206  -1.440  -0.412  1.00  0.00     0.103 A 
HETATM   13  C10 UNL     1       0.791  -0.188  -0.787  1.00  0.00     0.034 A 
HETATM   14  N6  UNL     1      -0.489   0.163  -0.605  1.00  0.00    -0.342 N 
ATOM     15  H6  UNL     1      -0.792   1.096  -0.886  1.00  0.00     0.167 HD
HETATM   16  C16 UNL     1      -1.383  -0.676  -0.064  1.00  0.00     0.146 A 
HETATM   17  C17 UNL     1      -2.724  -0.523   0.209  1.00  0.00     0.072 A 
ENDROOT
BRANCH  13  18
HETATM   18  C11 UNL     1       1.747   0.803  -1.402  1.00  0.00     0.178 C 
BRANCH  18  19
HETATM   19  N3  UNL     1       3.034   0.184  -1.484  1.00  0.00    -0.370 N 
ATOM     20  H3  UNL     1       3.184  -0.493  -2.232  1.00  0.00     0.161 HD
BRANCH  19  21
HETATM   21  C12 UNL     1       4.005   0.412  -0.697  1.00  0.00     0.117 A 
HETATM   22  C13 UNL     1       4.037   1.274   0.374  1.00  0.00     0.068 A 
HETATM   23  C14 UNL     1       5.297   1.199   0.942  1.00  0.00     0.113 A 
HETATM   24  N4  UNL     1       5.983   0.318   0.225  1.00  0.00    -0.306 N 
HETATM   25  C15 UNL     1       7.372  -0.047   0.507  1.00  0.00     0.177 C 
HETATM   26  N5  UNL     1       5.219  -0.157  -0.756  1.00  0.00    -0.284 N 
ATOM     27  H5  UNL     1       5.512  -0.848  -1.447  1.00  0.00     0.188 HD
ENDBRANCH  19  21
ENDBRANCH  18  19
ENDBRANCH  13  18
BRANCH   1  28
HETATM   28  O1  UNL     1      -3.224   1.676  -0.507  1.00  0.00    -0.354 OA
HETATM   29  C1  UNL     1      -3.229   2.005  -1.872  1.00  0.00     0.210 C 
ENDBRANCH   1  28
TORSDOF 4
