REMARK  4 active torsions:
REMARK  status: ('A' for Active; 'I' for Inactive)
REMARK    1  A    between atoms: O1_3  and  N1_4 
REMARK    2  A    between atoms: C3_6  and  C4_7 
REMARK    3  A    between atoms: C7_10  and  N2_11 
REMARK    4  A    between atoms: C14_26  and  N7_27 
ROOT
HETATM    1  C1  UNL     1       7.350   0.984  -1.729  1.00  0.00     0.047 C 
HETATM    2  C2  UNL     1       6.675   0.171  -1.147  1.00  0.00     0.073 C 
HETATM    3  O1  UNL     1       5.908  -0.774  -0.500  1.00  0.00    -0.187 OA
ENDROOT
BRANCH   3   4
HETATM    4  N1  UNL     1       5.756  -0.723   0.822  1.00  0.00    -0.262 N 
HETATM    5  C3  UNL     1       4.740  -0.687   1.573  1.00  0.00     0.126 C 
ATOM      6  H1  UNL     1       6.639  -0.710   1.332  1.00  0.00     0.194 HD
BRANCH   5   7
HETATM    7  C4  UNL     1       3.336  -0.688   1.220  1.00  0.00    -0.019 A 
HETATM    8  C5  UNL     1       2.363  -0.643   2.208  1.00  0.00     0.015 A 
HETATM    9  C6  UNL     1       1.039  -0.643   1.888  1.00  0.00     0.030 A 
HETATM   10  C7  UNL     1       0.583  -0.688   0.579  1.00  0.00     0.033 A 
HETATM   11  C17 UNL     1       1.564  -0.733  -0.387  1.00  0.00     0.030 A 
HETATM   12  C18 UNL     1       2.933  -0.733  -0.079  1.00  0.00     0.015 A 
BRANCH  10  13
HETATM   13  N2  UNL     1      -0.798  -0.689   0.242  1.00  0.00    -0.342 N 
HETATM   14  C8  UNL     1      -1.360   0.457  -0.038  1.00  0.00     0.123 A 
HETATM   15  N3  UNL     1      -0.658   1.607  -0.010  1.00  0.00    -0.333 N 
HETATM   16  C16 UNL     1      -2.704   0.402  -0.358  1.00  0.00     0.079 A 
HETATM   17  C9  UNL     1      -1.267   2.770  -0.304  1.00  0.00     0.117 A 
ATOM     18  H3  UNL     1       0.332   1.596   0.233  1.00  0.00     0.168 HD
HETATM   19  C10 UNL     1      -0.510   4.010  -0.275  1.00  0.00     0.117 C 
HETATM   20  C11 UNL     1      -2.608   2.771  -0.631  1.00  0.00     0.071 A 
HETATM   21  N4  UNL     1       0.093   4.999  -0.234  1.00  0.00    -0.190 NA
HETATM   22  C12 UNL     1      -3.331   1.592  -0.660  1.00  0.00     0.053 A 
HETATM   23  N5  UNL     1      -4.642   1.564  -0.976  1.00  0.00    -0.351 N 
HETATM   24  C13 UNL     1      -5.301   0.391  -0.990  1.00  0.00     0.182 A 
ATOM     25  H5  UNL     1      -5.132   2.429  -1.204  1.00  0.00     0.166 HD
HETATM   26  N6  UNL     1      -4.682  -0.769  -0.694  1.00  0.00    -0.338 N 
HETATM   27  C14 UNL     1      -3.377  -0.815  -0.371  1.00  0.00     0.118 A 
ATOM     28  H6  UNL     1      -5.218  -1.636  -0.716  1.00  0.00     0.168 HD
ATOM     29  H2  UNL     1      -1.333  -1.557   0.219  1.00  0.00     0.167 HD
BRANCH  27  30
HETATM   30  N7  UNL     1      -2.766  -1.915  -0.084  1.00  0.00    -0.380 N 
HETATM   31  C15 UNL     1      -3.524  -3.142  -0.116  1.00  0.00     0.147 C 
ATOM     32  H7  UNL     1      -1.775  -1.917   0.159  1.00  0.00     0.160 HD
ENDBRANCH  27  30
ENDBRANCH  10  13
ENDBRANCH   5   7
ENDBRANCH   3   4
TORSDOF 4
