REMARK  4 active torsions:
REMARK  status: ('A' for Active; 'I' for Inactive)
REMARK    1  A    between atoms: O1_2  and  C2_3 
REMARK    2  A    between atoms: C12_19  and  N4_20 
REMARK    3  A    between atoms: N4_20  and  C13_22 
REMARK    4  A    between atoms: C17_27  and  O4_28 
ROOT
HETATM    1  C2  UNL     1      -3.447   1.103   0.488  1.00  0.00     0.102 A 
HETATM    2  C3  UNL     1      -2.261   1.774   0.620  1.00  0.00     0.057 A 
HETATM    3  C4  UNL     1      -1.074   1.079   0.404  1.00  0.00     0.046 A 
HETATM    4  C5  UNL     1       0.115   1.715   0.527  1.00  0.00     0.259 A 
HETATM    5  O2  UNL     1       0.118   2.941   0.840  1.00  0.00    -0.267 OA
HETATM    6  N1  UNL     1       1.343   1.113   0.329  1.00  0.00    -0.316 N 
HETATM    7  C6  UNL     1       2.467   1.896   0.708  1.00  0.00     0.159 C 
HETATM    8  C7  UNL     1       1.318  -0.168  -0.012  1.00  0.00     0.064 A 
HETATM    9  C8  UNL     1       0.097  -0.879  -0.145  1.00  0.00     0.003 A 
HETATM   10  C9  UNL     1       0.101  -2.211  -0.478  1.00  0.00     0.017 A 
HETATM   11  C10 UNL     1       1.283  -2.859  -0.694  1.00  0.00     0.033 A 
HETATM   12  C11 UNL     1       2.472  -2.213  -0.593  1.00  0.00     0.064 A 
HETATM   13  N2  UNL     1       3.743  -2.570  -0.827  1.00  0.00    -0.298 N 
ATOM     14  H2  UNL     1       4.046  -3.508  -1.090  1.00  0.00     0.187 HD
HETATM   15  N3  UNL     1       4.531  -1.556  -0.672  1.00  0.00    -0.284 N 
ATOM     16  H3  UNL     1       5.543  -1.577  -0.796  1.00  0.00     0.188 HD
HETATM   17  C12 UNL     1       3.799  -0.440  -0.313  1.00  0.00     0.137 A 
HETATM   18  C14 UNL     1       2.512  -0.847  -0.251  1.00  0.00     0.065 A 
HETATM   19  C15 UNL     1      -1.098  -0.234   0.070  1.00  0.00    -0.005 A 
HETATM   20  C16 UNL     1      -2.271  -0.927  -0.067  1.00  0.00     0.053 A 
HETATM   21  C17 UNL     1      -3.459  -0.242   0.147  1.00  0.00     0.102 A 
ENDROOT
BRANCH  17  22
HETATM   22  N4  UNL     1       4.419   0.626  -0.251  1.00  0.00    -0.319 N 
ATOM     23  H4  UNL     1       3.864   1.440   0.015  1.00  0.00     0.169 HD
BRANCH  22  24
HETATM   24  C13 UNL     1       5.774   0.877  -0.494  1.00  0.00     0.354 C 
HETATM   25  O3  UNL     1       6.462   1.425   0.405  1.00  0.00    -0.283 OA
ENDBRANCH  22  24
ENDBRANCH  17  22
BRANCH  21  26
HETATM   26  O4  UNL     1      -4.650  -0.932   0.011  1.00  0.00    -0.353 OA
HETATM   27  C18 UNL     1      -4.639  -2.294  -0.336  1.00  0.00     0.210 C 
ENDBRANCH  21  26
BRANCH   1  28
HETATM   28  O1  UNL     1      -4.633   1.766   0.697  1.00  0.00    -0.353 OA
HETATM   29  C1  UNL     1      -4.669   3.127   1.044  1.00  0.00     0.210 C 
ENDBRANCH   1  28
TORSDOF 4
