REMARK  10 active torsions:
REMARK  status: ('A' for Active; 'I' for Inactive)
REMARK    1  A    between atoms: C2_2  and  O1_5 
REMARK    2  A    between atoms: O1_5  and  C5_6 
REMARK    3  A    between atoms: C5_6  and  O2_7 
REMARK    4  A    between atoms: C5_6  and  C6_9 
REMARK    5  A    between atoms: C6_9  and  C7_10 
REMARK    6  A    between atoms: C7_10  and  O3_11 
REMARK    7  A    between atoms: O3_11  and  C8_12 
REMARK    8  A    between atoms: C10_14  and  O4_15 
REMARK    9  A    between atoms: C10_14  and  C11_17 
REMARK   10  A    between atoms: C15_22  and  O6_23 
ROOT
HETATM    1  C8  UNL     1      -1.270  -0.459  -1.137  1.00  0.00     0.185 C 
HETATM    2  C9  UNL     1      -2.047  -0.696  -0.111  1.00  0.00     0.105 C 
HETATM    3  C10 UNL     1      -3.044   0.268   0.336  1.00  0.00     0.197 C 
HETATM    4  O5  UNL     1      -2.955   1.517  -0.156  1.00  0.00    -0.297 OA
HETATM    5  C15 UNL     1      -2.261   1.755  -1.276  1.00  0.00     0.421 C 
HETATM    6  O7  UNL     1      -1.444   0.762  -1.777  1.00  0.00    -0.275 OA
ENDROOT
BRANCH   1   7
HETATM    7  O3  UNL     1      -0.311  -1.356  -1.587  1.00  0.00    -0.330 OA
BRANCH   7   8
HETATM    8  C7  UNL     1       0.814  -1.574  -0.757  1.00  0.00     0.182 C 
BRANCH   8   9
HETATM    9  C6  UNL     1       1.583  -0.286  -0.526  1.00  0.00     0.087 C 
BRANCH   9  10
HETATM   10  C5  UNL     1       2.765  -0.649   0.377  1.00  0.00     0.259 C 
BRANCH  10  11
HETATM   11  O1  UNL     1       3.510   0.474   0.631  1.00  0.00    -0.352 OA
BRANCH  11  12
HETATM   12  C2  UNL     1       4.809   0.410   0.172  1.00  0.00     0.053 C 
HETATM   13  C1  UNL     1       5.495   1.725   0.530  1.00  0.00     0.045 C 
HETATM   14  C3  UNL     1       4.933   0.229  -1.305  1.00  0.00     0.045 C 
HETATM   15  C4  UNL     1       5.613  -0.685   0.871  1.00  0.00     0.045 C 
ENDBRANCH  11  12
ENDBRANCH  10  11
BRANCH  10  16
HETATM   16  O2  UNL     1       2.181  -1.185   1.545  1.00  0.00    -0.371 OA
ATOM     17  H2  UNL     1       1.665  -1.963   1.369  1.00  0.00     0.212 HD
ENDBRANCH  10  16
ENDBRANCH   9  10
ENDBRANCH   8   9
ENDBRANCH   7   8
ENDBRANCH   1   7
BRANCH   3  18
HETATM   18  O4  UNL     1      -2.950   0.343   1.746  1.00  0.00    -0.361 OA
ATOM     19  H4  UNL     1      -3.600   0.972   2.037  1.00  0.00     0.213 HD
ENDBRANCH   3  18
BRANCH   3  20
HETATM   20  C11 UNL     1      -4.437  -0.319   0.071  1.00  0.00     0.009 C 
HETATM   21  C12 UNL     1      -5.448   0.711   0.548  1.00  0.00     0.020 C 
HETATM   22  C13 UNL     1      -4.649  -0.637  -1.373  1.00  0.00     0.020 C 
HETATM   23  C14 UNL     1      -4.635  -1.590   0.881  1.00  0.00     0.020 C 
ENDBRANCH   3  20
BRANCH   5  24
HETATM   24  O6  UNL     1      -1.469   2.909  -1.090  1.00  0.00    -0.349 OA
ATOM     25  H6  UNL     1      -0.977   3.078  -1.885  1.00  0.00     0.215 HD
ENDBRANCH   5  24
TORSDOF 10
