REMARK  8 active torsions:
REMARK  status: ('A' for Active; 'I' for Inactive)
REMARK    1  A    between atoms: C2_2  and  O1_3 
REMARK    2  A    between atoms: O1_3  and  C3_4 
REMARK    3  A    between atoms: C3_4  and  C5_7 
REMARK    4  A    between atoms: C5_7  and  S1_8 
REMARK    5  A    between atoms: S1_8  and  C6_9 
REMARK    6  A    between atoms: N4_15  and  C8_17 
REMARK    7  A    between atoms: C10_19  and  O2_20 
REMARK    8  A    between atoms: C11_22  and  O3_23 
ROOT
HETATM    1  C3  UNL     1       4.757   0.835   0.316  1.00  0.00     0.237 C 
HETATM    2  C4  UNL     1       4.750   2.112   1.018  1.00  0.00     0.092 C 
HETATM    3  N1  UNL     1       4.739   3.139   1.561  1.00  0.00    -0.194 NA
ENDROOT
BRANCH   1   4
HETATM    4  O1  UNL     1       5.480   0.874  -0.860  1.00  0.00    -0.371 OA
BRANCH   4   5
HETATM    5  C2  UNL     1       6.571   0.021  -0.872  1.00  0.00     0.165 C 
HETATM    6  C1  UNL     1       7.568   0.324   0.218  1.00  0.00     0.033 C 
ENDBRANCH   4   5
ENDBRANCH   1   4
BRANCH   1   7
HETATM    7  C5  UNL     1       3.377   0.344  -0.012  1.00  0.00     0.128 C 
BRANCH   7   8
HETATM    8  S1  UNL     1       2.295   0.232   1.417  1.00  0.00    -0.100 SA
BRANCH   8   9
HETATM    9  C6  UNL     1       0.698  -0.370   0.826  1.00  0.00     0.130 A 
HETATM   10  N2  UNL     1       0.297  -1.623   0.714  1.00  0.00    -0.286 N 
HETATM   11  N3  UNL     1      -0.862  -1.905   0.281  1.00  0.00    -0.279 N 
ATOM     12  H2  UNL     1       0.930  -2.377   0.980  1.00  0.00     0.188 HD
HETATM   13  C7  UNL     1      -1.669  -0.890  -0.060  1.00  0.00     0.162 A 
ATOM     14  H3  UNL     1      -1.170  -2.874   0.195  1.00  0.00     0.189 HD
HETATM   15  N4  UNL     1      -2.877  -0.998  -0.517  1.00  0.00    -0.365 N 
HETATM   16  S2  UNL     1      -0.685   0.465   0.271  1.00  0.00    -0.027 SA
ATOM     17  H4  UNL     1      -3.280  -1.927  -0.640  1.00  0.00     0.162 HD
BRANCH  15  18
HETATM   18  C8  UNL     1      -3.668   0.162  -0.857  1.00  0.00     0.088 C 
HETATM   19  C9  UNL     1      -4.975  -0.322  -1.449  1.00  0.00     0.059 C 
HETATM   20  C10 UNL     1      -5.865  -0.617  -0.287  1.00  0.00     0.148 C 
HETATM   21  C11 UNL     1      -5.326   0.154   0.884  1.00  0.00     0.148 C 
HETATM   22  C12 UNL     1      -4.128   0.914   0.374  1.00  0.00     0.059 C 
BRANCH  20  23
HETATM   23  O2  UNL     1      -5.775  -1.973  -0.000  1.00  0.00    -0.393 OA
ATOM     24  H2  UNL     1      -6.341  -2.161   0.739  1.00  0.00     0.210 HD
ENDBRANCH  20  23
BRANCH  21  25
HETATM   25  O3  UNL     1      -6.323   1.009   1.371  1.00  0.00    -0.393 OA
ATOM     26  H3  UNL     1      -5.982   1.497   2.112  1.00  0.00     0.210 HD
ENDBRANCH  21  25
ENDBRANCH  15  18
ENDBRANCH   8   9
ENDBRANCH   7   8
ENDBRANCH   1   7
TORSDOF 8
