REMARK  10 active torsions:
REMARK  status: ('A' for Active; 'I' for Inactive)
REMARK    1  A    between atoms: C2_2  and  O1_3 
REMARK    2  A    between atoms: C2_2  and  C4_5 
REMARK    3  A    between atoms: C6_8  and  C7_9 
REMARK    4  A    between atoms: C7_9  and  C8_10 
REMARK    5  A    between atoms: C8_10  and  O3_11 
REMARK    6  A    between atoms: N1_13  and  O4_15 
REMARK    7  A    between atoms: C9_17  and  C10_18 
REMARK    8  A    between atoms: C10_18  and  O5_19 
REMARK    9  A    between atoms: C11_22  and  O7_23 
REMARK   10  A    between atoms: O7_23  and  C12_24 
ROOT
HETATM    1  C4  UNL     1       0.735   0.990   0.114  1.00  0.00     0.167 C 
HETATM    2  C5  UNL     1      -0.373   0.506   0.944  1.00  0.00     0.149 C 
HETATM    3  O2  UNL     1      -0.431   0.346   2.128  1.00  0.00    -0.296 OA
HETATM    4  C6  UNL     1      -1.595   0.181   0.077  1.00  0.00     0.095 C 
HETATM    5  C9  UNL     1      -1.171  -0.897  -0.885  1.00  0.00     0.159 C 
HETATM    6  O6  UNL     1      -0.091  -0.436  -1.639  1.00  0.00    -0.351 OA
HETATM    7  C11 UNL     1       1.015  -0.014  -0.970  1.00  0.00     0.287 C 
ENDROOT
BRANCH   4   8
HETATM    8  C7  UNL     1      -2.801   0.015   0.859  1.00  0.00     0.100 C 
BRANCH   8   9
HETATM    9  C8  UNL     1      -4.011  -0.254   0.060  1.00  0.00     0.136 C 
HETATM   10  N1  UNL     1      -4.865  -1.161   0.341  1.00  0.00    -0.251 N 
ATOM     11  H1  UNL     1      -4.736  -1.755   1.160  1.00  0.00     0.196 HD
BRANCH   9  12
HETATM   12  O3  UNL     1      -4.183   0.573  -1.069  1.00  0.00    -0.348 OA
ATOM     13  H3  UNL     1      -4.962   0.400  -1.584  1.00  0.00     0.219 HD
ENDBRANCH   9  12
BRANCH  10  14
HETATM   14  O4  UNL     1      -5.960  -1.329  -0.472  1.00  0.00    -0.288 OA
ATOM     15  H4  UNL     1      -6.595  -2.004  -0.263  1.00  0.00     0.244 HD
ENDBRANCH  10  14
ENDBRANCH   8   9
ENDBRANCH   4   8
BRANCH   5  16
HETATM   16  C10 UNL     1      -0.843  -2.218  -0.229  1.00  0.00     0.197 C 
BRANCH  16  17
HETATM   17  O5  UNL     1      -1.876  -2.754   0.527  1.00  0.00    -0.398 OA
ATOM     18  H5  UNL     1      -1.670  -3.585   0.939  1.00  0.00     0.209 HD
ENDBRANCH  16  17
ENDBRANCH   5  16
BRANCH   1  19
HETATM   19  C2  UNL     1       1.922   1.514   0.762  1.00  0.00     0.052 C 
HETATM   20  C1  UNL     1       2.263   1.413   1.994  1.00  0.00     0.047 C 
BRANCH  19  21
HETATM   21  O1  UNL     1       2.802   2.234  -0.112  1.00  0.00    -0.360 OA
HETATM   22  C3  UNL     1       2.565   3.624  -0.314  1.00  0.00     0.209 C 
ENDBRANCH  19  21
ENDBRANCH   1  19
BRANCH   7  23
HETATM   23  O7  UNL     1       1.907  -1.027  -0.618  1.00  0.00    -0.289 OA
BRANCH  23  24
HETATM   24  C12 UNL     1       3.138  -1.168  -1.209  1.00  0.00     0.257 C 
HETATM   25  C13 UNL     1       4.103  -2.247  -0.835  1.00  0.00     0.126 C 
HETATM   26  O8  UNL     1       3.498  -0.370  -2.107  1.00  0.00    -0.266 OA
ENDBRANCH  23  24
ENDBRANCH   7  23
TORSDOF 10
