REMARK  6 active torsions:
REMARK  status: ('A' for Active; 'I' for Inactive)
REMARK    1  A    between atoms: C2_3  and  N2_4 
REMARK    2  A    between atoms: N2_4  and  N3_6 
REMARK    3  A    between atoms: C3_11  and  S1_12 
REMARK    4  A    between atoms: S1_12  and  C4_13 
REMARK    5  A    between atoms: C4_13  and  C5_14 
REMARK       I    between atoms: C5_14  and  N7_16 
REMARK    6  A    between atoms: N7_16  and  C6_18 
ROOT
HETATM    1  N1  UNL     1      -2.580   1.993  -2.703  1.00  0.00    -0.195 NA
HETATM    2  C1  UNL     1      -2.987   1.285  -1.878  1.00  0.00     0.092 C 
HETATM    3  C2  UNL     1      -3.509   0.413  -0.827  1.00  0.00     0.135 C 
HETATM    4  C10 UNL     1      -4.633   1.112  -0.106  1.00  0.00     0.048 C 
HETATM    5  C11 UNL     1      -5.441  -0.163  -0.210  1.00  0.00     0.007 C 
HETATM    6  C12 UNL     1      -4.500  -0.623  -1.301  1.00  0.00     0.048 C 
ENDROOT
BRANCH   3   7
HETATM    7  N2  UNL     1      -2.492  -0.086   0.069  1.00  0.00    -0.291 N 
ATOM      8  H2  UNL     1      -2.561   0.130   1.064  1.00  0.00     0.184 HD
BRANCH   7   9
HETATM    9  N3  UNL     1      -1.429  -0.847  -0.379  1.00  0.00    -0.160 N 
HETATM   10  N4  UNL     1      -1.120  -1.260  -1.597  1.00  0.00     0.017 NA
HETATM   11  N5  UNL     1      -0.007  -1.972  -1.591  1.00  0.00    -0.005 NA
HETATM   12  N6  UNL     1       0.435  -2.033  -0.325  1.00  0.00    -0.263 N 
HETATM   13  C3  UNL     1      -0.439  -1.341   0.419  1.00  0.00     0.194 A 
ATOM     14  H6  UNL     1       1.272  -2.512   0.006  1.00  0.00     0.186 HD
BRANCH  13  15
HETATM   15  S1  UNL     1      -0.348  -1.098   2.188  1.00  0.00    -0.081 SA
BRANCH  15  16
HETATM   16  C4  UNL     1       0.560   0.411   2.602  1.00  0.00     0.185 C 
BRANCH  16  17
HETATM   17  C5  UNL     1       1.973   0.239   2.238  1.00  0.00     0.227 C 
HETATM   18  O1  UNL     1       2.780  -0.115   3.143  1.00  0.00    -0.273 OA
HETATM   19  N7  UNL     1       2.474   0.451   0.931  1.00  0.00    -0.355 N 
ATOM     20  H7  UNL     1       1.833   0.731   0.188  1.00  0.00     0.162 HD
BRANCH  19  21
HETATM   21  C6  UNL     1       3.887   0.276   0.628  1.00  0.00     0.094 C 
HETATM   22  C7  UNL     1       4.185  -0.941  -0.183  1.00  0.00     0.036 C 
HETATM   23  C8  UNL     1       4.115  -0.633  -1.640  1.00  0.00     0.076 C 
HETATM   24  S2  UNL     1       4.965   0.998  -1.660  1.00  0.00    -0.167 SA
HETATM   25  C9  UNL     1       4.543   1.478   0.064  1.00  0.00     0.099 C 
ENDBRANCH  19  21
ENDBRANCH  16  17
ENDBRANCH  15  16
ENDBRANCH  13  15
ENDBRANCH   7   9
ENDBRANCH   3   7
TORSDOF 6
