REMARK  8 active torsions:
REMARK  status: ('A' for Active; 'I' for Inactive)
REMARK    1  A    between atoms: C4_4  and  O1_5 
REMARK    2  A    between atoms: O1_5  and  N1_6 
REMARK    3  A    between atoms: C7_11  and  S1_12 
REMARK    4  A    between atoms: S1_12  and  C8_13 
REMARK    5  A    between atoms: C8_13  and  C9_14 
REMARK    6  A    between atoms: C9_14  and  C10_15 
REMARK    7  A    between atoms: C10_15  and  O2_16 
REMARK    8  A    between atoms: C11_19  and  C12_20 
ROOT
HETATM    1  O1  UNL     1      -0.498  -1.318  -0.355  1.00  0.00    -0.243 OA
ENDROOT
BRANCH   1   2
HETATM    2  C4  UNL     1      -1.300  -0.372   0.296  1.00  0.00     0.292 C 
HETATM    3  C3  UNL     1      -1.282   0.929  -0.461  1.00  0.00     0.101 C 
HETATM    4  C2  UNL     1      -2.589   1.655  -0.448  1.00  0.00     0.070 C 
HETATM    5  C1  UNL     1      -2.724   2.716   0.623  1.00  0.00     0.047 C 
HETATM    6  C13 UNL     1      -3.787   0.779  -0.616  1.00  0.00     0.083 C 
HETATM    7  O6  UNL     1      -2.887   2.220  -1.697  1.00  0.00    -0.379 OA
HETATM    8  C11 UNL     1      -3.514  -0.675  -0.362  1.00  0.00     0.234 C 
HETATM    9  C14 UNL     1      -3.767   1.203  -2.074  1.00  0.00     0.179 C 
HETATM   10  O3  UNL     1      -2.547  -0.850   0.592  1.00  0.00    -0.342 OA
BRANCH   8  11
HETATM   11  C12 UNL     1      -4.778  -1.277   0.150  1.00  0.00     0.203 C 
HETATM   12  O4  UNL     1      -4.836  -1.831   1.280  1.00  0.00    -0.646 OA
HETATM   13  O5  UNL     1      -5.944  -1.254  -0.598  1.00  0.00    -0.646 OA
ENDBRANCH   8  11
ENDBRANCH   1   2
BRANCH   1  14
HETATM   14  N1  UNL     1       0.580  -1.673   0.375  1.00  0.00    -0.232 N 
HETATM   15  C5  UNL     1       0.519  -2.501   1.589  1.00  0.00     0.178 C 
HETATM   16  C6  UNL     1       1.825  -2.094   2.251  1.00  0.00     0.144 C 
HETATM   17  N2  UNL     1       2.645  -1.572   1.180  1.00  0.00    -0.368 N 
HETATM   18  C7  UNL     1       1.946  -1.341   0.142  1.00  0.00     0.162 C 
ATOM     19  H2  UNL     1       3.650  -1.411   1.248  1.00  0.00     0.161 HD
BRANCH  18  20
HETATM   20  S1  UNL     1       2.514  -0.692  -1.434  1.00  0.00    -0.092 SA
BRANCH  20  21
HETATM   21  C8  UNL     1       4.295  -0.379  -1.365  1.00  0.00     0.084 C 
BRANCH  21  22
HETATM   22  C9  UNL     1       4.550   0.734  -0.393  1.00  0.00     0.036 C 
BRANCH  22  23
HETATM   23  C10 UNL     1       6.022   1.067  -0.271  1.00  0.00     0.165 C 
BRANCH  23  24
HETATM   24  O2  UNL     1       6.553   1.464  -1.488  1.00  0.00    -0.401 OA
ATOM     25  H2  UNL     1       7.477   1.673  -1.411  1.00  0.00     0.209 HD
ENDBRANCH  23  24
ENDBRANCH  22  23
ENDBRANCH  21  22
ENDBRANCH  20  21
ENDBRANCH  18  20
ENDBRANCH   1  14
TORSDOF 8
