REMARK  8 active torsions:
REMARK  status: ('A' for Active; 'I' for Inactive)
REMARK    1  A    between atoms: C2_2  and  C3_3 
REMARK    2  A    between atoms: C3_3  and  S1_4 
REMARK    3  A    between atoms: S1_4  and  C4_5 
REMARK    4  A    between atoms: C5_6  and  O1_7 
REMARK    5  A    between atoms: C6_9  and  C7_10 
REMARK    6  A    between atoms: C7_10  and  S2_11 
REMARK    7  A    between atoms: C9_14  and  N1_15 
REMARK    8  A    between atoms: C11_21  and  O4_22 
ROOT
HETATM    1  C4  UNL     1      -0.242  -0.046   0.704  1.00  0.00     0.128 C 
HETATM    2  C5  UNL     1       0.906   0.932   0.762  1.00  0.00     0.165 C 
HETATM    3  C6  UNL     1       2.096   0.113   0.306  1.00  0.00     0.163 C 
HETATM    4  O2  UNL     1       1.579  -1.091  -0.142  1.00  0.00    -0.356 OA
HETATM    5  C9  UNL     1       0.540  -1.345   0.716  1.00  0.00     0.255 C 
ENDROOT
BRANCH   5   6
HETATM    6  N1  UNL     1      -0.311  -2.460   0.313  1.00  0.00    -0.249 N 
HETATM    7  S3  UNL     1      -1.992  -2.598   0.270  1.00  0.00     0.056 SA
HETATM    8  C10 UNL     1      -2.099  -4.198  -0.309  1.00  0.00     0.307 A 
HETATM    9  O3  UNL     1      -3.132  -4.920  -0.565  1.00  0.00    -0.258 OA
HETATM   10  N2  UNL     1      -0.817  -4.534  -0.436  1.00  0.00    -0.281 N 
HETATM   11  C11 UNL     1       0.092  -3.657  -0.122  1.00  0.00     0.235 A 
ATOM     12  H2  UNL     1      -0.553  -5.460  -0.773  1.00  0.00     0.173 HD
BRANCH  11  13
HETATM   13  O4  UNL     1       1.368  -3.894  -0.214  1.00  0.00    -0.332 OA
ATOM     14  H4  UNL     1       1.655  -4.745  -0.523  1.00  0.00     0.221 HD
ENDBRANCH  11  13
ENDBRANCH   5   6
BRANCH   1  15
HETATM   15  S1  UNL     1      -1.223   0.198  -0.755  1.00  0.00    -0.157 SA
BRANCH  15  16
HETATM   16  C3  UNL     1      -2.120   1.756  -0.684  1.00  0.00     0.074 C 
BRANCH  16  17
HETATM   17  C2  UNL     1      -3.188   1.744   0.421  1.00  0.00     0.006 C 
HETATM   18  C1  UNL     1      -4.203   0.649   0.168  1.00  0.00     0.006 C 
ENDBRANCH  16  17
ENDBRANCH  15  16
ENDBRANCH   1  15
BRANCH   2  19
HETATM   19  O1  UNL     1       0.746   2.078   0.038  1.00  0.00    -0.392 OA
ATOM     20  H1  UNL     1       1.469   2.694   0.075  1.00  0.00     0.210 HD
ENDBRANCH   2  19
BRANCH   3  21
HETATM   21  C7  UNL     1       2.764   0.782  -0.885  1.00  0.00     0.108 C 
BRANCH  21  22
HETATM   22  S2  UNL     1       3.353   2.432  -0.508  1.00  0.00    -0.171 SA
HETATM   23  C8  UNL     1       4.704   2.427   0.682  1.00  0.00     0.089 C 
ENDBRANCH  21  22
ENDBRANCH   3  21
TORSDOF 8
