REMARK  7 active torsions:
REMARK  status: ('A' for Active; 'I' for Inactive)
REMARK    1  A    between atoms: O1_1  and  C1_3 
REMARK    2  A    between atoms: C2_4  and  C3_5 
REMARK    3  A    between atoms: C3_5  and  N1_6 
REMARK    4  A    between atoms: N1_6  and  C4_8 
REMARK    5  A    between atoms: C4_8  and  C5_9 
REMARK    6  A    between atoms: C5_9  and  N2_10 
REMARK    7  A    between atoms: N5_24  and  C13_25 
ROOT
HETATM    1  C3  UNL     1      -1.587  -1.415  -0.047  1.00  0.00     0.123 C 
ENDROOT
BRANCH   1   2
HETATM    2  C2  UNL     1      -2.745  -0.493  -0.360  1.00  0.00     0.117 A 
HETATM    3  C1  UNL     1      -3.877  -0.265   0.428  1.00  0.00     0.189 A 
HETATM    4  N5  UNL     1      -4.622   0.695  -0.200  1.00  0.00    -0.250 N 
HETATM    5  N4  UNL     1      -3.982   1.014  -1.288  1.00  0.00    -0.238 N 
HETATM    6  N3  UNL     1      -2.864   0.324  -1.411  1.00  0.00    -0.281 N 
ATOM      7  H4  UNL     1      -4.304   1.710  -1.961  1.00  0.00     0.208 HD
ATOM      8  H3  UNL     1      -2.200   0.401  -2.181  1.00  0.00     0.188 HD
BRANCH   3   9
HETATM    9  O1  UNL     1      -4.155  -0.903   1.597  1.00  0.00    -0.343 OA
ATOM     10  H1  UNL     1      -4.924  -0.748   2.132  1.00  0.00     0.219 HD
ENDBRANCH   3   9
BRANCH   4  11
HETATM   11  C13 UNL     1      -5.857   1.242   0.344  1.00  0.00     0.112 C 
HETATM   12  C14 UNL     1      -7.013   0.301   0.237  1.00  0.00     0.027 C 
HETATM   13  C15 UNL     1      -7.870   1.554  -0.045  1.00  0.00     0.004 C 
HETATM   14  C16 UNL     1      -6.600   2.134  -0.632  1.00  0.00     0.027 C 
ENDBRANCH   4  11
ENDBRANCH   1   2
BRANCH   1  15
HETATM   15  N1  UNL     1      -0.620  -1.403  -1.062  1.00  0.00    -0.372 N 
ATOM     16  H1  UNL     1      -0.600  -2.172  -1.732  1.00  0.00     0.164 HD
BRANCH  15  17
HETATM   17  C4  UNL     1       0.308  -0.385  -1.186  1.00  0.00     0.099 C 
BRANCH  17  18
HETATM   18  C5  UNL     1       1.341  -0.104  -0.174  1.00  0.00     0.076 C 
BRANCH  18  19
HETATM   19  N2  UNL     1       2.295  -1.068   0.163  1.00  0.00    -0.291 NA
HETATM   20  C6  UNL     1       3.257  -1.469  -0.809  1.00  0.00     0.100 C 
HETATM   21  C7  UNL     1       4.653  -1.697  -0.233  1.00  0.00     0.083 C 
HETATM   22  C8  UNL     1       5.255  -0.476   0.377  1.00  0.00     0.166 C 
HETATM   23  C9  UNL     1       4.072   0.441   0.749  1.00  0.00     0.083 C 
HETATM   24  O2  UNL     1       6.125   0.224  -0.475  1.00  0.00    -0.353 OA
HETATM   25  O3  UNL     1       5.937  -0.712   1.553  1.00  0.00    -0.353 OA
HETATM   26  C10 UNL     1       3.020  -0.509   1.342  1.00  0.00     0.100 C 
HETATM   27  C11 UNL     1       6.633   1.169   0.447  1.00  0.00     0.197 C 
HETATM   28  C12 UNL     1       6.608   0.485   1.796  1.00  0.00     0.197 C 
ENDBRANCH  18  19
ENDBRANCH  17  18
ENDBRANCH  15  17
ENDBRANCH   1  15
TORSDOF 7
