REMARK  8 active torsions:
REMARK  status: ('A' for Active; 'I' for Inactive)
REMARK    1  A    between atoms: C2_5  and  S1_6 
REMARK    2  A    between atoms: S1_6  and  C3_7 
REMARK    3  A    between atoms: C3_7  and  C4_8 
REMARK    4  A    between atoms: C4_8  and  O1_9 
REMARK    5  A    between atoms: O1_9  and  C5_10 
REMARK    6  A    between atoms: N3_14  and  C9_15 
REMARK    7  A    between atoms: C9_15  and  C10_16 
REMARK    8  A    between atoms: C13_19  and  O2_20 
ROOT
HETATM    1  C1  UNL     1       0.052  -0.878  -3.977  1.00  0.00     0.183 C 
HETATM    2  N1  UNL     1      -0.311  -0.510  -2.603  1.00  0.00    -0.245 N 
HETATM    3  N2  UNL     1       0.240  -0.926  -1.480  1.00  0.00    -0.274 N 
ATOM      4  H2  UNL     1       1.018  -1.580  -1.394  1.00  0.00     0.189 HD
HETATM    5  C2  UNL     1      -0.426  -0.317  -0.449  1.00  0.00     0.165 A 
HETATM    6  N3  UNL     1      -1.370   0.458  -0.986  1.00  0.00    -0.275 N 
HETATM    7  C14 UNL     1      -1.308   0.346  -2.352  1.00  0.00     0.345 A 
HETATM    8  O3  UNL     1      -2.086   0.972  -3.105  1.00  0.00    -0.245 OA
ENDROOT
BRANCH   6   9
HETATM    9  C9  UNL     1      -2.313   1.252  -0.277  1.00  0.00     0.169 C 
BRANCH   9  10
HETATM   10  C10 UNL     1      -3.648   0.700  -0.019  1.00  0.00     0.207 C 
HETATM   11  C11 UNL     1      -3.795  -0.539   0.780  1.00  0.00     0.039 C 
HETATM   12  C12 UNL     1      -5.140  -0.378   1.515  1.00  0.00     0.063 C 
HETATM   13  C13 UNL     1      -5.621   0.959   1.030  1.00  0.00     0.319 C 
HETATM   14  N4  UNL     1      -4.396   1.692   0.792  1.00  0.00    -0.043 N 
ATOM     15  H42 UNL     1      -3.917   2.036   1.624  1.00  0.00     0.280 HD
ATOM     16  H41 UNL     1      -4.506   2.615   0.372  1.00  0.00     0.280 HD
BRANCH  13  17
HETATM   17  O2  UNL     1      -6.410   1.590   1.998  1.00  0.00    -0.370 OA
ATOM     18  H2  UNL     1      -6.714   2.436   1.691  1.00  0.00     0.212 HD
ENDBRANCH  13  17
ENDBRANCH   9  10
ENDBRANCH   6   9
BRANCH   5  19
HETATM   19  S1  UNL     1       0.045  -0.591   1.262  1.00  0.00    -0.090 SA
BRANCH  19  20
HETATM   20  C3  UNL     1       1.278   0.640   1.714  1.00  0.00     0.108 C 
BRANCH  20  21
HETATM   21  C4  UNL     1       2.577   0.508   0.995  1.00  0.00     0.179 C 
BRANCH  21  22
HETATM   22  O1  UNL     1       3.203  -0.712   1.210  1.00  0.00    -0.381 OA
BRANCH  22  23
HETATM   23  C5  UNL     1       4.410  -0.820   0.542  1.00  0.00     0.050 C 
HETATM   24  C6  UNL     1       4.282  -0.690  -0.943  1.00  0.00     0.045 C 
HETATM   25  C7  UNL     1       5.407   0.233   1.010  1.00  0.00     0.045 C 
HETATM   26  C8  UNL     1       5.016  -2.174   0.846  1.00  0.00     0.045 C 
ENDBRANCH  22  23
ENDBRANCH  21  22
ENDBRANCH  20  21
ENDBRANCH  19  20
ENDBRANCH   5  19
TORSDOF 8
