REMARK  12 active torsions:
REMARK  status: ('A' for Active; 'I' for Inactive)
REMARK    1  A    between atoms: C2_2  and  O1_3 
REMARK    2  A    between atoms: O1_3  and  C3_4 
REMARK    3  A    between atoms: C3_4  and  C4_6 
REMARK    4  A    between atoms: C4_6  and  C5_7 
REMARK    5  A    between atoms: C5_7  and  N1_8 
REMARK    6  A    between atoms: C6_9  and  O3_10 
REMARK    7  A    between atoms: C9_14  and  O4_15 
REMARK    8  A    between atoms: C10_17  and  C11_18 
REMARK    9  A    between atoms: C11_18  and  C12_19 
REMARK   10  A    between atoms: C12_19  and  S1_20 
REMARK   11  A    between atoms: N2_22  and  N3_23 
REMARK       I    between atoms: N3_23  and  C14_25 
REMARK   12  A    between atoms: C14_25  and  C15_27 
ROOT
HETATM    1  N1  UNL     1       2.317  -0.382   0.342  1.00  0.00    -0.307 N 
HETATM    2  C6  UNL     1       1.537  -1.356  -0.154  1.00  0.00     0.152 A 
HETATM    3  C7  UNL     1       0.233  -0.874  -0.326  1.00  0.00     0.020 A 
HETATM    4  C8  UNL     1       0.252   0.431   0.084  1.00  0.00     0.024 A 
HETATM    5  C9  UNL     1       1.557   0.696   0.489  1.00  0.00     0.153 A 
HETATM    6  C10 UNL     1      -1.103   1.026  -0.069  1.00  0.00     0.118 C 
HETATM    7  N2  UNL     1      -1.850   0.019  -0.739  1.00  0.00    -0.215 NA
HETATM    8  C19 UNL     1      -1.120  -1.215  -0.762  1.00  0.00     0.158 C 
ENDROOT
BRANCH   7   9
HETATM    9  N3  UNL     1      -3.069  -0.233  -0.107  1.00  0.00    -0.288 N 
HETATM   10  C14 UNL     1      -4.035  -1.068  -0.707  1.00  0.00     0.239 C 
HETATM   11  O5  UNL     1      -3.784  -1.587  -1.822  1.00  0.00    -0.271 OA
ATOM     12  H3  UNL     1      -3.264   0.192   0.800  1.00  0.00     0.184 HD
BRANCH  10  13
HETATM   13  C15 UNL     1      -5.347  -1.366  -0.080  1.00  0.00     0.031 C 
HETATM   14  C16 UNL     1      -5.068  -1.987   1.269  1.00  0.00     0.025 C 
HETATM   15  C17 UNL     1      -6.186  -0.127   0.097  1.00  0.00     0.025 C 
HETATM   16  C18 UNL     1      -6.128  -2.351  -0.942  1.00  0.00     0.025 C 
ENDBRANCH  10  13
ENDBRANCH   7   9
BRANCH   6  17
HETATM   17  C11 UNL     1      -0.919   2.281  -0.906  1.00  0.00     0.036 C 
BRANCH  17  18
HETATM   18  C12 UNL     1      -2.284   2.904  -1.075  1.00  0.00     0.075 C 
BRANCH  18  19
HETATM   19  S1  UNL     1      -3.024   3.356   0.507  1.00  0.00    -0.173 SA
HETATM   20  C13 UNL     1      -2.039   4.687   1.252  1.00  0.00     0.089 C 
ENDBRANCH  18  19
ENDBRANCH  17  18
ENDBRANCH   6  17
BRANCH   5  21
HETATM   21  O4  UNL     1       2.006   1.910   0.978  1.00  0.00    -0.345 OA
ATOM     22  H4  UNL     1       1.462   2.682   1.083  1.00  0.00     0.219 HD
ENDBRANCH   5  21
BRANCH   2  23
HETATM   23  O3  UNL     1       1.926  -2.650  -0.460  1.00  0.00    -0.345 OA
ATOM     24  H3  UNL     1       1.374  -3.339  -0.811  1.00  0.00     0.219 HD
ENDBRANCH   2  23
BRANCH   1  25
HETATM   25  C5  UNL     1       3.744  -0.501   0.655  1.00  0.00     0.143 C 
BRANCH  25  26
HETATM   26  C4  UNL     1       4.500  -0.108  -0.596  1.00  0.00     0.131 C 
BRANCH  26  27
HETATM   27  C3  UNL     1       5.959  -0.181  -0.420  1.00  0.00     0.260 C 
HETATM   28  O2  UNL     1       6.676   0.147  -1.399  1.00  0.00    -0.265 OA
BRANCH  27  29
HETATM   29  O1  UNL     1       6.606  -0.580   0.732  1.00  0.00    -0.322 OA
BRANCH  29  30
HETATM   30  C2  UNL     1       8.003  -0.644   0.884  1.00  0.00     0.174 C 
HETATM   31  C1  UNL     1       8.680  -1.565  -0.075  1.00  0.00     0.034 C 
ENDBRANCH  29  30
ENDBRANCH  27  29
ENDBRANCH  26  27
ENDBRANCH  25  26
ENDBRANCH   1  25
TORSDOF 12
