REMARK  7 active torsions:
REMARK  status: ('A' for Active; 'I' for Inactive)
REMARK    1  A    between atoms: C2_3  and  C3_4 
REMARK    2  A    between atoms: C4_6  and  O1_7 
REMARK    3  A    between atoms: C4_6  and  C5_9 
REMARK    4  A    between atoms: C5_9  and  O3_11 
REMARK    5  A    between atoms: O3_11  and  C6_12 
REMARK    6  A    between atoms: C6_12  and  C7_13 
REMARK    7  A    between atoms: N2_22  and  O5_23 
ROOT
HETATM    1  C3  UNL     1      -2.357   0.722  -0.118  1.00  0.00     0.100 C 
HETATM    2 CL1  UNL     1      -2.038   2.462  -0.166  1.00  0.00    -0.079 Cl
HETATM    3  C4  UNL     1      -1.367  -0.073  -0.390  1.00  0.00     0.166 C 
ENDROOT
BRANCH   1   4
HETATM    4  C2  UNL     1      -3.705   0.330   0.223  1.00  0.00     0.068 A 
HETATM    5  N1  UNL     1      -4.481  -0.406  -0.542  1.00  0.00    -0.300 N 
HETATM    6  C1  UNL     1      -4.076  -0.807  -1.863  1.00  0.00     0.161 C 
HETATM    7  C15 UNL     1      -5.741  -0.789  -0.134  1.00  0.00     0.356 A 
HETATM    8  N2  UNL     1      -6.195  -0.404   1.069  1.00  0.00    -0.134 N 
HETATM    9  O6  UNL     1      -6.454  -1.496  -0.894  1.00  0.00    -0.244 OA
HETATM   10  C14 UNL     1      -5.433   0.343   1.865  1.00  0.00     0.277 A 
HETATM   11  C13 UNL     1      -4.172   0.726   1.460  1.00  0.00     0.108 A 
HETATM   12  O4  UNL     1      -5.862   0.697   2.982  1.00  0.00    -0.266 OA
BRANCH   8  13
HETATM   13  O5  UNL     1      -7.452  -0.772   1.504  1.00  0.00    -0.276 OA
ATOM     14  H5  UNL     1      -7.996  -1.305   0.936  1.00  0.00     0.245 HD
ENDBRANCH   8  13
ENDBRANCH   1   4
BRANCH   3  15
HETATM   15  O1  UNL     1      -1.536  -1.445  -0.369  1.00  0.00    -0.354 OA
ATOM     16  H1  UNL     1      -0.812  -2.027  -0.568  1.00  0.00     0.218 HD
ENDBRANCH   3  15
BRANCH   3  17
HETATM   17  C5  UNL     1      -0.054   0.424  -0.725  1.00  0.00     0.318 C 
HETATM   18  O2  UNL     1       0.255   1.631  -0.785  1.00  0.00    -0.257 OA
BRANCH  17  19
HETATM   19  O3  UNL     1       1.025  -0.408  -1.021  1.00  0.00    -0.316 OA
BRANCH  19  20
HETATM   20  C6  UNL     1       2.296  -0.009  -1.347  1.00  0.00     0.183 C 
BRANCH  20  21
HETATM   21  C7  UNL     1       3.057   0.802  -0.366  1.00  0.00     0.010 C 
HETATM   22  C8  UNL     1       4.420   1.109  -0.963  1.00  0.00     0.007 C 
HETATM   23  C9  UNL     1       5.526   0.968   0.072  1.00  0.00     0.000 C 
HETATM   24  C10 UNL     1       5.713  -0.542   0.258  1.00  0.00     0.000 C 
HETATM   25  C11 UNL     1       4.369  -1.110   0.591  1.00  0.00     0.000 C 
HETATM   26  C12 UNL     1       3.323  -0.052   0.862  1.00  0.00     0.007 C 
ENDBRANCH  20  21
ENDBRANCH  19  20
ENDBRANCH  17  19
ENDBRANCH   3  17
TORSDOF 7
