REMARK  7 active torsions:
REMARK  status: ('A' for Active; 'I' for Inactive)
REMARK    1  A    between atoms: C2_2  and  O1_4 
REMARK    2  A    between atoms: C2_2  and  C4_6 
REMARK    3  A    between atoms: C4_6  and  N1_7 
REMARK    4  A    between atoms: N1_7  and  C5_9 
REMARK    5  A    between atoms: C6_14  and  C7_15 
REMARK    6  A    between atoms: C8_18  and  C9_19 
REMARK    7  A    between atoms: C14_25  and  C15_26 
ROOT
HETATM    1  C5  UNL     1       2.989   1.723   0.306  1.00  0.00     0.161 A 
HETATM    2  N2  UNL     1       2.200   2.684   0.794  1.00  0.00    -0.279 N 
ATOM      3  H2  UNL     1       2.509   3.591   1.145  1.00  0.00     0.189 HD
HETATM    4  N3  UNL     1       1.013   2.279   0.746  1.00  0.00    -0.288 N 
ATOM      5  H3  UNL     1       0.480   3.053   1.143  1.00  0.00     0.188 HD
HETATM    6  C6  UNL     1       0.240   1.530   0.502  1.00  0.00     0.144 A 
HETATM    7  S1  UNL     1       1.891   0.494  -0.097  1.00  0.00    -0.029 SA
ENDROOT
BRANCH   6   8
HETATM    8  C7  UNL     1      -0.807   0.486   0.160  1.00  0.00     0.184 A 
HETATM    9  N4  UNL     1      -2.121   0.897   0.341  1.00  0.00    -0.335 N 
HETATM   10  C8  UNL     1      -2.902  -0.184   0.031  1.00  0.00     0.048 A 
ATOM     11  H4  UNL     1      -2.440   1.817   0.644  1.00  0.00     0.168 HD
HETATM   12  C14 UNL     1      -2.019  -1.191  -0.348  1.00  0.00     0.106 A 
HETATM   13  O3  UNL     1      -0.825  -0.677  -0.227  1.00  0.00    -0.291 OA
BRANCH  10  14
HETATM   14  C9  UNL     1      -4.284  -0.297   0.410  1.00  0.00     0.042 C 
HETATM   15  C10 UNL     1      -5.272  -0.773  -0.595  1.00  0.00     0.037 C 
HETATM   16  C11 UNL     1      -6.702  -0.373  -0.251  1.00  0.00     0.168 C 
HETATM   17  O2  UNL     1      -6.877   0.990  -0.351  1.00  0.00    -0.391 OA
HETATM   18  C12 UNL     1      -5.644   1.645  -0.450  1.00  0.00     0.168 C 
HETATM   19  C13 UNL     1      -4.783   1.202   0.675  1.00  0.00     0.037 C 
ENDBRANCH  10  14
BRANCH  12  20
HETATM   20  C15 UNL     1      -2.393  -2.523  -0.794  1.00  0.00     0.289 C 
HETATM   21  F1  UNL     1      -2.885  -3.369   0.161  1.00  0.00    -0.248 F 
ENDBRANCH  12  20
ENDBRANCH   6   8
BRANCH   1  22
HETATM   22  N1  UNL     1       4.318   1.692   0.225  1.00  0.00    -0.366 N 
ATOM     23  H1  UNL     1       4.897   2.459   0.567  1.00  0.00     0.161 HD
BRANCH  22  24
HETATM   24  C4  UNL     1       4.881   0.535  -0.362  1.00  0.00     0.158 C 
BRANCH  24  25
HETATM   25  C2  UNL     1       5.891  -0.247   0.359  1.00  0.00     0.066 C 
HETATM   26  C1  UNL     1       7.252   0.411   0.544  1.00  0.00     0.047 C 
HETATM   27  C3  UNL     1       6.206  -1.530  -0.451  1.00  0.00     0.047 C 
BRANCH  25  28
HETATM   28  O1  UNL     1       5.451  -0.758   1.559  1.00  0.00    -0.389 OA
ATOM     29  H1  UNL     1       4.602  -1.168   1.444  1.00  0.00     0.210 HD
ENDBRANCH  25  28
ENDBRANCH  24  25
ENDBRANCH  22  24
ENDBRANCH   1  22
TORSDOF 7
