REMARK  6 active torsions:
REMARK  status: ('A' for Active; 'I' for Inactive)
REMARK    1  A    between atoms: C3_3  and  O1_4 
REMARK    2  A    between atoms: O1_4  and  C4_5 
REMARK    3  A    between atoms: C4_5  and  C5_6 
REMARK    4  A    between atoms: C7_8  and  O2_9 
REMARK    5  A    between atoms: N1_11  and  C8_12 
REMARK    6  A    between atoms: C11_16  and  N2_17 
ROOT
HETATM    1  C1  UNL     1       8.246   1.703   0.734  1.00  0.00     0.014 C 
HETATM    2  C2  UNL     1       7.291   1.015   0.493  1.00  0.00    -0.091 C 
HETATM    3  C3  UNL     1       6.113   0.171   0.175  1.00  0.00     0.260 C 
ENDROOT
BRANCH   3   4
HETATM    4  O1  UNL     1       5.480   0.756  -0.890  1.00  0.00    -0.375 OA
BRANCH   4   5
HETATM    5  C4  UNL     1       4.344   0.123  -1.305  1.00  0.00     0.210 C 
BRANCH   5   6
HETATM    6  C5  UNL     1       3.236   0.241  -0.325  1.00  0.00     0.008 A 
HETATM    7  C6  UNL     1       3.136   0.952   0.846  1.00  0.00     0.069 A 
HETATM    8  C7  UNL     1       1.862   0.772   1.377  1.00  0.00     0.150 A 
HETATM    9  N1  UNL     1       1.172  -0.033   0.558  1.00  0.00    -0.262 N 
HETATM   10  C16 UNL     1       1.973  -0.361  -0.464  1.00  0.00     0.133 A 
HETATM   11  C17 UNL     1       1.637  -1.206  -1.571  1.00  0.00     0.119 C 
HETATM   12  N4  UNL     1       1.348  -1.895  -2.459  1.00  0.00    -0.190 NA
BRANCH   8  13
HETATM   13  O2  UNL     1       1.385   1.335   2.559  1.00  0.00    -0.346 OA
ATOM     14  H2  UNL     1       0.515   1.212   2.921  1.00  0.00     0.219 HD
ENDBRANCH   8  13
BRANCH   9  15
HETATM   15  C8  UNL     1      -0.191  -0.481   0.724  1.00  0.00     0.161 A 
HETATM   16  C9  UNL     1      -0.524  -1.652   1.348  1.00  0.00     0.085 A 
HETATM   17  C10 UNL     1      -1.902  -1.703   1.296  1.00  0.00     0.089 A 
HETATM   18 CL1  UNL     1      -2.854  -3.008   1.950  1.00  0.00    -0.080 Cl
HETATM   19  C11 UNL     1      -2.362  -0.580   0.653  1.00  0.00     0.170 A 
HETATM   20  O3  UNL     1      -1.268   0.129   0.328  1.00  0.00    -0.275 OA
BRANCH  19  21
HETATM   21  N2  UNL     1      -3.668  -0.142   0.337  1.00  0.00    -0.357 N 
HETATM   22  C12 UNL     1      -3.837   1.129  -0.412  1.00  0.00     0.152 C 
HETATM   23  C13 UNL     1      -4.730   0.886  -1.597  1.00  0.00     0.252 C 
HETATM   24  N3  UNL     1      -5.898   0.097  -1.308  1.00  0.00    -0.072 N 
HETATM   25  C14 UNL     1      -5.533  -1.170  -0.692  1.00  0.00     0.252 C 
ATOM     26  H32 UNL     1      -6.569   0.613  -0.738  1.00  0.00     0.277 HD
ATOM     27  H31 UNL     1      -6.474  -0.041  -2.139  1.00  0.00     0.277 HD
HETATM   28  C15 UNL     1      -4.898  -0.791   0.660  1.00  0.00     0.152 C 
ENDBRANCH  19  21
ENDBRANCH   9  15
ENDBRANCH   5   6
ENDBRANCH   4   5
ENDBRANCH   3   4
TORSDOF 6
