REMARK  1 active torsions:
REMARK  status: ('A' for Active; 'I' for Inactive)
REMARK    1  A    between atoms: N1_7  and  O1_9 
ROOT
HETATM    1  C1  UNL     1      -1.451  -0.435  -1.481  1.00  0.00     0.017 C 
HETATM    2  C2  UNL     1      -0.992  -0.007  -0.099  1.00  0.00    -0.025 C 
HETATM    3  C3  UNL     1      -2.165   0.686   0.607  1.00  0.00     0.017 C 
HETATM    4  C4  UNL     1       0.099   1.037  -0.214  1.00  0.00     0.019 C 
HETATM    5  C5  UNL     1       1.378   0.341  -0.700  1.00  0.00     0.087 C 
HETATM    6  C6  UNL     1       1.794  -0.528   0.432  1.00  0.00     0.137 C 
HETATM    7  N1  UNL     1       3.025  -0.814   0.629  1.00  0.00    -0.251 N 
ATOM      8  H1  UNL     1       3.271  -1.414   1.416  1.00  0.00     0.196 HD
HETATM    9  O2  UNL     1       0.777  -1.000   1.246  1.00  0.00    -0.337 OA
HETATM   10  C7  UNL     1      -0.539  -1.159   0.736  1.00  0.00     0.185 C 
ENDROOT
BRANCH   7  11
HETATM   11  O1  UNL     1       4.027  -0.342  -0.181  1.00  0.00    -0.288 OA
ATOM     12  H1  UNL     1       4.941  -0.554  -0.035  1.00  0.00     0.244 HD
ENDBRANCH   7  11
TORSDOF 1
