REMARK  1 active torsions:
REMARK  status: ('A' for Active; 'I' for Inactive)
REMARK    1  A    between atoms: N1_8  and  O1_9 
ROOT
HETATM    1  C1  UNL     1       2.091  -0.634   1.010  1.00  0.00     0.052 C 
HETATM    2  C2  UNL     1       1.130  -0.117  -0.047  1.00  0.00     0.099 C 
HETATM    3  C3  UNL     1       1.788   0.700  -1.122  1.00  0.00     0.052 C 
HETATM    4  S1  UNL     1       0.128  -1.436  -0.825  1.00  0.00    -0.104 SA
HETATM    5  C4  UNL     1      -1.102  -0.389  -0.030  1.00  0.00     0.099 C 
HETATM    6  C5  UNL     1      -1.962   0.428  -0.951  1.00  0.00     0.052 C 
HETATM    7  C6  UNL     1      -1.899  -1.183   0.968  1.00  0.00     0.052 C 
HETATM    8  N1  UNL     1      -0.051   0.386   0.540  1.00  0.00    -0.258 N 
ENDROOT
BRANCH   8   9
HETATM    9  O1  UNL     1      -0.218   1.674   0.717  1.00  0.00    -0.289 OA
ATOM     10  H1  UNL     1      -1.013   2.013   1.112  1.00  0.00     0.244 HD
ENDBRANCH   8   9
TORSDOF 1
