REMARK  1 active torsions:
REMARK  status: ('A' for Active; 'I' for Inactive)
REMARK    1  A    between atoms: C8_12  and  O1_13 
ROOT
HETATM    1  C1  UNL     1      -3.090   0.577  -0.153  1.00  0.00     0.036 C 
HETATM    2  C2  UNL     1      -1.920   0.084   0.660  1.00  0.00     0.126 A 
HETATM    3  N1  UNL     1      -1.170   1.135   1.249  1.00  0.00    -0.333 N 
ATOM      4  H1  UNL     1      -1.582   1.831   1.871  1.00  0.00     0.180 HD
HETATM    5  N2  UNL     1       0.009   1.132   0.945  1.00  0.00    -0.328 N 
ATOM      6  H2  UNL     1       0.693   1.812   1.276  1.00  0.00     0.180 HD
HETATM    7  C3  UNL     1       0.301   0.069   0.079  1.00  0.00     0.073 A 
HETATM    8  C4  UNL     1       1.369  -0.866   0.598  1.00  0.00     0.035 C 
HETATM    9  C5  UNL     1       2.613  -0.052   0.435  1.00  0.00     0.003 C 
HETATM   10  C6  UNL     1       2.327   0.959  -0.665  1.00  0.00     0.003 C 
HETATM   11  C7  UNL     1       0.945   0.562  -1.202  1.00  0.00     0.035 C 
HETATM   12  C8  UNL     1      -0.947  -0.701  -0.156  1.00  0.00     0.171 A 
ENDROOT
BRANCH  12  13
HETATM   13  O1  UNL     1      -0.827  -2.020   0.325  1.00  0.00    -0.391 OA
ATOM     14  H1  UNL     1      -0.208  -2.520  -0.194  1.00  0.00     0.210 HD
ENDBRANCH  12  13
TORSDOF 1
