REMARK  1 active torsions:
REMARK  status: ('A' for Active; 'I' for Inactive)
REMARK    1  A    between atoms: N1_9  and  O1_10 
ROOT
HETATM    1  C1  UNL     1       2.241  -0.888   0.820  1.00  0.00     0.034 C 
HETATM    2  C2  UNL     1       1.130  -0.317  -0.065  1.00  0.00     0.032 C 
HETATM    3  C3  UNL     1       1.803   0.651  -1.012  1.00  0.00     0.034 C 
HETATM    4  C4  UNL     1       0.392  -1.414  -0.775  1.00  0.00     0.029 C 
HETATM    5  C5  UNL     1      -1.063  -1.188  -0.460  1.00  0.00     0.029 C 
HETATM    6  C6  UNL     1      -1.128   0.185   0.184  1.00  0.00     0.032 C 
HETATM    7  C7  UNL     1      -1.470   1.194  -0.865  1.00  0.00     0.034 C 
HETATM    8  C8  UNL     1      -2.222   0.238   1.243  1.00  0.00     0.034 C 
HETATM    9  N1  UNL     1       0.159   0.330   0.765  1.00  0.00    -0.182 NA
ENDROOT
BRANCH   9  10
HETATM   10  O1  UNL     1       0.488   1.574   1.124  1.00  0.00    -0.312 OA
ATOM     11  H1  UNL     1      -0.156   2.003   1.675  1.00  0.00     0.237 HD
ENDBRANCH   9  10
TORSDOF 1
