REMARK  0 active torsions:
REMARK  status: ('A' for Active; 'I' for Inactive)
ROOT
HETATM    1  C1  UNL     1       1.649   0.460   0.726  1.00  0.00     0.088 C 
HETATM    2  C2  UNL     1       1.273  -0.171  -0.595  1.00  0.00     0.045 C 
HETATM    3  C3  UNL     1      -0.144  -0.599  -0.680  1.00  0.00     0.202 A 
HETATM    4  N1  UNL     1      -0.605  -1.177   0.562  1.00  0.00    -0.069 N 
ATOM      5  H11 UNL     1       0.055  -1.352   1.320  1.00  0.00     0.277 HD
ATOM      6  H12 UNL     1      -0.899  -2.153   0.593  1.00  0.00     0.277 HD
HETATM    7  C4  UNL     1      -1.597  -0.110   0.688  1.00  0.00     0.251 A 
HETATM    8  C5  UNL     1      -1.171   0.439  -0.648  1.00  0.00     0.115 A 
HETATM    9  S1  UNL     1      -0.609   2.138  -0.634  1.00  0.00    -0.089 SA
HETATM   10  S2  UNL     1       1.166   2.225   0.572  1.00  0.00    -0.097 SA
ENDROOT
TORSDOF 0
