REMARK  1 active torsions:
REMARK  status: ('A' for Active; 'I' for Inactive)
REMARK    1  A    between atoms: C5_7  and  O1_8 
ROOT
HETATM    1  C1  UNL     1       2.420  -0.206  -0.190  1.00  0.00     0.025 C 
HETATM    2  C2  UNL     1       0.965  -0.416  -0.425  1.00  0.00     0.083 C 
HETATM    3  S1  UNL     1       0.557  -2.084   0.221  1.00  0.00    -0.091 SA
HETATM    4  S2  UNL     1      -1.270  -1.855   1.291  1.00  0.00    -0.097 SA
HETATM    5  C3  UNL     1      -2.193  -0.504   0.505  1.00  0.00     0.088 C 
HETATM    6  C4  UNL     1      -1.333   0.354  -0.367  1.00  0.00     0.044 C 
HETATM    7  C5  UNL     1       0.064   0.567   0.230  1.00  0.00     0.133 C 
ENDROOT
BRANCH   7   8
HETATM    8  O1  UNL     1       0.442   1.864  -0.183  1.00  0.00    -0.394 OA
ATOM      9  H1  UNL     1      -0.134   2.493   0.236  1.00  0.00     0.210 HD
ENDBRANCH   7   8
TORSDOF 1
