REMARK  11 active torsions:
REMARK  status: ('A' for Active; 'I' for Inactive)
REMARK    1  A    between atoms: C2_2  and  O1_3 
REMARK    2  A    between atoms: C2_2  and  C3_5 
REMARK    3  A    between atoms: C5_7  and  N1_8 
REMARK    4  A    between atoms: N1_8  and  C6_10 
REMARK    5  A    between atoms: C6_10  and  O2_11 
REMARK    6  A    between atoms: C6_10  and  C7_13 
REMARK    7  A    between atoms: C7_13  and  O3_14 
REMARK    8  A    between atoms: C7_13  and  C8_16 
REMARK    9  A    between atoms: C8_16  and  O4_17 
REMARK   10  A    between atoms: C8_16  and  C9_19 
REMARK   11  A    between atoms: N6_30  and  N7_31 
ROOT
HETATM    1  C6  UNL     1      -0.557  -1.025   0.241  1.00  0.00     0.251 C 
ENDROOT
BRANCH   1   2
HETATM    2  N1  UNL     1       0.760  -1.266   0.458  1.00  0.00    -0.346 N 
ATOM      3  H1  UNL     1       0.772  -2.276   0.602  1.00  0.00     0.163 HD
BRANCH   2   4
HETATM    4  C5  UNL     1       1.953  -0.971   0.582  1.00  0.00     0.133 A 
HETATM    5  C4  UNL     1       2.511   0.255   0.489  1.00  0.00     0.069 A 
HETATM    6  C3  UNL     1       3.871   0.346   0.682  1.00  0.00     0.033 A 
HETATM    7  S1  UNL     1       4.305  -1.275   0.994  1.00  0.00     0.009 SA
HETATM    8  N6  UNL     1       2.826  -1.994   0.866  1.00  0.00    -0.214 N 
BRANCH   6   9
HETATM    9  C2  UNL     1       4.819   1.506   0.640  1.00  0.00     0.155 C 
HETATM   10  C1  UNL     1       4.239   2.556  -0.298  1.00  0.00     0.045 C 
BRANCH   9  11
HETATM   11  O1  UNL     1       6.061   1.186   0.111  1.00  0.00    -0.391 OA
ATOM     12  H1  UNL     1       6.423   0.531   0.696  1.00  0.00     0.210 HD
ENDBRANCH   9  11
ENDBRANCH   6   9
BRANCH   8  13
HETATM   13  N7  UNL     1       2.448  -3.358   1.018  1.00  0.00    -0.331 N 
ATOM     14  H72 UNL     1       1.533  -3.803   0.939  1.00  0.00     0.178 HD
ATOM     15  H71 UNL     1       3.096  -4.117   1.229  1.00  0.00     0.178 HD
ENDBRANCH   8  13
ENDBRANCH   2   4
ENDBRANCH   1   2
BRANCH   1  16
HETATM   16  O2  UNL     1      -0.785   0.382   0.625  1.00  0.00    -0.374 OA
ATOM     17  H2  UNL     1      -1.707   0.551   0.473  1.00  0.00     0.212 HD
ENDBRANCH   1  16
BRANCH   1  18
HETATM   18  C7  UNL     1      -0.968  -1.100  -1.186  1.00  0.00     0.201 C 
BRANCH  18  19
HETATM   19  O3  UNL     1      -0.679  -2.285  -1.837  1.00  0.00    -0.388 OA
ATOM     20  H3  UNL     1      -0.942  -2.333  -2.749  1.00  0.00     0.210 HD
ENDBRANCH  18  19
BRANCH  18  21
HETATM   21  C8  UNL     1      -2.417  -0.793  -1.491  1.00  0.00     0.205 C 
BRANCH  21  22
HETATM   22  O4  UNL     1      -3.014  -2.187  -1.226  1.00  0.00    -0.387 OA
ATOM     23  H4  UNL     1      -3.924  -1.994  -1.418  1.00  0.00     0.210 HD
ENDBRANCH  21  22
BRANCH  21  24
HETATM   24  C9  UNL     1      -3.168  -0.019  -0.492  1.00  0.00     0.099 A 
HETATM   25  N2  UNL     1      -3.664  -0.366   0.720  1.00  0.00    -0.190 N 
HETATM   26  C10 UNL     1      -4.466   0.611   1.154  1.00  0.00     0.677 A 
ATOM     27  H2  UNL     1      -3.459  -1.231   1.220  1.00  0.00     0.184 HD
HETATM   28  N3  UNL     1      -5.162   0.635   2.272  1.00  0.00    -0.234 N 
HETATM   29  N4  UNL     1      -4.498   1.603   0.247  1.00  0.00    -0.177 N 
ATOM     30  H32 UNL     1      -5.138  -0.118   2.960  1.00  0.00     0.174 HD
ATOM     31  H31 UNL     1      -5.774   1.381   2.603  1.00  0.00     0.174 HD
HETATM   32  C11 UNL     1      -3.716   1.249  -0.775  1.00  0.00     0.157 A 
ATOM     33  H4  UNL     1      -5.026   2.472   0.326  1.00  0.00     0.185 HD
HETATM   34  N5  UNL     1      -3.394   2.026  -1.898  1.00  0.00    -0.080 NA
ENDBRANCH  21  24
ENDBRANCH  18  21
ENDBRANCH   1  18
TORSDOF 11
