REMARK  9 active torsions:
REMARK  status: ('A' for Active; 'I' for Inactive)
REMARK    1  A    between atoms: C5_11  and  N4_12 
REMARK    2  A    between atoms: C5_11  and  C6_16 
REMARK    3  A    between atoms: C6_16  and  N5_17 
REMARK    4  A    between atoms: C7_24  and  C8_25 
REMARK    5  A    between atoms: C8_25  and  S1_26 
REMARK    6  A    between atoms: S1_26  and  C9_27 
REMARK    7  A    between atoms: C10_32  and  C11_33 
REMARK    8  A    between atoms: C11_33  and  N9_34 
REMARK    9  A    between atoms: C11_33  and  N10_38 
ROOT
HETATM    1  C1  UNL     1      -1.788  -3.015   0.718  1.00  0.00     0.175 C 
HETATM    2  N1  UNL     1      -2.698  -1.910   0.537  1.00  0.00    -0.187 N 
HETATM    3  C2  UNL     1      -2.360  -0.610   0.497  1.00  0.00     0.087 A 
HETATM    4  C3  UNL     1      -3.500   0.144   0.309  1.00  0.00     0.117 A 
HETATM    5  N2  UNL     1      -4.523  -0.726   0.236  1.00  0.00    -0.189 N 
ATOM      6  H2  UNL     1      -5.506  -0.489   0.099  1.00  0.00     0.184 HD
HETATM    7  C4  UNL     1      -4.013  -1.976   0.378  1.00  0.00     0.678 A 
HETATM    8  N3  UNL     1      -4.743  -3.040   0.354  1.00  0.00    -0.234 N 
ATOM      9  H31 UNL     1      -5.754  -3.091   0.232  1.00  0.00     0.174 HD
ATOM     10  H32 UNL     1      -4.360  -3.979   0.461  1.00  0.00     0.174 HD
HETATM   11  C5  UNL     1      -3.098   1.571   0.269  1.00  0.00     0.352 C 
HETATM   12  N6  UNL     1      -1.721   1.449  -0.235  1.00  0.00    -0.023 N 
ATOM     13  H61 UNL     1      -1.160   2.300  -0.200  1.00  0.00     0.281 HD
ATOM     14  H62 UNL     1      -1.629   1.328  -1.244  1.00  0.00     0.281 HD
HETATM   15  C7  UNL     1      -1.241   0.346   0.577  1.00  0.00     0.251 C 
ENDROOT
BRANCH  15  16
HETATM   16  C8  UNL     1       0.058  -0.213   0.059  1.00  0.00     0.122 C 
BRANCH  16  17
HETATM   17  S1  UNL     1       1.311   1.089   0.233  1.00  0.00    -0.090 SA
BRANCH  17  18
HETATM   18  C9  UNL     1       2.908   0.549  -0.349  1.00  0.00     0.160 A 
HETATM   19  N7  UNL     1       3.337   0.694  -1.615  1.00  0.00    -0.278 N 
HETATM   20  N8  UNL     1       4.566   0.184  -1.703  1.00  0.00    -0.284 N 
ATOM     21  H7  UNL     1       2.812   1.121  -2.378  1.00  0.00     0.189 HD
HETATM   22  C10 UNL     1       4.951  -0.295  -0.506  1.00  0.00     0.156 A 
ATOM     23  H8  UNL     1       5.131   0.160  -2.552  1.00  0.00     0.188 HD
HETATM   24  N11 UNL     1       3.904  -0.055   0.313  1.00  0.00    -0.321 N 
ATOM     25  H11 UNL     1       3.875  -0.301   1.303  1.00  0.00     0.169 HD
BRANCH  22  26
HETATM   26  C11 UNL     1       6.235  -0.931  -0.202  1.00  0.00     0.446 C 
BRANCH  26  27
HETATM   27  N9  UNL     1       6.826  -0.451   1.032  1.00  0.00    -0.043 N 
ATOM     28  H93 UNL     1       6.916   0.565   1.022  1.00  0.00     0.277 HD
ATOM     29  H92 UNL     1       6.176  -0.553   1.811  1.00  0.00     0.277 HD
ATOM     30  H91 UNL     1       7.720  -0.894   1.244  1.00  0.00     0.277 HD
ENDBRANCH  26  27
BRANCH  26  31
HETATM   31  N10 UNL     1       7.169  -0.668  -1.262  1.00  0.00    -0.043 N 
ATOM     32 3H10 UNL     1       6.806  -0.951  -2.172  1.00  0.00     0.277 HD
ATOM     33 2H10 UNL     1       7.269   0.330  -1.447  1.00  0.00     0.277 HD
ATOM     34 1H10 UNL     1       8.063  -1.111  -1.050  1.00  0.00     0.277 HD
ENDBRANCH  26  31
ENDBRANCH  22  26
ENDBRANCH  17  18
ENDBRANCH  16  17
ENDBRANCH  15  16
BRANCH  11  35
HETATM   35  N4  UNL     1      -3.048   2.074   1.606  1.00  0.00    -0.037 N 
ATOM     36  H43 UNL     1      -3.923   1.930   2.109  1.00  0.00     0.277 HD
ATOM     37  H42 UNL     1      -2.444   1.516   2.210  1.00  0.00     0.277 HD
ATOM     38  H41 UNL     1      -2.772   3.055   1.578  1.00  0.00     0.277 HD
ENDBRANCH  11  35
BRANCH  11  39
HETATM   39  C6  UNL     1      -3.933   2.386  -0.666  1.00  0.00     0.305 C 
BRANCH  39  40
HETATM   40  N5  UNL     1      -3.447   3.753  -0.617  1.00  0.00    -0.075 N 
ATOM     41  H53 UNL     1      -3.427   4.133   0.330  1.00  0.00     0.274 HD
ATOM     42  H52 UNL     1      -2.449   3.825  -0.812  1.00  0.00     0.274 HD
ATOM     43  H51 UNL     1      -4.017   4.309  -1.255  1.00  0.00     0.274 HD
ENDBRANCH  39  40
ENDBRANCH  11  39
TORSDOF 9
