REMARK  5 active torsions:
REMARK  status: ('A' for Active; 'I' for Inactive)
REMARK    1  A    between atoms: N1_1  and  C1_4 
REMARK       I    between atoms: N3_11  and  C5_13 
REMARK       I    between atoms: C5_13  and  N4_14 
REMARK       I    between atoms: C5_13  and  N5_18 
REMARK    2  A    between atoms: C7_24  and  N7_25 
REMARK    3  A    between atoms: N7_25  and  C8_27 
REMARK    4  A    between atoms: N9_34  and  C12_35 
REMARK    5  A    between atoms: C12_35  and  O2_36 
ROOT
HETATM    1  C1  UNL     1      -3.516   2.914  -0.834  1.00  0.00     0.680 A 
HETATM    2  N2  UNL     1      -4.236   1.925  -0.332  1.00  0.00    -0.155 N 
ATOM      3  H2  UNL     1      -5.254   1.978  -0.315  1.00  0.00     0.187 HD
HETATM    4  C2  UNL     1      -3.592   0.841   0.159  1.00  0.00     0.276 A 
HETATM    5  O1  UNL     1      -4.352  -0.061   0.619  1.00  0.00    -0.267 OA
HETATM    6  C3  UNL     1      -2.222   0.723   0.160  1.00  0.00     0.106 A 
HETATM    7  C4  UNL     1      -1.611  -0.410   0.658  1.00  0.00     0.079 A 
HETATM    8  N3  UNL     1      -2.315  -1.307   1.123  1.00  0.00    -0.338 N 
ATOM      9  H3  UNL     1      -3.298  -1.043   1.055  1.00  0.00     0.163 HD
HETATM   10  C5  UNL     1      -2.206  -2.560   1.709  1.00  0.00     0.480 C 
HETATM   11  N4  UNL     1      -3.397  -2.804   2.565  1.00  0.00    -0.033 N 
ATOM     12  H41 UNL     1      -3.317  -3.725   2.996  1.00  0.00     0.278 HD
ATOM     13  H42 UNL     1      -4.272  -2.691   2.053  1.00  0.00     0.278 HD
ATOM     14  H43 UNL     1      -3.537  -2.065   3.254  1.00  0.00     0.278 HD
HETATM   15  N5  UNL     1      -2.200  -3.684   0.795  1.00  0.00    -0.033 N 
ATOM     16  H51 UNL     1      -2.120  -4.605   1.226  1.00  0.00     0.278 HD
ATOM     17  H52 UNL     1      -1.466  -3.561   0.098  1.00  0.00     0.278 HD
ATOM     18  H53 UNL     1      -3.026  -3.650   0.197  1.00  0.00     0.278 HD
HETATM   19  C6  UNL     1      -0.219  -0.424   0.589  1.00  0.00     0.117 A 
HETATM   20  N6  UNL     1       0.418  -1.555   1.140  1.00  0.00    -0.096 NA
HETATM   21  C7  UNL     1       0.534   0.610   0.063  1.00  0.00     0.134 A 
HETATM   22  N9  UNL     1      -0.139   1.718  -0.416  1.00  0.00    -0.294 N 
HETATM   23  C13 UNL     1      -1.487   1.769  -0.369  1.00  0.00     0.144 A 
HETATM   24  N10 UNL     1      -2.157   2.847  -0.857  1.00  0.00    -0.175 N 
ATOM     25  H10 UNL     1      -1.628   3.625  -1.250  1.00  0.00     0.186 HD
ENDROOT
BRANCH  21  26
HETATM   26  N7  UNL     1       1.931   0.553  -0.080  1.00  0.00    -0.368 N 
ATOM     27  H7  UNL     1       2.344   1.432  -0.392  1.00  0.00     0.161 HD
BRANCH  26  28
HETATM   28  C8  UNL     1       2.881  -0.475   0.121  1.00  0.00     0.110 C 
HETATM   29  C9  UNL     1       2.988  -1.502  -0.971  1.00  0.00     0.054 C 
HETATM   30  C10 UNL     1       4.346  -2.137  -0.617  1.00  0.00     0.234 C 
HETATM   31  N8  UNL     1       5.154  -0.967  -0.431  1.00  0.00    -0.073 N 
HETATM   32  C11 UNL     1       4.330   0.099   0.031  1.00  0.00     0.257 C 
ATOM     33  H82 UNL     1       5.949  -1.138   0.185  1.00  0.00     0.277 HD
ATOM     34  H81 UNL     1       5.676  -0.718  -1.271  1.00  0.00     0.277 HD
ENDBRANCH  26  28
ENDBRANCH  21  26
BRANCH  22  35
HETATM   35  C12 UNL     1       0.565   2.861  -0.928  1.00  0.00     0.298 C 
BRANCH  35  36
HETATM   36  O2  UNL     1       0.823   2.770  -2.290  1.00  0.00    -0.382 OA
ATOM     37  H2  UNL     1       1.288   3.526  -2.629  1.00  0.00     0.211 HD
ENDBRANCH  35  36
ENDBRANCH  22  35
BRANCH   1  38
HETATM   38  N1  UNL     1      -4.139   3.952  -1.304  1.00  0.00    -0.234 N 
ATOM     39  H12 UNL     1      -5.158   4.002  -1.287  1.00  0.00     0.174 HD
ATOM     40  H11 UNL     1      -3.584   4.715  -1.691  1.00  0.00     0.174 HD
ENDBRANCH   1  38
TORSDOF 5
