REMARK  10 active torsions:
REMARK  status: ('A' for Active; 'I' for Inactive)
REMARK    1  A    between atoms: C2_2  and  C3_3 
REMARK    2  A    between atoms: C2_2  and  N1_6 
REMARK    3  A    between atoms: C3_3  and  O1_4 
REMARK    4  A    between atoms: N1_6  and  C4_9 
REMARK    5  A    between atoms: C4_9  and  C5_10 
REMARK    6  A    between atoms: C7_16  and  N4_17 
REMARK    7  A    between atoms: C8_20  and  N5_21 
REMARK    8  A    between atoms: N8_29  and  C12_31 
REMARK    9  A    between atoms: C12_31  and  N9_32 
REMARK   10  A    between atoms: C12_31  and  O2_36 
ROOT
HETATM    1  C5  UNL     1       0.451  -0.408  -0.051  1.00  0.00     0.110 A 
HETATM    2  N2  UNL     1       0.388   0.929  -0.119  1.00  0.00    -0.329 N 
ATOM      3  H2  UNL     1       1.232   1.472  -0.302  1.00  0.00     0.168 HD
HETATM    4  C6  UNL     1      -0.790   1.553   0.055  1.00  0.00     0.140 A 
HETATM    5  N3  UNL     1      -0.834   2.899  -0.015  1.00  0.00    -0.324 N 
ATOM      6  H3  UNL     1       0.026   3.415  -0.199  1.00  0.00     0.169 HD
HETATM    7  C7  UNL     1      -1.965   3.568   0.149  1.00  0.00     0.146 A 
HETATM    8  C8  UNL     1      -3.092   2.818   0.392  1.00  0.00     0.160 A 
HETATM    9  N6  UNL     1      -3.088   1.456   0.471  1.00  0.00    -0.223 N 
HETATM   10  C9  UNL     1      -4.308   0.802   0.734  1.00  0.00     0.191 C 
HETATM   11  N7  UNL     1      -5.343   0.312   0.966  1.00  0.00    -0.171 NA
HETATM   12  C10 UNL     1      -1.955   0.799   0.306  1.00  0.00     0.139 A 
HETATM   13  C11 UNL     1      -1.885  -0.577   0.377  1.00  0.00     0.138 A 
HETATM   14  N8  UNL     1      -2.872  -1.302   0.551  1.00  0.00    -0.326 N 
ATOM     15  H8  UNL     1      -3.724  -0.747   0.631  1.00  0.00     0.165 HD
HETATM   16  N10 UNL     1      -0.654  -1.136   0.193  1.00  0.00    -0.329 N 
ATOM     17  H10 UNL     1      -0.568  -2.151   0.243  1.00  0.00     0.168 HD
ENDROOT
BRANCH   8  18
HETATM   18  N5  UNL     1      -4.223   3.417   0.548  1.00  0.00    -0.381 N 
ATOM     19  H52 UNL     1      -4.226   4.435   0.489  1.00  0.00     0.157 HD
ATOM     20  H51 UNL     1      -5.059   2.861   0.728  1.00  0.00     0.157 HD
ENDBRANCH   8  18
BRANCH   7  21
HETATM   21  N4  UNL     1      -1.971   4.851   0.084  1.00  0.00    -0.382 N 
ATOM     22  H42 UNL     1      -1.135   5.407  -0.096  1.00  0.00     0.157 HD
ATOM     23  H41 UNL     1      -2.842   5.366   0.210  1.00  0.00     0.157 HD
ENDBRANCH   7  21
BRANCH  14  24
HETATM   24  C12 UNL     1      -3.149  -2.662   0.669  1.00  0.00     0.425 C 
BRANCH  24  25
HETATM   25  N9  UNL     1      -2.404  -3.621  -0.077  1.00  0.00    -0.035 N 
ATOM     26  H93 UNL     1      -2.457  -3.369  -1.064  1.00  0.00     0.279 HD
ATOM     27  H92 UNL     1      -1.413  -3.479   0.120  1.00  0.00     0.279 HD
ATOM     28  H91 UNL     1      -2.607  -4.617   0.009  1.00  0.00     0.279 HD
ENDBRANCH  24  25
BRANCH  24  29
HETATM   29  O2  UNL     1      -4.495  -2.866   0.215  1.00  0.00    -0.355 OA
ATOM     30  H2  UNL     1      -4.684  -3.794   0.295  1.00  0.00     0.213 HD
ENDBRANCH  24  29
ENDBRANCH  14  24
BRANCH   1  31
HETATM   31  C4  UNL     1       1.783  -1.033  -0.352  1.00  0.00     0.309 C 
BRANCH  31  32
HETATM   32  N1  UNL     1       2.827  -0.049  -0.278  1.00  0.00    -0.063 N 
ATOM     33  H12 UNL     1       2.942   0.276   0.682  1.00  0.00     0.278 HD
ATOM     34  H11 UNL     1       2.529   0.819  -0.722  1.00  0.00     0.278 HD
BRANCH  32  35
HETATM   35  C2  UNL     1       4.072  -0.473  -0.808  1.00  0.00     0.205 C 
HETATM   36  C1  UNL     1       4.468   0.599  -1.844  1.00  0.00     0.042 C 
BRANCH  35  37
HETATM   37  C3  UNL     1       5.169  -0.601   0.203  1.00  0.00     0.196 C 
BRANCH  37  38
HETATM   38  O1  UNL     1       4.794  -1.534   1.189  1.00  0.00    -0.399 OA
ATOM     39  H1  UNL     1       5.490  -1.615   1.830  1.00  0.00     0.209 HD
ENDBRANCH  37  38
ENDBRANCH  35  37
ENDBRANCH  32  35
ENDBRANCH  31  32
ENDBRANCH   1  31
TORSDOF 10
