REMARK  9 active torsions:
REMARK  status: ('A' for Active; 'I' for Inactive)
REMARK       I    between atoms: C1_4  and  N2_5 
REMARK       I    between atoms: C1_4  and  N3_12 
REMARK    1  A    between atoms: N2_5  and  C2_7 
REMARK    2  A    between atoms: C2_7  and  C3_8 
REMARK    3  A    between atoms: C3_8  and  C4_9 
REMARK    4  A    between atoms: C4_9  and  C5_10 
REMARK    5  A    between atoms: C9_16  and  C10_17 
REMARK    6  A    between atoms: C10_17  and  N4_18 
REMARK    7  A    between atoms: N4_18  and  C11_20 
REMARK    8  A    between atoms: C11_20  and  N5_22 
REMARK    9  A    between atoms: N5_22  and  C12_24 
ROOT
HETATM    1  N1  UNL     1       1.695   1.921  -0.596  1.00  0.00    -0.235 N 
ATOM      2  H11 UNL     1       0.810   2.417  -0.705  1.00  0.00     0.174 HD
ATOM      3  H12 UNL     1       2.553   2.406  -0.859  1.00  0.00     0.174 HD
HETATM    4  C1  UNL     1       1.640   0.750  -0.149  1.00  0.00     0.670 C 
HETATM    5  N2  UNL     1       2.895   0.047   0.006  1.00  0.00    -0.227 N 
ATOM      6  H2  UNL     1       2.886  -0.955   0.197  1.00  0.00     0.177 HD
HETATM    7  N3  UNL     1       0.459   0.082   0.213  1.00  0.00    -0.209 N 
HETATM    8  C6  UNL     1      -0.218   0.243   1.509  1.00  0.00     0.142 C 
HETATM    9  C7  UNL     1      -0.364  -1.249   1.847  1.00  0.00     0.023 C 
HETATM   10  C8  UNL     1      -0.853  -1.836   0.565  1.00  0.00     0.033 C 
HETATM   11  C9  UNL     1      -0.213  -0.921  -0.522  1.00  0.00     0.140 C 
ENDROOT
BRANCH  11  12
HETATM   12  C10 UNL     1      -1.190  -0.664  -1.579  1.00  0.00     0.089 C 
BRANCH  12  13
HETATM   13  N4  UNL     1      -2.392  -0.011  -1.289  1.00  0.00    -0.345 N 
ATOM     14  H4  UNL     1      -3.177  -0.661  -1.246  1.00  0.00     0.167 HD
BRANCH  13  15
HETATM   15  C11 UNL     1      -2.791   1.301  -1.044  1.00  0.00     0.171 C 
HETATM   16  S1  UNL     1      -1.813   2.577  -1.138  1.00  0.00    -0.041 SA
BRANCH  15  17
HETATM   17  N5  UNL     1      -4.166   1.572  -0.740  1.00  0.00    -0.362 N 
ATOM     18  H5  UNL     1      -4.478   2.526  -0.559  1.00  0.00     0.162 HD
BRANCH  17  19
HETATM   19  C12 UNL     1      -5.090   0.489  -0.694  1.00  0.00     0.083 C 
HETATM   20  C13 UNL     1      -6.529   0.922  -0.362  1.00  0.00     0.025 C 
HETATM   21  C14 UNL     1      -6.650  -0.428   0.356  1.00  0.00     0.004 C 
HETATM   22  C15 UNL     1      -5.148  -0.275   0.634  1.00  0.00     0.025 C 
ENDBRANCH  17  19
ENDBRANCH  15  17
ENDBRANCH  13  15
ENDBRANCH  12  13
ENDBRANCH  11  12
BRANCH   5  23
HETATM   23  C2  UNL     1       4.156   0.731  -0.104  1.00  0.00     0.138 C 
BRANCH  23  24
HETATM   24  C3  UNL     1       5.278  -0.250   0.130  1.00  0.00     0.021 C 
BRANCH  24  25
HETATM   25  C4  UNL     1       6.636   0.443   0.019  1.00  0.00     0.012 C 
BRANCH  25  26
HETATM   26  C5  UNL     1       7.734  -0.543   0.256  1.00  0.00     0.085 C 
HETATM   27 BR1  UNL     1       9.420   0.409   0.102  1.00  0.00    -0.097 Br
ENDBRANCH  25  26
ENDBRANCH  24  25
ENDBRANCH  23  24
ENDBRANCH   5  23
TORSDOF 9
