REMARK  11 active torsions:
REMARK  status: ('A' for Active; 'I' for Inactive)
REMARK    1  A    between atoms: C1_4  and  O1_5 
REMARK    2  A    between atoms: C1_4  and  N2_7 
REMARK    3  A    between atoms: N2_7  and  C2_9 
REMARK    4  A    between atoms: C2_9  and  C3_10 
REMARK    5  A    between atoms: C6_13  and  C7_14 
REMARK    6  A    between atoms: C7_14  and  N3_15 
REMARK    7  A    between atoms: N3_15  and  C8_17 
REMARK    8  A    between atoms: C8_17  and  N4_19 
REMARK    9  A    between atoms: N4_19  and  C9_20 
REMARK   10  A    between atoms: N4_19  and  C11_23 
REMARK   11  A    between atoms: C9_20  and  C10_21 
ROOT
HETATM    1  C3  UNL     1       3.466   0.708  -0.727  1.00  0.00     0.073 C 
HETATM    2  C4  UNL     1       3.106  -0.270   0.348  1.00  0.00     0.014 C 
HETATM    3  C5  UNL     1       1.580  -0.071   0.427  1.00  0.00     0.014 C 
HETATM    4  C6  UNL     1       1.167  -0.013  -1.029  1.00  0.00     0.073 C 
HETATM    5  C15 UNL     1       2.393   0.463  -1.751  1.00  0.00     0.138 C 
HETATM    6  O2  UNL     1       2.548   0.636  -2.926  1.00  0.00    -0.297 OA
ENDROOT
BRANCH   4   7
HETATM    7  C7  UNL     1       0.108   1.015  -1.273  1.00  0.00     0.134 C 
BRANCH   7   8
HETATM    8  N3  UNL     1      -1.125   0.796  -0.532  1.00  0.00    -0.366 N 
ATOM      9  H3  UNL     1      -1.336   1.432   0.237  1.00  0.00     0.161 HD
BRANCH   8  10
HETATM   10  C8  UNL     1      -2.040  -0.226  -0.802  1.00  0.00     0.170 C 
HETATM   11  S1  UNL     1      -1.640  -1.220  -2.094  1.00  0.00    -0.041 SA
BRANCH  10  12
HETATM   12  N4  UNL     1      -3.261  -0.481  -0.115  1.00  0.00    -0.353 N 
BRANCH  12  13
HETATM   13  C9  UNL     1      -3.998  -1.617  -0.564  1.00  0.00     0.136 C 
BRANCH  13  14
HETATM   14  C10 UNL     1      -3.786  -2.868   0.223  1.00  0.00     0.105 C 
HETATM   15 BR1  UNL     1      -4.212  -2.742   2.055  1.00  0.00    -0.095 Br
ENDBRANCH  13  14
ENDBRANCH  12  13
BRANCH  12  16
HETATM   16  C11 UNL     1      -3.642   0.347   0.980  1.00  0.00     0.086 C 
HETATM   17  C12 UNL     1      -3.718   1.826   0.665  1.00  0.00     0.025 C 
HETATM   18  C13 UNL     1      -5.178   1.804   0.900  1.00  0.00     0.004 C 
HETATM   19  C14 UNL     1      -5.081   0.396   1.392  1.00  0.00     0.025 C 
ENDBRANCH  12  16
ENDBRANCH  10  12
ENDBRANCH   8  10
ENDBRANCH   7   8
ENDBRANCH   4   7
BRANCH   1  20
HETATM   20  C2  UNL     1       4.821   0.468  -1.277  1.00  0.00     0.135 C 
BRANCH  20  21
HETATM   21  N2  UNL     1       5.850   0.594  -0.319  1.00  0.00    -0.356 N 
ATOM     22  H2  UNL     1       6.467   1.400  -0.422  1.00  0.00     0.163 HD
BRANCH  21  23
HETATM   23  C1  UNL     1       6.123  -0.266   0.763  1.00  0.00     0.210 C 
HETATM   24  N1  UNL     1       6.507   0.236   1.918  1.00  0.00    -0.366 N 
ATOM     25  H12 UNL     1       6.705  -0.387   2.701  1.00  0.00     0.159 HD
ATOM     26  H11 UNL     1       6.585   1.252   1.960  1.00  0.00     0.159 HD
BRANCH  23  27
HETATM   27  O1  UNL     1       6.018  -1.641   0.706  1.00  0.00    -0.333 OA
ATOM     28  H1  UNL     1       5.741  -2.003  -0.127  1.00  0.00     0.220 HD
ENDBRANCH  23  27
ENDBRANCH  21  23
ENDBRANCH  20  21
ENDBRANCH   1  20
TORSDOF 11
