REMARK  9 active torsions:
REMARK  status: ('A' for Active; 'I' for Inactive)
REMARK    1  A    between atoms: C3_3  and  O1_4 
REMARK    2  A    between atoms: C4_6  and  C5_7 
REMARK    3  A    between atoms: C5_7  and  C6_8 
REMARK    4  A    between atoms: C8_12  and  C9_13 
REMARK    5  A    between atoms: C9_13  and  C10_14 
REMARK    6  A    between atoms: C10_14  and  C11_15 
REMARK    7  A    between atoms: C11_15  and  C12_16 
REMARK    8  A    between atoms: C12_16  and  C13_17 
REMARK    9  A    between atoms: C18_24  and  O2_26 
ROOT
HETATM    1  C1  UNL     1      -5.003   2.789   0.167  1.00  0.00     0.015 C 
HETATM    2  C2  UNL     1      -4.647   1.720  -0.207  1.00  0.00    -0.075 C 
HETATM    3  C3  UNL     1      -4.221   0.428  -0.684  1.00  0.00     0.155 C 
HETATM    4  C4  UNL     1      -2.733   0.403  -0.990  1.00  0.00     0.042 C 
HETATM    5  C16 UNL     1      -2.444  -1.065  -1.014  1.00  0.00     0.028 C 
HETATM    6  C17 UNL     1      -3.538  -1.775  -0.252  1.00  0.00     0.096 C 
HETATM    7 BR1  UNL     1      -2.767  -2.724   1.233  1.00  0.00    -0.088 Br
HETATM    8  C18 UNL     1      -4.436  -0.687   0.301  1.00  0.00     0.110 C 
HETATM    9  C19 UNL     1      -5.908  -1.090   0.186  1.00  0.00     0.051 C 
ENDROOT
BRANCH   3  10
HETATM   10  O1  UNL     1      -4.867   0.052  -1.876  1.00  0.00    -0.374 OA
ATOM     11  H1  UNL     1      -4.586  -0.799  -2.190  1.00  0.00     0.212 HD
ENDBRANCH   3  10
BRANCH   4  12
HETATM   12  C5  UNL     1      -1.950   1.231  -0.043  1.00  0.00     0.067 C 
BRANCH  12  13
HETATM   13  C6  UNL     1      -0.492   1.289  -0.253  1.00  0.00     0.028 A 
HETATM   14  C7  UNL     1       0.089   2.159  -1.180  1.00  0.00     0.114 A 
HETATM   15  N1  UNL     1       1.406   1.988  -1.087  1.00  0.00    -0.354 N 
HETATM   16  C8  UNL     1       1.706   1.074  -0.170  1.00  0.00     0.083 A 
ATOM     17  H1  UNL     1       2.094   2.492  -1.646  1.00  0.00     0.166 HD
HETATM   18  N2  UNL     1       0.532   0.655   0.333  1.00  0.00    -0.343 N 
HETATM   19  C15 UNL     1       0.458  -0.331   1.396  1.00  0.00     0.157 C 
BRANCH  16  20
HETATM   20  C9  UNL     1       3.075   0.581   0.248  1.00  0.00     0.076 C 
BRANCH  20  21
HETATM   21  C10 UNL     1       3.490  -0.590  -0.581  1.00  0.00     0.008 C 
BRANCH  21  22
HETATM   22  C11 UNL     1       4.838  -1.099  -0.153  1.00  0.00     0.004 C 
BRANCH  22  23
HETATM   23  C12 UNL     1       5.874  -0.016  -0.320  1.00  0.00     0.026 C 
BRANCH  23  24
HETATM   24  C13 UNL     1       7.230  -0.505   0.093  1.00  0.00    -0.037 C 
HETATM   25  C14 UNL     1       7.360  -1.714   0.552  1.00  0.00     0.007 C 
ENDBRANCH  23  24
ENDBRANCH  22  23
ENDBRANCH  21  22
ENDBRANCH  20  21
ENDBRANCH  16  20
ENDBRANCH  12  13
ENDBRANCH   4  12
BRANCH   8  26
HETATM   26  O2  UNL     1      -4.184  -0.364   1.610  1.00  0.00    -0.385 OA
ATOM     27  H2  UNL     1      -4.320  -1.069   2.232  1.00  0.00     0.210 HD
ENDBRANCH   8  26
TORSDOF 9
