REMARK  8 active torsions:
REMARK  status: ('A' for Active; 'I' for Inactive)
REMARK       I    between atoms: C1_2  and  N5_19 
REMARK    1  A    between atoms: N2_3  and  C2_5 
REMARK    2  A    between atoms: C2_5  and  C3_6 
REMARK    3  A    between atoms: C3_6  and  C4_7 
REMARK    4  A    between atoms: C4_7  and  N3_8 
REMARK       I    between atoms: N3_8  and  C5_10 
REMARK    5  A    between atoms: C5_10  and  C6_12 
REMARK    6  A    between atoms: C6_12  and  N4_13 
REMARK       I    between atoms: N4_13  and  C7_15 
REMARK    7  A    between atoms: C7_15  and  C8_17 
REMARK    8  A    between atoms: N5_19  and  C9_21 
ROOT
HETATM    1  N1  UNL     1      -1.511   1.838   1.264  1.00  0.00    -0.064 NA
HETATM    2  C1  UNL     1      -0.984   0.589   0.860  1.00  0.00     0.184 C 
HETATM    3  N2  UNL     1       0.284   0.455   0.758  1.00  0.00    -0.365 N 
ATOM      4  H2  UNL     1       0.875   1.258   0.973  1.00  0.00     0.162 HD
HETATM    5  N5  UNL     1      -1.825  -0.508   0.568  1.00  0.00    -0.360 N 
ATOM      6  H5  UNL     1      -1.426  -1.447   0.572  1.00  0.00     0.162 HD
ENDROOT
BRANCH   3   7
HETATM    7  C2  UNL     1       0.925  -0.782   0.352  1.00  0.00     0.123 C 
BRANCH   7   8
HETATM    8  C3  UNL     1       2.437  -0.703   0.603  1.00  0.00     0.039 C 
BRANCH   8   9
HETATM    9  C4  UNL     1       2.990   0.441  -0.199  1.00  0.00     0.124 C 
BRANCH   9  10
HETATM   10  N3  UNL     1       4.407   0.561  -0.012  1.00  0.00    -0.360 N 
HETATM   11  C5  UNL     1       4.977   0.840   1.248  1.00  0.00     0.235 C 
HETATM   12  O1  UNL     1       4.234   1.017   2.276  1.00  0.00    -0.272 OA
ATOM     13  H3  UNL     1       5.023   0.441  -0.816  1.00  0.00     0.162 HD
BRANCH  11  14
HETATM   14  C6  UNL     1       6.421   0.960   1.512  1.00  0.00     0.225 C 
BRANCH  14  15
HETATM   15  N4  UNL     1       7.239   0.686   0.380  1.00  0.00    -0.352 N 
HETATM   16  C7  UNL     1       7.294  -0.590  -0.237  1.00  0.00     0.227 C 
HETATM   17  O2  UNL     1       6.632  -1.567   0.179  1.00  0.00    -0.273 OA
ATOM     18  H4  UNL     1       7.810   1.439  -0.004  1.00  0.00     0.162 HD
BRANCH  16  19
HETATM   19  C8  UNL     1       8.161  -0.840  -1.438  1.00  0.00     0.187 C 
HETATM   20 BR1  UNL     1       9.881  -1.413  -0.805  1.00  0.00    -0.087 Br
ENDBRANCH  16  19
ENDBRANCH  14  15
ENDBRANCH  11  14
ENDBRANCH   9  10
ENDBRANCH   8   9
ENDBRANCH   7   8
ENDBRANCH   3   7
BRANCH   5  21
HETATM   21  C9  UNL     1      -3.242  -0.348   0.261  1.00  0.00     0.084 C 
HETATM   22  C10 UNL     1      -3.370   0.505  -0.941  1.00  0.00     0.025 C 
HETATM   23  C11 UNL     1      -4.462   1.518  -0.909  1.00  0.00     0.002 C 
HETATM   24  C12 UNL     1      -5.515   1.320   0.117  1.00  0.00     0.000 C 
HETATM   25  C13 UNL     1      -6.199   0.000   0.125  1.00  0.00     0.000 C 
HETATM   26  C14 UNL     1      -5.972  -0.867  -1.052  1.00  0.00     0.000 C 
HETATM   27  C15 UNL     1      -4.877  -1.873  -0.918  1.00  0.00     0.002 C 
HETATM   28  C16 UNL     1      -3.931  -1.664   0.206  1.00  0.00     0.025 C 
ENDBRANCH   5  21
TORSDOF 8
