REMARK  1 active torsions:
REMARK  status: ('A' for Active; 'I' for Inactive)
REMARK    1  A    between atoms: C2_2  and  N2_6 
ROOT
HETATM    1  C1  UNL     1      -0.646   1.248  -0.038  1.00  0.00     0.089 C 
HETATM    2  C2  UNL     1      -0.601  -0.247   0.010  1.00  0.00     0.077 C 
HETATM    3  N1  UNL     1      -1.716  -0.913  -0.012  1.00  0.00    -0.389 N 
ATOM      4  H11 UNL     1      -1.685  -1.932   0.021  1.00  0.00     0.157 HD
ATOM      5  H12 UNL     1      -2.612  -0.428  -0.062  1.00  0.00     0.157 HD
ENDROOT
BRANCH   2   6
HETATM    6  N2  UNL     1       0.639  -0.919   0.079  1.00  0.00    -0.310 N 
HETATM    7  S1  UNL     1       2.114  -0.104   0.571  1.00  0.00     0.043 SA
ATOM      8  H2  UNL     1       0.679  -1.909  -0.165  1.00  0.00     0.176 HD
ENDBRANCH   2   6
TORSDOF 1
