REMARK  0 active torsions:
REMARK  status: ('A' for Active; 'I' for Inactive)
REMARK       I    between atoms: C1_2  and  N1_4 
ROOT
HETATM    1  O1  UNL     1      -0.592   1.409  -0.432  1.00  0.00    -0.629 OA
HETATM    2  C1  UNL     1      -0.917   0.271  -0.012  1.00  0.00     0.294 C 
HETATM    3  O2  UNL     1      -2.227   0.003   0.294  1.00  0.00    -0.629 OA
HETATM    4  N1  UNL     1       0.096  -0.691   0.128  1.00  0.00    -0.264 N 
ATOM      5  H1  UNL     1      -0.157  -1.619   0.468  1.00  0.00     0.181 HD
HETATM    6  S1  UNL     1       1.772  -0.372  -0.254  1.00  0.00     0.047 SA
ENDROOT
TORSDOF 0
