REMARK  0 active torsions:
REMARK  status: ('A' for Active; 'I' for Inactive)
ROOT
HETATM    1  O1  UNL     1      -0.992  -0.828  -0.004  1.00  0.00    -0.635 OA
HETATM    2  C1  UNL     1       0.023   0.042  -0.339  1.00  0.00     0.274 C 
HETATM    3  O2  UNL     1       1.313  -0.277   0.026  1.00  0.00    -0.635 OA
HETATM    4  S1  UNL     1      -0.322   1.406  -1.148  1.00  0.00    -0.004 SA
ENDROOT
TORSDOF 0
