REMARK  4 active torsions:
REMARK  status: ('A' for Active; 'I' for Inactive)
REMARK    1  A    between atoms: C4_9  and  S1_10 
REMARK    2  A    between atoms: S1_10  and  C5_11 
REMARK    3  A    between atoms: C6_14  and  N4_15 
REMARK    4  A    between atoms: C7_20  and  N6_21 
ROOT
HETATM    1  C5  UNL     1      -0.882   0.345   0.969  1.00  0.00     0.179 A 
HETATM    2  N3  UNL     1      -1.313   1.388   0.236  1.00  0.00    -0.169 N 
ATOM      3  H3  UNL     1      -0.686   2.175   0.068  1.00  0.00     0.186 HD
HETATM    4  C6  UNL     1      -2.567   1.412  -0.284  1.00  0.00     0.692 A 
HETATM    5  N5  UNL     1      -3.424   0.390  -0.083  1.00  0.00    -0.023 N 
ATOM      6  H5  UNL     1      -4.366   0.409  -0.474  1.00  0.00     0.203 HD
HETATM    7  C7  UNL     1      -3.001  -0.647   0.644  1.00  0.00     0.692 A 
HETATM    8  N7  UNL     1      -1.757  -0.666   1.157  1.00  0.00    -0.169 N 
ATOM      9  H7  UNL     1      -1.465  -1.473   1.708  1.00  0.00     0.186 HD
ENDROOT
BRANCH   1  10
HETATM   10  S1  UNL     1       0.770   0.303   1.659  1.00  0.00    -0.045 SA
BRANCH  10  11
HETATM   11  C4  UNL     1       1.928  -0.450   0.533  1.00  0.00     0.101 A 
HETATM   12  C2  UNL     1       2.670   0.198  -0.439  1.00  0.00     0.044 A 
HETATM   13  C1  UNL     1       2.637   1.641  -0.723  1.00  0.00     0.071 C 
HETATM   14  N1  UNL     1       3.408  -0.724  -1.058  1.00  0.00    -0.301 N 
HETATM   15  N2  UNL     1       3.158  -1.892  -0.520  1.00  0.00    -0.265 N 
ATOM     16  H1  UNL     1       4.059  -0.549  -1.823  1.00  0.00     0.186 HD
HETATM   17  C3  UNL     1       2.250  -1.789   0.471  1.00  0.00     0.279 A 
ATOM     18  H2  UNL     1       3.594  -2.766  -0.813  1.00  0.00     0.190 HD
HETATM   19  O1  UNL     1       1.771  -2.691   1.206  1.00  0.00    -0.265 OA
ENDBRANCH  10  11
ENDBRANCH   1  10
BRANCH   4  20
HETATM   20  N4  UNL     1      -2.915   2.444  -0.978  1.00  0.00    -0.234 N 
ATOM     21  H42 UNL     1      -2.267   3.217  -1.130  1.00  0.00     0.174 HD
ATOM     22  H41 UNL     1      -3.857   2.462  -1.369  1.00  0.00     0.174 HD
ENDBRANCH   4  20
BRANCH   7  23
HETATM   23  N6  UNL     1      -3.777  -1.638   0.861  1.00  0.00    -0.234 N 
ATOM     24  H62 UNL     1      -4.720  -1.624   0.472  1.00  0.00     0.174 HD
ATOM     25  H61 UNL     1      -3.454  -2.430   1.416  1.00  0.00     0.174 HD
ENDBRANCH   7  23
TORSDOF 4
