REMARK  4 active torsions:
REMARK  status: ('A' for Active; 'I' for Inactive)
REMARK    1  A    between atoms: O1_2  and  C2_3 
REMARK    2  A    between atoms: C2_3  and  C3_7 
REMARK    3  A    between atoms: C4_12  and  N4_13 
REMARK    4  A    between atoms: C8_22  and  N7_23 
ROOT
HETATM    1  N4  UNL     1      -0.928   0.244  -0.660  1.00  0.00    -0.066 N 
HETATM    2  N5  UNL     1      -1.756  -0.770  -0.480  1.00  0.00    -0.277 N 
ATOM      3  H5  UNL     1      -1.500  -1.672  -0.882  1.00  0.00     0.188 HD
HETATM    4  C5  UNL     1      -2.914  -0.690   0.199  1.00  0.00     0.091 A 
HETATM    5  C6  UNL     1      -3.826  -1.840   0.388  1.00  0.00     0.076 C 
HETATM    6  C7  UNL     1      -3.255   0.530   0.741  1.00  0.00     0.283 A 
HETATM    7  O2  UNL     1      -4.339   0.681   1.399  1.00  0.00    -0.265 OA
HETATM    8  N6  UNL     1      -2.417   1.566   0.562  1.00  0.00    -0.153 N 
ATOM      9  H6  UNL     1      -2.657   2.475   0.958  1.00  0.00     0.187 HD
HETATM   10  C8  UNL     1      -1.268   1.432  -0.128  1.00  0.00     0.702 A 
ENDROOT
BRANCH   1  11
HETATM   11  C4  UNL     1       0.293   0.078  -1.400  1.00  0.00     0.192 A 
HETATM   12  C3  UNL     1       1.611  -0.076  -1.063  1.00  0.00     0.147 A 
HETATM   13  N2  UNL     1       1.874  -0.138  -2.363  1.00  0.00    -0.292 N 
HETATM   14  N3  UNL     1       0.629   0.008  -2.686  1.00  0.00    -0.281 N 
ATOM     15  H2  UNL     1       2.732  -0.256  -2.902  1.00  0.00     0.187 HD
ATOM     16  H3  UNL     1       0.115   0.052  -3.566  1.00  0.00     0.188 HD
BRANCH  12  17
HETATM   17  C2  UNL     1       2.394  -0.144   0.183  1.00  0.00     0.168 C 
HETATM   18  N1  UNL     1       1.856  -0.052   1.331  1.00  0.00    -0.378 N 
ATOM     19  H12 UNL     1       2.398  -0.099   2.194  1.00  0.00     0.158 HD
ATOM     20  H11 UNL     1       0.846   0.073   1.392  1.00  0.00     0.158 HD
BRANCH  17  21
HETATM   21  O1  UNL     1       3.768  -0.314   0.100  1.00  0.00    -0.339 OA
HETATM   22  C1  UNL     1       4.589  -0.532   1.235  1.00  0.00     0.211 C 
ENDBRANCH  17  21
ENDBRANCH  12  17
ENDBRANCH   1  11
BRANCH  10  23
HETATM   23  N7  UNL     1      -0.490   2.476  -0.271  1.00  0.00    -0.233 N 
ATOM     24  H72 UNL     1       0.380   2.375  -0.794  1.00  0.00     0.174 HD
ATOM     25  H71 UNL     1      -0.748   3.377   0.132  1.00  0.00     0.174 HD
ENDBRANCH  10  23
TORSDOF 4
