REMARK  5 active torsions:
REMARK  status: ('A' for Active; 'I' for Inactive)
REMARK    1  A    between atoms: O1_2  and  C2_3 
REMARK    2  A    between atoms: C2_3  and  C3_5 
REMARK    3  A    between atoms: C4_12  and  C5_13 
REMARK    4  A    between atoms: C6_16  and  N5_17 
REMARK    5  A    between atoms: C7_22  and  N7_23 
ROOT
HETATM    1  C5  UNL     1      -0.967  -0.587  -0.001  1.00  0.00     0.167 A 
HETATM    2  N4  UNL     1      -1.037   0.681  -0.383  1.00  0.00    -0.173 N 
ATOM      3  H4  UNL     1      -0.166   1.211  -0.382  1.00  0.00     0.186 HD
HETATM    4  C6  UNL     1      -2.136   1.330  -0.768  1.00  0.00     0.692 A 
HETATM    5  N6  UNL     1      -3.275   0.599  -0.758  1.00  0.00    -0.023 N 
ATOM      6  H6  UNL     1      -4.155   1.031  -1.040  1.00  0.00     0.203 HD
HETATM    7  C7  UNL     1      -3.257  -0.687  -0.381  1.00  0.00     0.692 A 
HETATM    8  N8  UNL     1      -2.133  -1.293  -0.004  1.00  0.00    -0.173 N 
ATOM      9  H8  UNL     1      -2.144  -2.273   0.279  1.00  0.00     0.186 HD
ENDROOT
BRANCH   1  10
HETATM   10  C4  UNL     1       0.216  -1.308   0.420  1.00  0.00     0.129 A 
HETATM   11  C3  UNL     1       1.491  -0.832   0.509  1.00  0.00     0.157 A 
HETATM   12  N1  UNL     1       2.230  -1.891   0.949  1.00  0.00    -0.279 N 
HETATM   13  N2  UNL     1       1.458  -2.933   1.114  1.00  0.00    -0.241 N 
ATOM     14  H1  UNL     1       3.235  -1.873   1.123  1.00  0.00     0.189 HD
HETATM   15  N3  UNL     1       0.236  -2.626   0.807  1.00  0.00    -0.280 N 
ATOM     16  H2  UNL     1       1.770  -3.849   1.436  1.00  0.00     0.208 HD
ATOM     17  H3  UNL     1      -0.568  -3.252   0.846  1.00  0.00     0.188 HD
BRANCH  11  18
HETATM   18  C2  UNL     1       2.101   0.453   0.244  1.00  0.00     0.313 C 
HETATM   19  O2  UNL     1       1.552   1.489  -0.156  1.00  0.00    -0.257 OA
BRANCH  18  20
HETATM   20  O1  UNL     1       3.498   0.626   0.442  1.00  0.00    -0.321 OA
HETATM   21  C1  UNL     1       4.107   1.872   0.188  1.00  0.00     0.213 C 
ENDBRANCH  18  20
ENDBRANCH  11  18
ENDBRANCH   1  10
BRANCH   4  22
HETATM   22  N5  UNL     1      -2.118   2.569  -1.125  1.00  0.00    -0.234 N 
ATOM     23  H52 UNL     1      -1.260   3.120  -1.133  1.00  0.00     0.174 HD
ATOM     24  H51 UNL     1      -2.959   3.066  -1.420  1.00  0.00     0.174 HD
ENDBRANCH   4  22
BRANCH   7  25
HETATM   25  N7  UNL     1      -4.342  -1.404  -0.366  1.00  0.00    -0.234 N 
ATOM     26  H72 UNL     1      -5.203  -0.940  -0.655  1.00  0.00     0.174 HD
ATOM     27  H71 UNL     1      -4.328  -2.383  -0.079  1.00  0.00     0.174 HD
ENDBRANCH   7  25
TORSDOF 5
