REMARK  4 active torsions:
REMARK  status: ('A' for Active; 'I' for Inactive)
REMARK    1  A    between atoms: C1_2  and  C2_3 
REMARK    2  A    between atoms: C1_2  and  C3_10 
REMARK    3  A    between atoms: C2_3  and  O2_4 
REMARK    4  A    between atoms: N1_6  and  O3_8 
ROOT
HETATM    1  C3  UNL     1       1.169  -0.674   0.093  1.00  0.00     0.268 C 
HETATM    2  C4  UNL     1       0.831  -0.345  -1.328  1.00  0.00     0.086 C 
HETATM    3  C5  UNL     1       0.235   0.974  -1.611  1.00  0.00     0.063 C 
HETATM    4  N2  UNL     1      -0.114   1.871  -0.607  1.00  0.00    -0.378 N 
ATOM      5  H2  UNL     1       0.611   2.208   0.026  1.00  0.00     0.164 HD
HETATM    6  C6  UNL     1      -1.416   2.324  -0.436  1.00  0.00     0.103 C 
HETATM    7  C7  UNL     1      -2.547   1.370  -0.296  1.00  0.00     0.100 C 
HETATM    8  N3  UNL     1      -2.628   0.609   0.884  1.00  0.00    -0.398 N 
ATOM      9  H3  UNL     1      -2.282   0.976   1.771  1.00  0.00     0.158 HD
HETATM   10  C8  UNL     1      -3.215  -0.706   0.801  1.00  0.00     0.120 C 
HETATM   11  C9  UNL     1      -2.168  -1.809   1.134  1.00  0.00     0.047 C 
HETATM   12  C10 UNL     1      -0.927  -1.204   0.666  1.00  0.00     0.235 C 
HETATM   13  N4  UNL     1       0.337  -1.797   0.610  1.00  0.00    -0.063 N 
ATOM     14  H41 UNL     1       0.662  -2.213   1.483  1.00  0.00     0.278 HD
ATOM     15  H42 UNL     1       0.389  -2.661   0.071  1.00  0.00     0.278 HD
ENDROOT
BRANCH   1  16
HETATM   16  C1  UNL     1       2.564  -1.015   0.337  1.00  0.00     0.232 C 
HETATM   17  O1  UNL     1       2.891  -2.094   0.883  1.00  0.00    -0.286 OA
BRANCH  16  18
HETATM   18  C2  UNL     1       3.670  -0.121  -0.038  1.00  0.00     0.209 C 
HETATM   19  N1  UNL     1       4.898  -0.401   0.166  1.00  0.00    -0.244 N 
ATOM     20  H1  UNL     1       5.600   0.278  -0.128  1.00  0.00     0.196 HD
BRANCH  18  21
HETATM   21  O2  UNL     1       3.346   1.081  -0.644  1.00  0.00    -0.342 OA
ATOM     22  H2  UNL     1       4.060   1.658  -0.886  1.00  0.00     0.219 HD
ENDBRANCH  18  21
BRANCH  19  23
HETATM   23  O3  UNL     1       5.332  -1.560   0.757  1.00  0.00    -0.288 OA
ATOM     24  H3  UNL     1       6.246  -1.768   0.909  1.00  0.00     0.244 HD
ENDBRANCH  19  23
ENDBRANCH  16  18
ENDBRANCH   1  16
TORSDOF 4
