REMARK  4 active torsions:
REMARK  status: ('A' for Active; 'I' for Inactive)
REMARK    1  A    between atoms: O1_2  and  C2_3 
REMARK       I    between atoms: C2_3  and  N1_5 
REMARK    2  A    between atoms: N1_5  and  N2_7 
REMARK    3  A    between atoms: N2_7  and  C3_9 
REMARK    4  A    between atoms: C5_17  and  N6_18 
ROOT
HETATM    1  C3  UNL     1      -0.210  -0.706   0.382  1.00  0.00     0.154 A 
HETATM    2  N3  UNL     1      -0.216  -1.925   0.930  1.00  0.00    -0.282 N 
ATOM      3  H3  UNL     1       0.613  -2.504   1.063  1.00  0.00     0.188 HD
HETATM    4  N4  UNL     1      -1.446  -2.281   1.278  1.00  0.00    -0.282 N 
ATOM      5  H4  UNL     1      -1.700  -3.167   1.714  1.00  0.00     0.188 HD
HETATM    6  C4  UNL     1      -2.312  -1.290   0.966  1.00  0.00     0.155 A 
HETATM    7  N5  UNL     1      -3.651  -1.125   1.103  1.00  0.00    -0.174 N 
ATOM      8  H5  UNL     1      -4.212  -1.867   1.521  1.00  0.00     0.186 HD
HETATM    9  C5  UNL     1      -4.255   0.027   0.686  1.00  0.00     0.680 A 
HETATM   10  N7  UNL     1      -3.516   1.002   0.137  1.00  0.00    -0.155 N 
ATOM     11  H7  UNL     1      -3.969   1.862  -0.173  1.00  0.00     0.187 HD
HETATM   12  C6  UNL     1      -2.178   0.862  -0.012  1.00  0.00     0.277 A 
HETATM   13  O3  UNL     1      -1.478   1.776  -0.527  1.00  0.00    -0.266 OA
HETATM   14  C7  UNL     1      -1.547  -0.292   0.401  1.00  0.00     0.125 A 
ENDROOT
BRANCH   1  15
HETATM   15  N2  UNL     1       0.804   0.110  -0.147  1.00  0.00    -0.279 N 
ATOM     16  H2  UNL     1       0.650   0.520  -1.068  1.00  0.00     0.189 HD
BRANCH  15  17
HETATM   17  N1  UNL     1       1.996   0.396   0.494  1.00  0.00    -0.244 N 
HETATM   18  C2  UNL     1       3.247   0.387  -0.195  1.00  0.00     0.379 C 
HETATM   19  O2  UNL     1       3.284   0.096  -1.436  1.00  0.00    -0.237 OA
ATOM     20  H1  UNL     1       1.981   0.620   1.489  1.00  0.00     0.192 HD
BRANCH  18  21
HETATM   21  O1  UNL     1       4.464   0.678   0.394  1.00  0.00    -0.308 OA
HETATM   22  C1  UNL     1       5.665   0.651  -0.404  1.00  0.00     0.215 C 
ENDBRANCH  18  21
ENDBRANCH  15  17
ENDBRANCH   1  15
BRANCH   9  23
HETATM   23  N6  UNL     1      -5.520   0.095   0.852  1.00  0.00    -0.234 N 
ATOM     24  H62 UNL     1      -6.082  -0.647   1.270  1.00  0.00     0.174 HD
ATOM     25  H61 UNL     1      -5.971   0.955   0.541  1.00  0.00     0.174 HD
ENDBRANCH   9  23
TORSDOF 4
