REMARK  7 active torsions:
REMARK  status: ('A' for Active; 'I' for Inactive)
REMARK    1  A    between atoms: C1_4  and  S1_6 
REMARK    2  A    between atoms: S1_6  and  C2_7 
REMARK    3  A    between atoms: C2_7  and  C3_8 
REMARK       I    between atoms: C3_8  and  N3_10 
REMARK    4  A    between atoms: N3_10  and  C4_12 
REMARK    5  A    between atoms: C5_15  and  C6_16 
REMARK    6  A    between atoms: C6_16  and  N5_17 
REMARK    7  A    between atoms: N6_20  and  C9_21 
ROOT
HETATM    1  C4  UNL     1       3.487  -0.193  -1.000  1.00  0.00     0.151 A 
HETATM    2  N4  UNL     1       2.345   0.498  -0.952  1.00  0.00    -0.338 N 
ATOM      3  H4  UNL     1       2.000   0.997  -1.772  1.00  0.00     0.168 HD
HETATM    4  C5  UNL     1       1.682   0.517   0.173  1.00  0.00     0.046 A 
HETATM    5  C16 UNL     1       2.194  -0.172   1.234  1.00  0.00     0.080 A 
HETATM    6  S2  UNL     1       3.624  -0.829   0.575  1.00  0.00    -0.064 SA
ENDROOT
BRANCH   4   7
HETATM    7  C6  UNL     1       0.385   1.289   0.320  1.00  0.00     0.332 C 
BRANCH   7   8
HETATM    8  N5  UNL     1      -0.664   0.422  -0.121  1.00  0.00     0.123 N 
HETATM    9  C7  UNL     1      -0.757  -0.798   0.649  1.00  0.00     0.305 C 
HETATM   10  C8  UNL     1      -2.140  -1.296   0.299  1.00  0.00     0.305 C 
HETATM   11  N6  UNL     1      -2.860  -0.131  -0.164  1.00  0.00     0.123 N 
HETATM   12  C15 UNL     1      -1.976   0.995   0.043  1.00  0.00     0.543 C 
BRANCH  11  13
HETATM   13  C9  UNL     1      -4.065  -0.015   0.674  1.00  0.00     0.225 C 
HETATM   14  C10 UNL     1      -4.876  -1.245   0.427  1.00  0.00     0.036 C 
HETATM   15  C11 UNL     1      -6.326  -0.962   0.824  1.00  0.00     0.002 C 
HETATM   16  C12 UNL     1      -6.811   0.016  -0.229  1.00  0.00     0.000 C 
HETATM   17  C13 UNL     1      -6.034   1.279  -0.251  1.00  0.00     0.002 C 
HETATM   18  C14 UNL     1      -4.742   1.272   0.482  1.00  0.00     0.036 C 
ENDBRANCH  11  13
ENDBRANCH   7   8
ENDBRANCH   4   7
BRANCH   1  19
HETATM   19  N3  UNL     1       4.309  -0.350  -2.015  1.00  0.00    -0.306 N 
HETATM   20  C3  UNL     1       5.474  -1.161  -1.759  1.00  0.00     0.233 C 
HETATM   21  O1  UNL     1       5.324  -2.155  -1.023  1.00  0.00    -0.272 OA
ATOM     22  H3  UNL     1       4.134   0.075  -2.926  1.00  0.00     0.171 HD
BRANCH  20  23
HETATM   23  C2  UNL     1       6.735  -0.746  -2.386  1.00  0.00     0.185 C 
BRANCH  23  24
HETATM   24  S1  UNL     1       7.602   0.554  -1.533  1.00  0.00    -0.088 SA
BRANCH  24  25
HETATM   25  C1  UNL     1       8.284   0.127   0.030  1.00  0.00     0.148 C 
HETATM   26  N1  UNL     1       8.271  -1.045   0.504  1.00  0.00    -0.382 N 
ATOM     27  H12 UNL     1       8.667  -1.293   1.411  1.00  0.00     0.157 HD
ATOM     28  H11 UNL     1       7.830  -1.781  -0.047  1.00  0.00     0.157 HD
HETATM   29  N2  UNL     1       8.898   1.152   0.797  1.00  0.00    -0.075 NA
ENDBRANCH  24  25
ENDBRANCH  23  24
ENDBRANCH  20  23
ENDBRANCH   1  19
TORSDOF 7
