REMARK  6 active torsions:
REMARK  status: ('A' for Active; 'I' for Inactive)
REMARK    1  A    between atoms: C2_2  and  C4_4 
REMARK    2  A    between atoms: C4_4  and  N1_5 
REMARK    3  A    between atoms: C9_12  and  N3_13 
REMARK    4  A    between atoms: N4_17  and  C13_18 
REMARK    5  A    between atoms: C13_18  and  C14_19 
REMARK    6  A    between atoms: C21_29  and  N6_30 
ROOT
HETATM    1  N1  UNL     1       5.051  -0.796  -0.124  1.00  0.00     0.094 N 
HETATM    2  C5  UNL     1       5.158  -2.174   0.433  1.00  0.00     0.277 C 
HETATM    3  C6  UNL     1       4.080  -2.995  -0.242  1.00  0.00     0.075 C 
HETATM    4  C7  UNL     1       2.750  -2.304  -0.118  1.00  0.00     0.013 A 
HETATM    5  C8  UNL     1       2.724  -1.020   0.326  1.00  0.00     0.065 A 
HETATM    6  N2  UNL     1       1.542  -0.375   0.455  1.00  0.00    -0.193 N 
ATOM      7  H2  UNL     1       1.510   0.588   0.790  1.00  0.00     0.184 HD
HETATM    8  C9  UNL     1       0.411  -1.024   0.135  1.00  0.00     0.689 A 
HETATM    9  N5  UNL     1       0.427  -2.292  -0.305  1.00  0.00    -0.176 N 
ATOM     10  H5  UNL     1      -0.450  -2.757  -0.538  1.00  0.00     0.186 HD
HETATM   11  C21 UNL     1       1.597  -2.960  -0.442  1.00  0.00     0.123 A 
HETATM   12  C22 UNL     1       3.945  -0.251   0.689  1.00  0.00     0.330 C 
ENDROOT
BRANCH   8  13
HETATM   13  N3  UNL     1      -0.803  -0.320   0.272  1.00  0.00    -0.150 N 
HETATM   14  C10 UNL     1      -1.672  -0.015  -0.872  1.00  0.00     0.158 C 
HETATM   15  C11 UNL     1      -2.393   1.225  -0.406  1.00  0.00     0.048 C 
HETATM   16  C12 UNL     1      -3.868   1.139  -0.813  1.00  0.00     0.279 C 
HETATM   17  C19 UNL     1      -2.568   0.999   1.106  1.00  0.00     0.114 C 
HETATM   18  N4  UNL     1      -4.194  -0.127  -0.160  1.00  0.00     0.090 N 
HETATM   19  C18 UNL     1      -3.841   0.164   1.222  1.00  0.00     0.287 C 
HETATM   20  C20 UNL     1      -1.377   0.211   1.462  1.00  0.00     0.244 C 
HETATM   21  O1  UNL     1      -0.912   0.016   2.603  1.00  0.00    -0.272 OA
BRANCH  18  22
HETATM   22  C13 UNL     1      -5.587  -0.465  -0.300  1.00  0.00     0.277 C 
BRANCH  22  23
HETATM   23  C14 UNL     1      -6.543   0.334   0.492  1.00  0.00     0.014 C 
HETATM   24  C15 UNL     1      -7.972  -0.155   0.173  1.00  0.00     0.006 C 
HETATM   25  C16 UNL     1      -8.397   1.296   0.394  1.00  0.00     0.001 C 
HETATM   26  C17 UNL     1      -6.954   1.690   0.041  1.00  0.00     0.006 C 
ENDBRANCH  22  23
ENDBRANCH  18  22
ENDBRANCH   8  13
BRANCH  11  27
HETATM   27  N6  UNL     1       1.558  -4.168  -0.870  1.00  0.00    -0.385 N 
ATOM     28  H62 UNL     1       2.439  -4.671  -0.973  1.00  0.00     0.157 HD
ATOM     29  H61 UNL     1       0.697  -4.658  -1.112  1.00  0.00     0.157 HD
ENDBRANCH  11  27
BRANCH   1  30
HETATM   30  C4  UNL     1       6.247  -0.067   0.237  1.00  0.00     0.276 C 
BRANCH  30  31
HETATM   31  C2  UNL     1       6.537   1.172  -0.529  1.00  0.00     0.006 C 
HETATM   32  C1  UNL     1       5.543   2.270  -0.514  1.00  0.00     0.011 C 
HETATM   33  C3  UNL     1       7.865   1.723   0.028  1.00  0.00     0.011 C 
ENDBRANCH  30  31
ENDBRANCH   1  30
TORSDOF 6
