REMARK  7 active torsions:
REMARK  status: ('A' for Active; 'I' for Inactive)
REMARK    1  A    between atoms: C2_2  and  C3_3 
REMARK    2  A    between atoms: C13_14  and  O1_15 
REMARK    3  A    between atoms: O1_15  and  C14_16 
REMARK    4  A    between atoms: C14_16  and  C15_17 
REMARK    5  A    between atoms: C15_17  and  O2_18 
REMARK    6  A    between atoms: C16_20  and  C18_22 
REMARK    7  A    between atoms: C18_22  and  O3_23 
ROOT
HETATM    1  C3  UNL     1      -5.167  -0.342  -0.564  1.00  0.00     0.141 C 
HETATM    2  C4  UNL     1      -5.913  -0.532   0.681  1.00  0.00     0.060 C 
HETATM    3  N1  UNL     1      -6.516  -0.691   1.656  1.00  0.00    -0.197 NA
ENDROOT
BRANCH   1   4
HETATM    4  C2  UNL     1      -3.938   0.506  -0.356  1.00  0.00     0.030 C 
HETATM    5  C1  UNL     1      -4.269   1.873   0.161  1.00  0.00     0.024 C 
HETATM    6  C5  UNL     1      -2.936  -0.221   0.570  1.00  0.00     0.029 C 
HETATM    7  C6  UNL     1      -2.294  -1.135  -0.384  1.00  0.00    -0.017 A 
HETATM    8  C7  UNL     1      -2.224  -2.492  -0.084  1.00  0.00     0.017 A 
HETATM    9  C8  UNL     1      -0.967  -1.863  -0.206  1.00  0.00     0.005 A 
HETATM   10  C21 UNL     1      -1.922  -0.189  -1.453  1.00  0.00     0.135 C 
HETATM   11  C9  UNL     1      -0.089  -1.145   0.713  1.00  0.00    -0.028 C 
HETATM   12  C10 UNL     1      -0.575  -1.136   2.163  1.00  0.00     0.016 C 
HETATM   13  C11 UNL     1       1.219  -1.961   0.773  1.00  0.00     0.013 C 
HETATM   14  C19 UNL     1       0.144   0.237   0.160  1.00  0.00     0.077 C 
HETATM   15  C12 UNL     1       2.253  -1.030   1.348  1.00  0.00     0.034 C 
HETATM   16  C13 UNL     1       2.647  -0.163   0.157  1.00  0.00     0.132 C 
HETATM   17  C16 UNL     1       1.458   0.582  -0.385  1.00  0.00     0.015 C 
HETATM   18  C17 UNL     1       1.753   2.060  -0.014  1.00  0.00     0.021 C 
HETATM   19  C20 UNL     1      -0.914   0.708  -0.759  1.00  0.00     0.144 C 
HETATM   20  O4  UNL     1      -1.037   1.892  -1.016  1.00  0.00    -0.297 OA
HETATM   21  C22 UNL     1      -3.197   0.555  -1.645  1.00  0.00     0.148 C 
HETATM   22  O5  UNL     1      -3.541   1.088  -2.663  1.00  0.00    -0.296 OA
BRANCH  16  23
HETATM   23  O1  UNL     1       3.705   0.609   0.548  1.00  0.00    -0.383 OA
BRANCH  23  24
HETATM   24  C14 UNL     1       4.881   0.255  -0.112  1.00  0.00     0.194 C 
BRANCH  24  25
HETATM   25  C15 UNL     1       6.051   1.086   0.301  1.00  0.00     0.190 C 
BRANCH  25  26
HETATM   26  O2  UNL     1       5.853   2.429   0.044  1.00  0.00    -0.399 OA
ATOM     27  H2  UNL     1       6.597   2.958   0.307  1.00  0.00     0.209 HD
ENDBRANCH  25  26
ENDBRANCH  24  25
ENDBRANCH  23  24
ENDBRANCH  16  23
BRANCH  17  28
HETATM   28  C18 UNL     1       1.603   0.592  -1.886  1.00  0.00     0.176 C 
BRANCH  28  29
HETATM   29  O3  UNL     1       1.646  -0.654  -2.475  1.00  0.00    -0.400 OA
ATOM     30  H3  UNL     1       1.737  -0.648  -3.421  1.00  0.00     0.209 HD
ENDBRANCH  28  29
ENDBRANCH  17  28
ENDBRANCH   1   4
TORSDOF 7
