REMARK  4 active torsions:
REMARK  status: ('A' for Active; 'I' for Inactive)
REMARK    1  A    between atoms: O1_2  and  C2_3 
REMARK    2  A    between atoms: C4_6  and  O3_7 
REMARK    3  A    between atoms: C5_9  and  O4_10 
REMARK    4  A    between atoms: C8_15  and  O6_16 
ROOT
HETATM    1  C2  UNL     1      -0.608  -1.179  -0.080  1.00  0.00     0.290 C 
HETATM    2  O2  UNL     1       0.747  -1.391  -0.142  1.00  0.00    -0.356 OA
HETATM    3  C3  UNL     1       1.422  -0.713  -1.101  1.00  0.00     0.207 C 
HETATM    4  C4  UNL     1       2.614  -0.032  -0.410  1.00  0.00     0.197 C 
HETATM    5  C5  UNL     1       2.105   1.324   0.060  1.00  0.00     0.288 C 
HETATM    6  O5  UNL     1       0.852   1.601  -0.382  1.00  0.00    -0.351 OA
HETATM    7  C6  UNL     1      -0.189   1.249   0.424  1.00  0.00     0.154 C 
HETATM    8  C7  UNL     1       0.180   0.859   1.821  1.00  0.00     0.042 C 
HETATM    9  C8  UNL     1      -1.038   0.235  -0.287  1.00  0.00     0.204 C 
ENDROOT
BRANCH   1  10
HETATM   10  O1  UNL     1      -1.055  -1.687   1.133  1.00  0.00    -0.363 OA
HETATM   11  C1  UNL     1      -1.899  -2.745   0.892  1.00  0.00     0.204 C 
ENDBRANCH   1  10
BRANCH   9  12
HETATM   12  O6  UNL     1      -2.339   0.356   0.235  1.00  0.00    -0.383 OA
HETATM   13  C9  UNL     1      -3.231   0.769  -0.751  1.00  0.00     0.202 C 
ENDBRANCH   9  12
BRANCH   4  14
HETATM   14  O3  UNL     1       3.656   0.067  -1.300  1.00  0.00    -0.389 OA
ATOM     15  H3  UNL     1       4.393   0.488  -0.873  1.00  0.00     0.210 HD
ENDBRANCH   4  14
BRANCH   5  16
HETATM   16  O4  UNL     1       2.977   2.275  -0.500  1.00  0.00    -0.369 OA
ATOM     17  H4  UNL     1       2.659   3.121  -0.207  1.00  0.00     0.212 HD
ENDBRANCH   5  16
TORSDOF 4
