REMARK  4 active torsions:
REMARK  status: ('A' for Active; 'I' for Inactive)
REMARK    1  A    between atoms: N1_2  and  C3_4 
REMARK    2  A    between atoms: C4_6  and  O2_8 
REMARK    3  A    between atoms: C6_10  and  O3_11 
REMARK    4  A    between atoms: C7_13  and  S1_14 
ROOT
HETATM    1  S1  UNL     1       0.291   2.571  -0.118  1.00  0.00    -0.039 SA
HETATM    2  C8  UNL     1      -0.722   3.628   0.909  1.00  0.00     0.134 C 
HETATM    3  N2  UNL     1      -1.393   4.298   1.606  1.00  0.00    -0.184 NA
ENDROOT
BRANCH   1   4
HETATM    4  C7  UNL     1      -0.213   0.879   0.178  1.00  0.00     0.145 C 
HETATM    5  C3  UNL     1       0.685  -0.123  -0.568  1.00  0.00     0.239 C 
HETATM    6  O1  UNL     1       0.007  -1.300  -0.328  1.00  0.00    -0.328 OA
HETATM    7  C4  UNL     1      -1.345  -1.036  -0.433  1.00  0.00     0.188 C 
HETATM    8  C5  UNL     1      -1.999  -1.432   0.882  1.00  0.00     0.082 C 
HETATM    9  C6  UNL     1      -1.502   0.483  -0.529  1.00  0.00     0.199 C 
BRANCH   5  10
HETATM   10  N1  UNL     1       2.033  -0.066  -0.115  1.00  0.00    -0.395 N 
HETATM   11  C1  UNL     1       3.033  -0.230  -1.122  1.00  0.00     0.145 C 
HETATM   12  C2  UNL     1       2.299  -0.730   1.130  1.00  0.00     0.145 C 
ENDBRANCH   5  10
BRANCH   7  13
HETATM   13  O2  UNL     1      -1.920  -1.677  -1.517  1.00  0.00    -0.363 OA
ATOM     14  H2  UNL     1      -2.850  -1.495  -1.589  1.00  0.00     0.213 HD
ENDBRANCH   7  13
BRANCH   9  15
HETATM   15  O3  UNL     1      -2.632   0.935   0.122  1.00  0.00    -0.389 OA
ATOM     16  H3  UNL     1      -2.729   1.878   0.062  1.00  0.00     0.210 HD
ENDBRANCH   9  15
ENDBRANCH   1   4
TORSDOF 4
