REMARK  3 active torsions:
REMARK  status: ('A' for Active; 'I' for Inactive)
REMARK    1  A    between atoms: C5_7  and  N3_8 
REMARK    2  A    between atoms: C9_14  and  C10_15 
REMARK    3  A    between atoms: C10_15  and  O1_16 
ROOT
HETATM    1  C1  UNL     1      -3.490  -0.018   0.262  1.00  0.00     0.310 C 
HETATM    2  N1  UNL     1      -2.068   0.079   0.297  1.00  0.00     0.086 N 
HETATM    3  C2  UNL     1      -1.476  -1.231   0.615  1.00  0.00     0.293 C 
HETATM    4  C3  UNL     1      -0.095  -0.884   1.173  1.00  0.00     0.144 C 
HETATM    5  C4  UNL     1      -0.347  -0.389   2.548  1.00  0.00     0.068 C 
HETATM    6  N2  UNL     1      -0.550   0.012   3.615  1.00  0.00    -0.197 NA
HETATM    7  C5  UNL     1       0.641   0.099   0.359  1.00  0.00     0.117 C 
HETATM    8  C9  UNL     1      -0.008   0.608  -0.861  1.00  0.00     0.062 C 
HETATM    9  C11 UNL     1      -1.482   0.484  -0.942  1.00  0.00     0.280 C 
ENDROOT
BRANCH   7  10
HETATM   10  N3  UNL     1       1.959  -0.449   0.004  1.00  0.00    -0.345 N 
HETATM   11  C6  UNL     1       2.251  -1.740  -0.250  1.00  0.00     0.109 A 
HETATM   12  C7  UNL     1       3.600  -1.856  -0.547  1.00  0.00     0.106 A 
HETATM   13  N4  UNL     1       4.114  -0.616  -0.467  1.00  0.00    -0.361 N 
HETATM   14  C8  UNL     1       3.111   0.237  -0.131  1.00  0.00     0.183 A 
ATOM     15  H4  UNL     1       5.088  -0.360  -0.630  1.00  0.00     0.166 HD
ENDBRANCH   7  10
BRANCH   8  16
HETATM   16  C10 UNL     1       0.344   2.081  -1.123  1.00  0.00     0.172 C 
BRANCH  16  17
HETATM   17  O1  UNL     1      -0.081   2.862  -0.041  1.00  0.00    -0.400 OA
ATOM     18  H1  UNL     1       0.137   3.772  -0.203  1.00  0.00     0.209 HD
ENDBRANCH  16  17
ENDBRANCH   8  16
TORSDOF 3
