REMARK  12 active torsions:
REMARK  status: ('A' for Active; 'I' for Inactive)
REMARK    1  A    between atoms: C2_2  and  C3_3 
REMARK    2  A    between atoms: C3_3  and  N2_8 
REMARK    3  A    between atoms: N1_4  and  O1_6 
REMARK       I    between atoms: N2_8  and  C5_10 
REMARK    4  A    between atoms: C5_10  and  O3_12 
REMARK    5  A    between atoms: O3_12  and  C6_13 
REMARK    6  A    between atoms: C6_13  and  O4_14 
REMARK    7  A    between atoms: C6_13  and  C11_22 
REMARK    8  A    between atoms: O4_14  and  C7_15 
REMARK       I    between atoms: C7_15  and  N3_17 
REMARK    9  A    between atoms: N3_17  and  C8_19 
REMARK   10  A    between atoms: C11_22  and  C13_25 
REMARK   11  A    between atoms: C13_25  and  N4_26 
REMARK   12  A    between atoms: C13_25  and  O6_30 
ROOT
HETATM    1  C6  UNL     1      -0.571  -0.156  -1.237  1.00  0.00     0.326 C 
ENDROOT
BRANCH   1   2
HETATM    2  O3  UNL     1       0.563   0.456  -0.652  1.00  0.00    -0.268 OA
BRANCH   2   3
HETATM    3  C5  UNL     1       1.478  -0.207   0.158  1.00  0.00     0.368 C 
HETATM    4  N2  UNL     1       2.600   0.420   0.729  1.00  0.00    -0.290 N 
ATOM      5  H2  UNL     1       2.741   1.411   0.533  1.00  0.00     0.172 HD
HETATM    6  O2  UNL     1       1.262  -1.415   0.368  1.00  0.00    -0.238 OA
BRANCH   4   7
HETATM    7  C3  UNL     1       3.537  -0.223   1.549  1.00  0.00     0.105 C 
HETATM    8  N1  UNL     1       4.538   0.435   2.028  1.00  0.00    -0.255 N 
ATOM      9  H1  UNL     1       5.206  -0.056   2.622  1.00  0.00     0.195 HD
BRANCH   7  10
HETATM   10  C2  UNL     1       3.417  -1.653   1.890  1.00  0.00     0.074 C 
HETATM   11  C1  UNL     1       4.560  -2.115   2.779  1.00  0.00     0.013 C 
ENDBRANCH   7  10
BRANCH   8  12
HETATM   12  O1  UNL     1       4.741   1.770   1.771  1.00  0.00    -0.284 OA
HETATM   13  C4  UNL     1       5.513   2.606   2.576  1.00  0.00     0.237 C 
ENDBRANCH   8  12
ENDBRANCH   4   7
ENDBRANCH   2   3
ENDBRANCH   1   2
BRANCH   1  14
HETATM   14  O4  UNL     1      -1.715   0.555  -0.759  1.00  0.00    -0.268 OA
BRANCH  14  15
HETATM   15  C7  UNL     1      -2.726  -0.073  -0.065  1.00  0.00     0.363 C 
HETATM   16  O5  UNL     1      -2.677  -1.296   0.172  1.00  0.00    -0.238 OA
HETATM   17  N3  UNL     1      -3.834   0.690   0.382  1.00  0.00    -0.333 N 
ATOM     18  H3  UNL     1      -3.862   1.690   0.182  1.00  0.00     0.165 HD
BRANCH  17  19
HETATM   19  C8  UNL     1      -4.934   0.084   1.120  1.00  0.00     0.078 C 
HETATM   20  C9  UNL     1      -6.185   0.296   0.293  1.00  0.00     0.032 C 
HETATM   21  C10 UNL     1      -5.078   0.807   2.421  1.00  0.00     0.032 C 
ENDBRANCH  17  19
ENDBRANCH  14  15
ENDBRANCH   1  14
BRANCH   1  22
HETATM   22  C11 UNL     1      -0.596  -0.008  -2.741  1.00  0.00     0.201 C 
HETATM   23  C12 UNL     1      -0.619   1.465  -3.067  1.00  0.00     0.062 C 
HETATM   24  F1  UNL     1      -1.809  -0.575  -3.158  1.00  0.00    -0.233 F 
BRANCH  22  25
HETATM   25  C13 UNL     1       0.557  -0.727  -3.353  1.00  0.00     0.361 C 
BRANCH  25  26
HETATM   26  N4  UNL     1       0.480  -2.129  -3.020  1.00  0.00    -0.050 N 
ATOM     27  H43 UNL     1       0.419  -2.284  -2.014  1.00  0.00     0.277 HD
ATOM     28  H42 UNL     1      -0.415  -2.540  -3.285  1.00  0.00     0.277 HD
ATOM     29  H41 UNL     1       1.269  -2.621  -3.439  1.00  0.00     0.277 HD
ENDBRANCH  25  26
BRANCH  25  30
HETATM   30  O6  UNL     1       0.589  -0.631  -4.736  1.00  0.00    -0.367 OA
ATOM     31  H6  UNL     1       1.324  -1.089  -5.126  1.00  0.00     0.212 HD
ENDBRANCH  25  30
ENDBRANCH  22  25
ENDBRANCH   1  22
TORSDOF 12
