REMARK  9 active torsions:
REMARK  status: ('A' for Active; 'I' for Inactive)
REMARK    1  A    between atoms: N1_1  and  C1_4 
REMARK    2  A    between atoms: N2_9  and  C4_10 
REMARK    3  A    between atoms: C5_12  and  C6_13 
REMARK    4  A    between atoms: C6_13  and  S2_14 
REMARK    5  A    between atoms: S2_14  and  C7_15 
REMARK    6  A    between atoms: C7_15  and  C8_16 
REMARK    7  A    between atoms: C8_16  and  C9_17 
REMARK    8  A    between atoms: C10_20  and  O4_21 
REMARK    9  A    between atoms: C11_23  and  O5_24 
ROOT
HETATM    1  C4  UNL     1      -1.781   0.374   0.699  1.00  0.00     0.261 C 
HETATM    2  O1  UNL     1      -0.921   0.955  -0.193  1.00  0.00    -0.355 OA
HETATM    3  C5  UNL     1      -0.408  -0.081  -0.970  1.00  0.00     0.165 C 
HETATM    4  C10 UNL     1      -0.113  -1.113   0.054  1.00  0.00     0.180 C 
HETATM    5  C11 UNL     1      -1.487  -1.109   0.774  1.00  0.00     0.198 C 
ENDROOT
BRANCH   1   6
HETATM    6  N2  UNL     1      -3.195   0.616   0.335  1.00  0.00    -0.304 N 
HETATM    7  C1  UNL     1      -3.505   1.655  -0.431  1.00  0.00     0.149 A 
HETATM    8  S1  UNL     1      -5.200   1.538  -0.585  1.00  0.00    -0.023 SA
HETATM    9  C2  UNL     1      -5.434   0.138   0.357  1.00  0.00     0.176 A 
HETATM   10  F1  UNL     1      -6.601  -0.527   0.657  1.00  0.00    -0.197 F 
HETATM   11  C3  UNL     1      -4.158  -0.169   0.748  1.00  0.00     0.146 A 
BRANCH   7  12
HETATM   12  N1  UNL     1      -2.691   2.555  -0.946  1.00  0.00    -0.379 N 
ATOM     13  H12 UNL     1      -2.929   3.353  -1.535  1.00  0.00     0.158 HD
ATOM     14  H11 UNL     1      -1.678   2.625  -0.854  1.00  0.00     0.158 HD
ENDBRANCH   7  12
ENDBRANCH   1   6
BRANCH   5  15
HETATM   15  O5  UNL     1      -1.313  -1.566   2.053  1.00  0.00    -0.388 OA
ATOM     16  H5  UNL     1      -1.128  -2.497   2.100  1.00  0.00     0.210 HD
ENDBRANCH   5  15
BRANCH   3  17
HETATM   17  C6  UNL     1       0.637   0.286  -1.933  1.00  0.00     0.108 C 
BRANCH  17  18
HETATM   18  S2  UNL     1       2.139   1.008  -1.346  1.00  0.00    -0.166 SA
BRANCH  18  19
HETATM   19  C7  UNL     1       3.238  -0.053  -0.420  1.00  0.00     0.084 C 
BRANCH  19  20
HETATM   20  C8  UNL     1       4.482   0.771  -0.067  1.00  0.00     0.123 C 
BRANCH  20  21
HETATM   21  C9  UNL     1       5.447  -0.042   0.694  1.00  0.00     0.173 C 
HETATM   22  O2  UNL     1       5.149  -1.252   0.929  1.00  0.00    -0.648 OA
HETATM   23  O3  UNL     1       6.643   0.436   1.159  1.00  0.00    -0.648 OA
ENDBRANCH  20  21
ENDBRANCH  19  20
ENDBRANCH  18  19
ENDBRANCH  17  18
ENDBRANCH   3  17
BRANCH   4  24
HETATM   24  O4  UNL     1       0.205  -2.351  -0.433  1.00  0.00    -0.390 OA
ATOM     25  H4  UNL     1       0.394  -3.012   0.223  1.00  0.00     0.210 HD
ENDBRANCH   4  24
TORSDOF 9
