REMARK  9 active torsions:
REMARK  status: ('A' for Active; 'I' for Inactive)
REMARK    1  A    between atoms: S1_2  and  C2_3 
REMARK    2  A    between atoms: C3_4  and  O1_5 
REMARK    3  A    between atoms: C4_7  and  C5_8 
REMARK    4  A    between atoms: C5_8  and  S2_9 
REMARK    5  A    between atoms: S2_9  and  C6_10 
REMARK    6  A    between atoms: C6_10  and  C7_11 
REMARK    7  A    between atoms: C8_14  and  N1_15 
REMARK    8  A    between atoms: C11_20  and  N3_21 
REMARK    9  A    between atoms: C12_26  and  N5_27 
ROOT
HETATM    1  N1  UNL     1      -1.558  -0.133   0.024  1.00  0.00    -0.093 N 
HETATM    2  N2  UNL     1      -1.413   0.993  -0.655  1.00  0.00    -0.283 N 
ATOM      3  H2  UNL     1      -0.670   1.053  -1.351  1.00  0.00     0.187 HD
HETATM    4  C9  UNL     1      -2.207   2.062  -0.464  1.00  0.00     0.066 A 
HETATM    5  C10 UNL     1      -2.045   3.334  -1.231  1.00  0.00     0.074 C 
HETATM    6  C11 UNL     1      -3.211   1.997   0.466  1.00  0.00     0.138 A 
HETATM    7  N4  UNL     1      -3.374   0.861   1.165  1.00  0.00    -0.174 N 
ATOM      8  H4  UNL     1      -4.113   0.783   1.864  1.00  0.00     0.186 HD
HETATM    9  C12 UNL     1      -2.542  -0.176   0.926  1.00  0.00     0.696 A 
ENDROOT
BRANCH   1  10
HETATM   10  C8  UNL     1      -0.707  -1.230  -0.209  1.00  0.00     0.279 C 
HETATM   11  C2  UNL     1      -0.173  -2.002   0.922  1.00  0.00     0.129 C 
HETATM   12  C3  UNL     1       1.327  -2.071   0.555  1.00  0.00     0.166 C 
HETATM   13  C4  UNL     1       1.446  -0.684  -0.071  1.00  0.00     0.163 C 
HETATM   14  O2  UNL     1       0.388  -0.773  -0.988  1.00  0.00    -0.354 OA
BRANCH  11  15
HETATM   15  S1  UNL     1      -0.711  -3.725   0.997  1.00  0.00    -0.162 SA
HETATM   16  C1  UNL     1      -0.669  -4.558  -0.573  1.00  0.00     0.090 C 
ENDBRANCH  11  15
BRANCH  12  17
HETATM   17  O1  UNL     1       1.547  -3.027  -0.421  1.00  0.00    -0.392 OA
ATOM     18  H1  UNL     1       2.469  -3.069  -0.647  1.00  0.00     0.210 HD
ENDBRANCH  12  17
BRANCH  13  19
HETATM   19  C5  UNL     1       2.756  -0.501  -0.739  1.00  0.00     0.108 C 
BRANCH  19  20
HETATM   20  S2  UNL     1       2.887   1.144  -1.474  1.00  0.00    -0.164 SA
BRANCH  20  21
HETATM   21  C6  UNL     1       2.907   2.442  -0.214  1.00  0.00     0.105 C 
BRANCH  21  22
HETATM   22  C7  UNL     1       4.149   2.386   0.651  1.00  0.00     0.232 C 
HETATM   23  F1  UNL     1       5.298   2.541  -0.106  1.00  0.00    -0.255 F 
ENDBRANCH  21  22
ENDBRANCH  20  21
ENDBRANCH  19  20
ENDBRANCH  13  19
ENDBRANCH   1  10
BRANCH   9  24
HETATM   24  N5  UNL     1      -2.712  -1.233   1.592  1.00  0.00    -0.233 N 
ATOM     25  H52 UNL     1      -2.084  -2.016   1.412  1.00  0.00     0.174 HD
ATOM     26  H51 UNL     1      -3.464  -1.266   2.281  1.00  0.00     0.174 HD
ENDBRANCH   9  24
BRANCH   6  27
HETATM   27  N3  UNL     1      -3.985   3.017   0.662  1.00  0.00    -0.383 N 
ATOM     28  H32 UNL     1      -3.861   3.879   0.131  1.00  0.00     0.157 HD
ATOM     29  H31 UNL     1      -4.732   2.969   1.354  1.00  0.00     0.157 HD
ENDBRANCH   6  27
TORSDOF 9
