REMARK  8 active torsions:
REMARK  status: ('A' for Active; 'I' for Inactive)
REMARK    1  A    between atoms: C2_2  and  C3_3 
REMARK    2  A    between atoms: C3_3  and  S1_4 
REMARK    3  A    between atoms: S1_4  and  C4_5 
REMARK    4  A    between atoms: C5_8  and  C6_9 
REMARK    5  A    between atoms: C6_9  and  O1_10 
REMARK    6  A    between atoms: N2_12  and  O2_14 
REMARK    7  A    between atoms: C7_16  and  C8_17 
REMARK       I    between atoms: C8_17  and  N3_19 
REMARK    8  A    between atoms: C10_22  and  C11_23 
ROOT
HETATM    1  C4  UNL     1       1.204  -0.326   0.232  1.00  0.00     0.203 C 
HETATM    2  N1  UNL     1       0.216   0.529   0.819  1.00  0.00    -0.389 N 
ATOM      3  H1  UNL     1       0.194   0.735   1.818  1.00  0.00     0.156 HD
HETATM    4  C5  UNL     1      -0.743   1.076  -0.104  1.00  0.00     0.169 C 
HETATM    5  C7  UNL     1      -1.624   0.112  -0.789  1.00  0.00     0.132 C 
HETATM    6  C10 UNL     1      -0.809  -0.595  -1.853  1.00  0.00     0.170 C 
HETATM    7  S2  UNL     1       0.516  -1.480  -0.979  1.00  0.00    -0.117 SA
ENDROOT
BRANCH   4   8
HETATM    8  C6  UNL     1      -1.394   2.219   0.564  1.00  0.00     0.159 C 
HETATM    9  N2  UNL     1      -1.516   3.377   0.004  1.00  0.00    -0.249 N 
ATOM     10  H2  UNL     1      -1.149   3.512  -0.938  1.00  0.00     0.196 HD
BRANCH   8  11
HETATM   11  O1  UNL     1      -1.896   2.059   1.837  1.00  0.00    -0.347 OA
ATOM     12  H1  UNL     1      -2.315   2.795   2.267  1.00  0.00     0.219 HD
ENDBRANCH   8  11
BRANCH   9  13
HETATM   13  O2  UNL     1      -2.124   4.430   0.639  1.00  0.00    -0.288 OA
ATOM     14  H2  UNL     1      -2.214   5.281   0.227  1.00  0.00     0.244 HD
ENDBRANCH   9  13
ENDBRANCH   4   8
BRANCH   5  15
HETATM   15  C8  UNL     1      -2.394  -0.817   0.057  1.00  0.00     0.225 C 
HETATM   16  O3  UNL     1      -2.019  -2.041   0.199  1.00  0.00    -0.273 OA
HETATM   17  N3  UNL     1      -3.559  -0.465   0.758  1.00  0.00    -0.365 N 
HETATM   18  C9  UNL     1      -4.246  -1.429   1.569  1.00  0.00     0.149 C 
ATOM     19  H3  UNL     1      -3.921   0.486   0.690  1.00  0.00     0.161 HD
ENDBRANCH   5  15
BRANCH   1  20
HETATM   20  S1  UNL     1       2.549   0.573  -0.563  1.00  0.00    -0.134 SA
BRANCH  20  21
HETATM   21  C3  UNL     1       3.693  -0.664  -1.240  1.00  0.00     0.076 C 
BRANCH  21  22
HETATM   22  C2  UNL     1       4.309  -1.394  -0.066  1.00  0.00     0.006 C 
HETATM   23  C1  UNL     1       5.034  -0.367   0.771  1.00  0.00     0.006 C 
ENDBRANCH  21  22
ENDBRANCH  20  21
ENDBRANCH   1  20
BRANCH   6  24
HETATM   24  C11 UNL     1      -1.611  -1.481  -2.698  1.00  0.00     0.313 C 
HETATM   25  O4  UNL     1      -1.342  -2.670  -2.731  1.00  0.00    -0.259 OA
HETATM   26  F1  UNL     1      -2.625  -0.988  -3.422  1.00  0.00    -0.163 F 
ENDBRANCH   6  24
TORSDOF 8
