REMARK  8 active torsions:
REMARK  status: ('A' for Active; 'I' for Inactive)
REMARK    1  A    between atoms: O1_2  and  C2_3 
REMARK    2  A    between atoms: C3_5  and  C4_6 
REMARK    3  A    between atoms: C5_10  and  N2_11 
REMARK    4  A    between atoms: C8_16  and  N4_17 
REMARK    5  A    between atoms: C9_22  and  N6_23 
REMARK    6  A    between atoms: C11_29  and  O3_30 
REMARK    7  A    between atoms: O3_30  and  C12_31 
REMARK    8  A    between atoms: C12_31  and  C14_33 
ROOT
HETATM    1  N2  UNL     1       1.174  -0.391   0.672  1.00  0.00    -0.317 N 
HETATM    2  C6  UNL     1       1.610  -1.321   1.583  1.00  0.00     0.185 A 
HETATM    3  N3  UNL     1       2.481  -2.167   1.024  1.00  0.00    -0.346 N 
ATOM      4  H3  UNL     1       2.948  -2.946   1.488  1.00  0.00     0.167 HD
HETATM    5  C7  UNL     1       2.627  -1.806  -0.253  1.00  0.00     0.123 A 
HETATM    6  C8  UNL     1       3.390  -2.315  -1.287  1.00  0.00     0.145 A 
HETATM    7  N5  UNL     1       3.318  -1.715  -2.487  1.00  0.00    -0.175 N 
ATOM      8  H5  UNL     1       3.878  -2.086  -3.254  1.00  0.00     0.186 HD
HETATM    9  C9  UNL     1       2.537  -0.646  -2.716  1.00  0.00     0.679 A 
HETATM   10  N7  UNL     1       1.787  -0.145  -1.700  1.00  0.00    -0.174 N 
ATOM     11  H7  UNL     1       1.193   0.666  -1.869  1.00  0.00     0.186 HD
HETATM   12  C10 UNL     1       1.815  -0.703  -0.470  1.00  0.00     0.155 A 
ENDROOT
BRANCH   1  13
HETATM   13  C5  UNL     1       0.257   0.635   0.942  1.00  0.00     0.160 C 
HETATM   14  C3  UNL     1       0.684   2.057   0.827  1.00  0.00     0.188 C 
HETATM   15  O2  UNL     1      -0.115   2.585  -0.187  1.00  0.00    -0.346 OA
HETATM   16  C2  UNL     1      -1.373   2.078   0.159  1.00  0.00     0.291 C 
HETATM   17  C11 UNL     1      -1.062   0.615   0.226  1.00  0.00     0.203 C 
BRANCH  14  18
HETATM   18  C4  UNL     1       2.123   2.287   0.644  1.00  0.00     0.087 C 
HETATM   19  N1  UNL     1       2.951   2.249   1.590  1.00  0.00    -0.409 N 
ATOM     20  H12 UNL     1       2.589   2.048   2.522  1.00  0.00     0.155 HD
ATOM     21  H11 UNL     1       3.950   2.409   1.463  1.00  0.00     0.155 HD
ENDBRANCH  14  18
BRANCH  16  22
HETATM   22  O1  UNL     1      -1.679   2.641   1.389  1.00  0.00    -0.363 OA
HETATM   23  C1  UNL     1      -2.830   3.394   1.294  1.00  0.00     0.204 C 
ENDBRANCH  16  22
BRANCH  17  24
HETATM   24  O3  UNL     1      -2.001  -0.204   0.716  1.00  0.00    -0.371 OA
BRANCH  24  25
HETATM   25  C12 UNL     1      -2.552  -1.179  -0.003  1.00  0.00     0.146 C 
HETATM   26  C13 UNL     1      -4.083  -1.109  -0.087  1.00  0.00     0.042 C 
BRANCH  25  27
HETATM   27  C14 UNL     1      -2.250  -2.501   0.686  1.00  0.00     0.253 C 
HETATM   28  F1  UNL     1      -2.803  -3.549  -0.025  1.00  0.00    -0.253 F 
ENDBRANCH  25  27
ENDBRANCH  24  25
ENDBRANCH  17  24
ENDBRANCH   1  13
BRANCH   6  29
HETATM   29  N4  UNL     1       4.128  -3.334  -1.051  1.00  0.00    -0.383 N 
ATOM     30  H42 UNL     1       4.183  -3.790  -0.140  1.00  0.00     0.157 HD
ATOM     31  H41 UNL     1       4.691  -3.710  -1.814  1.00  0.00     0.157 HD
ENDBRANCH   6  29
BRANCH   9  32
HETATM   32  N6  UNL     1       2.446  -0.049  -3.855  1.00  0.00    -0.234 N 
ATOM     33  H62 UNL     1       3.009  -0.425  -4.618  1.00  0.00     0.174 HD
ATOM     34  H61 UNL     1       1.853   0.763  -4.029  1.00  0.00     0.174 HD
ENDBRANCH   9  32
TORSDOF 8
