REMARK  9 active torsions:
REMARK  status: ('A' for Active; 'I' for Inactive)
REMARK    1  A    between atoms: C2_3  and  C3_4 
REMARK    2  A    between atoms: C3_4  and  N2_5 
REMARK    3  A    between atoms: N2_5  and  C4_6 
REMARK    4  A    between atoms: N2_5  and  C10_24 
REMARK    5  A    between atoms: C4_6  and  C5_7 
REMARK    6  A    between atoms: C5_7  and  O1_8 
REMARK    7  A    between atoms: C5_7  and  C6_11 
REMARK    8  A    between atoms: C6_11  and  N3_12 
REMARK    9  A    between atoms: C9_20  and  N7_21 
ROOT
HETATM    1  N1  UNL     1      -3.065  -3.797  -1.513  1.00  0.00    -0.197 NA
HETATM    2  C1  UNL     1      -2.565  -3.080  -0.756  1.00  0.00     0.061 C 
HETATM    3  C2  UNL     1      -1.920  -2.197   0.212  1.00  0.00     0.155 C 
ENDROOT
BRANCH   3   4
HETATM    4  C3  UNL     1      -1.812  -0.771  -0.354  1.00  0.00     0.046 A 
HETATM    5  C13 UNL     1      -3.250  -0.359  -0.728  1.00  0.00     0.032 A 
HETATM    6  C14 UNL     1      -2.911  -0.341  -2.181  1.00  0.00     0.005 A 
HETATM    7  C15 UNL     1      -1.484  -0.664  -1.796  1.00  0.00     0.032 A 
BRANCH   4   8
HETATM    8  N2  UNL     1      -1.185   0.123   0.570  1.00  0.00    -0.346 N 
BRANCH   8   9
HETATM    9  C4  UNL     1       0.075  -0.135   1.168  1.00  0.00     0.201 C 
BRANCH   9  10
HETATM   10  C5  UNL     1       1.280  -0.124   0.306  1.00  0.00     0.237 C 
HETATM   11  F1  UNL     1       1.516   1.131  -0.262  1.00  0.00    -0.208 F 
BRANCH  10  12
HETATM   12  O1  UNL     1       1.342  -1.028  -0.710  1.00  0.00    -0.359 OA
ATOM     13  H1  UNL     1       2.115  -1.021  -1.263  1.00  0.00     0.213 HD
ENDBRANCH  10  12
BRANCH  10  14
HETATM   14  C6  UNL     1       2.477  -0.388   1.235  1.00  0.00     0.243 C 
BRANCH  14  15
HETATM   15  N3  UNL     1       3.719  -0.404   0.505  1.00  0.00    -0.116 N 
HETATM   16  N4  UNL     1       4.416   0.686   0.271  1.00  0.00    -0.259 N 
HETATM   17  C7  UNL     1       5.490   0.314  -0.439  1.00  0.00     0.218 A 
ATOM     18  H4  UNL     1       4.184   1.633   0.572  1.00  0.00     0.190 HD
HETATM   19  C8  UNL     1       6.522   1.221  -0.906  1.00  0.00     0.139 C 
HETATM   20  N6  UNL     1       5.433  -1.000  -0.628  1.00  0.00    -0.164 N 
HETATM   21  N5  UNL     1       7.335   1.962  -1.288  1.00  0.00    -0.188 NA
HETATM   22  C9  UNL     1       4.314  -1.467  -0.033  1.00  0.00     0.695 A 
ATOM     23  H6  UNL     1       6.117  -1.560  -1.136  1.00  0.00     0.186 HD
BRANCH  22  24
HETATM   24  N7  UNL     1       3.961  -2.694  -0.014  1.00  0.00    -0.233 N 
ATOM     25  H72 UNL     1       3.116  -3.047   0.435  1.00  0.00     0.174 HD
ATOM     26  H71 UNL     1       4.417  -3.508  -0.426  1.00  0.00     0.174 HD
ENDBRANCH  22  24
ENDBRANCH  14  15
ENDBRANCH  10  14
ENDBRANCH   9  10
ENDBRANCH   8   9
BRANCH   8  27
HETATM   27  C10 UNL     1      -1.878   1.333   0.893  1.00  0.00     0.143 C 
HETATM   28  N8  UNL     1      -1.812   2.476   0.397  1.00  0.00    -0.350 N 
HETATM   29  C11 UNL     1      -2.582   3.538   0.861  1.00  0.00     0.073 C 
ATOM     30  H8  UNL     1      -1.169   2.638  -0.378  1.00  0.00     0.167 HD
HETATM   31  C12 UNL     1      -3.804   3.064   1.617  1.00  0.00     0.127 C 
HETATM   32  S1  UNL     1      -3.118   1.463   2.211  1.00  0.00    -0.089 SA
ENDBRANCH   8  27
ENDBRANCH   4   8
ENDBRANCH   3   4
TORSDOF 9
