REMARK  8 active torsions:
REMARK  status: ('A' for Active; 'I' for Inactive)
REMARK    1  A    between atoms: O1_1  and  C1_3 
REMARK    2  A    between atoms: C2_4  and  C3_5 
REMARK    3  A    between atoms: N1_7  and  C5_8 
REMARK    4  A    between atoms: C5_8  and  C6_9 
REMARK    5  A    between atoms: C6_9  and  C7_10 
REMARK    6  A    between atoms: C7_10  and  C8_11 
REMARK    7  A    between atoms: C9_18  and  N4_19 
REMARK    8  A    between atoms: C16_30  and  O3_31 
ROOT
HETATM    1  C1  UNL     1       0.017   1.251   1.603  1.00  0.00     0.186 C 
HETATM    2  C2  UNL     1      -0.036  -0.142   1.003  1.00  0.00     0.208 C 
HETATM    3  O2  UNL     1      -0.857  -0.062  -0.110  1.00  0.00    -0.349 OA
HETATM    4  C9  UNL     1      -1.530   1.126  -0.116  1.00  0.00     0.262 C 
HETATM    5  C16 UNL     1      -1.422   1.695   1.292  1.00  0.00     0.199 C 
ENDROOT
BRANCH   2   6
HETATM    6  C3  UNL     1       1.317  -0.661   0.707  1.00  0.00     0.075 A 
HETATM    7  C4  UNL     1       2.507  -0.154   1.192  1.00  0.00     0.140 A 
HETATM    8  N1  UNL     1       3.548  -0.888   0.704  1.00  0.00    -0.287 N 
HETATM    9  N2  UNL     1       3.010  -1.804  -0.048  1.00  0.00    -0.241 N 
HETATM   10  N3  UNL     1       1.680  -1.699  -0.069  1.00  0.00    -0.286 N 
ATOM     11  H2  UNL     1       3.538  -2.513  -0.557  1.00  0.00     0.208 HD
ATOM     12  H3  UNL     1       1.044  -2.305  -0.587  1.00  0.00     0.188 HD
BRANCH   8  13
HETATM   13  C5  UNL     1       4.956  -0.711   0.951  1.00  0.00     0.150 C 
BRANCH  13  14
HETATM   14  C6  UNL     1       5.612   0.206  -0.035  1.00  0.00     0.024 C 
BRANCH  14  15
HETATM   15  C7  UNL     1       5.542  -0.234  -1.456  1.00  0.00     0.033 C 
BRANCH  15  16
HETATM   16  C8  UNL     1       6.187  -1.550  -1.740  1.00  0.00     0.222 C 
HETATM   17  F1  UNL     1       7.527  -1.472  -1.405  1.00  0.00    -0.255 F 
ENDBRANCH  15  16
ENDBRANCH  14  15
ENDBRANCH  13  14
ENDBRANCH   8  13
ENDBRANCH   2   6
BRANCH   1  18
HETATM   18  O1  UNL     1       0.914   2.061   0.877  1.00  0.00    -0.390 OA
ATOM     19  H1  UNL     1       0.947   2.933   1.253  1.00  0.00     0.210 HD
ENDBRANCH   1  18
BRANCH   5  20
HETATM   20  O3  UNL     1      -1.566   3.051   1.343  1.00  0.00    -0.388 OA
ATOM     21  H3  UNL     1      -2.455   3.325   1.151  1.00  0.00     0.210 HD
ENDBRANCH   5  20
BRANCH   4  22
HETATM   22  N4  UNL     1      -2.905   1.060  -0.537  1.00  0.00    -0.298 N 
HETATM   23  C10 UNL     1      -3.585   2.046  -1.143  1.00  0.00     0.187 A 
HETATM   24  N5  UNL     1      -4.839   1.634  -1.390  1.00  0.00    -0.352 N 
HETATM   25  C11 UNL     1      -4.984   0.377  -0.947  1.00  0.00     0.054 A 
ATOM     26  H5  UNL     1      -5.565   2.189  -1.843  1.00  0.00     0.166 HD
HETATM   27  C12 UNL     1      -3.767   0.017  -0.411  1.00  0.00     0.129 A 
HETATM   28  C15 UNL     1      -6.136  -0.539  -0.962  1.00  0.00     0.062 C 
HETATM   29  N6  UNL     1      -3.639  -1.277   0.135  1.00  0.00    -0.374 N 
HETATM   30  C13 UNL     1      -4.814  -2.043   0.451  1.00  0.00     0.121 C 
ATOM     31  H6  UNL     1      -2.713  -1.669   0.306  1.00  0.00     0.161 HD
HETATM   32  C14 UNL     1      -5.750  -1.972  -0.738  1.00  0.00     0.026 C 
ENDBRANCH   4  22
TORSDOF 8
