REMARK  12 active torsions:
REMARK  status: ('A' for Active; 'I' for Inactive)
REMARK    1  A    between atoms: C4_4  and  C5_5 
REMARK    2  A    between atoms: N1_6  and  C6_8 
REMARK    3  A    between atoms: C6_8  and  C7_9 
REMARK    4  A    between atoms: C7_9  and  C9_13 
REMARK    5  A    between atoms: C9_13  and  O1_14 
REMARK    6  A    between atoms: O1_14  and  N3_15 
REMARK    7  A    between atoms: C10_17  and  N4_19 
REMARK    8  A    between atoms: N4_19  and  O2_21 
REMARK    9  A    between atoms: C13_24  and  N5_25 
REMARK   10  A    between atoms: N5_25  and  N6_27 
REMARK   11  A    between atoms: N6_27  and  N7_28 
REMARK   12  A    between atoms: C14_31  and  O4_32 
ROOT
HETATM    1  C7  UNL     1      -0.682   0.869   0.045  1.00  0.00     0.229 C 
HETATM    2  F1  UNL     1       0.015   2.037  -0.180  1.00  0.00    -0.223 F 
HETATM    3  C8  UNL     1      -0.831   0.177  -1.210  1.00  0.00     0.107 C 
HETATM    4  N2  UNL     1      -0.968  -0.367  -2.213  1.00  0.00    -0.194 NA
ENDROOT
BRANCH   1   5
HETATM    5  C6  UNL     1      -0.094   0.053   1.146  1.00  0.00     0.180 C 
BRANCH   5   6
HETATM    6  N1  UNL     1       1.242  -0.359   0.937  1.00  0.00    -0.395 N 
HETATM    7  C5  UNL     1       1.623  -1.320   0.199  1.00  0.00     0.092 C 
ATOM      8  H1  UNL     1       1.969   0.165   1.425  1.00  0.00     0.158 HD
BRANCH   7   9
HETATM    9  C4  UNL     1       3.059  -1.640   0.073  1.00  0.00     0.193 C 
HETATM   10  C3  UNL     1       3.923  -0.588   0.668  1.00  0.00    -0.018 C 
HETATM   11  C2  UNL     1       3.943  -0.151   1.909  1.00  0.00    -0.023 C 
HETATM   12  C14 UNL     1       4.788  -0.104  -0.436  1.00  0.00     0.200 C 
HETATM   13  C1  UNL     1       4.873   0.909   2.335  1.00  0.00     0.036 C 
HETATM   14  C13 UNL     1       3.961  -0.537  -1.655  1.00  0.00     0.284 C 
HETATM   15  O3  UNL     1       3.467  -1.758  -1.256  1.00  0.00    -0.347 OA
BRANCH  12  16
HETATM   16  O4  UNL     1       5.999  -0.777  -0.406  1.00  0.00    -0.387 OA
ATOM     17  H4  UNL     1       6.553  -0.467  -1.113  1.00  0.00     0.210 HD
ENDBRANCH  12  16
BRANCH  14  18
HETATM   18  N5  UNL     1       2.909   0.442  -1.828  1.00  0.00    -0.220 N 
ATOM     19  H5  UNL     1       1.985   0.226  -1.454  1.00  0.00     0.200 HD
BRANCH  18  20
HETATM   20  N6  UNL     1       3.063   1.501  -2.391  1.00  0.00    -0.246 NA
BRANCH  20  21
HETATM   21  N7  UNL     1       3.389   2.434  -3.124  1.00  0.00    -0.261 N 
ATOM     22  H72 UNL     1       3.999   1.824  -3.669  1.00  0.00     0.193 HD
ATOM     23  H71 UNL     1       3.519   3.327  -3.599  1.00  0.00     0.193 HD
ENDBRANCH  20  21
ENDBRANCH  18  20
ENDBRANCH  14  18
ENDBRANCH   7   9
ENDBRANCH   5   6
ENDBRANCH   1   5
BRANCH   1  24
HETATM   24  C9  UNL     1      -2.081   1.299   0.504  1.00  0.00     0.262 C 
BRANCH  24  25
HETATM   25  O1  UNL     1      -2.848   0.129   0.744  1.00  0.00    -0.275 OA
BRANCH  25  26
HETATM   26  N3  UNL     1      -4.145   0.316   1.168  1.00  0.00    -0.253 N 
HETATM   27  C10 UNL     1      -5.114  -0.068   0.439  1.00  0.00     0.119 C 
HETATM   28  C11 UNL     1      -6.501   0.144   0.916  1.00  0.00     0.093 C 
ATOM     29  H3  UNL     1      -4.328   0.762   2.067  1.00  0.00     0.195 HD
BRANCH  27  30
HETATM   30  N4  UNL     1      -4.951  -0.701  -0.827  1.00  0.00    -0.252 N 
HETATM   31  C12 UNL     1      -5.000   0.149  -2.011  1.00  0.00     0.187 C 
BRANCH  30  32
HETATM   32  O2  UNL     1      -4.758  -2.020  -0.971  1.00  0.00    -0.286 OA
ATOM     33  H2  UNL     1      -4.649  -2.442  -1.815  1.00  0.00     0.244 HD
ENDBRANCH  30  32
ENDBRANCH  27  30
ENDBRANCH  25  26
ENDBRANCH  24  25
ENDBRANCH   1  24
TORSDOF 12
