REMARK  9 active torsions:
REMARK  status: ('A' for Active; 'I' for Inactive)
REMARK    1  A    between atoms: C2_2  and  C3_3 
REMARK    2  A    between atoms: C3_3  and  O1_4 
REMARK    3  A    between atoms: O1_4  and  N1_5 
REMARK    4  A    between atoms: C4_6  and  O2_7 
REMARK    5  A    between atoms: C6_10  and  C7_11 
REMARK    6  A    between atoms: C7_11  and  O3_12 
REMARK    7  A    between atoms: C7_11  and  N2_14 
REMARK    8  A    between atoms: N2_14  and  C8_16 
REMARK    9  A    between atoms: C9_21  and  N5_22 
ROOT
HETATM    1  C7  UNL     1       0.749  -0.314   0.679  1.00  0.00     0.258 C 
ENDROOT
BRANCH   1   2
HETATM    2  C6  UNL     1       2.132  -0.785   0.474  1.00  0.00     0.052 A 
HETATM    3  C5  UNL     1       2.555  -2.032   0.874  1.00  0.00     0.074 A 
HETATM    4  C4  UNL     1       3.898  -2.142   0.526  1.00  0.00     0.171 A 
HETATM    5  N1  UNL     1       4.290  -1.003  -0.066  1.00  0.00    -0.171 N 
HETATM    6  C14 UNL     1       3.220  -0.176  -0.099  1.00  0.00     0.227 A 
HETATM    7  F1  UNL     1       3.232   1.053  -0.614  1.00  0.00    -0.183 F 
BRANCH   4   8
HETATM    8  O2  UNL     1       4.650  -3.300   0.789  1.00  0.00    -0.344 OA
ATOM      9  H2  UNL     1       4.373  -4.106   1.208  1.00  0.00     0.219 HD
ENDBRANCH   4   8
BRANCH   5  10
HETATM   10  O1  UNL     1       5.555  -0.780  -0.539  1.00  0.00    -0.265 OA
BRANCH  10  11
HETATM   11  C3  UNL     1       6.371   0.221   0.085  1.00  0.00     0.229 C 
BRANCH  11  12
HETATM   12  C2  UNL     1       7.685   0.350  -0.543  1.00  0.00    -0.009 C 
HETATM   13  C1  UNL     1       8.078   1.477  -1.079  1.00  0.00     0.009 C 
ENDBRANCH  11  12
ENDBRANCH  10  11
ENDBRANCH   5  10
ENDBRANCH   1   2
BRANCH   1  14
HETATM   14  O3  UNL     1      -0.092  -1.358   0.298  1.00  0.00    -0.372 OA
ATOM     15  H3  UNL     1      -0.983  -1.055   0.430  1.00  0.00     0.212 HD
ENDBRANCH   1  14
BRANCH   1  16
HETATM   16  N2  UNL     1       0.407   0.838  -0.109  1.00  0.00    -0.339 N 
ATOM     17  H2  UNL     1       1.115   1.480  -0.467  1.00  0.00     0.164 HD
BRANCH  16  18
HETATM   18  C8  UNL     1      -0.874   1.013  -0.340  1.00  0.00     0.165 A 
HETATM   19  N3  UNL     1      -1.471   1.992  -1.038  1.00  0.00    -0.278 N 
HETATM   20  N4  UNL     1      -2.733   1.982  -1.145  1.00  0.00    -0.278 N 
ATOM     21  H3  UNL     1      -0.919   2.730  -1.474  1.00  0.00     0.189 HD
HETATM   22  C9  UNL     1      -3.465   1.037  -0.591  1.00  0.00     0.165 A 
ATOM     23  H4  UNL     1      -3.194   2.723  -1.673  1.00  0.00     0.189 HD
HETATM   24  S1  UNL     1      -2.220   0.082   0.150  1.00  0.00    -0.015 SA
BRANCH  22  25
HETATM   25  N5  UNL     1      -4.856   0.778  -0.539  1.00  0.00    -0.356 N 
HETATM   26  C10 UNL     1      -5.361  -0.561  -0.867  1.00  0.00     0.151 C 
HETATM   27  C11 UNL     1      -5.979  -1.047   0.444  1.00  0.00     0.187 C 
HETATM   28  O4  UNL     1      -6.960  -0.166   0.835  1.00  0.00    -0.388 OA
HETATM   29  C12 UNL     1      -7.144   0.932   0.036  1.00  0.00     0.187 C 
HETATM   30  C13 UNL     1      -5.851   1.750  -0.163  1.00  0.00     0.151 C 
ENDBRANCH  22  25
ENDBRANCH  16  18
ENDBRANCH   1  16
TORSDOF 9
