REMARK  10 active torsions:
REMARK  status: ('A' for Active; 'I' for Inactive)
REMARK    1  A    between atoms: N1_1  and  N2_4 
REMARK    2  A    between atoms: N2_4  and  N3_5 
REMARK    3  A    between atoms: N3_5  and  C1_7 
REMARK    4  A    between atoms: C1_7  and  C2_8 
REMARK    5  A    between atoms: C2_8  and  O1_9 
REMARK    6  A    between atoms: O1_9  and  C3_10 
REMARK    7  A    between atoms: C3_10  and  C4_11 
REMARK    8  A    between atoms: C5_13  and  N4_14 
REMARK    9  A    between atoms: C9_23  and  N7_24 
REMARK   10  A    between atoms: C11_30  and  O3_31 
ROOT
HETATM    1  C4  UNL     1       1.038  -0.687  -0.556  1.00  0.00     0.184 C 
HETATM    2  O2  UNL     1       0.099  -0.101   0.298  1.00  0.00    -0.353 OA
HETATM    3  C5  UNL     1      -0.978  -0.983   0.368  1.00  0.00     0.262 C 
HETATM    4  C11 UNL     1      -0.508  -2.319  -0.093  1.00  0.00     0.204 C 
HETATM    5  C12 UNL     1       1.017  -2.118  -0.058  1.00  0.00     0.234 C 
HETATM    6  F1  UNL     1       1.470  -2.224   1.240  1.00  0.00    -0.244 F 
ENDROOT
BRANCH   3   7
HETATM    7  N4  UNL     1      -2.048  -0.424  -0.408  1.00  0.00    -0.297 N 
HETATM    8  C6  UNL     1      -2.298  -0.614  -1.718  1.00  0.00     0.188 A 
HETATM    9  N5  UNL     1      -3.407   0.102  -2.038  1.00  0.00    -0.347 N 
HETATM   10  C7  UNL     1      -3.845   0.734  -0.936  1.00  0.00     0.117 A 
ATOM     11  H5  UNL     1      -3.836   0.152  -2.962  1.00  0.00     0.167 HD
HETATM   12  C8  UNL     1      -4.917   1.576  -0.719  1.00  0.00     0.147 A 
HETATM   13  C10 UNL     1      -2.984   0.399   0.090  1.00  0.00     0.156 A 
HETATM   14  S1  UNL     1      -5.902   1.947  -1.941  1.00  0.00    -0.057 SA
HETATM   15  N6  UNL     1      -5.134   2.081   0.500  1.00  0.00    -0.179 N 
HETATM   16  C9  UNL     1      -4.303   1.760   1.499  1.00  0.00     0.678 A 
ATOM     17  H6  UNL     1      -5.924   2.704   0.667  1.00  0.00     0.185 HD
HETATM   18  N8  UNL     1      -3.236   0.926   1.298  1.00  0.00    -0.174 N 
ATOM     19  H8  UNL     1      -2.622   0.701   2.081  1.00  0.00     0.186 HD
BRANCH  16  20
HETATM   20  N7  UNL     1      -4.527   2.255   2.666  1.00  0.00    -0.234 N 
ATOM     21  H72 UNL     1      -5.322   2.876   2.816  1.00  0.00     0.174 HD
ATOM     22  H71 UNL     1      -3.894   2.010   3.427  1.00  0.00     0.174 HD
ENDBRANCH  16  20
ENDBRANCH   3   7
BRANCH   4  23
HETATM   23  O3  UNL     1      -0.882  -3.362   0.744  1.00  0.00    -0.388 OA
ATOM     24  H3  UNL     1      -0.582  -4.214   0.450  1.00  0.00     0.210 HD
ENDBRANCH   4  23
BRANCH   1  25
HETATM   25  C3  UNL     1       2.374  -0.033  -0.410  1.00  0.00     0.202 C 
BRANCH  25  26
HETATM   26  O1  UNL     1       2.907  -0.106   0.842  1.00  0.00    -0.387 OA
BRANCH  26  27
HETATM   27  C2  UNL     1       4.120   0.503   0.971  1.00  0.00     0.189 C 
BRANCH  27  28
HETATM   28  C1  UNL     1       5.184  -0.080   0.074  1.00  0.00     0.181 C 
BRANCH  28  29
HETATM   29  N3  UNL     1       6.404   0.669   0.333  1.00  0.00    -0.251 N 
ATOM     30  H3  UNL     1       7.317   0.215   0.366  1.00  0.00     0.197 HD
BRANCH  29  31
HETATM   31  N2  UNL     1       6.275   1.885   0.511  1.00  0.00    -0.248 NA
BRANCH  31  32
HETATM   32  N1  UNL     1       6.247   3.022   1.001  1.00  0.00    -0.261 N 
ATOM     33  H12 UNL     1       6.557   2.706   1.920  1.00  0.00     0.193 HD
ATOM     34  H11 UNL     1       6.141   4.026   1.148  1.00  0.00     0.193 HD
ENDBRANCH  31  32
ENDBRANCH  29  31
ENDBRANCH  28  29
ENDBRANCH  27  28
ENDBRANCH  26  27
ENDBRANCH  25  26
ENDBRANCH   1  25
TORSDOF 10
