REMARK  1 active torsions:
REMARK  status: ('A' for Active; 'I' for Inactive)
REMARK    1  A    between atoms: N2_6  and  N3_8 
ROOT
HETATM    1  C1  UNL     1      -1.582  -0.642   0.289  1.00  0.00     0.040 C 
HETATM    2  C2  UNL     1      -0.669   0.559   0.382  1.00  0.00     0.147 A 
HETATM    3  N1  UNL     1      -0.655   1.525  -0.672  1.00  0.00    -0.366 N 
ATOM      4  H1  UNL     1      -1.117   2.270  -1.194  1.00  0.00     0.161 HD
HETATM    5  C3  UNL     1       0.517   0.656  -0.452  1.00  0.00     0.114 A 
HETATM    6  N2  UNL     1       1.702   0.318  -0.815  1.00  0.00    -0.294 N 
ATOM      7  H2  UNL     1       2.134   0.800  -1.603  1.00  0.00     0.187 HD
ENDROOT
BRANCH   6   8
HETATM    8  N3  UNL     1       2.418  -0.690  -0.163  1.00  0.00    -0.344 N 
ATOM      9  H32 UNL     1       1.971  -1.162   0.623  1.00  0.00     0.176 HD
ATOM     10  H31 UNL     1       3.359  -0.958  -0.451  1.00  0.00     0.176 HD
ENDBRANCH   6   8
TORSDOF 1
