REMARK  1 active torsions:
REMARK  status: ('A' for Active; 'I' for Inactive)
REMARK    1  A    between atoms: C3_5  and  N3_6 
ROOT
HETATM    1  C1  UNL     1      -0.812  -0.974   0.920  1.00  0.00     0.301 C 
HETATM    2  N1  UNL     1      -0.389   0.079   0.009  1.00  0.00     0.051 N 
HETATM    3  C2  UNL     1      -1.068   1.330   0.108  1.00  0.00     0.301 C 
HETATM    4  N2  UNL     1       0.068  -0.400  -1.215  1.00  0.00     0.021 NA
HETATM    5  C3  UNL     1       1.025   0.128  -0.368  1.00  0.00     0.524 A 
ENDROOT
BRANCH   5   6
HETATM    6  N3  UNL     1       1.863  -0.656   0.508  1.00  0.00    -0.032 N 
ATOM      7  H33 UNL     1       1.734  -0.380   1.481  1.00  0.00     0.278 HD
ATOM      8  H32 UNL     1       1.533  -1.619   0.565  1.00  0.00     0.278 HD
ATOM      9  H31 UNL     1       2.848  -0.622   0.245  1.00  0.00     0.278 HD
ENDBRANCH   5   6
TORSDOF 1
