REMARK  0 active torsions:
REMARK  status: ('A' for Active; 'I' for Inactive)
ROOT
HETATM    1  C1  UNL     1       1.793  -0.332   0.139  1.00  0.00     0.179 C 
HETATM    2  N1  UNL     1       0.333  -0.225   0.026  1.00  0.00    -0.282 N 
HETATM    3  N2  UNL     1      -0.535  -1.212  -0.075  1.00  0.00    -0.308 N 
ATOM      4  H2  UNL     1      -0.285  -2.201  -0.086  1.00  0.00     0.186 HD
HETATM    5  C2  UNL     1      -1.791  -0.746  -0.161  1.00  0.00     0.111 A 
HETATM    6  C3  UNL     1      -1.696   0.629  -0.110  1.00  0.00     0.068 A 
HETATM    7  C4  UNL     1      -0.359   0.925   0.006  1.00  0.00     0.116 A 
HETATM    8  N3  UNL     1       0.144   2.122   0.084  1.00  0.00    -0.384 N 
ATOM      9  H31 UNL     1      -0.382   2.996   0.069  1.00  0.00     0.157 HD
ATOM     10  H32 UNL     1       1.136   2.342   0.170  1.00  0.00     0.157 HD
ENDROOT
TORSDOF 0
