REMARK  0 active torsions:
REMARK  status: ('A' for Active; 'I' for Inactive)
ROOT
HETATM    1  N1  UNL     1       2.057   0.306   0.274  1.00  0.00    -0.106 NA
HETATM    2  C1  UNL     1       0.657   0.143   0.170  1.00  0.00     0.047 C 
HETATM    3  C2  UNL     1      -0.302   1.040   0.340  1.00  0.00     0.024 C 
HETATM    4  C3  UNL     1      -1.586   0.329   0.111  1.00  0.00     0.261 C 
HETATM    5  N2  UNL     1      -1.173  -0.670  -0.857  1.00  0.00    -0.067 N 
ATOM      6  H21 UNL     1      -1.043  -0.340  -1.813  1.00  0.00     0.277 HD
ATOM      7  H22 UNL     1      -1.875  -1.366  -1.109  1.00  0.00     0.277 HD
HETATM    8  C4  UNL     1       0.033  -1.183  -0.180  1.00  0.00     0.286 C 
ENDROOT
TORSDOF 0
