REMARK  1 active torsions:
REMARK  status: ('A' for Active; 'I' for Inactive)
REMARK    1  A    between atoms: N1_2  and  C2_4 
ROOT
HETATM    1  C2  UNL     1       1.063  -0.693   0.048  1.00  0.00     0.158 C 
HETATM    2  C3  UNL     1       1.377  -2.131   0.145  1.00  0.00     0.094 C 
HETATM    3  N2  UNL     1       1.629  -3.279   0.201  1.00  0.00    -0.194 NA
HETATM    4  C4  UNL     1      -0.140  -0.531  -0.858  1.00  0.00     0.087 C 
HETATM    5  C5  UNL     1      -1.163   0.162  -0.007  1.00  0.00     0.059 C 
HETATM    6  C6  UNL     1      -2.311  -0.724   0.373  1.00  0.00     0.045 C 
HETATM    7  C7  UNL     1      -1.739   1.327  -0.820  1.00  0.00     0.045 C 
HETATM    8  O1  UNL     1      -0.498   0.703   1.077  1.00  0.00    -0.357 OA
HETATM    9  C8  UNL     1       0.541  -0.174   1.355  1.00  0.00     0.260 C 
HETATM   10 CL1  UNL     1      -0.165  -1.554   2.234  1.00  0.00    -0.091 Cl
ENDROOT
BRANCH   1  11
HETATM   11  N1  UNL     1       2.235  -0.033  -0.417  1.00  0.00    -0.402 N 
HETATM   12  C1  UNL     1       2.185   1.387  -0.420  1.00  0.00     0.141 C 
ATOM     13  H1  UNL     1       3.059  -0.547  -0.729  1.00  0.00     0.154 HD
ENDBRANCH   1  11
TORSDOF 1
