REMARK  1 active torsions:
REMARK  status: ('A' for Active; 'I' for Inactive)
REMARK    1  A    between atoms: C6_7  and  C7_8 
ROOT
HETATM    1  C7  UNL     1       2.008  -0.183   0.653  1.00  0.00     0.117 A 
HETATM    2  N1  UNL     1       2.489  -0.046  -0.597  1.00  0.00    -0.272 N 
ATOM      3  H1  UNL     1       1.920   0.097  -1.431  1.00  0.00     0.190 HD
HETATM    4  N2  UNL     1       3.816  -0.124  -0.583  1.00  0.00    -0.227 N 
ATOM      5  H2  UNL     1       4.443  -0.055  -1.384  1.00  0.00     0.210 HD
HETATM    6  N3  UNL     1       4.157  -0.309   0.678  1.00  0.00    -0.227 N 
ATOM      7  H3  UNL     1       5.113  -0.408   1.019  1.00  0.00     0.210 HD
HETATM    8  N4  UNL     1       3.055  -0.347   1.446  1.00  0.00    -0.272 N 
ATOM      9  H4  UNL     1       3.030  -0.478   2.457  1.00  0.00     0.190 HD
ENDROOT
BRANCH   1  10
HETATM   10  C6  UNL     1       0.547  -0.137   0.935  1.00  0.00     0.059 C 
HETATM   11  C5  UNL     1       0.026   1.190   0.583  1.00  0.00     0.012 C 
HETATM   12  C4  UNL     1      -0.760   1.266  -0.690  1.00  0.00     0.001 C 
HETATM   13  C3  UNL     1      -2.193   0.965  -0.389  1.00  0.00     0.003 C 
HETATM   14  C2  UNL     1      -2.277  -0.159   0.617  1.00  0.00     0.037 C 
HETATM   15  C1  UNL     1      -1.528  -1.372   0.201  1.00  0.00     0.171 C 
HETATM   16  F1  UNL     1      -1.973  -1.716  -1.084  1.00  0.00    -0.249 F 
HETATM   17  C8  UNL     1      -0.070  -1.312   0.263  1.00  0.00     0.049 C 
ENDBRANCH   1  10
TORSDOF 1
