REMARK  4 active torsions:
REMARK  status: ('A' for Active; 'I' for Inactive)
REMARK    1  A    between atoms: C2_2  and  C3_4 
REMARK    2  A    between atoms: C3_4  and  N2_9 
REMARK    3  A    between atoms: N1_5  and  O1_7 
REMARK    4  A    between atoms: N2_9  and  C4_11 
ROOT
HETATM    1  C3  UNL     1       1.821   0.391  -0.118  1.00  0.00     0.142 C 
HETATM    2  N1  UNL     1       1.888   0.966  -1.252  1.00  0.00    -0.252 N 
ATOM      3  H1  UNL     1       1.090   1.544  -1.517  1.00  0.00     0.196 HD
ENDROOT
BRANCH   1   4
HETATM    4  C2  UNL     1       2.930  -0.450   0.316  1.00  0.00     0.070 C 
HETATM    5  C1  UNL     1       2.879  -1.053   1.483  1.00  0.00     0.041 C 
HETATM    6 CL1  UNL     1       4.334  -0.667  -0.703  1.00  0.00    -0.081 Cl
ENDBRANCH   1   4
BRANCH   1   7
HETATM    7  N2  UNL     1       0.671   0.566   0.722  1.00  0.00    -0.369 N 
ATOM      8  H2  UNL     1       0.768   0.672   1.732  1.00  0.00     0.161 HD
BRANCH   7   9
HETATM    9  C4  UNL     1      -0.607   0.587   0.102  1.00  0.00     0.083 C 
HETATM   10  C5  UNL     1      -1.754   0.773   1.040  1.00  0.00     0.025 C 
HETATM   11  C6  UNL     1      -2.942   0.503   0.138  1.00  0.00     0.002 C 
HETATM   12  C7  UNL     1      -2.458  -0.588  -0.779  1.00  0.00     0.002 C 
HETATM   13  C8  UNL     1      -0.968  -0.690  -0.617  1.00  0.00     0.025 C 
ENDBRANCH   7   9
ENDBRANCH   1   7
BRANCH   2  14
HETATM   14  O1  UNL     1       2.900   0.894  -2.142  1.00  0.00    -0.288 OA
ATOM     15  H1  UNL     1       2.950   1.323  -2.988  1.00  0.00     0.244 HD
ENDBRANCH   2  14
TORSDOF 4
