REMARK  6 active torsions:
REMARK  status: ('A' for Active; 'I' for Inactive)
REMARK    1  A    between atoms: N3_4  and  C2_6 
REMARK    2  A    between atoms: C2_6  and  C3_7 
REMARK    3  A    between atoms: C3_7  and  C4_8 
REMARK    4  A    between atoms: C4_8  and  N4_9 
REMARK    5  A    between atoms: N4_9  and  C5_10 
REMARK       I    between atoms: N4_9  and  C6_12 
REMARK    6  A    between atoms: C6_12  and  C7_14 
ROOT
HETATM    1  N4  UNL     1       0.577  -1.466  -0.647  1.00  0.00    -0.295 N 
HETATM    2  C6  UNL     1      -0.429  -1.344   0.324  1.00  0.00     0.230 C 
HETATM    3  O2  UNL     1      -0.030  -1.167   1.541  1.00  0.00    -0.273 OA
ENDROOT
BRANCH   1   4
HETATM    4  C4  UNL     1       1.962  -1.355  -0.249  1.00  0.00     0.136 C 
BRANCH   4   5
HETATM    5  C3  UNL     1       2.447   0.092  -0.344  1.00  0.00     0.040 C 
BRANCH   5   6
HETATM    6  C2  UNL     1       3.896   0.151   0.082  1.00  0.00     0.123 C 
BRANCH   6   7
HETATM    7  N3  UNL     1       4.372   1.515  -0.003  1.00  0.00    -0.367 N 
HETATM    8  C1  UNL     1       5.625   1.803   0.076  1.00  0.00     0.196 C 
HETATM    9  N1  UNL     1       6.544   0.740   0.250  1.00  0.00    -0.067 NA
HETATM   10  N2  UNL     1       6.001   3.167  -0.017  1.00  0.00    -0.067 NA
ATOM     11  H3  UNL     1       3.697   2.269  -0.129  1.00  0.00     0.161 HD
ENDBRANCH   6   7
ENDBRANCH   5   6
ENDBRANCH   4   5
ENDBRANCH   1   4
BRANCH   1  12
HETATM   12  C5  UNL     1       0.274  -1.711  -1.994  1.00  0.00     0.357 C 
HETATM   13  O1  UNL     1       1.254  -1.818  -2.827  1.00  0.00    -0.283 OA
ENDBRANCH   1  12
BRANCH   2  14
HETATM   14  C7  UNL     1      -1.894  -1.392   0.120  1.00  0.00     0.083 C 
HETATM   15  C8  UNL     1      -2.544  -1.441   1.476  1.00  0.00     0.014 C 
HETATM   16  C9  UNL     1      -2.643  -0.163   2.207  1.00  0.00     0.001 C 
HETATM   17  C10 UNL     1      -2.347   1.083   1.450  1.00  0.00     0.005 C 
HETATM   18  C11 UNL     1      -2.892   0.935   0.049  1.00  0.00    -0.010 C 
HETATM   19  C12 UNL     1      -4.370   0.770   0.013  1.00  0.00     0.005 C 
HETATM   20  C15 UNL     1      -2.322  -0.206  -0.691  1.00  0.00     0.003 C 
HETATM   21  C13 UNL     1      -4.583   0.276  -1.423  1.00  0.00     0.001 C 
HETATM   22  C14 UNL     1      -3.414  -0.630  -1.648  1.00  0.00     0.006 C 
ENDBRANCH   2  14
TORSDOF 6
