REMARK  6 active torsions:
REMARK  status: ('A' for Active; 'I' for Inactive)
REMARK    1  A    between atoms: N1_2  and  C2_3 
REMARK    2  A    between atoms: C2_3  and  C3_4 
REMARK    3  A    between atoms: C3_4  and  C4_5 
REMARK    4  A    between atoms: C4_5  and  C5_6 
REMARK    5  A    between atoms: C5_6  and  C6_7 
REMARK    6  A    between atoms: C6_7  and  N2_8 
ROOT
HETATM    1  C5  UNL     1       1.730   0.764   1.377  1.00  0.00     0.020 C 
ENDROOT
BRANCH   1   2
HETATM    2  C4  UNL     1       0.581   0.754   2.348  1.00  0.00     0.003 C 
BRANCH   2   3
HETATM    3  C3  UNL     1      -0.599  -0.056   1.863  1.00  0.00     0.028 C 
BRANCH   3   4
HETATM    4  C2  UNL     1      -1.126   0.499   0.562  1.00  0.00     0.237 C 
BRANCH   4   5
HETATM    5  N1  UNL     1      -2.264  -0.261   0.071  1.00  0.00    -0.071 N 
HETATM    6  C1  UNL     1      -1.908  -1.672   0.262  1.00  0.00     0.272 C 
HETATM    7  C11 UNL     1      -3.449   0.054   0.769  1.00  0.00     0.237 C 
HETATM    8  C12 UNL     1      -4.439   0.939   0.119  1.00  0.00     0.028 C 
HETATM    9  C13 UNL     1      -4.482   0.920  -1.365  1.00  0.00     0.003 C 
HETATM   10  C14 UNL     1      -3.729  -0.316  -1.852  1.00  0.00     0.028 C 
HETATM   11  C15 UNL     1      -2.301  -0.055  -1.355  1.00  0.00     0.237 C 
ENDBRANCH   4   5
ENDBRANCH   3   4
ENDBRANCH   2   3
ENDBRANCH   1   2
BRANCH   1  12
HETATM   12  C6  UNL     1       2.274  -0.626   1.091  1.00  0.00     0.127 C 
BRANCH  12  13
HETATM   13  N2  UNL     1       3.375  -0.429   0.139  1.00  0.00    -0.333 N 
HETATM   14  C7  UNL     1       3.033  -0.463  -1.264  1.00  0.00     0.136 C 
HETATM   15  C8  UNL     1       4.066   0.307  -2.088  1.00  0.00     0.123 C 
HETATM   16  C9  UNL     1       5.436  -0.093  -1.671  1.00  0.00     0.227 C 
HETATM   17  O1  UNL     1       6.305  -0.464  -2.531  1.00  0.00    -0.273 OA
HETATM   18  N3  UNL     1       5.741  -0.048  -0.284  1.00  0.00    -0.279 N 
HETATM   19  C10 UNL     1       4.683  -0.220   0.647  1.00  0.00     0.325 C 
ATOM     20  H3  UNL     1       6.698   0.104   0.035  1.00  0.00     0.173 HD
HETATM   21  O2  UNL     1       4.954  -0.180   1.874  1.00  0.00    -0.247 OA
ENDBRANCH  12  13
ENDBRANCH   1  12
TORSDOF 6
