REMARK  6 active torsions:
REMARK  status: ('A' for Active; 'I' for Inactive)
REMARK    1  A    between atoms: C2_2  and  C3_3 
REMARK    2  A    between atoms: C3_3  and  N1_4 
REMARK    3  A    between atoms: N1_4  and  C4_5 
REMARK       I    between atoms: N1_4  and  C12_14 
REMARK    4  A    between atoms: C4_5  and  C5_6 
REMARK    5  A    between atoms: C5_6  and  N2_7 
REMARK       I    between atoms: C12_14  and  N4_18 
REMARK    6  A    between atoms: N4_18  and  C13_20 
ROOT
HETATM    1  N1  UNL     1      -1.341   0.870  -0.380  1.00  0.00    -0.217 N 
HETATM    2  C12 UNL     1      -2.287  -0.106  -0.882  1.00  0.00     0.670 C 
HETATM    3  N3  UNL     1      -2.470  -0.130  -2.141  1.00  0.00    -0.235 N 
ATOM      4  H31 UNL     1      -3.136  -0.817  -2.494  1.00  0.00     0.174 HD
ATOM      5  H32 UNL     1      -2.011   0.472  -2.825  1.00  0.00     0.174 HD
HETATM    6  N4  UNL     1      -2.922  -0.938   0.063  1.00  0.00    -0.218 N 
ATOM      7  H4  UNL     1      -2.807  -0.753   1.059  1.00  0.00     0.178 HD
ENDROOT
BRANCH   1   8
HETATM    8  C3  UNL     1      -1.855   1.959   0.394  1.00  0.00     0.141 C 
BRANCH   8   9
HETATM    9  C2  UNL     1      -1.676   3.239  -0.427  1.00  0.00     0.016 C 
HETATM   10  C1  UNL     1      -2.217   4.435   0.359  1.00  0.00     0.006 C 
ENDBRANCH   8   9
ENDBRANCH   1   8
BRANCH   1  11
HETATM   11  C4  UNL     1       0.087   0.725  -0.666  1.00  0.00     0.169 C 
BRANCH  11  12
HETATM   12  C5  UNL     1       0.756   0.400   0.629  1.00  0.00     0.257 C 
BRANCH  12  13
HETATM   13  N2  UNL     1       2.188   0.201   0.562  1.00  0.00    -0.069 N 
HETATM   14  C6  UNL     1       2.759   1.266   1.408  1.00  0.00     0.272 C 
HETATM   15  C7  UNL     1       2.771   0.356  -0.721  1.00  0.00     0.237 C 
HETATM   16  C8  UNL     1       3.340  -0.943  -1.294  1.00  0.00     0.028 C 
HETATM   17  C9  UNL     1       4.444  -1.304  -0.299  1.00  0.00     0.003 C 
HETATM   18  C10 UNL     1       3.704  -1.759   0.921  1.00  0.00     0.028 C 
HETATM   19  C11 UNL     1       2.475  -1.025   1.248  1.00  0.00     0.237 C 
ENDBRANCH  12  13
ENDBRANCH  11  12
ENDBRANCH   1  11
BRANCH   6  20
HETATM   20  C13 UNL     1      -3.726  -2.040  -0.367  1.00  0.00     0.147 C 
HETATM   21  C14 UNL     1      -3.062  -3.114  -1.163  1.00  0.00     0.195 C 
HETATM   22  O1  UNL     1      -3.770  -4.069  -0.449  1.00  0.00    -0.387 OA
HETATM   23  C15 UNL     1      -3.835  -3.178   0.615  1.00  0.00     0.195 C 
ENDBRANCH   6  20
TORSDOF 6
