REMARK  6 active torsions:
REMARK  status: ('A' for Active; 'I' for Inactive)
REMARK       I    between atoms: N1_5  and  C5_6 
REMARK    1  A    between atoms: C5_6  and  C6_8 
REMARK    2  A    between atoms: C6_8  and  C7_9 
REMARK    3  A    between atoms: C7_9  and  C8_10 
REMARK    4  A    between atoms: C8_10  and  C9_11 
REMARK    5  A    between atoms: C9_11  and  C10_12 
REMARK    6  A    between atoms: C10_12  and  C11_13 
REMARK       I    between atoms: C11_13  and  N2_15 
ROOT
HETATM    1  C7  UNL     1       1.282  -1.405   0.994  1.00  0.00     0.009 C 
ENDROOT
BRANCH   1   2
HETATM    2  C6  UNL     1       0.040  -0.545   0.909  1.00  0.00     0.103 C 
BRANCH   2   3
HETATM    3  C5  UNL     1      -1.168  -1.278   0.471  1.00  0.00     0.219 C 
HETATM    4  N1  UNL     1      -2.355  -0.556   0.203  1.00  0.00    -0.352 N 
HETATM    5  C4  UNL     1      -3.532  -1.245  -0.220  1.00  0.00     0.126 C 
HETATM    6  C13 UNL     1      -2.403   0.880   0.354  1.00  0.00     0.126 C 
HETATM    7  C3  UNL     1      -4.793  -0.720   0.431  1.00  0.00     0.024 C 
HETATM    8  C2  UNL     1      -4.841   0.787   0.422  1.00  0.00    -0.015 C 
HETATM    9  C1  UNL     1      -6.085   1.252  -0.305  1.00  0.00     0.010 C 
HETATM   10  C14 UNL     1      -3.652   1.378  -0.307  1.00  0.00     0.024 C 
HETATM   11  O1  UNL     1      -1.156  -2.520   0.337  1.00  0.00    -0.273 OA
ENDBRANCH   2   3
ENDBRANCH   1   2
BRANCH   1  12
HETATM   12  C8  UNL     1       1.739  -1.992  -0.266  1.00  0.00     0.001 C 
BRANCH  12  13
HETATM   13  C9  UNL     1       2.236  -1.171  -1.377  1.00  0.00     0.009 C 
BRANCH  13  14
HETATM   14  C10 UNL     1       3.530  -0.487  -1.122  1.00  0.00     0.103 C 
BRANCH  14  15
HETATM   15  C11 UNL     1       3.563   0.533  -0.112  1.00  0.00     0.223 C 
HETATM   16  O2  UNL     1       2.744   1.477   0.079  1.00  0.00    -0.273 OA
HETATM   17  N2  UNL     1       4.666   0.541   0.843  1.00  0.00    -0.304 N 
HETATM   18  C12 UNL     1       5.699   1.209   0.522  1.00  0.00     0.203 C 
ATOM     19  H2  UNL     1       4.611   0.034   1.727  1.00  0.00     0.171 HD
HETATM   20  N3  UNL     1       5.758   1.902  -0.704  1.00  0.00    -0.066 NA
HETATM   21  N4  UNL     1       6.802   1.255   1.405  1.00  0.00    -0.066 NA
ENDBRANCH  14  15
ENDBRANCH  13  14
ENDBRANCH  12  13
ENDBRANCH   1  12
TORSDOF 6
