REMARK  5 active torsions:
REMARK  status: ('A' for Active; 'I' for Inactive)
REMARK    1  A    between atoms: N1_1  and  C1_4 
REMARK    2  A    between atoms: C4_9  and  N3_10 
REMARK    3  A    between atoms: N3_10  and  N4_12 
REMARK       I    between atoms: N4_12  and  C5_14 
REMARK    4  A    between atoms: C5_14  and  C6_16 
REMARK    5  A    between atoms: C8_18  and  C9_19 
ROOT
HETATM    1  N3  UNL     1      -0.817   1.406   1.015  1.00  0.00    -0.282 N 
ATOM      2  H3  UNL     1      -0.865   2.288   1.525  1.00  0.00     0.188 HD
ENDROOT
BRANCH   1   3
HETATM    3  C4  UNL     1      -1.891   0.993   0.483  1.00  0.00     0.136 A 
HETATM    4  C3  UNL     1      -3.047   1.731   0.611  1.00  0.00     0.068 A 
HETATM    5  C2  UNL     1      -4.240   1.309   0.042  1.00  0.00     0.110 A 
HETATM    6  N2  UNL     1      -4.280   0.143  -0.660  1.00  0.00    -0.202 N 
HETATM    7  C1  UNL     1      -3.143  -0.561  -0.774  1.00  0.00     0.677 A 
ATOM      8  H2  UNL     1      -5.147  -0.185  -1.086  1.00  0.00     0.183 HD
HETATM    9  N6  UNL     1      -1.974  -0.157  -0.221  1.00  0.00    -0.176 N 
ATOM     10  H6  UNL     1      -1.140  -0.733  -0.339  1.00  0.00     0.186 HD
BRANCH   7  11
HETATM   11  N1  UNL     1      -3.167  -1.660  -1.431  1.00  0.00    -0.234 N 
ATOM     12  H12 UNL     1      -4.047  -1.964  -1.847  1.00  0.00     0.174 HD
ATOM     13  H11 UNL     1      -2.303  -2.195  -1.518  1.00  0.00     0.174 HD
ENDBRANCH   7  11
ENDBRANCH   1   3
BRANCH   1  14
HETATM   14  N4  UNL     1       0.408   0.778   0.971  1.00  0.00    -0.263 N 
HETATM   15  C5  UNL     1       1.550   1.284   0.308  1.00  0.00     0.288 C 
HETATM   16  O1  UNL     1       1.466   2.379  -0.289  1.00  0.00    -0.264 OA
ATOM     17  H4  UNL     1       0.498  -0.117   1.452  1.00  0.00     0.190 HD
BRANCH  15  18
HETATM   18  C6  UNL     1       2.802   0.545   0.317  1.00  0.00     0.127 A 
HETATM   19  C7  UNL     1       3.074  -0.672   0.921  1.00  0.00     0.079 A 
HETATM   20  C8  UNL     1       4.390  -1.016   0.685  1.00  0.00     0.138 A 
HETATM   21  O3  UNL     1       4.868  -0.028  -0.035  1.00  0.00    -0.234 OA
HETATM   22  N5  UNL     1       3.976   0.887  -0.263  1.00  0.00    -0.255 N 
ATOM     23  H5  UNL     1       4.136   1.739  -0.801  1.00  0.00     0.195 HD
BRANCH  20  24
HETATM   24  C9  UNL     1       5.067  -2.216   1.146  1.00  0.00     0.297 C 
HETATM   25  O2  UNL     1       6.265  -2.460   0.891  1.00  0.00    -0.299 OA
ENDBRANCH  20  24
ENDBRANCH  15  18
ENDBRANCH   1  14
TORSDOF 5
