REMARK  5 active torsions:
REMARK  status: ('A' for Active; 'I' for Inactive)
REMARK    1  A    between atoms: C3_3  and  O1_4 
REMARK    2  A    between atoms: O1_4  and  C4_5 
REMARK    3  A    between atoms: C4_5  and  N1_6 
REMARK    4  A    between atoms: C5_7  and  N2_8 
REMARK    5  A    between atoms: C8_16  and  N4_17 
ROOT
HETATM    1  C1  UNL     1       4.950  -0.643   0.812  1.00  0.00     0.014 C 
HETATM    2  C2  UNL     1       4.073  -1.051   0.088  1.00  0.00    -0.091 C 
HETATM    3  C3  UNL     1       3.006  -1.568  -0.776  1.00  0.00     0.262 C 
ENDROOT
BRANCH   3   4
HETATM    4  O1  UNL     1       1.922  -0.713  -0.837  1.00  0.00    -0.359 OA
BRANCH   4   5
HETATM    5  C4  UNL     1       1.348  -0.497   0.417  1.00  0.00     0.320 C 
BRANCH   5   6
HETATM    6  N1  UNL     1       0.228   0.404   0.261  1.00  0.00    -0.145 N 
HETATM    7  C5  UNL     1       0.442   1.717   0.355  1.00  0.00     0.684 A 
HETATM    8  N3  UNL     1      -0.596   2.555   0.213  1.00  0.00    -0.155 N 
HETATM    9  C6  UNL     1      -1.843   2.041  -0.022  1.00  0.00     0.277 A 
ATOM     10  H3  UNL     1      -0.458   3.563   0.279  1.00  0.00     0.187 HD
HETATM   11  O2  UNL     1      -2.813   2.825  -0.154  1.00  0.00    -0.266 OA
HETATM   12  C7  UNL     1      -2.067   0.681  -0.119  1.00  0.00     0.121 A 
HETATM   13  C8  UNL     1      -3.314   0.128  -0.357  1.00  0.00     0.119 A 
HETATM   14  C10 UNL     1      -0.972  -0.145   0.032  1.00  0.00     0.146 A 
HETATM   15  N5  UNL     1      -3.402  -1.242  -0.431  1.00  0.00    -0.338 N 
HETATM   16  C9  UNL     1      -2.329  -2.022  -0.281  1.00  0.00     0.183 A 
ATOM     17  H5  UNL     1      -4.310  -1.673  -0.605  1.00  0.00     0.168 HD
HETATM   18  N6  UNL     1      -1.119  -1.487  -0.051  1.00  0.00    -0.337 N 
ATOM     19  H6  UNL     1      -0.308  -2.095   0.062  1.00  0.00     0.168 HD
BRANCH   7  20
HETATM   20  N2  UNL     1       1.594   2.194   0.570  1.00  0.00    -0.234 N 
ATOM     21  H22 UNL     1       2.383   1.557   0.678  1.00  0.00     0.174 HD
ATOM     22  H21 UNL     1       1.758   3.198   0.642  1.00  0.00     0.174 HD
ENDBRANCH   7  20
BRANCH  13  23
HETATM   23  N4  UNL     1      -4.339   0.818  -0.502  1.00  0.00    -0.385 N 
ATOM     24  H42 UNL     1      -4.274   1.834  -0.447  1.00  0.00     0.157 HD
ATOM     25  H41 UNL     1      -5.258   0.411  -0.677  1.00  0.00     0.157 HD
ENDBRANCH  13  23
ENDBRANCH   5   6
ENDBRANCH   4   5
ENDBRANCH   3   4
TORSDOF 5
