REMARK  3 active torsions:
REMARK  status: ('A' for Active; 'I' for Inactive)
REMARK    1  A    between atoms: C2_7  and  C3_8 
REMARK       I    between atoms: C3_8  and  N3_10 
REMARK    2  A    between atoms: N3_10  and  N4_12 
REMARK    3  A    between atoms: C4_14  and  C5_15 
ROOT
HETATM    1  C3  UNL     1      -1.010   0.384   0.760  1.00  0.00     0.304 C 
HETATM    2  O1  UNL     1      -0.828   1.074   1.789  1.00  0.00    -0.263 OA
HETATM    3  N3  UNL     1      -0.017   0.252  -0.241  1.00  0.00    -0.264 N 
ATOM      4  H3  UNL     1      -0.214  -0.321  -1.061  1.00  0.00     0.190 HD
ENDROOT
BRANCH   1   5
HETATM    5  C2  UNL     1      -2.311  -0.290   0.632  1.00  0.00     0.192 A 
HETATM    6  N2  UNL     1      -2.578  -1.047  -0.447  1.00  0.00    -0.171 N 
HETATM    7  C1  UNL     1      -3.736  -1.691  -0.636  1.00  0.00     0.678 A 
ATOM      8  H2  UNL     1      -1.856  -1.135  -1.163  1.00  0.00     0.186 HD
HETATM    9  N1  UNL     1      -3.963  -2.412  -1.685  1.00  0.00    -0.234 N 
HETATM   10  N8  UNL     1      -4.680  -1.570   0.308  1.00  0.00    -0.188 N 
ATOM     11  H12 UNL     1      -3.245  -2.504  -2.403  1.00  0.00     0.174 HD
ATOM     12  H11 UNL     1      -4.845  -2.903  -1.829  1.00  0.00     0.174 HD
HETATM   13  C8  UNL     1      -4.421  -0.813   1.392  1.00  0.00     0.199 A 
ATOM     14  H8  UNL     1      -5.578  -2.043   0.207  1.00  0.00     0.185 HD
HETATM   15  N7  UNL     1      -3.258  -0.171   1.574  1.00  0.00    -0.333 N 
ATOM     16  H7  UNL     1      -3.098   0.394   2.408  1.00  0.00     0.168 HD
ENDBRANCH   1   5
BRANCH   3  17
HETATM   17  N4  UNL     1       1.208   0.875  -0.140  1.00  0.00    -0.308 N 
HETATM   18  C4  UNL     1       2.263   0.219  -0.515  1.00  0.00     0.121 C 
ATOM     19  H4  UNL     1       1.283   1.826   0.220  1.00  0.00     0.186 HD
BRANCH  18  20
HETATM   20  C5  UNL     1       3.583   0.834  -0.428  1.00  0.00     0.014 A 
HETATM   21  C6  UNL     1       4.797   0.286  -0.779  1.00  0.00     0.121 A 
HETATM   22  N5  UNL     1       5.744   1.201  -0.533  1.00  0.00    -0.311 N 
HETATM   23  N6  UNL     1       5.226   2.315  -0.042  1.00  0.00    -0.311 N 
ATOM     24  H5  UNL     1       6.739   1.057  -0.703  1.00  0.00     0.186 HD
HETATM   25  C7  UNL     1       3.898   2.111   0.031  1.00  0.00     0.121 A 
ATOM     26  H6  UNL     1       5.732   3.159   0.227  1.00  0.00     0.186 HD
ENDBRANCH  18  20
ENDBRANCH   3  17
TORSDOF 3
