REMARK  1 active torsions:
REMARK  status: ('A' for Active; 'I' for Inactive)
REMARK    1  A    between atoms: N1_3  and  N2_4 
ROOT
HETATM    1  N2  UNL     1       0.606   0.608   0.798  1.00  0.00    -0.271 N 
ATOM      2  H2  UNL     1       0.572   1.152   1.660  1.00  0.00     0.190 HD
HETATM    3  C3  UNL     1       1.762   0.278   0.366  1.00  0.00     0.224 C 
HETATM    4  N3  UNL     1       2.982   0.629   1.020  1.00  0.00    -0.255 N 
ATOM      5  H3  UNL     1       3.126   1.372   1.704  1.00  0.00     0.187 HD
HETATM    6  N4  UNL     1       3.952  -0.276   0.517  1.00  0.00    -0.006 NA
HETATM    7  N5  UNL     1       3.497  -0.709  -0.703  1.00  0.00    -0.006 NA
HETATM    8  N6  UNL     1       2.128  -0.456  -0.770  1.00  0.00    -0.255 N 
ATOM      9  H6  UNL     1       1.501  -0.754  -1.517  1.00  0.00     0.187 HD
ENDROOT
BRANCH   1  10
HETATM   10  N1  UNL     1      -0.595   0.297   0.208  1.00  0.00    -0.321 N 
HETATM   11  C2  UNL     1      -1.042  -1.059   0.134  1.00  0.00     0.168 C 
HETATM   12  C1  UNL     1      -2.549  -1.187   0.148  1.00  0.00     0.189 C 
HETATM   13  O1  UNL     1      -3.195  -0.215  -0.563  1.00  0.00    -0.388 OA
HETATM   14  C5  UNL     1      -2.882   1.074  -0.226  1.00  0.00     0.189 C 
HETATM   15  C4  UNL     1      -1.399   1.384  -0.338  1.00  0.00     0.168 C 
ENDBRANCH   1  10
TORSDOF 1
