REMARK  6 active torsions:
REMARK  status: ('A' for Active; 'I' for Inactive)
REMARK    1  A    between atoms: N1_1  and  O1_4 
REMARK    2  A    between atoms: O1_4  and  C1_5 
REMARK    3  A    between atoms: C1_5  and  N2_6 
REMARK    4  A    between atoms: C1_5  and  C2_10 
REMARK    5  A    between atoms: C2_10  and  O2_11 
REMARK    6  A    between atoms: N3_17  and  N4_18 
ROOT
HETATM    1  C2  UNL     1       0.082  -0.256   0.483  1.00  0.00     0.223 C 
HETATM    2  C3  UNL     1      -0.818  -1.421   0.043  1.00  0.00     0.234 C 
HETATM    3  O3  UNL     1      -2.104  -1.223   0.536  1.00  0.00    -0.384 OA
HETATM    4  C4  UNL     1      -2.685  -0.107  -0.032  1.00  0.00     0.189 C 
HETATM    5  C5  UNL     1      -1.885   1.122   0.418  1.00  0.00     0.172 C 
HETATM    6  N3  UNL     1      -0.536   0.934   0.020  1.00  0.00    -0.292 N 
ENDROOT
BRANCH   1   7
HETATM    7  C1  UNL     1       1.457  -0.489  -0.027  1.00  0.00     0.405 C 
BRANCH   7   8
HETATM    8  O1  UNL     1       2.263   0.575   0.377  1.00  0.00    -0.248 OA
BRANCH   8   9
HETATM    9  N1  UNL     1       2.886   1.087  -0.694  1.00  0.00    -0.309 N 
ATOM     10  H12 UNL     1       2.777   0.742  -1.648  1.00  0.00     0.184 HD
ATOM     11  H11 UNL     1       3.475   1.865  -0.399  1.00  0.00     0.184 HD
ENDBRANCH   8   9
ENDBRANCH   7   8
BRANCH   7  12
HETATM   12  N2  UNL     1       1.928  -1.736   0.607  1.00  0.00    -0.045 N 
ATOM     13  H23 UNL     1       2.916  -1.911   0.424  1.00  0.00     0.277 HD
ATOM     14  H22 UNL     1       1.979  -1.656   1.623  1.00  0.00     0.277 HD
ATOM     15  H21 UNL     1       1.339  -2.514   0.312  1.00  0.00     0.277 HD
ENDBRANCH   7  12
ENDBRANCH   1   7
BRANCH   1  16
HETATM   16  O2  UNL     1       0.036  -0.259   1.877  1.00  0.00    -0.364 OA
ATOM     17  H2  UNL     1      -0.844  -0.110   2.203  1.00  0.00     0.213 HD
ENDBRANCH   1  16
BRANCH   6  18
HETATM   18  N4  UNL     1      -0.188   1.374  -1.220  1.00  0.00    -0.344 N 
ATOM     19  H42 UNL     1       0.782   1.239  -1.506  1.00  0.00     0.176 HD
ATOM     20  H41 UNL     1      -0.632   2.230  -1.553  1.00  0.00     0.176 HD
ENDBRANCH   6  18
TORSDOF 6
