REMARK  4 active torsions:
REMARK  status: ('A' for Active; 'I' for Inactive)
REMARK    1  A    between atoms: N1_1  and  N2_4 
REMARK    2  A    between atoms: N2_4  and  C1_6 
REMARK    3  A    between atoms: C2_9  and  S1_10 
REMARK    4  A    between atoms: S1_10  and  N4_11 
ROOT
HETATM    1  C1  UNL     1       1.671   0.384  -0.309  1.00  0.00     0.712 A 
HETATM    2  N3  UNL     1       0.480  -0.243  -0.321  1.00  0.00    -0.175 N 
ATOM      3  H3  UNL     1       0.437  -1.256  -0.209  1.00  0.00     0.185 HD
HETATM    4  C2  UNL     1      -0.649   0.461  -0.480  1.00  0.00     0.180 A 
HETATM    5  C3  UNL     1      -0.517   1.823  -0.626  1.00  0.00     0.151 A 
HETATM    6  N5  UNL     1       0.705   2.423  -0.609  1.00  0.00    -0.295 N 
ATOM      7  H5  UNL     1       0.770   3.435  -0.720  1.00  0.00     0.186 HD
HETATM    8  N6  UNL     1       1.807   1.712  -0.451  1.00  0.00    -0.131 N 
ATOM      9  H6  UNL     1       2.726   2.155  -0.437  1.00  0.00     0.205 HD
ENDROOT
BRANCH   4  10
HETATM   10  S1  UNL     1      -2.247  -0.237  -0.513  1.00  0.00     0.274 S 
HETATM   11  O1  UNL     1      -2.355  -1.182  -1.682  1.00  0.00    -0.199 OA
HETATM   12  O2  UNL     1      -3.275   0.834  -0.660  1.00  0.00    -0.199 OA
BRANCH  10  13
HETATM   13  N4  UNL     1      -2.595  -1.067   0.977  1.00  0.00    -0.323 N 
ATOM     14  H42 UNL     1      -1.940  -1.128   1.757  1.00  0.00     0.169 HD
ATOM     15  H41 UNL     1      -3.530  -1.475   0.958  1.00  0.00     0.169 HD
ENDBRANCH  10  13
ENDBRANCH   4  10
BRANCH   1  16
HETATM   16  N2  UNL     1       2.781  -0.285  -0.155  1.00  0.00    -0.137 N 
ATOM     17  H2  UNL     1       3.667   0.221  -0.150  1.00  0.00     0.205 HD
BRANCH  16  18
HETATM   18  N1  UNL     1       2.794  -1.677   0.004  1.00  0.00    -0.331 N 
ATOM     19  H12 UNL     1       1.900  -2.167  -0.003  1.00  0.00     0.177 HD
ATOM     20  H11 UNL     1       3.661  -2.200   0.124  1.00  0.00     0.177 HD
ENDBRANCH  16  18
ENDBRANCH   1  16
TORSDOF 4
