REMARK  3 active torsions:
REMARK  status: ('A' for Active; 'I' for Inactive)
REMARK    1  A    between atoms: N1_1  and  C1_5 
REMARK    2  A    between atoms: N4_11  and  N5_12 
REMARK    3  A    between atoms: N5_12  and  C3_14 
ROOT
HETATM    1  C1  UNL     1      -1.382   0.601  -0.776  1.00  0.00     0.518 C 
HETATM    2  N2  UNL     1      -2.384   1.097   0.146  1.00  0.00    -0.011 N 
ATOM      3  H21 UNL     1      -3.135   1.611  -0.315  1.00  0.00     0.283 HD
ATOM      4  H22 UNL     1      -2.047   1.860   0.733  1.00  0.00     0.283 HD
HETATM    5  C2  UNL     1      -2.849  -0.030   0.897  1.00  0.00     0.373 C 
HETATM    6  N3  UNL     1      -1.985  -1.123   0.567  1.00  0.00    -0.091 NA
HETATM    7  N4  UNL     1      -0.897  -0.603  -0.145  1.00  0.00    -0.165 N 
ENDROOT
BRANCH   7   8
HETATM    8  N5  UNL     1       0.341  -1.223  -0.156  1.00  0.00    -0.113 N 
ATOM      9  H5  UNL     1       0.351  -2.239  -0.243  1.00  0.00     0.207 HD
BRANCH   8  10
HETATM   10  C3  UNL     1       1.464  -0.639  -0.067  1.00  0.00     0.712 A 
HETATM   11  N6  UNL     1       1.669   0.670   0.052  1.00  0.00    -0.198 N 
HETATM   12  C4  UNL     1       2.866   1.235   0.141  1.00  0.00     0.124 A 
ATOM     13  H6  UNL     1       0.852   1.280   0.076  1.00  0.00     0.183 HD
HETATM   14  C5  UNL     1       3.979   0.433   0.110  1.00  0.00     0.125 A 
HETATM   15  N7  UNL     1       3.773  -0.897  -0.011  1.00  0.00    -0.296 N 
HETATM   16  N8  UNL     1       2.573  -1.431  -0.098  1.00  0.00    -0.131 N 
ATOM     17  H7  UNL     1       4.584  -1.515  -0.036  1.00  0.00     0.186 HD
ATOM     18  H8  UNL     1       2.473  -2.442  -0.189  1.00  0.00     0.205 HD
ENDBRANCH   8  10
ENDBRANCH   7   8
BRANCH   1  19
HETATM   19  N1  UNL     1      -1.954   0.328  -2.089  1.00  0.00    -0.030 N 
ATOM     20  H13 UNL     1      -2.750  -0.307  -2.025  1.00  0.00     0.279 HD
ATOM     21  H12 UNL     1      -2.435   1.146  -2.464  1.00  0.00     0.279 HD
ATOM     22  H11 UNL     1      -1.249  -0.021  -2.738  1.00  0.00     0.279 HD
ENDBRANCH   1  19
TORSDOF 3
