REMARK  6 active torsions:
REMARK  status: ('A' for Active; 'I' for Inactive)
REMARK    1  A    between atoms: C1_2  and  O2_7 
REMARK    2  A    between atoms: N2_3  and  O1_5 
REMARK    3  A    between atoms: O2_7  and  C2_8 
REMARK    4  A    between atoms: C2_8  and  C3_9 
REMARK    5  A    between atoms: C3_9  and  N3_10 
REMARK    6  A    between atoms: C3_9  and  C4_14 
ROOT
HETATM    1  C2  UNL     1      -0.115  -0.584  -0.078  1.00  0.00     0.248 A 
HETATM    2  S1  UNL     1      -0.550  -0.514  -1.759  1.00  0.00    -0.046 SA
HETATM    3  C5  UNL     1      -0.966   1.070  -1.116  1.00  0.00     0.098 A 
HETATM    4  C6  UNL     1      -1.498   2.357  -1.381  1.00  0.00     0.125 A 
HETATM    5  N4  UNL     1      -1.578   3.276  -0.411  1.00  0.00    -0.368 N 
ATOM      6  H4  UNL     1      -1.964   4.196  -0.622  1.00  0.00     0.164 HD
HETATM    7  C7  UNL     1      -1.159   3.005   0.833  1.00  0.00     0.162 A 
HETATM    8  C8  UNL     1      -0.651   1.758   1.065  1.00  0.00     0.267 A 
HETATM    9  O5  UNL     1      -0.260   1.524   2.249  1.00  0.00    -0.266 OA
HETATM   10  N5  UNL     1      -0.553   0.782   0.085  1.00  0.00    -0.260 N 
ENDROOT
BRANCH   1  11
HETATM   11  O2  UNL     1       1.282  -0.759   0.207  1.00  0.00    -0.277 OA
BRANCH  11  12
HETATM   12  C1  UNL     1       2.218  -0.028  -0.462  1.00  0.00     0.254 C 
HETATM   13  N1  UNL     1       3.390   0.500   0.198  1.00  0.00    -0.054 NA
HETATM   14  N2  UNL     1       2.039   0.190  -1.722  1.00  0.00    -0.235 N 
ATOM     15  H2  UNL     1       1.203  -0.195  -2.162  1.00  0.00     0.197 HD
BRANCH  14  16
HETATM   16  O1  UNL     1       2.897   0.900  -2.495  1.00  0.00    -0.287 OA
ATOM     17  H1  UNL     1       2.765   1.060  -3.422  1.00  0.00     0.244 HD
ENDBRANCH  14  16
ENDBRANCH  11  12
ENDBRANCH   1  11
BRANCH   1  18
HETATM   18  C3  UNL     1      -0.897  -1.546   0.815  1.00  0.00     0.351 C 
BRANCH  18  19
HETATM   19  N3  UNL     1      -2.311  -1.422   0.579  1.00  0.00    -0.059 N 
ATOM     20  H33 UNL     1      -2.630  -0.459   0.689  1.00  0.00     0.275 HD
ATOM     21  H32 UNL     1      -2.542  -1.548  -0.406  1.00  0.00     0.275 HD
ATOM     22  H31 UNL     1      -2.833  -2.064   1.175  1.00  0.00     0.275 HD
ENDBRANCH  18  19
BRANCH  18  23
HETATM   23  C4  UNL     1      -0.487  -2.934   0.639  1.00  0.00     0.210 C 
HETATM   24  O3  UNL     1       0.690  -3.360   0.776  1.00  0.00    -0.646 OA
HETATM   25  O4  UNL     1      -1.442  -3.876   0.294  1.00  0.00    -0.646 OA
ENDBRANCH  18  23
ENDBRANCH   1  18
TORSDOF 6
