REMARK  6 active torsions:
REMARK  status: ('A' for Active; 'I' for Inactive)
REMARK    1  A    between atoms: C6_11  and  C7_12 
REMARK    2  A    between atoms: C7_12  and  O1_13 
REMARK    3  A    between atoms: C7_12  and  O2_15 
REMARK    4  A    between atoms: C8_17  and  N4_18 
REMARK    5  A    between atoms: N4_18  and  N5_20 
REMARK    6  A    between atoms: N5_20  and  C9_22 
ROOT
HETATM    1  C1  UNL     1       2.539  -2.402   0.332  1.00  0.00     0.074 C 
HETATM    2  C2  UNL     1       2.506  -0.955   0.024  1.00  0.00     0.086 A 
HETATM    3  C3  UNL     1       3.620  -0.222  -0.328  1.00  0.00     0.154 A 
HETATM    4  C4  UNL     1       4.985  -0.674  -0.468  1.00  0.00     0.120 C 
HETATM    5  N1  UNL     1       6.078  -1.037  -0.600  1.00  0.00    -0.190 NA
HETATM    6  N2  UNL     1       3.204   1.044  -0.529  1.00  0.00    -0.178 N 
ATOM      7  H2  UNL     1       3.806   1.821  -0.801  1.00  0.00     0.185 HD
HETATM    8  C5  UNL     1       1.867   1.133  -0.316  1.00  0.00     0.705 A 
HETATM    9  N3  UNL     1       0.974   2.122  -0.374  1.00  0.00    -0.185 N 
ATOM     10  H3  UNL     1       1.293   3.056  -0.631  1.00  0.00     0.184 HD
HETATM   11  C6  UNL     1      -0.330   1.936  -0.107  1.00  0.00     0.127 A 
HETATM   12  C8  UNL     1      -0.752   0.674   0.240  1.00  0.00     0.164 A 
HETATM   13  N8  UNL     1       0.159  -0.316   0.295  1.00  0.00    -0.261 N 
ATOM     14  H8  UNL     1      -0.150  -1.254   0.551  1.00  0.00     0.190 HD
HETATM   15  N9  UNL     1       1.447  -0.117   0.028  1.00  0.00    -0.086 N 
ENDROOT
BRANCH  12  16
HETATM   16  N4  UNL     1      -2.013   0.480   0.501  1.00  0.00    -0.281 N 
ATOM     17  H4  UNL     1      -2.645   1.278   0.438  1.00  0.00     0.188 HD
BRANCH  16  18
HETATM   18  N5  UNL     1      -2.543  -0.738   0.857  1.00  0.00    -0.275 N 
ATOM     19  H5  UNL     1      -2.528  -0.989   1.846  1.00  0.00     0.189 HD
BRANCH  18  20
HETATM   20  C9  UNL     1      -3.112  -1.676  -0.052  1.00  0.00     0.196 C 
HETATM   21  N6  UNL     1      -2.594  -1.941  -1.195  1.00  0.00    -0.376 N 
ATOM     22  H62 UNL     1      -1.737  -1.451  -1.451  1.00  0.00     0.158 HD
ATOM     23  H61 UNL     1      -3.001  -2.613  -1.846  1.00  0.00     0.158 HD
HETATM   24  C10 UNL     1      -4.322  -2.367   0.310  1.00  0.00     0.137 C 
HETATM   25  N7  UNL     1      -5.301  -2.916   0.586  1.00  0.00    -0.188 NA
ENDBRANCH  18  20
ENDBRANCH  16  18
ENDBRANCH  12  16
BRANCH  11  26
HETATM   26  C7  UNL     1      -1.235   3.087  -0.198  1.00  0.00     0.309 C 
BRANCH  26  27
HETATM   27  O1  UNL     1      -2.111   3.153   0.895  1.00  0.00    -0.366 OA
ATOM     28  H1  UNL     1      -2.697   3.898   0.836  1.00  0.00     0.213 HD
ENDBRANCH  26  27
BRANCH  26  29
HETATM   29  O2  UNL     1      -0.511   4.278  -0.186  1.00  0.00    -0.366 OA
ATOM     30  H2  UNL     1      -1.097   5.023  -0.245  1.00  0.00     0.213 HD
ENDBRANCH  26  29
ENDBRANCH  11  26
TORSDOF 6
