REMARK  6 active torsions:
REMARK  status: ('A' for Active; 'I' for Inactive)
REMARK    1  A    between atoms: N1_1  and  C1_4 
REMARK    2  A    between atoms: C3_9  and  N4_10 
REMARK    3  A    between atoms: C6_15  and  N5_16 
REMARK    4  A    between atoms: C6_15  and  C7_20 
REMARK    5  A    between atoms: C7_20  and  O3_21 
REMARK    6  A    between atoms: C7_20  and  O4_23 
ROOT
HETATM    1  C1  UNL     1       3.171   0.202   0.685  1.00  0.00     0.150 A 
HETATM    2  N2  UNL     1       2.170   0.968   1.151  1.00  0.00    -0.267 N 
ATOM      3  H2  UNL     1       2.264   1.705   1.850  1.00  0.00     0.190 HD
HETATM    4  N3  UNL     1       1.033   0.609   0.551  1.00  0.00    -0.179 N 
HETATM    5  C2  UNL     1       1.249  -0.380  -0.308  1.00  0.00     0.083 A 
HETATM    6  C3  UNL     1       2.592  -0.655  -0.241  1.00  0.00     0.172 A 
HETATM    7  C4  UNL     1       0.210  -1.019  -1.145  1.00  0.00     0.066 C 
HETATM    8  C5  UNL     1      -0.991  -0.146  -1.391  1.00  0.00     0.069 C 
HETATM    9  C6  UNL     1      -1.676   0.159  -0.079  1.00  0.00     0.293 C 
HETATM   10  S1  UNL     1      -0.550   1.262   0.788  1.00  0.00     0.290 S 
HETATM   11  O5  UNL     1      -0.583   2.621   0.183  1.00  0.00    -0.201 OA
HETATM   12  O6  UNL     1      -0.906   1.340   2.245  1.00  0.00    -0.201 OA
ENDROOT
BRANCH   9  13
HETATM   13  N5  UNL     1      -1.863  -1.012   0.753  1.00  0.00    -0.050 N 
ATOM     14  H53 UNL     1      -2.361  -1.742   0.245  1.00  0.00     0.276 HD
ATOM     15  H52 UNL     1      -0.976  -1.491   0.909  1.00  0.00     0.276 HD
ATOM     16  H51 UNL     1      -2.325  -0.806   1.639  1.00  0.00     0.276 HD
ENDBRANCH   9  13
BRANCH   9  17
HETATM   17  C7  UNL     1      -3.019   0.818  -0.233  1.00  0.00     0.307 C 
BRANCH  17  18
HETATM   18  O3  UNL     1      -3.434   1.166   1.077  1.00  0.00    -0.368 OA
ATOM     19  H3  UNL     1      -4.282   1.582   0.980  1.00  0.00     0.212 HD
ENDBRANCH  17  18
BRANCH  17  20
HETATM   20  O4  UNL     1      -3.991  -0.115  -0.647  1.00  0.00    -0.368 OA
ATOM     21  H4  UNL     1      -4.839   0.301  -0.744  1.00  0.00     0.212 HD
ENDBRANCH  17  20
ENDBRANCH   9  17
BRANCH   6  22
HETATM   22  N4  UNL     1       3.362  -1.620  -0.942  1.00  0.00    -0.110 N 
HETATM   23  O1  UNL     1       4.106  -1.241  -1.849  1.00  0.00    -0.532 OA
HETATM   24  O2  UNL     1       3.329  -2.978  -0.662  1.00  0.00    -0.532 OA
ENDBRANCH   6  22
BRANCH   1  25
HETATM   25  N1  UNL     1       4.423   0.260   1.035  1.00  0.00    -0.382 N 
ATOM     26  H12 UNL     1       4.848   0.890   1.715  1.00  0.00     0.157 HD
ATOM     27  H11 UNL     1       5.183  -0.321   0.681  1.00  0.00     0.157 HD
ENDBRANCH   1  25
TORSDOF 6
