REMARK  2 active torsions:
REMARK  status: ('A' for Active; 'I' for Inactive)
REMARK    1  A    between atoms: O1_2  and  N1_3 
REMARK       I    between atoms: N1_3  and  C2_5 
REMARK    2  A    between atoms: C2_5  and  C3_7 
ROOT
HETATM    1  C3  UNL     1       1.853  -0.650   0.323  1.00  0.00     0.147 A 
HETATM    2  N2  UNL     1       2.137  -1.893   0.669  1.00  0.00    -0.292 N 
ATOM      3  H2  UNL     1       3.120  -2.148   0.762  1.00  0.00     0.187 HD
HETATM    4  N3  UNL     1       1.231  -2.830   0.903  1.00  0.00    -0.283 N 
ATOM      5  H3  UNL     1       1.528  -3.770   1.166  1.00  0.00     0.188 HD
HETATM    6  C4  UNL     1      -0.086  -2.546   0.795  1.00  0.00     0.145 A 
HETATM    7  N4  UNL     1      -1.018  -3.402   1.019  1.00  0.00    -0.382 N 
ATOM      8  H41 UNL     1      -2.012  -3.188   0.937  1.00  0.00     0.157 HD
ATOM      9  H42 UNL     1      -0.750  -4.349   1.285  1.00  0.00     0.157 HD
HETATM   10  C5  UNL     1      -0.448  -1.266   0.435  1.00  0.00     0.132 A 
HETATM   11  C6  UNL     1       0.510  -0.301   0.194  1.00  0.00     0.101 A 
HETATM   12  N5  UNL     1      -0.121   0.834  -0.131  1.00  0.00    -0.334 N 
ATOM     13  H5  UNL     1       0.313   1.727  -0.364  1.00  0.00     0.168 HD
HETATM   14  C7  UNL     1      -1.461   0.563  -0.090  1.00  0.00     0.172 A 
HETATM   15  C8  UNL     1      -2.554   1.366  -0.324  1.00  0.00     0.148 A 
HETATM   16  N6  UNL     1      -2.419   2.595  -0.671  1.00  0.00    -0.382 N 
ATOM     17  H61 UNL     1      -3.229   3.190  -0.844  1.00  0.00     0.157 HD
ATOM     18  H62 UNL     1      -1.493   3.010  -0.772  1.00  0.00     0.157 HD
HETATM   19  N7  UNL     1      -3.783   0.816  -0.190  1.00  0.00    -0.330 N 
HETATM   20  C9  UNL     1      -4.953   1.672  -0.440  1.00  0.00     0.158 C 
HETATM   21  C10 UNL     1      -3.977  -0.465   0.158  1.00  0.00     0.201 A 
HETATM   22  N8  UNL     1      -2.889  -1.224   0.379  1.00  0.00    -0.287 N 
ATOM     23  H8  UNL     1      -3.006  -2.202   0.644  1.00  0.00     0.188 HD
HETATM   24  N9  UNL     1      -1.659  -0.721   0.258  1.00  0.00    -0.229 N 
ENDROOT
BRANCH   1  25
HETATM   25  C2  UNL     1       2.857   0.403   0.098  1.00  0.00     0.295 C 
HETATM   26  N1  UNL     1       4.220   0.089   0.247  1.00  0.00    -0.230 N 
ATOM     27  H1  UNL     1       4.436  -0.875   0.500  1.00  0.00     0.197 HD
HETATM   28  O2  UNL     1       2.502   1.568  -0.219  1.00  0.00    -0.264 OA
BRANCH  26  29
HETATM   29  O1  UNL     1       5.264   0.909   0.095  1.00  0.00    -0.282 OA
HETATM   30  C1  UNL     1       5.395   1.353  -1.189  1.00  0.00     0.237 C 
ENDBRANCH  26  29
ENDBRANCH   1  25
TORSDOF 2
