REMARK  14 active torsions:
REMARK  status: ('A' for Active; 'I' for Inactive)
REMARK    1  A    between atoms: C2_2  and  O1_3 
REMARK    2  A    between atoms: O1_3  and  C3_4 
REMARK    3  A    between atoms: C5_6  and  O2_7 
REMARK    4  A    between atoms: O2_7  and  C6_8 
REMARK    5  A    between atoms: C6_8  and  C7_10 
REMARK    6  A    between atoms: C9_12  and  O4_13 
REMARK    7  A    between atoms: C11_16  and  C12_17 
REMARK    8  A    between atoms: C12_17  and  C13_18 
REMARK    9  A    between atoms: C13_18  and  C14_19 
REMARK   10  A    between atoms: C14_19  and  C15_20 
REMARK   11  A    between atoms: C15_20  and  N1_21 
REMARK       I    between atoms: N1_21  and  C16_23 
REMARK   12  A    between atoms: C16_23  and  C17_25 
REMARK   13  A    between atoms: C26_36  and  O8_37 
REMARK   14  A    between atoms: O8_37  and  C27_38 
ROOT
HETATM    1  C6  UNL     1      -0.592   0.617  -1.179  1.00  0.00     0.288 C 
HETATM    2  O3  UNL     1      -1.014   1.748  -1.489  1.00  0.00    -0.262 OA
ENDROOT
BRANCH   1   3
HETATM    3  O2  UNL     1      -1.390  -0.225  -0.459  1.00  0.00    -0.314 OA
BRANCH   3   4
HETATM    4  C5  UNL     1      -2.720   0.111  -0.015  1.00  0.00     0.139 C 
HETATM    5  C4  UNL     1      -3.708  -0.714  -0.729  1.00  0.00     0.053 C 
HETATM    6  C3  UNL     1      -4.718   0.084  -1.577  1.00  0.00     0.141 C 
HETATM    7  C28 UNL     1      -4.860  -1.268   0.025  1.00  0.00     0.040 C 
HETATM    8  C29 UNL     1      -5.735  -0.901  -1.127  1.00  0.00     0.016 C 
HETATM    9  C30 UNL     1      -5.819  -2.080  -2.125  1.00  0.00     0.021 C 
HETATM   10  C33 UNL     1      -7.104  -0.519  -0.949  1.00  0.00    -0.076 C 
HETATM   11  C31 UNL     1      -7.015  -2.796  -1.455  1.00  0.00     0.028 C 
HETATM   12  C32 UNL     1      -7.878  -1.609  -1.133  1.00  0.00    -0.023 C 
HETATM   13  C34 UNL     1      -7.761   0.792  -0.641  1.00  0.00     0.044 C 
HETATM   14  C26 UNL     1      -5.072  -0.638   1.347  1.00  0.00     0.142 C 
HETATM   15  C24 UNL     1      -3.718  -0.796   2.092  1.00  0.00     0.014 C 
HETATM   16  C23 UNL     1      -2.715   0.097   1.459  1.00  0.00     0.039 C 
HETATM   17  C25 UNL     1      -3.322  -2.244   1.953  1.00  0.00     0.012 C 
BRANCH   6  18
HETATM   18  O1  UNL     1      -4.774   1.357  -1.105  1.00  0.00    -0.385 OA
BRANCH  18  19
HETATM   19  C2  UNL     1      -4.611   2.337  -2.099  1.00  0.00     0.163 C 
HETATM   20  C1  UNL     1      -4.676   3.723  -1.495  1.00  0.00     0.033 C 
ENDBRANCH  18  19
ENDBRANCH   6  18
BRANCH  14  21
HETATM   21  O8  UNL     1      -6.043  -1.297   2.144  1.00  0.00    -0.300 OA
BRANCH  21  22
HETATM   22  C27 UNL     1      -7.003  -0.641   2.882  1.00  0.00     0.373 C 
HETATM   23  N2  UNL     1      -7.980  -1.331   3.675  1.00  0.00    -0.032 NA
HETATM   24  O9  UNL     1      -7.053   0.628   2.879  1.00  0.00    -0.242 OA
ENDBRANCH  21  22
ENDBRANCH  14  21
ENDBRANCH   3   4
ENDBRANCH   1   3
BRANCH   1  25
HETATM   25  C7  UNL     1       0.792   0.265  -1.632  1.00  0.00     0.223 C 
HETATM   26  C8  UNL     1       1.646   1.447  -1.394  1.00  0.00     0.074 C 
HETATM   27  C9  UNL     1       3.125   1.227  -1.625  1.00  0.00     0.123 C 
HETATM   28  C10 UNL     1       3.382  -0.248  -1.837  1.00  0.00     0.063 C 
HETATM   29  C11 UNL     1       2.541  -1.079  -0.884  1.00  0.00     0.125 C 
HETATM   30  O7  UNL     1       1.187  -0.944  -1.174  1.00  0.00    -0.370 OA
BRANCH  27  31
HETATM   31  O4  UNL     1       3.645   1.981  -2.654  1.00  0.00    -0.395 OA
ATOM     32  H4  UNL     1       4.574   1.843  -2.799  1.00  0.00     0.210 HD
ENDBRANCH  27  31
BRANCH  29  33
HETATM   33  C12 UNL     1       2.840  -0.738   0.558  1.00  0.00     0.032 C 
BRANCH  33  34
HETATM   34  C13 UNL     1       4.303  -0.967   0.888  1.00  0.00     0.004 C 
BRANCH  34  35
HETATM   35  C14 UNL     1       4.613  -0.630   2.313  1.00  0.00     0.020 C 
BRANCH  35  36
HETATM   36  C15 UNL     1       6.067  -0.800   2.683  1.00  0.00     0.122 C 
BRANCH  36  37
HETATM   37  N1  UNL     1       6.856   0.081   1.857  1.00  0.00    -0.359 N 
HETATM   38  C16 UNL     1       8.243   0.139   2.003  1.00  0.00     0.247 C 
HETATM   39  O5  UNL     1       8.820  -0.568   2.852  1.00  0.00    -0.271 OA
ATOM     40  H1  UNL     1       6.396   0.667   1.160  1.00  0.00     0.162 HD
BRANCH  38  41
HETATM   41  C17 UNL     1       9.051   1.049   1.143  1.00  0.00     0.221 C 
HETATM   42  O6  UNL     1       8.181   1.671   0.230  1.00  0.00    -0.367 OA
HETATM   43  C18 UNL     1       8.524   1.248  -1.026  1.00  0.00     0.146 C 
HETATM   44  C19 UNL     1       9.870   1.843  -1.324  1.00  0.00     0.001 C 
HETATM   45  C22 UNL     1       8.994  -0.195  -0.759  1.00  0.00     0.047 C 
HETATM   46  C20 UNL     1      10.775   1.249  -0.523  1.00  0.00    -0.020 C 
HETATM   47  C21 UNL     1      10.027   0.281   0.284  1.00  0.00     0.049 C 
ENDBRANCH  38  41
ENDBRANCH  36  37
ENDBRANCH  35  36
ENDBRANCH  34  35
ENDBRANCH  33  34
ENDBRANCH  29  33
ENDBRANCH   1  25
TORSDOF 14
