REMARK  13 active torsions:
REMARK  status: ('A' for Active; 'I' for Inactive)
REMARK    1  A    between atoms: O1_2  and  C2_3 
REMARK    2  A    between atoms: C4_5  and  O2_6 
REMARK    3  A    between atoms: C6_9  and  O3_10 
REMARK    4  A    between atoms: O3_10  and  S1_11 
REMARK    5  A    between atoms: S1_11  and  C7_14 
REMARK    6  A    between atoms: C7_14  and  C8_15 
REMARK    7  A    between atoms: C8_15  and  C9_16 
REMARK    8  A    between atoms: C9_16  and  C10_17 
REMARK    9  A    between atoms: C10_17  and  C11_18 
REMARK   10  A    between atoms: C11_18  and  C12_19 
REMARK   11  A    between atoms: C12_19  and  C13_20 
REMARK   12  A    between atoms: C13_20  and  C14_21 
REMARK       I    between atoms: C14_21  and  N1_23 
REMARK   13  A    between atoms: C15_25  and  C17_27 
ROOT
HETATM    1  C2  UNL     1      -3.718   1.490  -1.109  1.00  0.00     0.128 C 
HETATM    2  C3  UNL     1      -2.362   0.789  -1.319  1.00  0.00     0.071 C 
HETATM    3  C4  UNL     1      -1.948   0.143  -0.028  1.00  0.00     0.077 C 
HETATM    4  C5  UNL     1      -0.590  -0.441  -0.132  1.00  0.00     0.072 C 
HETATM    5  C6  UNL     1      -0.467  -1.700  -0.889  1.00  0.00     0.152 C 
HETATM    6  C18 UNL     1      -1.789  -2.431  -1.078  1.00  0.00     0.112 C 
HETATM    7  C19 UNL     1      -2.771  -2.118  -0.049  1.00  0.00     0.141 C 
HETATM    8  O8  UNL     1      -3.527  -3.001   0.355  1.00  0.00    -0.297 OA
HETATM    9  C20 UNL     1      -2.939  -0.772   0.571  1.00  0.00     0.052 C 
HETATM   10  C21 UNL     1      -2.599  -0.956   2.057  1.00  0.00     0.027 C 
HETATM   11  C22 UNL     1      -4.366  -0.361   0.469  1.00  0.00     0.011 C 
HETATM   12  C23 UNL     1      -4.897   0.309   1.714  1.00  0.00     0.007 C 
HETATM   13  C24 UNL     1      -6.335   0.660   1.636  1.00  0.00     0.018 C 
HETATM   14  C25 UNL     1      -6.882   1.004   0.309  1.00  0.00     0.021 C 
HETATM   15  C26 UNL     1      -7.327   2.480   0.290  1.00  0.00     0.024 C 
HETATM   16  C27 UNL     1      -8.153   0.249   0.053  1.00  0.00     0.135 C 
HETATM   17  O9  UNL     1      -8.922  -0.126   0.910  1.00  0.00    -0.297 OA
HETATM   18  C28 UNL     1      -8.282   0.054  -1.433  1.00  0.00     0.079 C 
HETATM   19  C29 UNL     1      -6.846  -0.316  -1.740  1.00  0.00     0.013 C 
HETATM   20  C30 UNL     1      -6.103   0.736  -0.900  1.00  0.00     0.008 C 
HETATM   21  C31 UNL     1      -4.673   0.374  -0.785  1.00  0.00     0.025 C 
ENDROOT
BRANCH   5  22
HETATM   22  O3  UNL     1       0.485  -2.563  -0.344  1.00  0.00    -0.270 OA
BRANCH  22  23
HETATM   23  S1  UNL     1       1.439  -3.373  -1.385  1.00  0.00     0.265 S 
HETATM   24  O4  UNL     1       0.729  -3.729  -2.679  1.00  0.00    -0.199 OA
HETATM   25  O5  UNL     1       1.996  -4.660  -0.762  1.00  0.00    -0.199 OA
BRANCH  23  26
HETATM   26  C7  UNL     1       2.854  -2.434  -1.842  1.00  0.00     0.171 C 
BRANCH  26  27
HETATM   27  C8  UNL     1       3.763  -2.051  -0.729  1.00  0.00     0.017 C 
BRANCH  27  28
HETATM   28  C9  UNL     1       3.172  -1.189   0.322  1.00  0.00     0.001 C 
BRANCH  28  29
HETATM   29  C10 UNL     1       4.222  -0.879   1.377  1.00  0.00     0.000 C 
BRANCH  29  30
HETATM   30  C11 UNL     1       5.424  -0.212   0.806  1.00  0.00     0.000 C 
BRANCH  30  31
HETATM   31  C12 UNL     1       5.189   1.087   0.110  1.00  0.00     0.009 C 
BRANCH  31  32
HETATM   32  C13 UNL     1       6.502   1.595  -0.435  1.00  0.00     0.103 C 
BRANCH  32  33
HETATM   33  C14 UNL     1       7.522   1.885   0.570  1.00  0.00     0.222 C 
HETATM   34  O6  UNL     1       7.210   2.105   1.764  1.00  0.00    -0.273 OA
HETATM   35  N1  UNL     1       8.883   1.909   0.131  1.00  0.00    -0.327 N 
HETATM   36  C15 UNL     1       9.710   0.945   0.349  1.00  0.00     0.073 C 
ATOM     37  H1  UNL     1       9.215   2.728  -0.379  1.00  0.00     0.168 HD
HETATM   38  C16 UNL     1       9.295  -0.283   1.085  1.00  0.00     0.074 C 
BRANCH  36  39
HETATM   39  C17 UNL     1      11.064   1.065  -0.135  1.00  0.00     0.277 C 
HETATM   40  N2  UNL     1      12.018   0.042   0.065  1.00  0.00    -0.056 NA
HETATM   41  O7  UNL     1      11.419   2.104  -0.755  1.00  0.00    -0.270 OA
ENDBRANCH  36  39
ENDBRANCH  32  33
ENDBRANCH  31  32
ENDBRANCH  30  31
ENDBRANCH  29  30
ENDBRANCH  28  29
ENDBRANCH  27  28
ENDBRANCH  26  27
ENDBRANCH  23  26
ENDBRANCH  22  23
ENDBRANCH   5  22
BRANCH   3  42
HETATM   42  O2  UNL     1      -1.807   1.238   0.884  1.00  0.00    -0.388 OA
ATOM     43  H2  UNL     1      -1.545   0.829   1.701  1.00  0.00     0.210 HD
ENDBRANCH   3  42
BRANCH   1  44
HETATM   44  O1  UNL     1      -3.568   2.449  -0.153  1.00  0.00    -0.390 OA
HETATM   45  C1  UNL     1      -3.784   3.720  -0.739  1.00  0.00     0.202 C 
ENDBRANCH   1  44
TORSDOF 13
