REMARK  18 active torsions:
REMARK  status: ('A' for Active; 'I' for Inactive)
REMARK    1  A    between atoms: C2_2  and  O1_5 
REMARK    2  A    between atoms: O1_5  and  C5_6 
REMARK       I    between atoms: C5_6  and  N1_8 
REMARK    3  A    between atoms: N1_8  and  C6_10 
REMARK    4  A    between atoms: C6_10  and  C7_11 
REMARK    5  A    between atoms: C6_10  and  C23_36 
REMARK       I    between atoms: C7_11  and  N2_13 
REMARK    6  A    between atoms: N2_13  and  C8_15 
REMARK    7  A    between atoms: C8_15  and  C9_16 
REMARK    8  A    between atoms: C9_16  and  O5_18 
REMARK    9  A    between atoms: O5_18  and  C10_19 
REMARK   10  A    between atoms: C10_19  and  C11_20 
REMARK   11  A    between atoms: C11_20  and  C12_21 
REMARK   12  A    between atoms: C12_21  and  C13_22 
REMARK   13  A    between atoms: C13_22  and  N3_23 
REMARK       I    between atoms: N4_26  and  C16_27 
REMARK   14  A    between atoms: C16_27  and  O7_29 
REMARK   15  A    between atoms: O7_29  and  C17_30 
REMARK   16  A    between atoms: C23_36  and  C26_39 
REMARK   17  A    between atoms: C26_39  and  N5_40 
REMARK       I    between atoms: N5_40  and  C27_41 
REMARK   18  A    between atoms: C27_41  and  C28_43 
ROOT
HETATM    1  C7  UNL     1      -2.909   0.669  -0.238  1.00  0.00     0.245 C 
HETATM    2  O3  UNL     1      -2.860   1.509   0.742  1.00  0.00    -0.271 OA
HETATM    3  N2  UNL     1      -1.829   0.689  -1.076  1.00  0.00    -0.330 N 
ATOM      4  H2  UNL     1      -1.862  -0.071  -1.755  1.00  0.00     0.168 HD
ENDROOT
BRANCH   1   5
HETATM    5  C6  UNL     1      -4.117  -0.177  -0.319  1.00  0.00     0.193 C 
BRANCH   5   6
HETATM    6  N1  UNL     1      -3.814  -1.621  -0.129  1.00  0.00    -0.322 N 
HETATM    7  C5  UNL     1      -4.821  -2.303   0.714  1.00  0.00     0.362 C 
HETATM    8  O2  UNL     1      -5.624  -1.720   1.328  1.00  0.00    -0.238 OA
ATOM      9  H1  UNL     1      -3.003  -2.089  -0.534  1.00  0.00     0.165 HD
BRANCH   7  10
HETATM   10  O1  UNL     1      -4.822  -3.725   0.763  1.00  0.00    -0.294 OA
BRANCH  10  11
HETATM   11  C2  UNL     1      -5.950  -4.295   1.488  1.00  0.00     0.061 C 
HETATM   12  C1  UNL     1      -6.047  -5.775   1.231  1.00  0.00     0.046 C 
HETATM   13  C3  UNL     1      -5.823  -4.130   2.966  1.00  0.00     0.046 C 
HETATM   14  C4  UNL     1      -7.263  -3.706   1.048  1.00  0.00     0.046 C 
ENDBRANCH  10  11
ENDBRANCH   7  10
ENDBRANCH   5   6
BRANCH   5  15
HETATM   15  C23 UNL     1      -4.889  -0.052  -1.604  1.00  0.00     0.026 C 
HETATM   16  C24 UNL     1      -4.044   0.035  -2.840  1.00  0.00     0.024 C 
HETATM   17  C25 UNL     1      -5.323  -1.623  -1.866  1.00  0.00     0.024 C 
BRANCH  15  18
HETATM   18  C26 UNL     1      -6.171   0.567  -1.647  1.00  0.00     0.170 C 
BRANCH  18  19
HETATM   19  N5  UNL     1      -6.710   1.755  -1.402  1.00  0.00    -0.386 NA
HETATM   20  C27 UNL     1      -7.266   3.031  -1.163  1.00  0.00     0.298 C 
HETATM   21  O8  UNL     1      -6.980   3.980  -1.960  1.00  0.00    -0.256 OA
BRANCH  20  22
HETATM   22  C28 UNL     1      -8.198   3.258  -0.025  1.00  0.00     0.044 C 
HETATM   23  C29 UNL     1      -9.114   4.413  -0.509  1.00  0.00     0.026 C 
HETATM   24  C30 UNL     1      -7.628   3.565   1.280  1.00  0.00     0.026 C 
HETATM   25  C31 UNL     1      -9.121   2.028   0.030  1.00  0.00     0.026 C 
ENDBRANCH  20  22
ENDBRANCH  18  19
ENDBRANCH  15  18
ENDBRANCH   5  15
ENDBRANCH   1   5
BRANCH   3  26
HETATM   26  C8  UNL     1      -0.691   1.484  -1.241  1.00  0.00     0.173 C 
BRANCH  26  27
HETATM   27  C9  UNL     1       0.189   1.499   0.010  1.00  0.00     0.298 C 
HETATM   28  O4  UNL     1      -0.085   1.204   1.103  1.00  0.00    -0.259 OA
BRANCH  27  29
HETATM   29  O5  UNL     1       1.565   1.961  -0.282  1.00  0.00    -0.317 OA
BRANCH  29  30
HETATM   30  C10 UNL     1       2.282   1.859   1.014  1.00  0.00     0.179 C 
BRANCH  30  31
HETATM   31  C11 UNL     1       2.396   0.347   1.139  1.00  0.00     0.028 C 
BRANCH  31  32
HETATM   32  C12 UNL     1       3.533  -0.070   0.143  1.00  0.00     0.032 C 
BRANCH  32  33
HETATM   33  C13 UNL     1       4.759   0.455   0.852  1.00  0.00     0.272 C 
BRANCH  33  34
HETATM   34  N3  UNL     1       5.937   0.082   0.073  1.00  0.00     0.091 N 
HETATM   35  C14 UNL     1       6.918  -0.409   1.014  1.00  0.00     0.292 C 
HETATM   36  C15 UNL     1       7.810   0.733   1.600  1.00  0.00     0.158 C 
HETATM   37  N4  UNL     1       8.332   1.176   0.287  1.00  0.00    -0.325 N 
HETATM   38  C16 UNL     1       9.529   0.683  -0.138  1.00  0.00     0.363 C 
HETATM   39  C21 UNL     1       7.415   2.028  -0.402  1.00  0.00     0.158 C 
HETATM   40  O6  UNL     1       9.845   0.833  -1.365  1.00  0.00    -0.238 OA
HETATM   41  C22 UNL     1       6.300   1.064  -0.862  1.00  0.00     0.292 C 
BRANCH  38  42
HETATM   42  O7  UNL     1      10.451   0.040   0.637  1.00  0.00    -0.294 OA
BRANCH  42  43
HETATM   43  C17 UNL     1      11.590  -0.613   0.107  1.00  0.00     0.061 C 
HETATM   44  C18 UNL     1      12.261   0.097  -1.012  1.00  0.00     0.046 C 
HETATM   45  C19 UNL     1      11.296  -2.067  -0.151  1.00  0.00     0.046 C 
HETATM   46  C20 UNL     1      12.611  -0.555   1.298  1.00  0.00     0.046 C 
ENDBRANCH  42  43
ENDBRANCH  38  42
ENDBRANCH  33  34
ENDBRANCH  32  33
ENDBRANCH  31  32
ENDBRANCH  30  31
ENDBRANCH  29  30
ENDBRANCH  27  29
ENDBRANCH  26  27
ENDBRANCH   3  26
TORSDOF 18
