REMARK  14 active torsions:
REMARK  status: ('A' for Active; 'I' for Inactive)
REMARK    1  A    between atoms: O1_2  and  C2_3 
REMARK    2  A    between atoms: C2_3  and  C3_4 
REMARK    3  A    between atoms: C3_4  and  N1_5 
REMARK    4  A    between atoms: N1_5  and  C5_7 
REMARK    5  A    between atoms: C5_7  and  C6_8 
REMARK       I    between atoms: C6_8  and  N2_10 
REMARK    6  A    between atoms: C8_17  and  C9_18 
REMARK    7  A    between atoms: C9_18  and  C10_19 
REMARK    8  A    between atoms: C10_19  and  S1_20 
REMARK    9  A    between atoms: S1_20  and  C11_21 
REMARK   10  A    between atoms: C11_21  and  C12_22 
REMARK   11  A    between atoms: C12_22  and  C13_23 
REMARK   12  A    between atoms: N7_29  and  C15_31 
REMARK   13  A    between atoms: C15_31  and  N8_33 
REMARK   14  A    between atoms: N8_33  and  C16_35 
ROOT
HETATM    1  C13 UNL     1      -1.254   1.154   2.807  1.00  0.00     0.070 A 
HETATM    2  N5  UNL     1      -2.582   1.190   2.861  1.00  0.00    -0.296 N 
ATOM      3  H5  UNL     1      -3.059   1.129   3.760  1.00  0.00     0.187 HD
HETATM    4  N6  UNL     1      -3.254   1.300   1.790  1.00  0.00    -0.279 N 
ATOM      5  H6  UNL     1      -4.273   1.328   1.820  1.00  0.00     0.189 HD
HETATM    6  C14 UNL     1      -2.611   1.378   0.625  1.00  0.00     0.167 A 
HETATM    7  N7  UNL     1      -3.113   1.491  -0.588  1.00  0.00    -0.312 N 
ATOM      8  H7  UNL     1      -2.524   1.543  -1.419  1.00  0.00     0.170 HD
HETATM    9  S3  UNL     1      -0.973   1.286   1.135  1.00  0.00    -0.038 SA
ENDROOT
BRANCH   1  10
HETATM   10  C12 UNL     1      -0.302   1.016   3.984  1.00  0.00     0.076 C 
BRANCH  10  11
HETATM   11  C11 UNL     1      -0.116  -0.471   4.132  1.00  0.00     0.080 C 
BRANCH  11  12
HETATM   12  S1  UNL     1       0.587  -1.204   2.697  1.00  0.00    -0.168 SA
BRANCH  12  13
HETATM   13  C10 UNL     1       2.327  -0.980   2.461  1.00  0.00     0.080 C 
BRANCH  13  14
HETATM   14  C9  UNL     1       2.745   0.435   2.247  1.00  0.00     0.076 C 
BRANCH  14  15
HETATM   15  C8  UNL     1       4.248   0.464   1.989  1.00  0.00     0.070 A 
HETATM   16  N4  UNL     1       4.910   0.399   0.849  1.00  0.00    -0.296 N 
HETATM   17  N3  UNL     1       6.179   0.436   0.840  1.00  0.00    -0.279 N 
ATOM     18  H4  UNL     1       4.399   0.319  -0.030  1.00  0.00     0.187 HD
HETATM   19  C7  UNL     1       6.835   0.541   1.997  1.00  0.00     0.167 A 
ATOM     20  H3  UNL     1       6.691   0.386  -0.041  1.00  0.00     0.189 HD
HETATM   21  N2  UNL     1       8.115   0.604   2.240  1.00  0.00    -0.305 N 
HETATM   22  S4  UNL     1       5.521   0.585   3.120  1.00  0.00    -0.038 SA
HETATM   23  C6  UNL     1       9.002   0.557   1.144  1.00  0.00     0.252 C 
ATOM     24  H2  UNL     1       8.464   0.685   3.195  1.00  0.00     0.171 HD
HETATM   25  O2  UNL     1       9.198   1.619   0.513  1.00  0.00    -0.271 OA
BRANCH  23  26
HETATM   26  C5  UNL     1       9.650  -0.700   0.789  1.00  0.00     0.374 C 
BRANCH  26  27
HETATM   27  N1  UNL     1      10.541  -0.674  -0.317  1.00  0.00     0.095 N 
HETATM   28  C4  UNL     1      11.379  -1.847  -0.283  1.00  0.00     0.310 C 
BRANCH  27  29
HETATM   29  C3  UNL     1       9.979  -0.457  -1.607  1.00  0.00     0.298 C 
BRANCH  29  30
HETATM   30  C2  UNL     1      11.083  -0.078  -2.580  1.00  0.00     0.197 C 
BRANCH  30  31
HETATM   31  O1  UNL     1      11.741   1.071  -2.198  1.00  0.00    -0.394 OA
HETATM   32  C1  UNL     1      12.738   1.308  -3.143  1.00  0.00     0.201 C 
ENDBRANCH  30  31
ENDBRANCH  29  30
ENDBRANCH  27  29
ENDBRANCH  26  27
ENDBRANCH  23  26
ENDBRANCH  14  15
ENDBRANCH  13  14
ENDBRANCH  12  13
ENDBRANCH  11  12
ENDBRANCH  10  11
ENDBRANCH   1  10
BRANCH   7  33
HETATM   33  C15 UNL     1      -4.533   1.535  -0.658  1.00  0.00     0.174 C 
HETATM   34  S2  UNL     1      -5.204   2.976  -1.067  1.00  0.00    -0.041 SA
BRANCH  33  35
HETATM   35  N8  UNL     1      -5.331   0.382  -0.381  1.00  0.00    -0.362 N 
ATOM     36  H8  UNL     1      -4.901  -0.507  -0.127  1.00  0.00     0.162 HD
BRANCH  35  37
HETATM   37  C16 UNL     1      -6.777   0.519  -0.474  1.00  0.00     0.085 C 
HETATM   38  C17 UNL     1      -7.280   0.883  -1.806  1.00  0.00     0.029 C 
HETATM   39  C18 UNL     1      -8.311   0.093  -2.466  1.00  0.00    -0.012 C 
HETATM   40  C19 UNL     1      -9.749   0.503  -2.413  1.00  0.00     0.009 C 
HETATM   41  C25 UNL     1      -8.318  -1.249  -1.789  1.00  0.00     0.014 C 
HETATM   42  C20 UNL     1     -10.488   0.056  -1.193  1.00  0.00    -0.013 C 
HETATM   43  C21 UNL     1     -10.749  -1.387  -0.985  1.00  0.00     0.005 C 
HETATM   44  C24 UNL     1      -9.494   0.276  -0.079  1.00  0.00     0.014 C 
HETATM   45  C22 UNL     1      -9.658  -1.940  -0.022  1.00  0.00     0.010 C 
HETATM   46  C23 UNL     1      -8.639  -0.921  -0.354  1.00  0.00    -0.038 C 
HETATM   47  C26 UNL     1      -7.378  -0.676   0.259  1.00  0.00     0.034 C 
ENDBRANCH  35  37
ENDBRANCH  33  35
ENDBRANCH   7  33
TORSDOF 14
