REMARK  10 active torsions:
REMARK  status: ('A' for Active; 'I' for Inactive)
REMARK    1  A    between atoms: C4_4  and  C5_5 
REMARK    2  A    between atoms: C5_5  and  O1_6 
REMARK    3  A    between atoms: C8_10  and  C9_11 
REMARK    4  A    between atoms: C9_11  and  C10_12 
REMARK    5  A    between atoms: C15_19  and  O4_20 
REMARK    6  A    between atoms: O4_20  and  C16_21 
REMARK    7  A    between atoms: C16_21  and  C17_22 
REMARK    8  A    between atoms: N1_24  and  C19_25 
REMARK    9  A    between atoms: C19_25  and  C20_26 
REMARK   10  A    between atoms: C20_26  and  C21_27 
ROOT
HETATM    1  C1  UNL     1      -1.119  -2.904  -0.069  1.00  0.00     0.018 C 
HETATM    2  C2  UNL     1      -1.316  -1.403   0.076  1.00  0.00    -0.016 C 
HETATM    3  C3  UNL     1      -1.302  -0.816  -1.298  1.00  0.00     0.024 C 
HETATM    4  C4  UNL     1      -1.947   0.515  -1.416  1.00  0.00    -0.014 C 
HETATM    5  C6  UNL     1      -3.371   0.325  -1.956  1.00  0.00     0.013 C 
HETATM    6  C7  UNL     1      -4.118  -0.175  -0.742  1.00  0.00     0.011 C 
HETATM    7  C8  UNL     1      -3.254   0.129   0.465  1.00  0.00    -0.026 C 
HETATM    8  C11 UNL     1      -2.584  -1.189   0.837  1.00  0.00     0.022 C 
HETATM    9  C12 UNL     1      -2.299   1.127  -0.052  1.00  0.00     0.005 C 
HETATM   10  C13 UNL     1      -1.137   1.470   0.768  1.00  0.00     0.009 C 
HETATM   11  C14 UNL     1      -0.536   0.424   1.620  1.00  0.00     0.033 C 
HETATM   12  C15 UNL     1      -0.193  -0.862   0.951  1.00  0.00     0.130 C 
ENDROOT
BRANCH  12  13
HETATM   13  O4  UNL     1       1.022  -0.853   0.304  1.00  0.00    -0.379 OA
BRANCH  13  14
HETATM   14  C16 UNL     1       1.924  -1.773   0.841  1.00  0.00     0.228 C 
BRANCH  14  15
HETATM   15  C17 UNL     1       3.207  -1.710   0.112  1.00  0.00     0.068 A 
HETATM   16  C18 UNL     1       4.314  -0.985   0.502  1.00  0.00     0.140 A 
HETATM   17  N1  UNL     1       5.277  -1.174  -0.404  1.00  0.00    -0.287 N 
HETATM   18  N2  UNL     1       4.814  -1.987  -1.344  1.00  0.00    -0.241 N 
HETATM   19  N3  UNL     1       3.578  -2.306  -1.034  1.00  0.00    -0.287 N 
ATOM     20  H2  UNL     1       5.328  -2.308  -2.164  1.00  0.00     0.208 HD
ATOM     21  H3  UNL     1       2.982  -2.922  -1.587  1.00  0.00     0.188 HD
BRANCH  17  22
HETATM   22  C19 UNL     1       6.595  -0.585  -0.349  1.00  0.00     0.160 C 
BRANCH  22  23
HETATM   23  C20 UNL     1       6.580   0.738  -1.071  1.00  0.00     0.135 C 
BRANCH  23  24
HETATM   24  C21 UNL     1       5.627   1.694  -0.471  1.00  0.00     0.174 C 
HETATM   25  O5  UNL     1       4.451   1.767  -0.853  1.00  0.00    -0.648 OA
HETATM   26  O6  UNL     1       6.096   2.522   0.549  1.00  0.00    -0.648 OA
ENDBRANCH  23  24
ENDBRANCH  22  23
ENDBRANCH  17  22
ENDBRANCH  14  15
ENDBRANCH  13  14
ENDBRANCH  12  13
BRANCH   4  27
HETATM   27  C5  UNL     1      -1.173   1.479  -2.271  1.00  0.00     0.173 C 
BRANCH  27  28
HETATM   28  O1  UNL     1      -1.813   2.703  -2.348  1.00  0.00    -0.400 OA
ATOM     29  H1  UNL     1      -1.324   3.312  -2.888  1.00  0.00     0.209 HD
ENDBRANCH  27  28
ENDBRANCH   4  27
BRANCH   7  30
HETATM   30  C9  UNL     1      -4.155   0.598   1.569  1.00  0.00     0.123 C 
BRANCH  30  31
HETATM   31  C10 UNL     1      -4.935   1.795   1.287  1.00  0.00     0.173 C 
HETATM   32  O2  UNL     1      -4.407   2.928   1.394  1.00  0.00    -0.648 OA
HETATM   33  O3  UNL     1      -6.264   1.752   0.897  1.00  0.00    -0.648 OA
ENDBRANCH  30  31
ENDBRANCH   7  30
TORSDOF 10
