REMARK  10 active torsions:
REMARK  status: ('A' for Active; 'I' for Inactive)
REMARK    1  A    between atoms: C4_4  and  C5_5 
REMARK    2  A    between atoms: C6_6  and  S1_7 
REMARK    3  A    between atoms: S1_7  and  C7_8 
REMARK    4  A    between atoms: C7_8  and  C8_9 
REMARK    5  A    between atoms: C8_9  and  O1_10 
REMARK    6  A    between atoms: C8_9  and  S2_12 
REMARK    7  A    between atoms: S2_12  and  C9_13 
REMARK    8  A    between atoms: C12_16  and  S3_17 
REMARK    9  A    between atoms: C16_26  and  C17_27 
REMARK   10  A    between atoms: C17_27  and  O6_28 
ROOT
HETATM    1  C8  UNL     1       0.934  -0.262   0.990  1.00  0.00     0.194 C 
ENDROOT
BRANCH   1   2
HETATM    2  C7  UNL     1       0.797  -0.994  -0.347  1.00  0.00     0.121 C 
BRANCH   2   3
HETATM    3  S1  UNL     1       0.089  -2.640  -0.086  1.00  0.00    -0.138 SA
BRANCH   3   4
HETATM    4  C6  UNL     1      -1.584  -2.478   0.486  1.00  0.00     0.043 C 
HETATM    5  C5  UNL     1      -2.276  -1.384   0.211  1.00  0.00     0.012 C 
BRANCH   5   6
HETATM    6  C4  UNL     1      -3.679  -1.309   0.721  1.00  0.00     0.148 C 
HETATM    7  C3  UNL     1      -4.068   0.073   1.169  1.00  0.00     0.070 C 
HETATM    8  C2  UNL     1      -5.519   0.244   0.895  1.00  0.00    -0.078 C 
HETATM    9  C1  UNL     1      -6.422   0.547   1.802  1.00  0.00     0.015 C 
HETATM   10  C16 UNL     1      -5.941   0.047  -0.524  1.00  0.00     0.061 C 
HETATM   11  C15 UNL     1      -4.845  -0.796  -1.161  1.00  0.00     0.179 C 
HETATM   12  O5  UNL     1      -4.495  -1.822  -0.285  1.00  0.00    -0.381 OA
BRANCH  10  13
HETATM   13  C17 UNL     1      -6.013   1.428  -1.149  1.00  0.00     0.175 C 
BRANCH  13  14
HETATM   14  O6  UNL     1      -6.948   2.159  -0.427  1.00  0.00    -0.400 OA
ATOM     15  H6  UNL     1      -6.993   3.024  -0.818  1.00  0.00     0.209 HD
ENDBRANCH  13  14
ENDBRANCH  10  13
ENDBRANCH   5   6
ENDBRANCH   3   4
ENDBRANCH   2   3
ENDBRANCH   1   2
BRANCH   1  16
HETATM   16  O1  UNL     1       1.774  -1.037   1.783  1.00  0.00    -0.384 OA
ATOM     17  H1  UNL     1       1.859  -0.583   2.613  1.00  0.00     0.211 HD
ENDBRANCH   1  16
BRANCH   1  18
HETATM   18  S2  UNL     1       1.810   1.326   0.733  1.00  0.00    -0.098 SA
BRANCH  18  19
HETATM   19  C9  UNL     1       3.495   0.983   0.229  1.00  0.00     0.004 A 
HETATM   20  C10 UNL     1       3.784   0.851  -1.114  1.00  0.00     0.020 A 
HETATM   21  C11 UNL     1       5.056   0.587  -1.582  1.00  0.00     0.029 A 
HETATM   22  C12 UNL     1       6.097   0.446  -0.670  1.00  0.00     0.104 A 
HETATM   23  C13 UNL     1       5.808   0.577   0.671  1.00  0.00     0.071 A 
HETATM   24  N1  UNL     1       6.862   0.436   1.622  1.00  0.00    -0.101 NA
HETATM   25  C14 UNL     1       4.529   0.842   1.137  1.00  0.00     0.046 A 
BRANCH  22  26
HETATM   26  S3  UNL     1       7.728   0.114  -1.146  1.00  0.00     0.139 S 
HETATM   27  O2  UNL     1       8.157  -1.273  -0.684  1.00  0.00    -0.591 OA
HETATM   28  O3  UNL     1       7.771   0.048  -2.666  1.00  0.00    -0.591 OA
HETATM   29  O4  UNL     1       8.814   1.278  -0.675  1.00  0.00    -0.591 OA
ENDBRANCH  22  26
ENDBRANCH  18  19
ENDBRANCH   1  18
TORSDOF 10
