REMARK  10 active torsions:
REMARK  status: ('A' for Active; 'I' for Inactive)
REMARK    1  A    between atoms: C5_5  and  C6_6 
REMARK    2  A    between atoms: C6_6  and  C7_11 
REMARK    3  A    between atoms: N1_7  and  O1_9 
REMARK    4  A    between atoms: C9_15  and  C10_16 
REMARK    5  A    between atoms: C10_16  and  O4_17 
REMARK    6  A    between atoms: C10_16  and  C18_25 
REMARK    7  A    between atoms: O4_17  and  C11_18 
REMARK    8  A    between atoms: C11_18  and  C12_19 
REMARK    9  A    between atoms: C19_28  and  O7_29 
REMARK   10  A    between atoms: C20_31  and  O8_32 
ROOT
HETATM    1  C7  UNL     1      -1.478  -1.391   0.659  1.00  0.00     0.215 C 
HETATM    2  O2  UNL     1      -0.758  -0.497  -0.164  1.00  0.00    -0.306 OA
HETATM    3  C8  UNL     1       0.369  -0.889  -0.882  1.00  0.00     0.269 C 
HETATM    4  O3  UNL     1       0.542  -0.366  -2.021  1.00  0.00    -0.265 OA
HETATM    5  C9  UNL     1       1.272  -1.866  -0.287  1.00  0.00     0.156 C 
HETATM    6  C19 UNL     1       0.766  -2.273   1.054  1.00  0.00     0.166 C 
HETATM    7  C20 UNL     1      -0.708  -2.672   0.872  1.00  0.00     0.183 C 
ENDROOT
BRANCH   1   8
HETATM    8  C6  UNL     1      -2.808  -1.620  -0.001  1.00  0.00     0.074 C 
HETATM    9  N1  UNL     1      -3.135  -2.772  -0.376  1.00  0.00    -0.270 N 
ATOM     10  H1  UNL     1      -2.444  -3.493  -0.169  1.00  0.00     0.194 HD
BRANCH   8  11
HETATM   11  C5  UNL     1      -3.653  -0.461  -0.202  1.00  0.00    -0.009 A 
HETATM   12  C4  UNL     1      -4.827  -0.430  -0.898  1.00  0.00     0.014 A 
HETATM   13  C3  UNL     1      -5.567   0.755  -0.992  1.00  0.00     0.007 A 
HETATM   14  C2  UNL     1      -5.168   1.930  -0.406  1.00  0.00    -0.062 A 
HETATM   15  C1  UNL     1      -5.978   3.171  -0.525  1.00  0.00     0.048 C 
HETATM   16  C22 UNL     1      -3.989   1.917   0.298  1.00  0.00     0.007 A 
HETATM   17  C21 UNL     1      -3.257   0.747   0.392  1.00  0.00     0.014 A 
ENDBRANCH   8  11
BRANCH   9  18
HETATM   18  O1  UNL     1      -4.208  -3.211  -0.987  1.00  0.00    -0.290 OA
ATOM     19  H1  UNL     1      -4.456  -4.083  -1.271  1.00  0.00     0.244 HD
ENDBRANCH   9  18
ENDBRANCH   1   8
BRANCH   7  20
HETATM   20  O8  UNL     1      -0.819  -3.568  -0.154  1.00  0.00    -0.390 OA
ATOM     21  H8  UNL     1      -0.334  -4.374  -0.020  1.00  0.00     0.210 HD
ENDBRANCH   7  20
BRANCH   6  22
HETATM   22  O7  UNL     1       0.853  -1.262   2.003  1.00  0.00    -0.392 OA
ATOM     23  H7  UNL     1       0.530  -1.522   2.858  1.00  0.00     0.210 HD
ENDBRANCH   6  22
BRANCH   5  24
HETATM   24  C10 UNL     1       2.730  -1.495  -0.291  1.00  0.00     0.238 C 
BRANCH  24  25
HETATM   25  O4  UNL     1       3.048  -0.347   0.381  1.00  0.00    -0.370 OA
BRANCH  25  26
HETATM   26  C11 UNL     1       3.644   0.554  -0.462  1.00  0.00     0.207 C 
BRANCH  26  27
HETATM   27  C12 UNL     1       4.016   1.825   0.210  1.00  0.00    -0.035 A 
HETATM   28  C13 UNL     1       4.639   2.779  -0.567  1.00  0.00     0.009 A 
HETATM   29  C14 UNL     1       5.026   4.004  -0.018  1.00  0.00     0.001 A 
HETATM   30  C15 UNL     1       4.767   4.242   1.335  1.00  0.00     0.000 A 
HETATM   31  C16 UNL     1       4.148   3.285   2.092  1.00  0.00     0.001 A 
HETATM   32  C17 UNL     1       3.770   2.080   1.545  1.00  0.00     0.009 A 
ENDBRANCH  26  27
ENDBRANCH  25  26
ENDBRANCH  24  25
BRANCH  24  33
HETATM   33  C18 UNL     1       3.470  -2.680   0.207  1.00  0.00     0.204 C 
HETATM   34  O5  UNL     1       4.275  -2.530   1.144  1.00  0.00    -0.646 OA
HETATM   35  O6  UNL     1       3.270  -3.914  -0.353  1.00  0.00    -0.646 OA
ENDBRANCH  24  33
ENDBRANCH   5  24
TORSDOF 10
