REMARK  11 active torsions:
REMARK  status: ('A' for Active; 'I' for Inactive)
REMARK    1  A    between atoms: N1_1  and  C1_4 
REMARK    2  A    between atoms: C2_9  and  S1_10 
REMARK    3  A    between atoms: S1_10  and  C3_11 
REMARK    4  A    between atoms: C3_11  and  C4_12 
REMARK    5  A    between atoms: C3_11  and  C9_21 
REMARK    6  A    between atoms: C4_12  and  C5_13 
REMARK    7  A    between atoms: C5_13  and  C6_14 
REMARK    8  A    between atoms: C6_14  and  C7_15 
REMARK    9  A    between atoms: C7_15  and  C8_16 
REMARK   10  A    between atoms: C8_16  and  N4_17 
REMARK       I    between atoms: C9_21  and  N5_23 
REMARK   11  A    between atoms: N5_23  and  C10_25 
ROOT
HETATM    1  C3  UNL     1      -0.519  -0.531  -0.027  1.00  0.00     0.147 C 
ENDROOT
BRANCH   1   2
HETATM    2  S1  UNL     1       0.212  -1.766   1.088  1.00  0.00    -0.089 SA
BRANCH   2   3
HETATM    3  C2  UNL     1      -0.922  -3.143   1.257  1.00  0.00     0.130 A 
HETATM    4  N3  UNL     1      -0.733  -4.229   1.985  1.00  0.00    -0.286 N 
HETATM    5  N2  UNL     1      -1.614  -5.139   2.024  1.00  0.00    -0.279 N 
ATOM      6  H3  UNL     1       0.129  -4.336   2.520  1.00  0.00     0.188 HD
HETATM    7  C1  UNL     1      -2.736  -4.981   1.317  1.00  0.00     0.159 A 
ATOM      8  H2  UNL     1      -1.469  -5.978   2.586  1.00  0.00     0.189 HD
HETATM    9  S3  UNL     1      -2.462  -3.448   0.587  1.00  0.00    -0.027 SA
BRANCH   7  10
HETATM   10  N1  UNL     1      -3.757  -5.804   1.230  1.00  0.00    -0.379 N 
ATOM     11  H12 UNL     1      -3.919  -6.713   1.663  1.00  0.00     0.158 HD
ATOM     12  H11 UNL     1      -4.614  -5.683   0.690  1.00  0.00     0.158 HD
ENDBRANCH   7  10
ENDBRANCH   2   3
ENDBRANCH   1   2
BRANCH   1  13
HETATM   13  C4  UNL     1      -1.732   0.107   0.529  1.00  0.00     0.025 C 
BRANCH  13  14
HETATM   14  C5  UNL     1      -2.324   1.083  -0.448  1.00  0.00     0.002 C 
BRANCH  14  15
HETATM   15  C6  UNL     1      -3.576   1.748   0.122  1.00  0.00     0.002 C 
BRANCH  15  16
HETATM   16  C7  UNL     1      -4.111   2.713  -0.924  1.00  0.00     0.027 C 
BRANCH  16  17
HETATM   17  C8  UNL     1      -5.362   3.414  -0.422  1.00  0.00     0.229 C 
BRANCH  17  18
HETATM   18  N4  UNL     1      -5.833   4.317  -1.447  1.00  0.00    -0.079 N 
ATOM     19  H43 UNL     1      -5.113   4.974  -1.749  1.00  0.00     0.274 HD
ATOM     20  H42 UNL     1      -5.981   3.849  -2.341  1.00  0.00     0.274 HD
ATOM     21  H41 UNL     1      -6.673   4.788  -1.110  1.00  0.00     0.274 HD
ENDBRANCH  17  18
ENDBRANCH  16  17
ENDBRANCH  15  16
ENDBRANCH  14  15
ENDBRANCH  13  14
ENDBRANCH   1  13
BRANCH   1  22
HETATM   22  C9  UNL     1       0.544   0.489  -0.228  1.00  0.00     0.250 C 
HETATM   23  O1  UNL     1       0.402   1.626   0.269  1.00  0.00    -0.271 OA
HETATM   24  N5  UNL     1       1.724   0.239  -0.959  1.00  0.00    -0.158 N 
ATOM     25  H5  UNL     1       1.633   0.060  -1.959  1.00  0.00     0.187 HD
BRANCH  24  26
HETATM   26  C10 UNL     1       2.925   0.220  -0.447  1.00  0.00     0.688 A 
HETATM   27  N6  UNL     1       3.972  -0.026  -1.224  1.00  0.00    -0.194 N 
HETATM   28  C11 UNL     1       5.243  -0.050  -0.690  1.00  0.00     0.049 A 
ATOM     29  H6  UNL     1       3.836  -0.198  -2.220  1.00  0.00     0.184 HD
HETATM   30  C12 UNL     1       5.345   0.189   0.655  1.00  0.00     0.092 A 
HETATM   31  C15 UNL     1       6.513  -0.285  -1.397  1.00  0.00     0.069 C 
HETATM   32  C13 UNL     1       4.269   0.441   1.449  1.00  0.00     0.278 A 
HETATM   33  S2  UNL     1       7.095   0.059   1.045  1.00  0.00    -0.122 SA
HETATM   34  O2  UNL     1       4.411   0.655   2.678  1.00  0.00    -0.266 OA
HETATM   35  N7  UNL     1       3.033   0.453   0.868  1.00  0.00    -0.155 N 
ATOM     36  H7  UNL     1       2.201   0.637   1.429  1.00  0.00     0.187 HD
HETATM   37  C14 UNL     1       7.509  -0.933  -0.466  1.00  0.00     0.086 C 
ENDBRANCH  24  26
ENDBRANCH   1  22
TORSDOF 11
