REMARK  10 active torsions:
REMARK  status: ('A' for Active; 'I' for Inactive)
REMARK    1  A    between atoms: C1_2  and  S1_4 
REMARK    2  A    between atoms: S1_4  and  C2_5 
REMARK    3  A    between atoms: C2_5  and  C3_6 
REMARK    4  A    between atoms: C3_6  and  C4_7 
REMARK    5  A    between atoms: C4_7  and  C5_8 
REMARK    6  A    between atoms: C5_8  and  C6_9 
REMARK    7  A    between atoms: C6_9  and  N2_10 
REMARK    8  A    between atoms: N5_24  and  C15_25 
REMARK    9  A    between atoms: C15_25  and  C16_26 
REMARK   10  A    between atoms: C16_26  and  O2_27 
ROOT
HETATM    1  N2  UNL     1       1.706  -0.675  -0.449  1.00  0.00    -0.110 NA
HETATM    2  N3  UNL     1       1.663  -1.603  -1.489  1.00  0.00    -0.330 N 
ATOM      3  H3  UNL     1       2.054  -1.408  -2.411  1.00  0.00     0.176 HD
HETATM    4  C7  UNL     1       1.034  -2.842  -1.174  1.00  0.00     0.163 C 
HETATM    5  C8  UNL     1       0.222  -3.348  -2.368  1.00  0.00     0.253 C 
HETATM    6  N4  UNL     1      -1.148  -3.493  -1.969  1.00  0.00    -0.074 N 
ATOM      7  H41 UNL     1      -1.229  -3.449  -0.953  1.00  0.00     0.277 HD
ATOM      8  H42 UNL     1      -1.465  -4.449  -2.128  1.00  0.00     0.277 HD
HETATM    9  C9  UNL     1      -2.047  -2.561  -2.582  1.00  0.00     0.232 C 
HETATM   10  C10 UNL     1      -3.362  -2.544  -1.838  1.00  0.00     0.027 C 
HETATM   11  C11 UNL     1      -4.026  -1.200  -2.083  1.00  0.00     0.002 C 
HETATM   12  C12 UNL     1      -4.957  -0.854  -0.918  1.00  0.00     0.002 C 
HETATM   13  C13 UNL     1      -4.851   0.616  -0.557  1.00  0.00     0.030 C 
HETATM   14  C14 UNL     1      -4.553   0.730   0.936  1.00  0.00     0.272 C 
HETATM   15  N5  UNL     1      -3.721   1.848   1.252  1.00  0.00     0.090 N 
HETATM   16  C17 UNL     1      -2.371   1.429   1.563  1.00  0.00     0.272 C 
HETATM   17  C18 UNL     1      -1.451   1.462   0.372  1.00  0.00     0.032 C 
HETATM   18  C19 UNL     1      -0.916   0.049   0.108  1.00  0.00     0.030 C 
HETATM   19  C20 UNL     1       0.085  -0.364   1.142  1.00  0.00     0.196 C 
HETATM   20  O3  UNL     1       1.117  -1.137   0.675  1.00  0.00    -0.284 OA
ENDROOT
BRANCH   1  21
HETATM   21  C6  UNL     1       3.165  -0.481  -0.199  1.00  0.00     0.145 C 
BRANCH  21  22
HETATM   22  C5  UNL     1       3.373   0.491   0.890  1.00  0.00     0.019 C 
BRANCH  22  23
HETATM   23  C4  UNL     1       4.708   0.802   1.372  1.00  0.00     0.002 C 
BRANCH  23  24
HETATM   24  C3  UNL     1       5.773   1.374   0.552  1.00  0.00     0.011 C 
BRANCH  24  25
HETATM   25  C2  UNL     1       6.315   0.592  -0.597  1.00  0.00     0.084 C 
BRANCH  25  26
HETATM   26  S1  UNL     1       7.663   1.540  -1.418  1.00  0.00    -0.072 SA
BRANCH  26  27
HETATM   27  C1  UNL     1       9.057   1.586  -0.327  1.00  0.00     0.292 C 
HETATM   28  N1  UNL     1       9.019   0.871   0.897  1.00  0.00    -0.051 NA
HETATM   29  O1  UNL     1      10.103   2.250  -0.613  1.00  0.00    -0.264 OA
ENDBRANCH  26  27
ENDBRANCH  25  26
ENDBRANCH  24  25
ENDBRANCH  23  24
ENDBRANCH  22  23
ENDBRANCH  21  22
ENDBRANCH   1  21
BRANCH  15  30
HETATM   30  C15 UNL     1      -4.248   2.553   2.397  1.00  0.00     0.298 C 
BRANCH  30  31
HETATM   31  C16 UNL     1      -5.559   3.247   2.086  1.00  0.00     0.194 C 
BRANCH  31  32
HETATM   32  O2  UNL     1      -6.052   3.920   3.201  1.00  0.00    -0.399 OA
ATOM     33  H2  UNL     1      -6.874   4.355   3.006  1.00  0.00     0.209 HD
ENDBRANCH  31  32
ENDBRANCH  30  31
ENDBRANCH  15  30
TORSDOF 10
