REMARK  12 active torsions:
REMARK  status: ('A' for Active; 'I' for Inactive)
REMARK    1  A    between atoms: C2_2  and  C4_4 
REMARK    2  A    between atoms: C4_4  and  O1_5 
REMARK    3  A    between atoms: O1_5  and  C5_6 
REMARK    4  A    between atoms: C5_6  and  C7_11 
REMARK    5  A    between atoms: C10_15  and  O3_16 
REMARK    6  A    between atoms: C10_15  and  C11_18 
REMARK    7  A    between atoms: C11_18  and  C12_19 
REMARK    8  A    between atoms: C12_19  and  C13_20 
REMARK    9  A    between atoms: C15_24  and  C16_25 
REMARK   10  A    between atoms: C16_25  and  O6_26 
REMARK   11  A    between atoms: C16_25  and  C17_28 
REMARK   12  A    between atoms: C20_31  and  O7_32 
ROOT
HETATM    1  C5  UNL     1       2.137  -0.134  -0.622  1.00  0.00     0.138 C 
HETATM    2  N1  UNL     1       3.079   0.225  -1.476  1.00  0.00    -0.277 N 
ATOM      3  H1  UNL     1       4.018   0.398  -1.117  1.00  0.00     0.180 HD
HETATM    4  C6  UNL     1       2.860   0.375  -2.807  1.00  0.00     0.183 C 
HETATM    5  N2  UNL     1       2.680   0.477  -3.916  1.00  0.00    -0.172 NA
ENDROOT
BRANCH   1   6
HETATM    6  O1  UNL     1       2.634  -0.206   0.628  1.00  0.00    -0.338 OA
BRANCH   6   7
HETATM    7  C4  UNL     1       3.498  -0.978   1.298  1.00  0.00     0.180 C 
BRANCH   7   8
HETATM    8  C2  UNL     1       4.915  -1.178   0.920  1.00  0.00     0.002 C 
HETATM    9  C1  UNL     1       5.605  -2.089   1.983  1.00  0.00     0.011 C 
HETATM   10  C3  UNL     1       5.007  -2.026  -0.359  1.00  0.00     0.011 C 
ENDBRANCH   7   8
ENDBRANCH   6   7
ENDBRANCH   1   6
BRANCH   1  11
HETATM   11  C7  UNL     1       0.807  -0.372  -1.158  1.00  0.00     0.138 C 
HETATM   12  C8  UNL     1       0.328  -1.756  -0.894  1.00  0.00     0.142 C 
HETATM   13  O2  UNL     1       1.034  -2.715  -0.680  1.00  0.00    -0.297 OA
HETATM   14  C9  UNL     1      -1.194  -1.933  -0.903  1.00  0.00     0.117 C 
HETATM   15  C10 UNL     1      -1.701  -1.262   0.298  1.00  0.00     0.065 C 
HETATM   16  C14 UNL     1      -0.909   0.038   0.599  1.00  0.00     0.047 C 
HETATM   17  C15 UNL     1      -0.280   0.556  -0.671  1.00  0.00     0.041 C 
BRANCH  15  18
HETATM   18  O3  UNL     1      -1.371  -2.133   1.406  1.00  0.00    -0.389 OA
ATOM     19  H3  UNL     1      -1.700  -1.698   2.184  1.00  0.00     0.210 HD
ENDBRANCH  15  18
BRANCH  15  20
HETATM   20  C11 UNL     1      -3.152  -0.997   0.360  1.00  0.00     0.048 C 
BRANCH  20  21
HETATM   21  C12 UNL     1      -4.127  -2.096   0.330  1.00  0.00     0.116 C 
BRANCH  21  22
HETATM   22  C13 UNL     1      -4.300  -2.890  -0.866  1.00  0.00     0.172 C 
HETATM   23  O4  UNL     1      -3.953  -2.569  -2.001  1.00  0.00    -0.648 OA
HETATM   24  O5  UNL     1      -4.931  -4.157  -0.696  1.00  0.00    -0.648 OA
ENDBRANCH  21  22
ENDBRANCH  20  21
ENDBRANCH  15  20
BRANCH  17  25
HETATM   25  C16 UNL     1       0.119   1.988  -0.604  1.00  0.00     0.156 C 
BRANCH  25  26
HETATM   26  O6  UNL     1       1.182   2.214   0.253  1.00  0.00    -0.390 OA
ATOM     27  H6  UNL     1       1.437   3.128   0.296  1.00  0.00     0.210 HD
ENDBRANCH  25  26
BRANCH  25  28
HETATM   28  C17 UNL     1      -1.003   2.933  -0.394  1.00  0.00    -0.029 A 
HETATM   29  C18 UNL     1      -1.684   3.409  -1.496  1.00  0.00     0.012 A 
HETATM   30  C19 UNL     1      -2.728   4.297  -1.367  1.00  0.00     0.037 A 
HETATM   31  C20 UNL     1      -3.137   4.749  -0.133  1.00  0.00     0.065 A 
HETATM   32  C21 UNL     1      -2.434   4.255   0.958  1.00  0.00     0.037 A 
HETATM   33  C22 UNL     1      -1.394   3.373   0.869  1.00  0.00     0.012 A 
BRANCH  31  34
HETATM   34  O7  UNL     1      -4.189   5.646   0.020  1.00  0.00    -0.361 OA
ATOM     35  H7  UNL     1      -4.471   5.958   0.872  1.00  0.00     0.217 HD
ENDBRANCH  31  34
ENDBRANCH  25  28
ENDBRANCH  17  25
ENDBRANCH   1  11
TORSDOF 12
