REMARK  11 active torsions:
REMARK  status: ('A' for Active; 'I' for Inactive)
REMARK    1  A    between atoms: C1_2  and  O1_3 
REMARK    2  A    between atoms: C1_2  and  N2_5 
REMARK    3  A    between atoms: N2_5  and  N3_6 
REMARK    4  A    between atoms: C2_8  and  C3_9 
REMARK    5  A    between atoms: C2_8  and  C9_20 
REMARK    6  A    between atoms: C3_9  and  C4_11 
REMARK    7  A    between atoms: C4_11  and  C5_12 
REMARK    8  A    between atoms: C4_11  and  N4_17 
REMARK    9  A    between atoms: C14_25  and  N5_26 
REMARK   10  A    between atoms: N5_26  and  C15_28 
REMARK   11  A    between atoms: C20_33  and  O6_34 
ROOT
HETATM    1  N3  UNL     1      -0.893   2.311   1.654  1.00  0.00    -0.228 N 
ATOM      2  H3  UNL     1      -1.505   2.043   2.425  1.00  0.00     0.202 HD
HETATM    3  C2  UNL     1      -0.570   1.436   0.683  1.00  0.00     0.121 C 
ENDROOT
BRANCH   3   4
HETATM    4  C3  UNL     1      -1.190   0.134   0.873  1.00  0.00     0.210 C 
HETATM    5  O2  UNL     1      -1.700  -0.134   1.992  1.00  0.00    -0.288 OA
BRANCH   4   6
HETATM    6  C4  UNL     1      -1.323  -0.928  -0.140  1.00  0.00     0.260 C 
BRANCH   6   7
HETATM    7  C5  UNL     1      -2.164  -2.101   0.321  1.00  0.00     0.158 C 
HETATM    8  C6  UNL     1      -3.471  -1.805   0.930  1.00  0.00     0.037 C 
HETATM    9  C7  UNL     1      -4.384  -2.835   0.309  1.00  0.00     0.029 C 
HETATM   10  C8  UNL     1      -3.634  -3.208  -0.947  1.00  0.00     0.168 C 
HETATM   11  O3  UNL     1      -2.301  -3.025  -0.729  1.00  0.00    -0.383 OA
ENDBRANCH   6   7
BRANCH   6  12
HETATM   12  N4  UNL     1      -1.944  -0.332  -1.355  1.00  0.00    -0.140 N 
HETATM   13  O4  UNL     1      -1.446  -0.496  -2.461  1.00  0.00    -0.536 OA
HETATM   14  O5  UNL     1      -3.087   0.383  -1.228  1.00  0.00    -0.536 OA
ENDBRANCH   6  12
ENDBRANCH   4   6
ENDBRANCH   3   4
BRANCH   3  15
HETATM   15  C9  UNL     1       0.227   1.887  -0.427  1.00  0.00     0.023 A 
HETATM   16  C10 UNL     1      -0.119   2.954  -1.228  1.00  0.00     0.016 A 
HETATM   17  C11 UNL     1       0.538   3.175  -2.428  1.00  0.00     0.001 A 
HETATM   18  C12 UNL     1       1.541   2.360  -2.870  1.00  0.00     0.002 A 
HETATM   19  C13 UNL     1       1.922   1.259  -2.079  1.00  0.00     0.030 A 
HETATM   20  C14 UNL     1       1.279   1.024  -0.874  1.00  0.00     0.045 A 
BRANCH  20  21
HETATM   21  N5  UNL     1       1.727   0.112   0.092  1.00  0.00    -0.353 N 
ATOM     22  H5  UNL     1       1.440   0.315   1.050  1.00  0.00     0.166 HD
BRANCH  21  23
HETATM   23  C15 UNL     1       2.509  -1.035  -0.066  1.00  0.00     0.066 A 
HETATM   24  C16 UNL     1       2.717  -1.724  -1.238  1.00  0.00     0.032 A 
HETATM   25  C17 UNL     1       3.416  -2.939  -1.313  1.00  0.00     0.002 A 
HETATM   26  C18 UNL     1       3.939  -3.511  -0.192  1.00  0.00     0.003 A 
HETATM   27  C19 UNL     1       3.754  -2.862   0.985  1.00  0.00     0.039 A 
HETATM   28  C20 UNL     1       3.059  -1.652   1.080  1.00  0.00     0.092 A 
BRANCH  28  29
HETATM   29  O6  UNL     1       2.927  -1.083   2.314  1.00  0.00    -0.358 OA
ATOM     30  H6  UNL     1       3.297  -1.498   3.085  1.00  0.00     0.217 HD
ENDBRANCH  28  29
ENDBRANCH  21  23
ENDBRANCH  20  21
ENDBRANCH   3  15
BRANCH   1  31
HETATM   31  N2  UNL     1      -0.359   3.602   1.567  1.00  0.00    -0.283 NA
BRANCH  31  32
HETATM   32  C1  UNL     1       0.134   4.793   1.486  1.00  0.00     0.326 C 
HETATM   33  N1  UNL     1       1.515   5.141   1.822  1.00  0.00    -0.040 NA
BRANCH  32  34
HETATM   34  O1  UNL     1      -0.489   5.872   1.095  1.00  0.00    -0.323 OA
ATOM     35  H1  UNL     1      -1.386   5.646   0.877  1.00  0.00     0.221 HD
ENDBRANCH  32  34
ENDBRANCH  31  32
ENDBRANCH   1  31
TORSDOF 11
