REMARK  7 active torsions:
REMARK  status: ('A' for Active; 'I' for Inactive)
REMARK    1  A    between atoms: C2_2  and  N1_3 
REMARK    2  A    between atoms: C2_2  and  C13_23 
REMARK    3  A    between atoms: N1_3  and  C3_5 
REMARK    4  A    between atoms: C4_8  and  N3_9 
REMARK    5  A    between atoms: C7_12  and  C8_13 
REMARK    6  A    between atoms: C8_13  and  O1_14 
REMARK    7  A    between atoms: N6_28  and  C16_29 
ROOT
HETATM    1  C3  UNL     1       0.787  -0.764  -0.280  1.00  0.00     0.680 A 
HETATM    2  N2  UNL     1       1.961  -0.118   0.003  1.00  0.00    -0.174 N 
ATOM      3  H2  UNL     1       2.029   0.881  -0.194  1.00  0.00     0.186 HD
HETATM    4  C4  UNL     1       3.033  -0.749   0.532  1.00  0.00     0.159 A 
HETATM    5  C11 UNL     1       2.971  -2.086   0.806  1.00  0.00     0.176 A 
HETATM    6  F1  UNL     1       3.973  -2.830   1.334  1.00  0.00    -0.201 F 
HETATM    7  C12 UNL     1       1.796  -2.741   0.526  1.00  0.00     0.152 A 
HETATM    8  N4  UNL     1       0.746  -2.047  -0.009  1.00  0.00    -0.199 N 
ATOM      9  H4  UNL     1      -0.116  -2.555  -0.208  1.00  0.00     0.183 HD
ENDROOT
BRANCH   1  10
HETATM   10  N1  UNL     1      -0.120  -0.086  -0.759  1.00  0.00    -0.215 N 
ATOM     11  H1  UNL     1       0.166   0.887  -0.871  1.00  0.00     0.178 HD
BRANCH  10  12
HETATM   12  C2  UNL     1      -1.459  -0.283  -1.201  1.00  0.00     0.163 C 
HETATM   13  C1  UNL     1      -1.561  -1.516  -2.023  1.00  0.00     0.041 C 
BRANCH  12  14
HETATM   14  C13 UNL     1      -2.319  -0.274   0.022  1.00  0.00     0.107 A 
HETATM   15  N5  UNL     1      -1.969  -0.739   1.235  1.00  0.00    -0.346 N 
HETATM   16  C14 UNL     1      -2.978  -0.591   2.073  1.00  0.00     0.033 A 
ATOM     17  H5  UNL     1      -1.063  -1.144   1.471  1.00  0.00     0.167 HD
HETATM   18  C15 UNL     1      -3.983  -0.017   1.352  1.00  0.00     0.036 A 
HETATM   19  C23 UNL     1      -3.379  -0.826   3.485  1.00  0.00     0.059 C 
HETATM   20  N6  UNL     1      -3.575   0.187   0.053  1.00  0.00    -0.332 N 
HETATM   21  C21 UNL     1      -5.161   0.168   2.276  1.00  0.00     0.059 C 
HETATM   22  C22 UNL     1      -4.614   0.039   3.657  1.00  0.00     0.012 C 
BRANCH  20  23
HETATM   23  C16 UNL     1      -4.459   0.758  -0.880  1.00  0.00     0.091 C 
HETATM   24  C17 UNL     1      -5.437  -0.203  -1.526  1.00  0.00     0.026 C 
HETATM   25  C18 UNL     1      -6.246   0.771  -2.388  1.00  0.00     0.002 C 
HETATM   26  C19 UNL     1      -5.386   2.024  -2.538  1.00  0.00     0.002 C 
HETATM   27  C20 UNL     1      -4.006   1.517  -2.045  1.00  0.00     0.026 C 
ENDBRANCH  20  23
ENDBRANCH  12  14
ENDBRANCH  10  12
ENDBRANCH   1  10
BRANCH   4  28
HETATM   28  N3  UNL     1       4.234  -0.044   0.813  1.00  0.00    -0.364 N 
HETATM   29  C5  UNL     1       4.252   1.389   0.477  1.00  0.00     0.125 C 
HETATM   30  C6  UNL     1       5.412   1.569  -0.474  1.00  0.00     0.026 C 
HETATM   31  C7  UNL     1       6.668   1.210   0.250  1.00  0.00     0.012 C 
HETATM   32  C9  UNL     1       6.417   0.559   1.576  1.00  0.00     0.026 C 
HETATM   33  C10 UNL     1       5.422  -0.586   1.388  1.00  0.00     0.125 C 
BRANCH  31  34
HETATM   34  C8  UNL     1       7.507   0.244  -0.585  1.00  0.00     0.168 C 
BRANCH  34  35
HETATM   35  O1  UNL     1       7.852   0.824  -1.805  1.00  0.00    -0.400 OA
ATOM     36  H1  UNL     1       8.374   0.223  -2.324  1.00  0.00     0.209 HD
ENDBRANCH  34  35
ENDBRANCH  31  34
ENDBRANCH   4  28
TORSDOF 7
