REMARK  5 active torsions:
REMARK  status: ('A' for Active; 'I' for Inactive)
REMARK    1  A    between atoms: O1_2  and  N1_3 
REMARK    2  A    between atoms: N2_8  and  C5_9 
REMARK    3  A    between atoms: C5_9  and  C6_10 
REMARK    4  A    between atoms: N3_13  and  C9_14 
REMARK    5  A    between atoms: C12_17  and  C13_18 
ROOT
HETATM    1  C9  UNL     1       1.338  -0.682   0.110  1.00  0.00     0.033 A 
HETATM    2  C10 UNL     1       1.485   0.586   0.608  1.00  0.00     0.030 A 
HETATM    3  C11 UNL     1       2.689   1.263   0.429  1.00  0.00     0.015 A 
HETATM    4  C12 UNL     1       3.744   0.691  -0.240  1.00  0.00     0.009 A 
HETATM    5  C18 UNL     1       3.580  -0.585  -0.735  1.00  0.00     0.127 A 
HETATM    6  F1  UNL     1       4.586  -1.210  -1.410  1.00  0.00    -0.205 F 
HETATM    7  C19 UNL     1       2.390  -1.269  -0.564  1.00  0.00     0.072 A 
ENDROOT
BRANCH   1   8
HETATM    8  N3  UNL     1       0.131  -1.423   0.274  1.00  0.00    -0.380 N 
HETATM    9  C8  UNL     1      -0.231  -2.709  -0.234  1.00  0.00     0.123 C 
HETATM   10  C7  UNL     1      -1.182  -3.314   0.760  1.00  0.00     0.027 C 
HETATM   11  C6  UNL     1      -1.866  -2.084   1.349  1.00  0.00     0.033 C 
HETATM   12  C20 UNL     1      -1.002  -0.940   1.063  1.00  0.00     0.129 C 
BRANCH  11  13
HETATM   13  C5  UNL     1      -3.315  -2.068   1.128  1.00  0.00     0.278 C 
BRANCH  13  14
HETATM   14  N2  UNL     1      -3.890  -2.107  -0.147  1.00  0.00     0.089 N 
HETATM   15  C4  UNL     1      -5.340  -2.333  -0.064  1.00  0.00     0.278 C 
HETATM   16  C3  UNL     1      -6.138  -1.383  -0.907  1.00  0.00     0.084 C 
HETATM   17  C2  UNL     1      -5.710   0.010  -0.659  1.00  0.00     0.013 C 
HETATM   18  N1  UNL     1      -6.555   0.947  -0.618  1.00  0.00    -0.275 N 
HETATM   19  C22 UNL     1      -4.271   0.250  -0.461  1.00  0.00     0.084 C 
ATOM     20  H1  UNL     1      -7.525   0.668  -0.766  1.00  0.00     0.193 HD
HETATM   21  C21 UNL     1      -3.585  -1.016  -1.000  1.00  0.00     0.278 C 
BRANCH  18  22
HETATM   22  O1  UNL     1      -6.357   2.267  -0.406  1.00  0.00    -0.286 OA
HETATM   23  C1  UNL     1      -7.252   3.072   0.351  1.00  0.00     0.237 C 
ENDBRANCH  18  22
ENDBRANCH  13  14
ENDBRANCH  11  13
ENDBRANCH   1   8
BRANCH   4  24
HETATM   24  C13 UNL     1       5.001   1.448  -0.398  1.00  0.00     0.066 C 
HETATM   25  C14 UNL     1       5.223   1.647  -1.883  1.00  0.00     0.044 C 
HETATM   26  C15 UNL     1       4.832   2.816   0.216  1.00  0.00     0.110 C 
HETATM   27  S1  UNL     1       6.316   3.837  -0.136  1.00  0.00    -0.159 SA
HETATM   28  C16 UNL     1       7.662   2.662  -0.495  1.00  0.00     0.149 C 
HETATM   29  C17 UNL     1       7.379   1.418   0.266  1.00  0.00     0.080 C 
HETATM   30  N4  UNL     1       8.289   0.860   1.029  1.00  0.00    -0.388 N 
HETATM   31  N5  UNL     1       6.120   0.761   0.219  1.00  0.00    -0.365 N 
ATOM     32  H42 UNL     1       9.193   1.332   1.063  1.00  0.00     0.157 HD
ATOM     33  H41 UNL     1       8.095   0.006   1.552  1.00  0.00     0.157 HD
ATOM     34  H5  UNL     1       6.005  -0.174   0.611  1.00  0.00     0.162 HD
ENDBRANCH   4  24
TORSDOF 5
