REMARK  7 active torsions:
REMARK  status: ('A' for Active; 'I' for Inactive)
REMARK    1  A    between atoms: C3_3  and  C4_4 
REMARK    2  A    between atoms: C10_13  and  N2_14 
REMARK    3  A    between atoms: N2_14  and  C11_16 
REMARK    4  A    between atoms: C11_16  and  C13_18 
REMARK    5  A    between atoms: C15_20  and  O1_21 
REMARK    6  A    between atoms: C17_23  and  O2_24 
REMARK    7  A    between atoms: C19_26  and  O3_27 
ROOT
HETATM    1  C1  UNL     1       6.263   3.751   0.738  1.00  0.00     0.112 C 
HETATM    2  C2  UNL     1       5.815   2.423   0.258  1.00  0.00    -0.109 C 
HETATM    3  C3  UNL     1       5.464   1.344  -0.150  1.00  0.00    -0.078 C 
ENDROOT
BRANCH   3   4
HETATM    4  C4  UNL     1       5.057   0.055  -0.659  1.00  0.00     0.127 A 
HETATM    5 CL1  UNL     1       5.348  -0.166  -2.402  1.00  0.00    -0.103 Cl
HETATM    6  C5  UNL     1       5.177  -1.160   0.197  1.00  0.00     0.007 A 
HETATM    7  C6  UNL     1       5.650  -2.435  -0.435  1.00  0.00     0.019 C 
HETATM    8  C7  UNL     1       5.802  -0.885   1.564  1.00  0.00     0.019 C 
HETATM    9  C8  UNL     1       3.820  -0.625  -0.054  1.00  0.00     0.101 A 
HETATM   10  C9  UNL     1       3.151   0.026   1.110  1.00  0.00     0.161 C 
HETATM   11  C22 UNL     1       2.923  -1.186  -1.057  1.00  0.00     0.250 C 
HETATM   12  N1  UNL     1       1.748   0.220   0.987  1.00  0.00    -0.225 N 
HETATM   13  C10 UNL     1       0.987  -0.177   0.053  1.00  0.00     0.677 C 
ATOM     14  H1  UNL     1       1.299   0.741   1.740  1.00  0.00     0.177 HD
HETATM   15  N3  UNL     1       1.532  -0.902  -1.020  1.00  0.00    -0.159 N 
ATOM     16  H3  UNL     1       0.927  -1.225  -1.775  1.00  0.00     0.187 HD
HETATM   17  O4  UNL     1       3.348  -1.919  -1.958  1.00  0.00    -0.272 OA
BRANCH  13  18
HETATM   18  N2  UNL     1      -0.397   0.145   0.157  1.00  0.00    -0.218 N 
ATOM     19  H2  UNL     1      -0.699   0.950   0.705  1.00  0.00     0.178 HD
BRANCH  18  20
HETATM   20  C11 UNL     1      -1.362  -0.676  -0.518  1.00  0.00     0.128 C 
HETATM   21  C12 UNL     1      -1.259  -2.090   0.009  1.00  0.00     0.038 C 
BRANCH  20  22
HETATM   22  C13 UNL     1      -2.734  -0.171  -0.428  1.00  0.00    -0.030 A 
HETATM   23  C14 UNL     1      -3.072   1.149  -0.613  1.00  0.00     0.049 A 
HETATM   24  C15 UNL     1      -4.389   1.560  -0.515  1.00  0.00     0.104 A 
HETATM   25  C17 UNL     1      -5.380   0.630  -0.228  1.00  0.00     0.135 A 
HETATM   26  C19 UNL     1      -5.053  -0.697  -0.040  1.00  0.00     0.104 A 
HETATM   27  C21 UNL     1      -3.741  -1.066  -0.144  1.00  0.00     0.049 A 
BRANCH  24  28
HETATM   28  O1  UNL     1      -4.776   2.860  -0.690  1.00  0.00    -0.353 OA
HETATM   29  C16 UNL     1      -3.861   3.890  -0.985  1.00  0.00     0.210 C 
ENDBRANCH  24  28
BRANCH  25  30
HETATM   30  O2  UNL     1      -6.706   0.982  -0.119  1.00  0.00    -0.351 OA
HETATM   31  C18 UNL     1      -7.613   0.989  -1.186  1.00  0.00     0.210 C 
ENDBRANCH  25  30
BRANCH  26  32
HETATM   32  O3  UNL     1      -6.044  -1.654   0.252  1.00  0.00    -0.353 OA
HETATM   33  C20 UNL     1      -5.653  -3.001   0.435  1.00  0.00     0.210 C 
ENDBRANCH  26  32
ENDBRANCH  20  22
ENDBRANCH  18  20
ENDBRANCH  13  18
ENDBRANCH   3   4
TORSDOF 7
