REMARK  6 active torsions:
REMARK  status: ('A' for Active; 'I' for Inactive)
REMARK    1  A    between atoms: C2_2  and  C5_5 
REMARK    2  A    between atoms: C5_5  and  C6_6 
REMARK    3  A    between atoms: C6_6  and  O1_7 
REMARK    4  A    between atoms: O1_7  and  N1_8 
REMARK    5  A    between atoms: C9_11  and  C10_12 
REMARK    6  A    between atoms: C19_31  and  C20_32 
ROOT
HETATM    1  N1  UNL     1       0.797  -0.220  -0.498  1.00  0.00    -0.245 N 
HETATM    2  C7  UNL     1       0.429   0.377   0.736  1.00  0.00     0.163 C 
HETATM    3  C8  UNL     1      -0.549  -0.587   1.429  1.00  0.00     0.076 C 
HETATM    4  C9  UNL     1      -1.765  -0.460   0.583  1.00  0.00     0.014 C 
HETATM    5  N5  UNL     1      -1.564  -0.572  -0.686  1.00  0.00    -0.349 N 
ATOM      6  H5  UNL     1      -2.365  -0.582  -1.317  1.00  0.00     0.166 HD
HETATM    7  C19 UNL     1      -0.248  -0.682  -1.230  1.00  0.00     0.112 C 
ENDROOT
BRANCH   4   8
HETATM    8  C10 UNL     1      -3.035   0.035   1.088  1.00  0.00     0.130 C 
HETATM    9  C11 UNL     1      -3.725  -0.843   2.077  1.00  0.00     0.239 C 
HETATM   10  O2  UNL     1      -4.452  -1.866   1.974  1.00  0.00    -0.272 OA
HETATM   11  N2  UNL     1      -3.192  -0.023   3.091  1.00  0.00    -0.352 N 
HETATM   12  C12 UNL     1      -2.908   1.075   2.156  1.00  0.00     0.130 C 
ATOM     13  H2  UNL     1      -3.055  -0.145   4.094  1.00  0.00     0.163 HD
HETATM   14  C13 UNL     1      -3.909   2.138   2.233  1.00  0.00     0.147 C 
HETATM   15  N3  UNL     1      -4.588   2.488   1.005  1.00  0.00    -0.384 N 
HETATM   16  C14 UNL     1      -4.717   1.545  -0.050  1.00  0.00     0.093 A 
ATOM     17  H3  UNL     1      -4.979   3.424   0.895  1.00  0.00     0.159 HD
HETATM   18  C15 UNL     1      -4.064   0.364   0.071  1.00  0.00    -0.000 A 
HETATM   19  C18 UNL     1      -5.718   1.762  -1.011  1.00  0.00     0.215 A 
HETATM   20  C16 UNL     1      -4.486  -0.681  -0.768  1.00  0.00     0.028 A 
HETATM   21  C17 UNL     1      -5.514  -0.478  -1.614  1.00  0.00     0.091 A 
HETATM   22  N4  UNL     1      -6.099   0.708  -1.798  1.00  0.00    -0.341 N 
ATOM     23  H4  UNL     1      -6.817   0.827  -2.512  1.00  0.00     0.167 HD
HETATM   24  F1  UNL     1      -6.313   2.954  -1.039  1.00  0.00    -0.184 F 
ENDBRANCH   4   8
BRANCH   7  25
HETATM   25  C20 UNL     1      -0.086  -1.912  -2.066  1.00  0.00     0.009 C 
HETATM   26  C21 UNL     1       0.673  -1.696  -3.356  1.00  0.00     0.023 C 
HETATM   27  C22 UNL     1       0.772  -2.934  -1.279  1.00  0.00     0.023 C 
HETATM   28  C23 UNL     1      -1.415  -2.573  -2.367  1.00  0.00     0.023 C 
ENDBRANCH   7  25
BRANCH   1  29
HETATM   29  O1  UNL     1       1.923  -0.006  -0.998  1.00  0.00    -0.277 OA
BRANCH  29  30
HETATM   30  C6  UNL     1       2.761   0.922  -0.380  1.00  0.00     0.202 C 
BRANCH  30  31
HETATM   31  C5  UNL     1       3.887   0.111   0.241  1.00  0.00     0.037 C 
BRANCH  31  32
HETATM   32  C2  UNL     1       5.059   0.899   0.647  1.00  0.00    -0.049 C 
HETATM   33  C1  UNL     1       4.828   1.745   1.863  1.00  0.00     0.014 C 
HETATM   34  C3  UNL     1       5.520   1.802  -0.494  1.00  0.00     0.014 C 
HETATM   35  C4  UNL     1       6.165  -0.110   0.974  1.00  0.00     0.014 C 
ENDBRANCH  31  32
ENDBRANCH  30  31
ENDBRANCH  29  30
ENDBRANCH   1  29
TORSDOF 6
