REMARK  10 active torsions:
REMARK  status: ('A' for Active; 'I' for Inactive)
REMARK    1  A    between atoms: C2_2  and  C3_3 
REMARK    2  A    between atoms: C4_4  and  C5_5 
REMARK    3  A    between atoms: C6_6  and  C7_7 
REMARK    4  A    between atoms: C9_10  and  C10_11 
REMARK    5  A    between atoms: C10_11  and  O2_12 
REMARK    6  A    between atoms: O2_12  and  C11_13 
REMARK    7  A    between atoms: C11_13  and  C12_15 
REMARK    8  A    between atoms: C12_15  and  C13_16 
REMARK    9  A    between atoms: C12_15  and  N1_18 
REMARK   10  A    between atoms: N1_18  and  C15_21 
ROOT
HETATM    1  O2  UNL     1      -0.640  -1.137  -0.024  1.00  0.00    -0.317 OA
ENDROOT
BRANCH   1   2
HETATM    2  C10 UNL     1       0.544  -1.534  -0.545  1.00  0.00     0.211 C 
BRANCH   2   3
HETATM    3  C9  UNL     1       1.758  -1.110   0.200  1.00  0.00     0.157 C 
HETATM    4  C3  UNL     1       3.028  -1.625  -0.370  1.00  0.00     0.071 C 
HETATM    5  C4  UNL     1       3.410  -0.159  -0.185  1.00  0.00     0.154 C 
HETATM    6  O1  UNL     1       2.118   0.196   0.201  1.00  0.00    -0.373 OA
BRANCH   4   7
HETATM    7  C2  UNL     1       3.798  -2.622   0.348  1.00  0.00    -0.027 C 
HETATM    8  C1  UNL     1       3.432  -3.149   1.499  1.00  0.00     0.007 C 
ENDBRANCH   4   7
BRANCH   5   9
HETATM    9  C5  UNL     1       4.403   0.037   0.862  1.00  0.00     0.001 C 
HETATM   10  C6  UNL     1       5.414   0.845   0.822  1.00  0.00    -0.028 C 
BRANCH  10  11
HETATM   11  C7  UNL     1       5.751   1.728  -0.302  1.00  0.00     0.022 C 
HETATM   12  C8  UNL     1       5.800   3.189   0.126  1.00  0.00     0.009 C 
ENDBRANCH  10  11
ENDBRANCH   5   9
ENDBRANCH   2   3
ENDBRANCH   1   2
BRANCH   1  13
HETATM   13  C11 UNL     1      -1.339  -0.022   0.217  1.00  0.00     0.289 C 
HETATM   14  O3  UNL     1      -0.855   1.073  -0.113  1.00  0.00    -0.263 OA
BRANCH  13  15
HETATM   15  C12 UNL     1      -2.697  -0.042   0.881  1.00  0.00     0.284 C 
BRANCH  15  16
HETATM   16  C13 UNL     1      -3.131  -1.472   0.909  1.00  0.00     0.039 C 
HETATM   17  C14 UNL     1      -3.219  -2.056  -0.483  1.00  0.00     0.007 C 
ENDBRANCH  15  16
BRANCH  15  18
HETATM   18  N1  UNL     1      -3.553   0.921   0.311  1.00  0.00    -0.057 N 
ATOM     19  H12 UNL     1      -3.411   1.831   0.750  1.00  0.00     0.278 HD
ATOM     20  H11 UNL     1      -3.260   1.141  -0.641  1.00  0.00     0.278 HD
BRANCH  18  21
HETATM   21  C15 UNL     1      -4.958   0.556   0.340  1.00  0.00     0.191 A 
HETATM   22  C16 UNL     1      -5.754   0.719  -0.936  1.00  0.00     0.039 A 
HETATM   23  C17 UNL     1      -6.017   1.623   0.213  1.00  0.00     0.014 A 
HETATM   24  C18 UNL     1      -5.580   3.052   0.067  1.00  0.00     0.012 C 
ENDBRANCH  18  21
ENDBRANCH  15  18
ENDBRANCH  13  15
ENDBRANCH   1  13
TORSDOF 10
