REMARK  10 active torsions:
REMARK  status: ('A' for Active; 'I' for Inactive)
REMARK    1  A    between atoms: C2_2  and  C3_3 
REMARK    2  A    between atoms: C3_3  and  C4_4 
REMARK    3  A    between atoms: C4_4  and  C5_5 
REMARK    4  A    between atoms: C5_5  and  C6_6 
REMARK    5  A    between atoms: C5_5  and  C10_11 
REMARK    6  A    between atoms: C6_6  and  N1_7 
REMARK    7  A    between atoms: C10_11  and  C11_12 
REMARK    8  A    between atoms: C14_16  and  C15_17 
REMARK    9  A    between atoms: C15_17  and  C16_18 
REMARK   10  A    between atoms: C16_18  and  O2_20 
ROOT
HETATM    1  C10 UNL     1       0.193  -0.386  -0.526  1.00  0.00     0.169 C 
HETATM    2  O1  UNL     1       0.581   0.204  -1.729  1.00  0.00    -0.352 OA
HETATM    3  C13 UNL     1       1.948   0.520  -1.504  1.00  0.00     0.203 C 
HETATM    4  C14 UNL     1       2.037   0.797  -0.056  1.00  0.00     0.151 C 
HETATM    5  O3  UNL     1       0.820   0.356   0.468  1.00  0.00    -0.347 OA
ENDROOT
BRANCH   1   6
HETATM    6  C5  UNL     1      -1.276  -0.430  -0.379  1.00  0.00     0.076 C 
BRANCH   6   7
HETATM    7  C4  UNL     1      -1.909  -1.299  -1.497  1.00  0.00     0.012 C 
BRANCH   7   8
HETATM    8  C3  UNL     1      -3.344  -1.529  -1.203  1.00  0.00     0.000 C 
BRANCH   8   9
HETATM    9  C2  UNL     1      -3.680  -2.198   0.080  1.00  0.00    -0.005 C 
HETATM   10  C1  UNL     1      -3.135  -3.566   0.276  1.00  0.00     0.005 C 
ENDBRANCH   8   9
ENDBRANCH   7   8
ENDBRANCH   6   7
BRANCH   6  11
HETATM   11  C6  UNL     1      -2.038   0.834  -0.354  1.00  0.00     0.282 C 
BRANCH  11  12
HETATM   12  N1  UNL     1      -1.680   1.859   0.573  1.00  0.00     0.089 N 
HETATM   13  C7  UNL     1      -2.777   2.851   0.746  1.00  0.00     0.274 A 
HETATM   14  C8  UNL     1      -2.082   3.890  -0.045  1.00  0.00     0.060 A 
HETATM   15  C9  UNL     1      -0.969   2.919  -0.151  1.00  0.00     0.274 A 
ENDBRANCH  11  12
ENDBRANCH   6  11
ENDBRANCH   1   6
BRANCH   1  16
HETATM   16  C11 UNL     1       0.806  -1.779  -0.431  1.00  0.00     0.064 C 
HETATM   17  C12 UNL     1       0.544  -2.454   0.876  1.00  0.00     0.010 C 
ENDBRANCH   1  16
BRANCH   4  18
HETATM   18  C15 UNL     1       3.215   0.338   0.694  1.00  0.00     0.065 C 
BRANCH  18  19
HETATM   19  C16 UNL     1       4.504   0.925   0.162  1.00  0.00     0.116 C 
HETATM   20  C17 UNL     1       5.682   0.423   0.966  1.00  0.00     0.039 C 
BRANCH  19  21
HETATM   21  O2  UNL     1       4.437   2.298   0.262  1.00  0.00    -0.396 OA
ATOM     22  H2  UNL     1       5.246   2.667  -0.072  1.00  0.00     0.210 HD
ENDBRANCH  19  21
ENDBRANCH  18  19
ENDBRANCH   4  18
TORSDOF 10
