REMARK  10 active torsions:
REMARK  status: ('A' for Active; 'I' for Inactive)
REMARK    1  A    between atoms: C2_2  and  C3_3 
REMARK    2  A    between atoms: C3_3  and  C4_4 
REMARK    3  A    between atoms: C3_3  and  O1_6 
REMARK    4  A    between atoms: O1_6  and  C6_7 
REMARK    5  A    between atoms: C6_7  and  C7_8 
REMARK    6  A    between atoms: C7_8  and  O2_9 
REMARK    7  A    between atoms: C7_8  and  C8_11 
REMARK    8  A    between atoms: C8_11  and  N1_12 
REMARK    9  A    between atoms: N2_15  and  C11_16 
REMARK   10  A    between atoms: C11_16  and  C14_19 
ROOT
HETATM    1  N1  UNL     1       0.710  -1.118  -0.311  1.00  0.00    -0.288 NA
HETATM    2  C9  UNL     1       1.639  -1.689   0.652  1.00  0.00     0.110 C 
HETATM    3  C10 UNL     1       2.948  -1.089   0.825  1.00  0.00     0.110 C 
HETATM    4  N2  UNL     1       3.127   0.267   0.432  1.00  0.00    -0.282 NA
HETATM    5  C16 UNL     1       2.352   0.711  -0.647  1.00  0.00     0.072 C 
HETATM    6  C17 UNL     1       1.401  -0.311  -1.222  1.00  0.00     0.071 C 
ENDROOT
BRANCH   1   7
HETATM    7  C8  UNL     1      -0.481  -0.678   0.302  1.00  0.00     0.128 C 
BRANCH   7   8
HETATM    8  C7  UNL     1      -1.611  -0.436  -0.624  1.00  0.00     0.155 C 
BRANCH   8   9
HETATM    9  C6  UNL     1      -2.898  -0.090   0.127  1.00  0.00     0.201 C 
BRANCH   9  10
HETATM   10  O1  UNL     1      -3.946  -0.177  -0.763  1.00  0.00    -0.383 OA
BRANCH  10  11
HETATM   11  C3  UNL     1      -5.172   0.142  -0.212  1.00  0.00     0.120 C 
BRANCH  11  12
HETATM   12  C2  UNL     1      -6.111  -1.036  -0.150  1.00  0.00     0.027 C 
HETATM   13  C1  UNL     1      -5.451  -2.167   0.654  1.00  0.00     0.007 C 
ENDBRANCH  11  12
BRANCH  11  14
HETATM   14  C4  UNL     1      -5.774   1.273  -0.994  1.00  0.00     0.027 C 
HETATM   15  C5  UNL     1      -7.059   1.802  -0.407  1.00  0.00     0.007 C 
ENDBRANCH  11  14
ENDBRANCH  10  11
ENDBRANCH   9  10
ENDBRANCH   8   9
BRANCH   8  16
HETATM   16  O2  UNL     1      -1.450   0.529  -1.577  1.00  0.00    -0.392 OA
ATOM     17  H2  UNL     1      -0.651   0.314  -2.043  1.00  0.00     0.210 HD
ENDBRANCH   8  16
ENDBRANCH   7   8
ENDBRANCH   1   7
BRANCH   4  18
HETATM   18  C11 UNL     1       4.528   0.559   0.234  1.00  0.00     0.009 C 
HETATM   19  C12 UNL     1       4.799   2.040   0.068  1.00  0.00     0.032 C 
HETATM   20  C13 UNL     1       5.046  -0.145  -0.996  1.00  0.00     0.032 C 
BRANCH  18  21
HETATM   21  C14 UNL     1       5.315   0.090   1.460  1.00  0.00     0.020 C 
HETATM   22  C15 UNL     1       6.788   0.359   1.303  1.00  0.00     0.007 C 
ENDBRANCH  18  21
ENDBRANCH   4  18
TORSDOF 10
