REMARK  10 active torsions:
REMARK  status: ('A' for Active; 'I' for Inactive)
REMARK    1  A    between atoms: C2_2  and  C3_3 
REMARK    2  A    between atoms: C3_3  and  C5_5 
REMARK    3  A    between atoms: C5_5  and  C7_7 
REMARK    4  A    between atoms: C5_5  and  C14_17 
REMARK    5  A    between atoms: C7_7  and  C8_8 
REMARK    6  A    between atoms: C8_8  and  C9_9 
REMARK    7  A    between atoms: C9_9  and  N1_10 
REMARK    8  A    between atoms: N1_10  and  C12_13 
REMARK    9  A    between atoms: C12_13  and  C13_14 
REMARK   10  A    between atoms: C13_14  and  O1_15 
ROOT
HETATM    1  C5  UNL     1       1.693   0.759   0.630  1.00  0.00     0.013 C 
HETATM    2  C6  UNL     1       1.661   0.485   2.128  1.00  0.00     0.023 C 
ENDROOT
BRANCH   1   3
HETATM    3  C3  UNL     1       2.534   2.017   0.363  1.00  0.00     0.018 C 
HETATM    4  C4  UNL     1       2.300   3.086   1.372  1.00  0.00     0.015 C 
BRANCH   3   5
HETATM    5  C2  UNL     1       2.540   2.434  -1.049  1.00  0.00    -0.031 C 
HETATM    6  C1  UNL     1       3.618   2.562  -1.788  1.00  0.00     0.007 C 
ENDBRANCH   3   5
ENDBRANCH   1   3
BRANCH   1   7
HETATM    7  C7  UNL     1       0.400   0.946  -0.006  1.00  0.00     0.018 C 
BRANCH   7   8
HETATM    8  C8  UNL     1      -0.652  -0.160   0.169  1.00  0.00     0.029 C 
BRANCH   8   9
HETATM    9  C9  UNL     1      -1.846   0.366  -0.574  1.00  0.00     0.236 C 
BRANCH   9  10
HETATM   10  N1  UNL     1      -3.026  -0.460  -0.544  1.00  0.00    -0.073 N 
HETATM   11  C10 UNL     1      -2.825  -1.805  -0.990  1.00  0.00     0.272 C 
HETATM   12  C11 UNL     1      -3.944   0.175  -1.483  1.00  0.00     0.272 C 
BRANCH  10  13
HETATM   13  C12 UNL     1      -3.593  -0.492   0.777  1.00  0.00     0.262 C 
BRANCH  13  14
HETATM   14  C13 UNL     1      -5.053  -0.833   0.807  1.00  0.00     0.192 C 
BRANCH  14  15
HETATM   15  O1  UNL     1      -5.538  -0.850   2.137  1.00  0.00    -0.399 OA
ATOM     16  H1  UNL     1      -6.463  -1.066   2.156  1.00  0.00     0.209 HD
ENDBRANCH  14  15
ENDBRANCH  13  14
ENDBRANCH  10  13
ENDBRANCH   9  10
ENDBRANCH   8   9
ENDBRANCH   7   8
ENDBRANCH   1   7
BRANCH   1  17
HETATM   17  C14 UNL     1       2.535  -0.390   0.095  1.00  0.00     0.077 A 
HETATM   18  N2  UNL     1       3.673  -0.378  -0.576  1.00  0.00    -0.297 N 
HETATM   19  N3  UNL     1       4.257  -1.466  -0.866  1.00  0.00    -0.298 N 
ATOM     20  H2  UNL     1       4.084   0.511  -0.862  1.00  0.00     0.187 HD
HETATM   21  C15 UNL     1       3.719  -2.634  -0.490  1.00  0.00     0.064 A 
ATOM     22  H3  UNL     1       5.135  -1.452  -1.385  1.00  0.00     0.187 HD
HETATM   23  C16 UNL     1       4.283  -3.968  -0.747  1.00  0.00     0.078 C 
HETATM   24  S1  UNL     1       2.315  -2.088   0.310  1.00  0.00    -0.060 SA
ENDBRANCH   1  17
TORSDOF 10
