REMARK  10 active torsions:
REMARK  status: ('A' for Active; 'I' for Inactive)
REMARK    1  A    between atoms: C2_2  and  C3_3 
REMARK    2  A    between atoms: C3_3  and  O1_4 
REMARK    3  A    between atoms: C3_3  and  C4_6 
REMARK    4  A    between atoms: C4_6  and  C5_7 
REMARK    5  A    between atoms: C4_6  and  C7_9 
REMARK    6  A    between atoms: C4_6  and  O2_11 
REMARK    7  A    between atoms: O2_11  and  C9_12 
REMARK    8  A    between atoms: C9_12  and  C10_13 
REMARK    9  A    between atoms: N1_16  and  C13_17 
REMARK   10  A    between atoms: C13_17  and  C14_18 
ROOT
HETATM    1  C9  UNL     1      -0.716   0.829   0.979  1.00  0.00     0.174 C 
ENDROOT
BRANCH   1   2
HETATM    2  O2  UNL     1      -1.620  -0.079   0.925  1.00  0.00    -0.377 OA
BRANCH   2   3
HETATM    3  C4  UNL     1      -2.498  -0.466  -0.005  1.00  0.00     0.086 C 
BRANCH   3   4
HETATM    4  C3  UNL     1      -3.431   0.673  -0.395  1.00  0.00     0.152 C 
BRANCH   4   5
HETATM    5  C2  UNL     1      -4.056   1.461   0.667  1.00  0.00     0.030 C 
HETATM    6  C1  UNL     1      -5.177   0.812   1.442  1.00  0.00     0.007 C 
ENDBRANCH   4   5
BRANCH   4   7
HETATM    7  O1  UNL     1      -4.355   0.300  -1.345  1.00  0.00    -0.393 OA
ATOM      8  H1  UNL     1      -3.949  -0.212  -2.035  1.00  0.00     0.210 HD
ENDBRANCH   4   7
ENDBRANCH   3   4
BRANCH   3   9
HETATM    9  C5  UNL     1      -1.899  -0.914  -1.306  1.00  0.00     0.036 C 
HETATM   10  C6  UNL     1      -0.976  -2.067  -1.279  1.00  0.00     0.008 C 
ENDBRANCH   3   9
BRANCH   3  11
HETATM   11  C7  UNL     1      -3.225  -1.655   0.607  1.00  0.00     0.036 C 
HETATM   12  C8  UNL     1      -4.230  -2.337  -0.225  1.00  0.00     0.008 C 
ENDBRANCH   3  11
ENDBRANCH   2   3
ENDBRANCH   1   2
BRANCH   1  13
HETATM   13  C10 UNL     1       0.594   0.747   0.313  1.00  0.00     0.016 C 
HETATM   14  C11 UNL     1       1.513  -0.366   0.787  1.00  0.00     0.027 C 
HETATM   15  C12 UNL     1       2.592  -0.484  -0.272  1.00  0.00     0.122 C 
HETATM   16  N1  UNL     1       3.303   0.740  -0.471  1.00  0.00    -0.389 N 
HETATM   17  C16 UNL     1       2.551   1.929  -0.501  1.00  0.00     0.059 C 
HETATM   18  C17 UNL     1       1.437   2.018   0.510  1.00  0.00     0.051 C 
BRANCH  16  19
HETATM   19  C13 UNL     1       4.566   0.805   0.181  1.00  0.00     0.166 C 
BRANCH  19  20
HETATM   20  C14 UNL     1       5.579  -0.126  -0.392  1.00  0.00     0.074 C 
HETATM   21  N2  UNL     1       6.545  -0.534   0.335  1.00  0.00    -0.405 N 
HETATM   22  C15 UNL     1       7.536  -1.422  -0.164  1.00  0.00     0.145 C 
ATOM     23  H2  UNL     1       6.608  -0.214   1.301  1.00  0.00     0.158 HD
ENDBRANCH  19  20
ENDBRANCH  16  19
ENDBRANCH   1  13
TORSDOF 10
