REMARK  6 active torsions:
REMARK  status: ('A' for Active; 'I' for Inactive)
REMARK    1  A    between atoms: C2_2  and  N1_3 
REMARK    2  A    between atoms: N1_3  and  C3_5 
REMARK    3  A    between atoms: C3_5  and  N2_7 
REMARK    4  A    between atoms: N2_7  and  C4_9 
REMARK    5  A    between atoms: C5_12  and  C6_13 
REMARK    6  A    between atoms: C6_13  and  C7_14 
ROOT
HETATM    1  C4  UNL     1       1.843  -1.169  -0.417  1.00  0.00     0.150 A 
HETATM    2  N3  UNL     1       1.021  -0.750  -1.378  1.00  0.00    -0.339 N 
ATOM      3  H3  UNL     1       1.276   0.040  -1.970  1.00  0.00     0.168 HD
HETATM    4  C5  UNL     1      -0.111  -1.365  -1.548  1.00  0.00     0.025 A 
HETATM    5  C11 UNL     1      -0.399  -2.419  -0.721  1.00  0.00     0.078 A 
HETATM    6  S2  UNL     1       0.988  -2.476   0.272  1.00  0.00    -0.064 SA
ENDROOT
BRANCH   4   7
HETATM    7  C6  UNL     1      -1.123  -0.970  -2.616  1.00  0.00     0.134 C 
BRANCH   7   8
HETATM    8  C7  UNL     1      -2.087   0.016  -2.097  1.00  0.00     0.086 A 
HETATM    9  N4  UNL     1      -2.007   1.364  -2.110  1.00  0.00    -0.348 N 
HETATM   10  C8  UNL     1      -3.086   1.906  -1.541  1.00  0.00     0.022 A 
ATOM     11  H4  UNL     1      -1.229   1.895  -2.501  1.00  0.00     0.167 HD
HETATM   12  C9  UNL     1      -3.397   3.344  -1.350  1.00  0.00     0.069 C 
HETATM   13  C10 UNL     1      -3.881   0.850  -1.151  1.00  0.00     0.114 A 
HETATM   14  N5  UNL     1      -3.257  -0.286  -1.498  1.00  0.00    -0.354 N 
ATOM     15  H5  UNL     1      -3.611  -1.228  -1.335  1.00  0.00     0.166 HD
ENDBRANCH   7   8
ENDBRANCH   4   7
BRANCH   1  16
HETATM   16  N2  UNL     1       3.021  -0.690  -0.084  1.00  0.00    -0.314 N 
ATOM     17  H2  UNL     1       3.439   0.103  -0.570  1.00  0.00     0.170 HD
BRANCH  16  18
HETATM   18  C3  UNL     1       3.684  -1.353   1.007  1.00  0.00     0.173 C 
HETATM   19  S1  UNL     1       4.666  -2.621   0.717  1.00  0.00    -0.041 SA
BRANCH  18  20
HETATM   20  N1  UNL     1       3.498  -0.920   2.337  1.00  0.00    -0.367 N 
ATOM     21  H1  UNL     1       3.973  -1.397   3.104  1.00  0.00     0.161 HD
BRANCH  20  22
HETATM   22  C2  UNL     1       2.635   0.197   2.603  1.00  0.00     0.117 C 
HETATM   23  C1  UNL     1       2.598   0.473   4.112  1.00  0.00     0.026 C 
ENDBRANCH  20  22
ENDBRANCH  18  20
ENDBRANCH  16  18
ENDBRANCH   1  16
TORSDOF 6
