REMARK  4 active torsions:
REMARK  status: ('A' for Active; 'I' for Inactive)
REMARK    1  A    between atoms: C2_2  and  N1_3 
REMARK    2  A    between atoms: N2_6  and  C5_7 
REMARK    3  A    between atoms: C5_7  and  C6_8 
REMARK    4  A    between atoms: C8_12  and  N4_13 
ROOT
HETATM    1  C6  UNL     1      -1.242  -0.830  -0.216  1.00  0.00    -0.002 A 
HETATM    2  C7  UNL     1      -1.221  -2.204  -0.057  1.00  0.00     0.099 A 
HETATM    3  N3  UNL     1      -2.265  -2.941   0.360  1.00  0.00    -0.350 N 
ATOM      4  H3  UNL     1      -2.182  -3.953   0.457  1.00  0.00     0.166 HD
HETATM    5  C8  UNL     1      -3.408  -2.325   0.644  1.00  0.00     0.126 A 
HETATM    6  C9  UNL     1      -3.541  -0.961   0.520  1.00  0.00     0.088 A 
HETATM    7  N5  UNL     1      -4.579  -0.125   0.742  1.00  0.00    -0.356 N 
ATOM      8  H5  UNL     1      -5.502  -0.414   1.065  1.00  0.00     0.166 HD
HETATM    9  C10 UNL     1      -4.222   1.135   0.477  1.00  0.00     0.012 A 
HETATM   10  C11 UNL     1      -5.001   2.391   0.569  1.00  0.00     0.068 C 
HETATM   11  C12 UNL     1      -2.883   1.079   0.065  1.00  0.00    -0.026 A 
HETATM   12  C13 UNL     1      -2.072   2.233  -0.329  1.00  0.00     0.051 C 
HETATM   13  C14 UNL     1      -2.443  -0.221   0.086  1.00  0.00     0.012 A 
ENDROOT
BRANCH   1  14
HETATM   14  C5  UNL     1      -0.102  -0.082  -0.711  1.00  0.00     0.313 C 
BRANCH  14  15
HETATM   15  N2  UNL     1       1.126  -0.870  -0.894  1.00  0.00     0.096 N 
HETATM   16  C4  UNL     1       2.053  -0.072  -1.707  1.00  0.00     0.303 C 
HETATM   17  C3  UNL     1       3.085   0.603  -0.872  1.00  0.00     0.302 C 
HETATM   18  N1  UNL     1       3.969  -0.388  -0.270  1.00  0.00     0.091 N 
HETATM   19  C16 UNL     1       3.190  -1.571   0.099  1.00  0.00     0.302 C 
HETATM   20  C15 UNL     1       1.745  -1.160   0.382  1.00  0.00     0.303 C 
BRANCH  18  21
HETATM   21  C2  UNL     1       4.652   0.167   0.869  1.00  0.00     0.268 C 
HETATM   22  C1  UNL     1       5.647   1.234   0.479  1.00  0.00     0.037 C 
ENDBRANCH  18  21
ENDBRANCH  14  15
ENDBRANCH   1  14
BRANCH   5  23
HETATM   23  N4  UNL     1      -4.440  -3.016   1.052  1.00  0.00    -0.384 N 
ATOM     24  H42 UNL     1      -4.341  -4.027   1.144  1.00  0.00     0.157 HD
ATOM     25  H41 UNL     1      -5.317  -2.543   1.270  1.00  0.00     0.157 HD
ENDBRANCH   5  23
TORSDOF 4
