REMARK  5 active torsions:
REMARK  status: ('A' for Active; 'I' for Inactive)
REMARK    1  A    between atoms: C3_5  and  N2_6 
REMARK       I    between atoms: N2_6  and  C4_8 
REMARK       I    between atoms: C4_8  and  N4_12 
REMARK    2  A    between atoms: N4_12  and  C5_14 
REMARK    3  A    between atoms: C5_14  and  C6_15 
REMARK    4  A    between atoms: C6_15  and  N5_16 
REMARK    5  A    between atoms: C9_20  and  C10_21 
ROOT
HETATM    1  N2  UNL     1       0.884   0.584   1.228  1.00  0.00    -0.171 N 
ATOM      2  H2  UNL     1       1.385   0.236   2.045  1.00  0.00     0.186 HD
HETATM    3  C4  UNL     1       1.501   1.429   0.261  1.00  0.00     0.673 C 
HETATM    4  N3  UNL     1       1.400   2.722   0.341  1.00  0.00    -0.235 N 
ATOM      5  H31 UNL     1       1.842   3.327  -0.351  1.00  0.00     0.174 HD
ATOM      6  H32 UNL     1       0.862   3.099   1.121  1.00  0.00     0.174 HD
HETATM    7  N4  UNL     1       2.249   0.904  -0.825  1.00  0.00    -0.225 N 
ATOM      8  H4  UNL     1       2.382   1.440  -1.683  1.00  0.00     0.177 HD
ENDROOT
BRANCH   1   9
HETATM    9  C3  UNL     1      -0.379   0.282   0.996  1.00  0.00     0.164 A 
HETATM   10  N1  UNL     1      -1.176  -0.486   1.745  1.00  0.00    -0.339 N 
HETATM   11  C2  UNL     1      -2.415  -0.668   1.341  1.00  0.00     0.021 A 
ATOM     12  H1  UNL     1      -0.834  -0.918   2.604  1.00  0.00     0.168 HD
HETATM   13  C1  UNL     1      -3.385  -1.529   2.136  1.00  0.00     0.069 C 
HETATM   14  C9  UNL     1      -2.802  -0.060   0.185  1.00  0.00     0.016 A 
HETATM   15  S1  UNL     1      -1.388   0.755  -0.294  1.00  0.00    -0.055 SA
BRANCH  14  16
HETATM   16  C10 UNL     1      -4.144  -0.096  -0.501  1.00  0.00    -0.016 C 
HETATM   17  C11 UNL     1      -5.226   0.450   0.386  1.00  0.00     0.020 C 
HETATM   18  C12 UNL     1      -4.455  -1.451  -1.056  1.00  0.00     0.020 C 
HETATM   19  C13 UNL     1      -4.022   0.850  -1.690  1.00  0.00     0.020 C 
ENDBRANCH  14  16
ENDBRANCH   1   9
BRANCH   7  20
HETATM   20  C5  UNL     1       2.820  -0.426  -0.671  1.00  0.00     0.168 C 
BRANCH  20  21
HETATM   21  C6  UNL     1       3.922  -0.411   0.375  1.00  0.00     0.291 C 
BRANCH  21  22
HETATM   22  N5  UNL     1       4.988   0.501  -0.003  1.00  0.00     0.081 N 
HETATM   23  C7  UNL     1       5.991   0.462   1.036  1.00  0.00     0.309 C 
HETATM   24  C8  UNL     1       5.616   0.055  -1.242  1.00  0.00     0.309 C 
ENDBRANCH  21  22
ENDBRANCH  20  21
ENDBRANCH   7  20
TORSDOF 5
