REMARK  5 active torsions:
REMARK  status: ('A' for Active; 'I' for Inactive)
REMARK    1  A    between atoms: C2_2  and  C3_3 
REMARK    2  A    between atoms: C5_6  and  C6_7 
REMARK    3  A    between atoms: C8_12  and  N2_13 
REMARK    4  A    between atoms: C8_12  and  C12_20 
REMARK       I    between atoms: N2_13  and  C9_15 
REMARK    5  A    between atoms: C9_15  and  C10_17 
ROOT
HETATM    1  C6  UNL     1      -0.907  -0.730  -0.638  1.00  0.00     0.155 C 
HETATM    2  N1  UNL     1      -0.975  -0.268  -2.016  1.00  0.00    -0.347 N 
ATOM      3  H1  UNL     1      -1.687  -0.262  -2.747  1.00  0.00     0.163 HD
HETATM    4  C7  UNL     1       0.373   0.172  -1.910  1.00  0.00     0.258 C 
HETATM    5  O1  UNL     1       0.990   1.096  -2.536  1.00  0.00    -0.270 OA
HETATM    6  C8  UNL     1       0.616  -0.822  -0.888  1.00  0.00     0.236 C 
ENDROOT
BRANCH   6   7
HETATM    7  N2  UNL     1       1.371  -0.436   0.259  1.00  0.00    -0.333 N 
HETATM    8  C9  UNL     1       2.773  -0.303   0.231  1.00  0.00     0.233 C 
HETATM    9  O2  UNL     1       3.517  -0.486  -0.759  1.00  0.00    -0.272 OA
ATOM     10  H2  UNL     1       0.877  -0.249   1.132  1.00  0.00     0.164 HD
BRANCH   8  11
HETATM   11  C10 UNL     1       3.506   0.099   1.499  1.00  0.00     0.146 C 
HETATM   12  C11 UNL     1       4.993   0.186   1.264  1.00  0.00     0.032 C 
HETATM   13 BR1  UNL     1       2.884   1.891   1.955  1.00  0.00    -0.082 Br
ENDBRANCH   8  11
ENDBRANCH   6   7
BRANCH   6  14
HETATM   14  C12 UNL     1       0.853  -2.259  -1.365  1.00  0.00     0.424 C 
HETATM   15  F1  UNL     1       0.431  -3.086  -0.325  1.00  0.00    -0.168 F 
HETATM   16  F2  UNL     1       2.067  -2.531  -1.855  1.00  0.00    -0.168 F 
HETATM   17  F3  UNL     1      -0.061  -2.517  -2.395  1.00  0.00    -0.168 F 
ENDBRANCH   6  14
BRANCH   1  18
HETATM   18  C5  UNL     1      -1.313   0.365   0.247  1.00  0.00     0.008 C 
HETATM   19  C2  UNL     1      -2.624   0.605   0.394  1.00  0.00    -0.063 C 
HETATM   20  C1  UNL     1      -2.994   1.720   1.298  1.00  0.00     0.048 C 
BRANCH  19  21
HETATM   21  C3  UNL     1      -3.586  -0.204  -0.312  1.00  0.00     0.018 C 
HETATM   22  C4  UNL     1      -4.880  -0.118  -0.290  1.00  0.00     0.085 C 
HETATM   23 CL1  UNL     1      -5.714   1.070   0.661  1.00  0.00    -0.097 Cl
ENDBRANCH  19  21
ENDBRANCH   1  18
TORSDOF 5
