REMARK  7 active torsions:
REMARK  status: ('A' for Active; 'I' for Inactive)
REMARK    1  A    between atoms: C2_2  and  N1_3 
REMARK    2  A    between atoms: C2_2  and  C12_24 
REMARK       I    between atoms: N1_3  and  C3_5 
REMARK       I    between atoms: C3_5  and  N2_7 
REMARK    3  A    between atoms: C4_9  and  N3_10 
REMARK    4  A    between atoms: C4_9  and  C11_20 
REMARK    5  A    between atoms: N3_10  and  C5_12 
REMARK    6  A    between atoms: C5_12  and  C6_13 
REMARK    7  A    between atoms: C6_13  and  O2_14 
ROOT
HETATM    1  N1  UNL     1       3.186  -0.573   0.198  1.00  0.00    -0.336 N 
ATOM      2  H1  UNL     1       2.980  -0.922  -0.738  1.00  0.00     0.164 HD
HETATM    3  C3  UNL     1       2.082  -0.091   0.988  1.00  0.00     0.322 C 
HETATM    4  O1  UNL     1       2.426   0.333   2.147  1.00  0.00    -0.247 OA
HETATM    5  N2  UNL     1       0.773  -0.086   0.545  1.00  0.00    -0.291 N 
ATOM      6  H2  UNL     1       0.322  -0.999   0.601  1.00  0.00     0.172 HD
HETATM    7  C4  UNL     1       0.021   0.820   0.084  1.00  0.00     0.190 C 
ENDROOT
BRANCH   7   8
HETATM    8  N3  UNL     1      -1.333   0.458  -0.290  1.00  0.00    -0.369 N 
ATOM      9  H3  UNL     1      -1.460  -0.285  -0.978  1.00  0.00     0.161 HD
BRANCH   8  10
HETATM   10  C5  UNL     1      -2.503   1.086   0.253  1.00  0.00     0.159 C 
BRANCH  10  11
HETATM   11  C6  UNL     1      -3.763   0.491  -0.329  1.00  0.00     0.074 C 
HETATM   12  C7  UNL     1      -5.007   1.052   0.317  1.00  0.00     0.039 C 
HETATM   13  C8  UNL     1      -6.061   0.057  -0.135  1.00  0.00     0.003 C 
HETATM   14  C9  UNL     1      -5.334  -1.255  -0.359  1.00  0.00     0.003 C 
HETATM   15  C10 UNL     1      -3.884  -0.984   0.005  1.00  0.00     0.039 C 
BRANCH  11  16
HETATM   16  O2  UNL     1      -3.843   0.624  -1.690  1.00  0.00    -0.388 OA
ATOM     17  H2  UNL     1      -4.636   0.250  -2.056  1.00  0.00     0.210 HD
ENDBRANCH  11  16
ENDBRANCH  10  11
ENDBRANCH   8  10
ENDBRANCH   7   8
BRANCH   7  18
HETATM   18  C11 UNL     1       0.486   2.204  -0.076  1.00  0.00     0.449 C 
HETATM   19  F1  UNL     1      -0.276   3.053   0.712  1.00  0.00    -0.163 F 
HETATM   20  F2  UNL     1       0.332   2.662  -1.376  1.00  0.00    -0.163 F 
HETATM   21  F3  UNL     1       1.811   2.336   0.219  1.00  0.00    -0.163 F 
ENDBRANCH   7  18
BRANCH   1  22
HETATM   22  C2  UNL     1       4.545  -0.598   0.628  1.00  0.00     0.120 C 
HETATM   23  C1  UNL     1       4.947  -2.056   0.856  1.00  0.00     0.035 C 
BRANCH  22  24
HETATM   24  C12 UNL     1       5.516  -0.072  -0.397  1.00  0.00     0.129 C 
HETATM   25  C13 UNL     1       5.441  -0.848  -1.699  1.00  0.00     0.052 C 
HETATM   26 CL1  UNL     1       5.262   1.625  -0.757  1.00  0.00    -0.100 Cl
HETATM   27 CL2  UNL     1       7.178  -0.345   0.221  1.00  0.00    -0.100 Cl
ENDBRANCH  22  24
ENDBRANCH   1  22
TORSDOF 7
