REMARK  4 active torsions:
REMARK  status: ('A' for Active; 'I' for Inactive)
REMARK    1  A    between atoms: C1_2  and  N2_4 
REMARK    2  A    between atoms: N2_4  and  N3_6 
REMARK    3  A    between atoms: C2_8  and  C3_9 
REMARK    4  A    between atoms: C2_8  and  C8_19 
ROOT
HETATM    1  N3  UNL     1       1.150   0.019   0.881  1.00  0.00    -0.298 N 
ATOM      2  H3  UNL     1       0.836   0.982   0.999  1.00  0.00     0.187 HD
HETATM    3  C2  UNL     1       0.267  -0.705   0.368  1.00  0.00     0.095 C 
ENDROOT
BRANCH   3   4
HETATM    4  C3  UNL     1      -1.007  -0.040   0.047  1.00  0.00     0.062 A 
HETATM    5  C4  UNL     1      -2.048  -0.723  -0.509  1.00  0.00     0.046 A 
HETATM    6  C5  UNL     1      -3.234  -0.036  -0.789  1.00  0.00     0.073 A 
HETATM    7 CL1  UNL     1      -4.532  -0.973  -1.502  1.00  0.00    -0.081 Cl
HETATM    8  C6  UNL     1      -3.379   1.314  -0.518  1.00  0.00     0.128 A 
HETATM    9 CL2  UNL     1      -4.901   2.088  -0.903  1.00  0.00    -0.062 Cl
HETATM   10  N4  UNL     1      -2.337   1.960   0.029  1.00  0.00    -0.312 N 
HETATM   11  C7  UNL     1      -1.184   1.324   0.309  1.00  0.00     0.259 A 
ATOM     12  H4  UNL     1      -2.421   2.955   0.237  1.00  0.00     0.170 HD
HETATM   13  O1  UNL     1      -0.216   1.941   0.822  1.00  0.00    -0.267 OA
ENDBRANCH   3   4
BRANCH   3  14
HETATM   14  C8  UNL     1       0.471  -2.124   0.093  1.00  0.00     0.233 C 
HETATM   15 CL3  UNL     1       0.346  -2.516  -1.663  1.00  0.00    -0.077 Cl
HETATM   16 CL4  UNL     1      -0.651  -3.168   1.045  1.00  0.00    -0.077 Cl
HETATM   17 CL5  UNL     1       2.097  -2.665   0.579  1.00  0.00    -0.077 Cl
ENDBRANCH   3  14
BRANCH   1  18
HETATM   18  N2  UNL     1       2.415  -0.161   1.317  1.00  0.00    -0.278 N 
ATOM     19  H2  UNL     1       2.578  -0.640   2.203  1.00  0.00     0.189 HD
BRANCH  18  20
HETATM   20  C1  UNL     1       3.524   0.308   0.559  1.00  0.00     0.199 C 
HETATM   21  N1  UNL     1       3.371   0.985  -0.684  1.00  0.00    -0.068 NA
HETATM   22  S1  UNL     1       5.074   0.096   1.078  1.00  0.00    -0.043 SA
ENDBRANCH  18  20
ENDBRANCH   1  18
TORSDOF 4
