REMARK  3 active torsions:
REMARK  status: ('A' for Active; 'I' for Inactive)
REMARK    1  A    between atoms: C2_7  and  C3_8 
REMARK    2  A    between atoms: C2_7  and  C13_25 
REMARK    3  A    between atoms: N4_15  and  C8_17 
ROOT
HETATM    1  C3  UNL     1      -1.039   0.996   0.363  1.00  0.00     0.020 A 
HETATM    2  C4  UNL     1      -1.673   2.014   1.030  1.00  0.00     0.015 A 
HETATM    3  C5  UNL     1      -0.992   2.782   1.974  1.00  0.00     0.018 A 
HETATM    4  C6  UNL     1       0.328   2.538   2.258  1.00  0.00     0.089 A 
HETATM    5  N3  UNL     1       0.953   1.547   1.612  1.00  0.00    -0.352 N 
ATOM      6  H3  UNL     1       1.934   1.354   1.813  1.00  0.00     0.166 HD
HETATM    7  C7  UNL     1       0.307   0.808   0.708  1.00  0.00     0.110 A 
HETATM    8  N4  UNL     1       0.974  -0.148   0.133  1.00  0.00    -0.368 N 
ATOM      9  H4  UNL     1       0.478  -0.721  -0.549  1.00  0.00     0.161 HD
ENDROOT
BRANCH   1  10
HETATM   10  C2  UNL     1      -1.669   0.193  -0.694  1.00  0.00     0.129 C 
HETATM   11  N2  UNL     1      -1.556  -1.248  -0.414  1.00  0.00    -0.337 N 
HETATM   12  C1  UNL     1      -2.612  -2.063   0.065  1.00  0.00     0.214 C 
ATOM     13  H2  UNL     1      -0.652  -1.692  -0.577  1.00  0.00     0.164 HD
HETATM   14  N1  UNL     1      -2.386  -3.311   0.412  1.00  0.00    -0.365 N 
HETATM   15  O1  UNL     1      -3.895  -1.498   0.155  1.00  0.00    -0.317 OA
ATOM     16  H12 UNL     1      -1.454  -3.721   0.347  1.00  0.00     0.159 HD
ATOM     17  H11 UNL     1      -3.146  -3.898   0.757  1.00  0.00     0.159 HD
HETATM   18  C16 UNL     1      -3.818  -0.105   0.280  1.00  0.00     0.139 A 
HETATM   19  C14 UNL     1      -3.088   0.340  -1.004  1.00  0.00     0.056 A 
HETATM   20  C15 UNL     1      -4.304   0.902  -0.605  1.00  0.00     0.043 A 
BRANCH  10  21
HETATM   21  C13 UNL     1      -0.923   0.518  -2.015  1.00  0.00     0.386 C 
HETATM   22  F4  UNL     1      -1.067   1.877  -2.197  1.00  0.00    -0.211 F 
HETATM   23  F5  UNL     1      -1.681  -0.095  -3.028  1.00  0.00    -0.211 F 
ENDBRANCH  10  21
ENDBRANCH   1  10
BRANCH   8  24
HETATM   24  C8  UNL     1       2.338  -0.459   0.378  1.00  0.00     0.123 C 
HETATM   25  C9  UNL     1       3.313   0.371  -0.431  1.00  0.00     0.034 C 
HETATM   26  C10 UNL     1       4.586  -0.461  -0.291  1.00  0.00     0.084 C 
HETATM   27  C11 UNL     1       4.120  -1.879  -0.298  1.00  0.00     0.276 C 
HETATM   28  F1  UNL     1       4.593  -2.596   0.784  1.00  0.00    -0.203 F 
HETATM   29  F2  UNL     1       4.538  -2.447  -1.502  1.00  0.00    -0.203 F 
HETATM   30  C12 UNL     1       2.591  -1.842  -0.242  1.00  0.00     0.264 C 
HETATM   31  F3  UNL     1       2.154  -1.873  -1.554  1.00  0.00    -0.241 F 
ENDBRANCH   8  24
TORSDOF 3
