REMARK  5 active torsions:
REMARK  status: ('A' for Active; 'I' for Inactive)
REMARK    1  A    between atoms: C2_7  and  N3_8 
REMARK       I    between atoms: N3_8  and  C3_10 
REMARK    2  A    between atoms: C3_10  and  C4_12 
REMARK    3  A    between atoms: C4_12  and  N4_13 
REMARK    4  A    between atoms: C4_12  and  N5_17 
REMARK    5  A    between atoms: C5_18  and  N6_19 
ROOT
HETATM    1  N3  UNL     1       0.946  -0.338  -0.276  1.00  0.00    -0.328 N 
ATOM      2  H3  UNL     1       0.980  -0.735  -1.215  1.00  0.00     0.165 HD
HETATM    3  C3  UNL     1      -0.207  -0.455   0.505  1.00  0.00     0.271 C 
HETATM    4  O1  UNL     1      -0.269   0.024   1.657  1.00  0.00    -0.269 OA
ENDROOT
BRANCH   3   5
HETATM    5  C4  UNL     1      -1.448  -1.160   0.023  1.00  0.00     0.401 C 
BRANCH   5   6
HETATM    6  N4  UNL     1      -1.298  -1.673  -1.287  1.00  0.00    -0.048 N 
ATOM      7  H43 UNL     1      -1.013  -0.942  -1.939  1.00  0.00     0.277 HD
ATOM      8  H42 UNL     1      -0.480  -2.279  -1.354  1.00  0.00     0.277 HD
ATOM      9  H41 UNL     1      -2.138  -2.150  -1.613  1.00  0.00     0.277 HD
ENDBRANCH   5   6
BRANCH   5  10
HETATM   10  N5  UNL     1      -2.544  -0.213   0.077  1.00  0.00    -0.091 N 
HETATM   11  C5  UNL     1      -3.493  -0.079   1.021  1.00  0.00     0.699 A 
HETATM   12  N7  UNL     1      -4.345   0.937   0.697  1.00  0.00    -0.128 N 
HETATM   13  N8  UNL     1      -3.923   1.428  -0.445  1.00  0.00    -0.236 N 
ATOM     14  H7  UNL     1      -5.151   1.253   1.236  1.00  0.00     0.205 HD
HETATM   15  C6  UNL     1      -2.839   0.752  -0.838  1.00  0.00     0.358 A 
ATOM     16  H8  UNL     1      -4.354   2.202  -0.951  1.00  0.00     0.192 HD
HETATM   17  O2  UNL     1      -2.150   0.924  -1.876  1.00  0.00    -0.244 OA
BRANCH  11  18
HETATM   18  N6  UNL     1      -3.613  -0.789   2.093  1.00  0.00    -0.233 N 
ATOM     19  H62 UNL     1      -2.976  -1.548   2.335  1.00  0.00     0.174 HD
ATOM     20  H61 UNL     1      -4.333  -0.687   2.809  1.00  0.00     0.174 HD
ENDBRANCH  11  18
ENDBRANCH   5  10
ENDBRANCH   3   5
BRANCH   1  21
HETATM   21  C2  UNL     1       2.094   0.358   0.274  1.00  0.00     0.304 C 
HETATM   22  N2  UNL     1       3.182  -0.588   0.354  1.00  0.00    -0.194 N 
HETATM   23  C1  UNL     1       4.537  -0.210   0.199  1.00  0.00     0.694 C 
ATOM     24  H2  UNL     1       2.965  -1.569   0.529  1.00  0.00     0.180 HD
HETATM   25  N1  UNL     1       5.528  -0.966   0.526  1.00  0.00    -0.233 N 
HETATM   26  N9  UNL     1       4.817   1.073  -0.347  1.00  0.00    -0.088 N 
ATOM     27  H12 UNL     1       5.327  -1.886   0.918  1.00  0.00     0.174 HD
ATOM     28  H11 UNL     1       6.505  -0.694   0.414  1.00  0.00     0.174 HD
HETATM   29  O4  UNL     1       3.771   1.875  -0.694  1.00  0.00    -0.181 OA
ATOM     30  H9  UNL     1       5.779   1.386  -0.476  1.00  0.00     0.213 HD
HETATM   31  C7  UNL     1       2.452   1.543  -0.558  1.00  0.00     0.324 C 
HETATM   32  O3  UNL     1       1.546   2.210  -1.116  1.00  0.00    -0.259 OA
ENDBRANCH   1  21
TORSDOF 5
