REMARK  6 active torsions:
REMARK  status: ('A' for Active; 'I' for Inactive)
REMARK    1  A    between atoms: C2_2  and  O1_3 
REMARK    2  A    between atoms: C2_2  and  N1_5 
REMARK    3  A    between atoms: N1_5  and  C3_7 
REMARK    4  A    between atoms: N4_13  and  C5_15 
REMARK    5  A    between atoms: C7_22  and  C8_23 
REMARK       I    between atoms: C8_23  and  N8_25 
REMARK    6  A    between atoms: N8_25  and  N9_27 
ROOT
HETATM    1  C3  UNL     1       1.267  -0.416   0.052  1.00  0.00     0.137 A 
HETATM    2  N2  UNL     1       0.402  -1.465   0.105  1.00  0.00    -0.283 N 
ATOM      3  H2  UNL     1       0.690  -2.441   0.174  1.00  0.00     0.188 HD
HETATM    4  N3  UNL     1      -0.827  -1.075   0.058  1.00  0.00    -0.283 N 
ATOM      5  H3  UNL     1      -1.643  -1.686   0.083  1.00  0.00     0.188 HD
HETATM    6  C4  UNL     1      -0.860   0.269  -0.030  1.00  0.00     0.142 A 
HETATM    7  N4  UNL     1      -1.945   0.991  -0.097  1.00  0.00    -0.311 N 
ATOM      8  H4  UNL     1      -1.883   2.007  -0.163  1.00  0.00     0.170 HD
HETATM    9  C7  UNL     1       0.467   0.703  -0.035  1.00  0.00     0.124 A 
ENDROOT
BRANCH   7  10
HETATM   10  C5  UNL     1      -3.207   0.354  -0.077  1.00  0.00     0.194 C 
HETATM   11  N5  UNL     1      -3.858  -0.103  -1.093  1.00  0.00    -0.346 N 
HETATM   12  C6  UNL     1      -5.115  -0.690  -0.703  1.00  0.00     0.259 C 
ATOM     13  H5  UNL     1      -3.524  -0.055  -2.055  1.00  0.00     0.163 HD
HETATM   14  N6  UNL     1      -4.954  -0.903   0.720  1.00  0.00    -0.119 NA
HETATM   15  N7  UNL     1      -4.021   0.080   1.055  1.00  0.00    -0.274 N 
ATOM     16  H7  UNL     1      -3.937   0.530   1.967  1.00  0.00     0.185 HD
ENDBRANCH   7  10
BRANCH   9  17
HETATM   17  C8  UNL     1       0.919   2.092  -0.119  1.00  0.00     0.277 C 
HETATM   18  O2  UNL     1       2.177   2.323  -0.112  1.00  0.00    -0.266 OA
HETATM   19  N8  UNL     1       0.069   3.202  -0.206  1.00  0.00    -0.272 N 
ATOM     20  H8  UNL     1      -0.943   3.078  -0.215  1.00  0.00     0.189 HD
BRANCH  19  21
HETATM   21  N9  UNL     1       0.640   4.512  -0.282  1.00  0.00    -0.342 N 
ATOM     22  H92 UNL     1       1.654   4.619  -0.272  1.00  0.00     0.176 HD
ATOM     23  H91 UNL     1       0.021   5.320  -0.345  1.00  0.00     0.176 HD
ENDBRANCH  19  21
ENDBRANCH   9  17
BRANCH   1  24
HETATM   24  N1  UNL     1       2.667  -0.523   0.083  1.00  0.00    -0.348 N 
ATOM     25  H1  UNL     1       3.225   0.330   0.036  1.00  0.00     0.163 HD
BRANCH  24  26
HETATM   26  C2  UNL     1       3.353  -1.801   0.179  1.00  0.00     0.215 C 
HETATM   27  C1  UNL     1       4.851  -1.624   0.194  1.00  0.00     0.063 C 
BRANCH  26  28
HETATM   28  O1  UNL     1       2.976  -2.703  -0.774  1.00  0.00    -0.377 OA
ATOM     29  H1  UNL     1       2.033  -2.814  -0.783  1.00  0.00     0.212 HD
ENDBRANCH  26  28
ENDBRANCH  24  26
ENDBRANCH   1  24
TORSDOF 6
