REMARK  7 active torsions:
REMARK  status: ('A' for Active; 'I' for Inactive)
REMARK    1  A    between atoms: N1_1  and  C1_4 
REMARK    2  A    between atoms: C2_7  and  C3_8 
REMARK       I    between atoms: C3_8  and  N3_10 
REMARK    3  A    between atoms: N3_10  and  C4_12 
REMARK    4  A    between atoms: C6_21  and  C7_22 
REMARK    5  A    between atoms: C7_22  and  O2_23 
REMARK    6  A    between atoms: C7_22  and  N8_25 
REMARK    7  A    between atoms: N8_25  and  O3_26 
ROOT
HETATM    1  C1  UNL     1      -0.612  -2.058  -0.570  1.00  0.00     0.676 A 
HETATM    2  N2  UNL     1       0.475  -1.291  -0.705  1.00  0.00    -0.186 N 
ATOM      3  H2  UNL     1       1.390  -1.728  -0.813  1.00  0.00     0.184 HD
HETATM    4  C2  UNL     1       0.375   0.035  -0.700  1.00  0.00     0.119 A 
HETATM    5  C5  UNL     1      -0.891   0.608  -0.552  1.00  0.00     0.065 A 
HETATM    6  C6  UNL     1      -2.014  -0.170  -0.413  1.00  0.00     0.075 A 
HETATM    7  N9  UNL     1      -1.857  -1.501  -0.425  1.00  0.00    -0.192 N 
ATOM      8  H9  UNL     1      -2.672  -2.106  -0.325  1.00  0.00     0.184 HD
ENDROOT
BRANCH   4   9
HETATM    9  C3  UNL     1       1.535   0.911  -0.843  1.00  0.00     0.287 C 
HETATM   10  O1  UNL     1       1.389   2.160  -0.833  1.00  0.00    -0.265 OA
HETATM   11  N3  UNL     1       2.828   0.326  -0.995  1.00  0.00    -0.152 N 
ATOM     12  H3  UNL     1       2.985  -0.373  -1.721  1.00  0.00     0.188 HD
BRANCH  11  13
HETATM   13  C4  UNL     1       3.814   0.679  -0.210  1.00  0.00     0.713 A 
HETATM   14  N4  UNL     1       3.798   1.575   0.795  1.00  0.00    -0.113 N 
HETATM   15  N5  UNL     1       5.021   1.609   1.313  1.00  0.00     0.009 NA
ATOM     16  H4  UNL     1       2.996   2.125   1.102  1.00  0.00     0.203 HD
HETATM   17  N6  UNL     1       5.810   0.763   0.670  1.00  0.00    -0.212 N 
HETATM   18  N7  UNL     1       5.067   0.199  -0.259  1.00  0.00    -0.118 N 
ATOM     19  H6  UNL     1       6.797   0.584   0.857  1.00  0.00     0.206 HD
ATOM     20  H7  UNL     1       5.396  -0.503  -0.922  1.00  0.00     0.207 HD
ENDBRANCH  11  13
ENDBRANCH   4   9
BRANCH   1  21
HETATM   21  N1  UNL     1      -0.476  -3.339  -0.580  1.00  0.00    -0.234 N 
ATOM     22  H12 UNL     1       0.450  -3.753  -0.688  1.00  0.00     0.174 HD
ATOM     23  H11 UNL     1      -1.305  -3.924  -0.477  1.00  0.00     0.174 HD
ENDBRANCH   1  21
BRANCH   6  24
HETATM   24  C7  UNL     1      -3.324   0.415  -0.260  1.00  0.00     0.289 C 
BRANCH  24  25
HETATM   25  O2  UNL     1      -3.423   1.465   0.623  1.00  0.00    -0.372 OA
ATOM     26  H2  UNL     1      -4.286   1.850   0.724  1.00  0.00     0.212 HD
ENDBRANCH  24  25
BRANCH  24  27
HETATM   27  N8  UNL     1      -4.302  -0.589   0.152  1.00  0.00    -0.065 NA
BRANCH  27  28
HETATM   28  O3  UNL     1      -5.524  -0.040   0.294  1.00  0.00    -0.293 OA
ATOM     29  H3  UNL     1      -6.160  -0.693   0.562  1.00  0.00     0.238 HD
ENDBRANCH  27  28
ENDBRANCH  24  27
ENDBRANCH   6  24
TORSDOF 7
