REMARK  6 active torsions:
REMARK  status: ('A' for Active; 'I' for Inactive)
REMARK    1  A    between atoms: N1_1  and  C1_4 
REMARK    2  A    between atoms: C3_9  and  C4_10 
REMARK       I    between atoms: C4_10  and  N4_12 
REMARK       I    between atoms: N4_12  and  C5_14 
REMARK    3  A    between atoms: C5_14  and  C6_16 
REMARK    4  A    between atoms: C6_16  and  O3_17 
REMARK    5  A    between atoms: C6_16  and  O4_19 
REMARK    6  A    between atoms: C7_23  and  C8_24 
ROOT
HETATM    1  C1  UNL     1      -1.603   1.126  -2.244  1.00  0.00     0.132 A 
HETATM    2  N2  UNL     1      -2.103  -0.120  -2.164  1.00  0.00    -0.327 N 
ATOM      3  H2  UNL     1      -2.838  -0.428  -2.801  1.00  0.00     0.168 HD
HETATM    4  C2  UNL     1      -1.608  -0.964  -1.214  1.00  0.00     0.150 A 
HETATM    5  N3  UNL     1      -2.148  -2.283  -1.141  1.00  0.00    -0.080 NA
HETATM    6  C3  UNL     1      -0.624  -0.524  -0.373  1.00  0.00     0.143 A 
HETATM    7  N5  UNL     1      -0.157   0.719  -0.487  1.00  0.00    -0.342 N 
ATOM      8  H5  UNL     1       0.578   1.025   0.151  1.00  0.00     0.166 HD
HETATM    9  C7  UNL     1      -0.611   1.580  -1.401  1.00  0.00     0.142 A 
ENDROOT
BRANCH   6  10
HETATM   10  C4  UNL     1      -0.093  -1.403   0.633  1.00  0.00     0.278 C 
HETATM   11  O1  UNL     1      -0.531  -2.576   0.744  1.00  0.00    -0.265 OA
HETATM   12  N4  UNL     1       0.937  -0.918   1.501  1.00  0.00    -0.288 N 
HETATM   13  C5  UNL     1       1.446  -1.793   2.482  1.00  0.00     0.279 C 
ATOM     14  H4  UNL     1       1.293   0.034   1.412  1.00  0.00     0.172 HD
HETATM   15  O2  UNL     1       0.993  -2.950   2.568  1.00  0.00    -0.268 OA
BRANCH  13  16
HETATM   16  C6  UNL     1       2.509  -1.326   3.393  1.00  0.00     0.349 C 
BRANCH  16  17
HETATM   17  O3  UNL     1       2.824  -0.015   3.083  1.00  0.00    -0.363 OA
ATOM     18  H3  UNL     1       3.508   0.286   3.669  1.00  0.00     0.213 HD
ENDBRANCH  16  17
BRANCH  16  19
HETATM   19  O4  UNL     1       3.629  -2.131   3.200  1.00  0.00    -0.363 OA
ATOM     20  H4  UNL     1       4.313  -1.830   3.786  1.00  0.00     0.213 HD
ENDBRANCH  16  19
ENDBRANCH  13  16
ENDBRANCH   6  10
BRANCH   9  21
HETATM   21  C8  UNL     1      -0.062   2.926  -1.478  1.00  0.00     0.285 C 
HETATM   22  N6  UNL     1      -0.546   3.852  -2.458  1.00  0.00    -0.056 NA
HETATM   23  O5  UNL     1       0.841   3.262  -0.672  1.00  0.00    -0.269 OA
ENDBRANCH   9  21
BRANCH   1  24
HETATM   24  N1  UNL     1      -2.050   1.953  -3.134  1.00  0.00    -0.383 N 
ATOM     25  H12 UNL     1      -2.784   1.617  -3.758  1.00  0.00     0.157 HD
ATOM     26  H11 UNL     1      -1.671   2.898  -3.195  1.00  0.00     0.157 HD
ENDBRANCH   1  24
TORSDOF 6
