REMARK  5 active torsions:
REMARK  status: ('A' for Active; 'I' for Inactive)
REMARK    1  A    between atoms: C2_2  and  N1_3 
REMARK    2  A    between atoms: C3_6  and  C4_7 
REMARK    3  A    between atoms: C6_11  and  N4_12 
REMARK    4  A    between atoms: N6_25  and  C15_26 
REMARK    5  A    between atoms: C15_26  and  C16_27 
ROOT
HETATM    1  N1  UNL     1      -0.191  -0.806   0.136  1.00  0.00    -0.268 N 
HETATM    2  N2  UNL     1      -0.844   0.279  -0.254  1.00  0.00    -0.295 N 
ATOM      3  H2  UNL     1      -0.425   1.080  -0.726  1.00  0.00     0.187 HD
HETATM    4  C3  UNL     1      -2.143   0.161   0.069  1.00  0.00     0.069 A 
HETATM    5  C8  UNL     1      -2.283  -1.052   0.683  1.00  0.00    -0.005 A 
HETATM    6  C9  UNL     1      -1.039  -1.661   0.723  1.00  0.00     0.039 A 
HETATM    7  C10 UNL     1      -1.178  -2.963   1.380  1.00  0.00     0.060 C 
HETATM    8  C11 UNL     1      -2.636  -3.302   1.146  1.00  0.00     0.011 C 
HETATM    9  C12 UNL     1      -3.292  -1.946   1.322  1.00  0.00     0.043 C 
ENDROOT
BRANCH   4  10
HETATM   10  C4  UNL     1      -3.206   1.141  -0.187  1.00  0.00     0.025 A 
HETATM   11  C5  UNL     1      -2.971   2.473   0.083  1.00  0.00     0.121 A 
HETATM   12  N3  UNL     1      -3.954   3.341  -0.159  1.00  0.00    -0.201 N 
HETATM   13  C6  UNL     1      -5.165   2.983  -0.654  1.00  0.00     0.675 A 
ATOM     14  H3  UNL     1      -3.786   4.327   0.039  1.00  0.00     0.183 HD
HETATM   15  N5  UNL     1      -5.413   1.689  -0.923  1.00  0.00    -0.201 N 
HETATM   16  C7  UNL     1      -4.433   0.787  -0.687  1.00  0.00     0.121 A 
ATOM     17  H5  UNL     1      -6.316   1.395  -1.295  1.00  0.00     0.183 HD
BRANCH  13  18
HETATM   18  N4  UNL     1      -6.032   3.918  -0.844  1.00  0.00    -0.234 N 
ATOM     19  H42 UNL     1      -5.844   4.900  -0.640  1.00  0.00     0.174 HD
ATOM     20  H41 UNL     1      -6.943   3.649  -1.216  1.00  0.00     0.174 HD
ENDBRANCH  13  18
ENDBRANCH   4  10
BRANCH   1  21
HETATM   21  C2  UNL     1       1.241  -0.959  -0.083  1.00  0.00     0.135 C 
HETATM   22  C1  UNL     1       1.807  -2.114   0.686  1.00  0.00     0.061 C 
HETATM   23  C13 UNL     1       1.446  -1.205  -1.573  1.00  0.00     0.068 C 
HETATM   24  C14 UNL     1       1.920   0.132  -2.045  1.00  0.00     0.113 C 
HETATM   25  N6  UNL     1       2.524   0.747  -0.905  1.00  0.00    -0.232 NA
HETATM   26  N7  UNL     1       1.971   0.225   0.240  1.00  0.00    -0.131 NA
BRANCH  25  27
HETATM   27  C15 UNL     1       3.959   0.558  -0.990  1.00  0.00     0.114 C 
BRANCH  27  28
HETATM   28  C16 UNL     1       4.696   1.164   0.155  1.00  0.00     0.000 A 
HETATM   29  C17 UNL     1       4.571   2.674   0.385  1.00  0.00     0.006 A 
HETATM   30  C18 UNL     1       5.811   2.113  -0.208  1.00  0.00     0.006 A 
ENDBRANCH  27  28
ENDBRANCH  25  27
ENDBRANCH   1  21
TORSDOF 5
