REMARK  6 active torsions:
REMARK  status: ('A' for Active; 'I' for Inactive)
REMARK    1  A    between atoms: O1_1  and  C1_3 
REMARK    2  A    between atoms: C4_6  and  O2_7 
REMARK    3  A    between atoms: N1_9  and  C5_10 
REMARK    4  A    between atoms: C5_10  and  C6_11 
REMARK    5  A    between atoms: C6_11  and  C7_12 
REMARK    6  A    between atoms: C7_12  and  N2_13 
ROOT
HETATM    1  C1  UNL     1       0.598   2.129   0.363  1.00  0.00     0.151 A 
HETATM    2  C2  UNL     1       1.878   1.638   0.472  1.00  0.00     0.008 A 
HETATM    3  C3  UNL     1       2.201   0.920  -0.666  1.00  0.00     0.012 A 
HETATM    4  C4  UNL     1       1.097   0.988  -1.455  1.00  0.00     0.151 A 
HETATM    5  N1  UNL     1       0.126   1.720  -0.833  1.00  0.00    -0.308 N 
HETATM    6  C12 UNL     1       3.517   0.304  -0.784  1.00  0.00     0.053 C 
HETATM    7  C13 UNL     1       3.530  -1.015  -1.550  1.00  0.00     0.019 C 
HETATM    8  C14 UNL     1       3.675  -1.976  -0.436  1.00  0.00    -0.005 A 
HETATM    9  C15 UNL     1       4.747  -2.612   0.202  1.00  0.00     0.014 A 
HETATM   10  C16 UNL     1       4.924  -1.226   0.191  1.00  0.00     0.019 A 
HETATM   11  C17 UNL     1       4.103  -0.069   0.568  1.00  0.00    -0.070 C 
HETATM   12  C18 UNL     1       3.786   0.624   1.629  1.00  0.00    -0.018 C 
HETATM   13  C19 UNL     1       2.861   1.785   1.577  1.00  0.00     0.071 C 
ENDROOT
BRANCH   5  14
HETATM   14  C5  UNL     1      -1.183   1.989  -1.387  1.00  0.00     0.135 C 
BRANCH  14  15
HETATM   15  C6  UNL     1      -2.199   0.950  -1.064  1.00  0.00     0.050 C 
BRANCH  15  16
HETATM   16  C7  UNL     1      -2.423   0.772   0.403  1.00  0.00     0.274 C 
BRANCH  16  17
HETATM   17  N2  UNL     1      -3.412  -0.226   0.717  1.00  0.00     0.092 N 
HETATM   18  C8  UNL     1      -4.746   0.122   0.345  1.00  0.00     0.298 C 
HETATM   19  C9  UNL     1      -5.437  -1.152  -0.157  1.00  0.00     0.198 C 
HETATM   20  O3  UNL     1      -5.319  -2.144   0.810  1.00  0.00    -0.388 OA
HETATM   21  C10 UNL     1      -4.017  -2.511   1.054  1.00  0.00     0.198 C 
HETATM   22  C11 UNL     1      -3.021  -1.560   0.408  1.00  0.00     0.298 C 
ENDBRANCH  16  17
ENDBRANCH  15  16
ENDBRANCH  14  15
ENDBRANCH   5  14
BRANCH   1  23
HETATM   23  O1  UNL     1      -0.048   2.899   1.332  1.00  0.00    -0.345 OA
ATOM     24  H1  UNL     1      -0.932   3.238   1.257  1.00  0.00     0.219 HD
ENDBRANCH   1  23
BRANCH   4  25
HETATM   25  O2  UNL     1       0.922   0.422  -2.713  1.00  0.00    -0.345 OA
ATOM     26  H2  UNL     1       0.150   0.470  -3.265  1.00  0.00     0.219 HD
ENDBRANCH   4  25
TORSDOF 6
