REMARK  6 active torsions:
REMARK  status: ('A' for Active; 'I' for Inactive)
REMARK    1  A    between atoms: N1_2  and  C3_4 
REMARK    2  A    between atoms: C3_4  and  C4_5 
REMARK    3  A    between atoms: C4_5  and  C5_6 
REMARK    4  A    between atoms: C5_6  and  N2_7 
REMARK    5  A    between atoms: N2_7  and  C6_9 
REMARK    6  A    between atoms: C7_12  and  N4_13 
ROOT
HETATM    1  C6  UNL     1       0.699  -0.901   0.439  1.00  0.00     0.680 A 
HETATM    2  N3  UNL     1       0.009   0.191   0.683  1.00  0.00    -0.176 N 
ATOM      3  H3  UNL     1       0.465   0.965   1.166  1.00  0.00     0.186 HD
HETATM    4  C7  UNL     1      -1.307   0.324   0.309  1.00  0.00     0.128 A 
HETATM    5  C8  UNL     1      -1.932  -0.695  -0.330  1.00  0.00     0.050 A 
HETATM    6  C9  UNL     1      -1.174  -1.863  -0.588  1.00  0.00     0.079 A 
HETATM    7  C10 UNL     1      -1.640  -2.963  -1.261  1.00  0.00     0.119 A 
HETATM    8  N5  UNL     1      -2.884  -2.902  -1.684  1.00  0.00    -0.357 N 
ATOM      9  H5  UNL     1      -3.282  -3.691  -2.193  1.00  0.00     0.166 HD
HETATM   10  C11 UNL     1      -3.651  -1.793  -1.450  1.00  0.00     0.086 A 
HETATM   11  S1  UNL     1      -5.272  -1.517  -1.909  1.00  0.00    -0.076 SA
HETATM   12  C12 UNL     1      -5.443   0.022  -1.251  1.00  0.00    -0.008 A 
HETATM   13  C13 UNL     1      -4.232   0.331  -0.664  1.00  0.00    -0.031 A 
HETATM   14  C14 UNL     1      -3.270  -0.656  -0.787  1.00  0.00     0.021 A 
HETATM   15  C15 UNL     1      -4.528   1.669  -0.031  1.00  0.00     0.041 C 
HETATM   16  C16 UNL     1      -6.053   1.755   0.138  1.00  0.00     0.010 C 
HETATM   17  C17 UNL     1      -6.463   1.135  -1.131  1.00  0.00     0.047 C 
HETATM   18  N6  UNL     1       0.114  -1.913  -0.189  1.00  0.00    -0.190 N 
ATOM     19  H6  UNL     1       0.656  -2.757  -0.376  1.00  0.00     0.184 HD
ENDROOT
BRANCH   1  20
HETATM   20  N2  UNL     1       1.920  -1.018   0.790  1.00  0.00    -0.226 N 
ATOM     21  H2  UNL     1       2.443  -1.871   0.593  1.00  0.00     0.177 HD
BRANCH  20  22
HETATM   22  C5  UNL     1       2.548   0.106   1.482  1.00  0.00     0.143 C 
BRANCH  22  23
HETATM   23  C4  UNL     1       3.896  -0.356   1.912  1.00  0.00     0.064 C 
BRANCH  23  24
HETATM   24  C3  UNL     1       4.778  -0.775   0.792  1.00  0.00     0.058 C 
BRANCH  24  25
HETATM   25  N1  UNL     1       5.157   0.203  -0.105  1.00  0.00    -0.402 N 
HETATM   26  C1  UNL     1       4.359   0.827  -1.051  1.00  0.00     0.148 C 
HETATM   27  C2  UNL     1       6.585   0.239  -0.394  1.00  0.00     0.148 C 
ENDBRANCH  24  25
ENDBRANCH  23  24
ENDBRANCH  22  23
ENDBRANCH  20  22
ENDBRANCH   1  20
BRANCH   4  28
HETATM   28  N4  UNL     1      -1.839   1.440   0.517  1.00  0.00    -0.384 N 
ATOM     29  H42 UNL     1      -1.369   2.207   0.998  1.00  0.00     0.157 HD
ATOM     30  H41 UNL     1      -2.816   1.539   0.239  1.00  0.00     0.157 HD
ENDBRANCH   4  28
TORSDOF 6
