REMARK  8 active torsions:
REMARK  status: ('A' for Active; 'I' for Inactive)
REMARK    1  A    between atoms: C3_5  and  N2_6 
REMARK    2  A    between atoms: C6_13  and  C7_14 
REMARK    3  A    between atoms: C7_14  and  C8_15 
REMARK    4  A    between atoms: C8_15  and  C9_16 
REMARK    5  A    between atoms: C10_17  and  O1_18 
REMARK    6  A    between atoms: N4_20  and  C11_21 
REMARK    7  A    between atoms: C14_24  and  C15_25 
REMARK    8  A    between atoms: N5_28  and  O2_29 
ROOT
HETATM    1  C9  UNL     1      -0.283   0.200   0.664  1.00  0.00     0.093 A 
HETATM    2  C10 UNL     1      -0.961   1.328   0.300  1.00  0.00     0.170 A 
HETATM    3  N4  UNL     1      -2.256   1.046   0.094  1.00  0.00    -0.309 N 
HETATM    4  C14 UNL     1      -2.390  -0.267   0.330  1.00  0.00     0.118 A 
HETATM    5  N5  UNL     1      -1.199  -0.786   0.677  1.00  0.00    -0.212 N 
ENDROOT
BRANCH   1   6
HETATM    6  C8  UNL     1       1.184   0.049   0.970  1.00  0.00     0.069 C 
BRANCH   6   7
HETATM    7  C7  UNL     1       1.988  -0.018  -0.288  1.00  0.00     0.049 C 
BRANCH   7   8
HETATM    8  C6  UNL     1       3.420  -0.171   0.028  1.00  0.00    -0.012 A 
HETATM    9  C2  UNL     1       4.154   0.931   0.391  1.00  0.00     0.031 A 
HETATM   10  C1  UNL     1       3.607   2.315   0.445  1.00  0.00     0.069 C 
HETATM   11  N1  UNL     1       5.457   0.721   0.695  1.00  0.00    -0.196 N 
HETATM   12  C3  UNL     1       6.028  -0.486   0.652  1.00  0.00     0.676 A 
ATOM     13  H1  UNL     1       6.028   1.520   0.969  1.00  0.00     0.184 HD
HETATM   14  N3  UNL     1       5.277  -1.560   0.289  1.00  0.00    -0.196 N 
HETATM   15  C4  UNL     1       3.984  -1.443  -0.027  1.00  0.00     0.031 A 
ATOM     16  H3  UNL     1       5.713  -2.481   0.257  1.00  0.00     0.184 HD
HETATM   17  C5  UNL     1       3.127  -2.583  -0.432  1.00  0.00     0.069 C 
BRANCH  12  18
HETATM   18  N2  UNL     1       7.276  -0.624   0.953  1.00  0.00    -0.234 N 
ATOM     19  H22 UNL     1       7.839   0.182   1.225  1.00  0.00     0.174 HD
ATOM     20  H21 UNL     1       7.712  -1.546   0.920  1.00  0.00     0.174 HD
ENDBRANCH  12  18
ENDBRANCH   7   8
ENDBRANCH   6   7
ENDBRANCH   1   6
BRANCH   2  21
HETATM   21  O1  UNL     1      -0.345   2.590   0.171  1.00  0.00    -0.344 OA
ATOM     22  H1  UNL     1      -0.817   3.375  -0.082  1.00  0.00     0.219 HD
ENDBRANCH   2  21
BRANCH   5  23
HETATM   23  O2  UNL     1      -0.901  -2.088   1.000  1.00  0.00    -0.281 OA
ATOM     24  H2  UNL     1      -1.548  -2.784   1.009  1.00  0.00     0.245 HD
ENDBRANCH   5  23
BRANCH   3  25
HETATM   25  C11 UNL     1      -3.259   1.982  -0.292  1.00  0.00     0.085 C 
HETATM   26  C12 UNL     1      -3.711   1.821  -1.745  1.00  0.00     0.032 C 
HETATM   27  C13 UNL     1      -4.442   2.013   0.651  1.00  0.00     0.032 C 
ENDBRANCH   3  25
BRANCH   4  28
HETATM   28  C15 UNL     1      -3.608  -1.114   0.237  1.00  0.00     0.048 C 
HETATM   29  C16 UNL     1      -3.379  -2.072  -0.948  1.00  0.00     0.017 C 
HETATM   30  C17 UNL     1      -3.787  -2.020   1.438  1.00  0.00     0.017 C 
ENDBRANCH   4  28
TORSDOF 8
