REMARK  12 active torsions:
REMARK  status: ('A' for Active; 'I' for Inactive)
REMARK    1  A    between atoms: C2_2  and  N1_3 
REMARK    2  A    between atoms: C2_2  and  C19_41 
REMARK    3  A    between atoms: N1_3  and  C3_5 
REMARK    4  A    between atoms: C3_5  and  C4_6 
REMARK    5  A    between atoms: C3_5  and  C11_25 
REMARK       I    between atoms: C4_6  and  N2_8 
REMARK       I    between atoms: N2_8  and  C5_10 
REMARK    6  A    between atoms: C5_10  and  C6_12 
REMARK    7  A    between atoms: C6_12  and  N3_13 
REMARK    8  A    between atoms: C6_12  and  C7_17 
REMARK    9  A    between atoms: C7_17  and  C8_18 
REMARK   10  A    between atoms: C11_25  and  O4_27 
REMARK   11  A    between atoms: O4_27  and  C12_28 
REMARK   12  A    between atoms: C12_28  and  C13_29 
ROOT
HETATM    1  C3  UNL     1      -0.075   1.389  -0.207  1.00  0.00     0.271 C 
ENDROOT
BRANCH   1   2
HETATM    2  N1  UNL     1       0.738   2.502  -0.113  1.00  0.00    -0.390 N 
ATOM      3  H1  UNL     1       1.577   2.506  -0.692  1.00  0.00     0.155 HD
BRANCH   2   4
HETATM    4  C2  UNL     1       0.531   3.612   0.686  1.00  0.00     0.163 C 
HETATM    5  C1  UNL     1      -0.634   4.511   0.510  1.00  0.00     0.041 C 
BRANCH   4   6
HETATM    6  C19 UNL     1       1.753   4.503   0.571  1.00  0.00     0.253 C 
HETATM    7  N9  UNL     1       1.867   5.717   1.274  1.00  0.00    -0.060 NA
HETATM    8  O6  UNL     1       2.681   4.132  -0.177  1.00  0.00    -0.275 OA
ENDBRANCH   4   6
ENDBRANCH   2   4
ENDBRANCH   1   2
BRANCH   1   9
HETATM    9  C4  UNL     1      -1.412   1.488  -0.826  1.00  0.00     0.256 C 
HETATM   10  O1  UNL     1      -1.741   2.538  -1.431  1.00  0.00    -0.270 OA
HETATM   11  N2  UNL     1      -2.349   0.392  -0.744  1.00  0.00    -0.294 N 
HETATM   12  C5  UNL     1      -3.633   0.470  -1.297  1.00  0.00     0.255 C 
ATOM     13  H2  UNL     1      -2.067  -0.465  -0.269  1.00  0.00     0.171 HD
HETATM   14  O2  UNL     1      -3.951   1.507  -1.915  1.00  0.00    -0.271 OA
BRANCH  12  15
HETATM   15  C6  UNL     1      -4.607  -0.621  -1.174  1.00  0.00     0.280 C 
BRANCH  15  16
HETATM   16  N3  UNL     1      -5.697  -0.432  -2.175  1.00  0.00    -0.066 N 
ATOM     17  H33 UNL     1      -6.135   0.486  -2.099  1.00  0.00     0.275 HD
ATOM     18  H32 UNL     1      -5.336  -0.343  -3.125  1.00  0.00     0.275 HD
ATOM     19  H31 UNL     1      -6.374  -1.190  -2.090  1.00  0.00     0.275 HD
ENDBRANCH  15  16
BRANCH  15  20
HETATM   20  C7  UNL     1      -5.322  -0.655   0.170  1.00  0.00     0.101 C 
BRANCH  20  21
HETATM   21  C8  UNL     1      -4.380  -0.812   1.278  1.00  0.00     0.028 A 
HETATM   22  C9  UNL     1      -3.881  -1.989   1.816  1.00  0.00     0.114 A 
HETATM   23  N4  UNL     1      -3.059  -1.660   2.848  1.00  0.00    -0.360 N 
HETATM   24  C10 UNL     1      -3.039  -0.318   2.957  1.00  0.00     0.180 A 
ATOM     25  H4  UNL     1      -2.546  -2.316   3.437  1.00  0.00     0.166 HD
HETATM   26  N5  UNL     1      -3.842   0.177   2.002  1.00  0.00    -0.355 N 
ATOM     27  H5  UNL     1      -4.018   1.170   1.849  1.00  0.00     0.166 HD
ENDBRANCH  20  21
ENDBRANCH  15  20
ENDBRANCH  12  15
ENDBRANCH   1   9
BRANCH   1  28
HETATM   28  C11 UNL     1       0.654   0.368  -1.062  1.00  0.00     0.291 C 
HETATM   29  O3  UNL     1       1.773   0.649  -1.532  1.00  0.00    -0.262 OA
BRANCH  28  30
HETATM   30  O4  UNL     1       0.117  -0.879  -1.343  1.00  0.00    -0.313 OA
BRANCH  30  31
HETATM   31  C12 UNL     1       0.837  -1.806  -2.147  1.00  0.00     0.236 C 
BRANCH  31  32
HETATM   32  C13 UNL     1       2.133  -2.156  -1.575  1.00  0.00     0.041 A 
HETATM   33  C14 UNL     1       3.260  -2.144  -2.351  1.00  0.00     0.102 A 
HETATM   34  C15 UNL     1       4.493  -2.464  -1.830  1.00  0.00     0.252 A 
HETATM   35  O5  UNL     1       5.544  -2.451  -2.558  1.00  0.00    -0.268 OA
HETATM   36  N6  UNL     1       4.618  -2.797  -0.534  1.00  0.00    -0.284 N 
HETATM   37  C16 UNL     1       3.511  -2.808   0.223  1.00  0.00     0.184 A 
HETATM   38  C18 UNL     1       5.785  -3.165   0.246  1.00  0.00     0.155 A 
HETATM   39  N7  UNL     1       2.279  -2.492  -0.286  1.00  0.00    -0.329 N 
HETATM   40  N8  UNL     1       3.854  -3.186   1.555  1.00  0.00    -0.360 N 
ATOM     41  H7  UNL     1       1.462  -2.513   0.324  1.00  0.00     0.169 HD
HETATM   42  C17 UNL     1       5.257  -3.458   1.617  1.00  0.00     0.143 A 
ATOM     43  H8  UNL     1       3.203  -3.252   2.338  1.00  0.00     0.162 HD
ENDBRANCH  31  32
ENDBRANCH  30  31
ENDBRANCH  28  30
ENDBRANCH   1  28
TORSDOF 12
