REMARK  12 active torsions:
REMARK  status: ('A' for Active; 'I' for Inactive)
REMARK    1  A    between atoms: C1_2  and  C2_4 
REMARK    2  A    between atoms: C3_7  and  N3_8 
REMARK    3  A    between atoms: C6_18  and  C7_19 
REMARK       I    between atoms: C7_19  and  N5_21 
REMARK    4  A    between atoms: N5_21  and  C8_23 
REMARK    5  A    between atoms: C8_23  and  C9_24 
REMARK    6  A    between atoms: C9_24  and  O7_25 
REMARK    7  A    between atoms: C9_24  and  C10_27 
REMARK    8  A    between atoms: C10_27  and  N6_28 
REMARK    9  A    between atoms: C10_27  and  C11_32 
REMARK   10  A    between atoms: C11_32  and  S2_33 
REMARK   11  A    between atoms: S2_33  and  C12_34 
REMARK   12  A    between atoms: C12_34  and  C13_35 
ROOT
HETATM    1  C7  UNL     1      -0.784  -1.815  -0.135  1.00  0.00     0.278 C 
HETATM    2  O6  UNL     1      -0.385  -2.940  -0.483  1.00  0.00    -0.265 OA
HETATM    3  N5  UNL     1       0.282  -0.899   0.223  1.00  0.00    -0.353 N 
ATOM      4  H5  UNL     1       0.048   0.048   0.522  1.00  0.00     0.162 HD
ENDROOT
BRANCH   1   5
HETATM    5  C6  UNL     1      -2.161  -1.370  -0.062  1.00  0.00     0.178 A 
HETATM    6  C2  UNL     1      -3.298  -2.049  -0.359  1.00  0.00     0.141 A 
HETATM    7  N2  UNL     1      -4.337  -1.179  -0.121  1.00  0.00    -0.314 N 
HETATM    8  C3  UNL     1      -3.833  -0.028   0.301  1.00  0.00     0.243 A 
ATOM      9  H2  UNL     1      -5.328  -1.385  -0.248  1.00  0.00     0.170 HD
HETATM   10  O5  UNL     1      -2.542  -0.152   0.332  1.00  0.00    -0.270 OA
BRANCH   6  11
HETATM   11  C1  UNL     1      -3.491  -3.409  -0.836  1.00  0.00     0.284 C 
HETATM   12  N1  UNL     1      -4.845  -3.840  -1.060  1.00  0.00    -0.056 NA
HETATM   13  O1  UNL     1      -2.605  -4.226  -1.065  1.00  0.00    -0.269 OA
ENDBRANCH   6  11
BRANCH   8  14
HETATM   14  N3  UNL     1      -4.598   1.111   0.646  1.00  0.00    -0.214 N 
HETATM   15  C4  UNL     1      -4.117   2.389   1.112  1.00  0.00     0.250 C 
HETATM   16  C5  UNL     1      -5.046   3.436   0.607  1.00  0.00     0.251 C 
HETATM   17  O2  UNL     1      -4.699   4.590   0.174  1.00  0.00    -0.271 OA
HETATM   18  N4  UNL     1      -6.399   3.012   0.656  1.00  0.00    -0.235 N 
HETATM   19  S1  UNL     1      -6.313   1.269   0.600  1.00  0.00     0.331 S 
ATOM     20  H4  UNL     1      -7.234   3.595   0.711  1.00  0.00     0.183 HD
HETATM   21  O3  UNL     1      -6.921   0.728  -0.636  1.00  0.00    -0.182 OA
HETATM   22  O4  UNL     1      -6.951   0.733   1.849  1.00  0.00    -0.182 OA
ENDBRANCH   8  14
ENDBRANCH   1   5
BRANCH   3  23
HETATM   23  C8  UNL     1       1.678  -1.303   0.164  1.00  0.00     0.156 C 
BRANCH  23  24
HETATM   24  C9  UNL     1       2.514  -0.144   0.588  1.00  0.00     0.167 C 
BRANCH  24  25
HETATM   25  O7  UNL     1       2.316   0.961  -0.255  1.00  0.00    -0.392 OA
ATOM     26  H7  UNL     1       2.849   1.700   0.015  1.00  0.00     0.210 HD
ENDBRANCH  24  25
BRANCH  24  27
HETATM   27  C10 UNL     1       3.977  -0.445   0.677  1.00  0.00     0.223 C 
BRANCH  27  28
HETATM   28  N6  UNL     1       4.130  -1.599   1.564  1.00  0.00    -0.072 N 
ATOM     29  H63 UNL     1       3.695  -1.462   2.476  1.00  0.00     0.274 HD
ATOM     30  H62 UNL     1       3.574  -2.403   1.272  1.00  0.00     0.274 HD
ATOM     31  H61 UNL     1       5.127  -1.804   1.625  1.00  0.00     0.274 HD
ENDBRANCH  27  28
BRANCH  27  32
HETATM   32  C11 UNL     1       4.578  -0.829  -0.654  1.00  0.00     0.109 C 
BRANCH  32  33
HETATM   33  S2  UNL     1       4.420   0.455  -1.893  1.00  0.00    -0.156 SA
BRANCH  33  34
HETATM   34  C12 UNL     1       5.367   1.935  -1.517  1.00  0.00     0.186 C 
BRANCH  34  35
HETATM   35  C13 UNL     1       6.833   1.688  -1.547  1.00  0.00     0.182 C 
HETATM   36  O8  UNL     1       7.355   0.591  -1.806  1.00  0.00    -0.647 OA
HETATM   37  O9  UNL     1       7.660   2.779  -1.263  1.00  0.00    -0.647 OA
ENDBRANCH  34  35
ENDBRANCH  33  34
ENDBRANCH  32  33
ENDBRANCH  27  32
ENDBRANCH  24  27
ENDBRANCH  23  24
ENDBRANCH   3  23
TORSDOF 12
