REMARK  13 active torsions:
REMARK  status: ('A' for Active; 'I' for Inactive)
REMARK    1  A    between atoms: C2_2  and  O1_3 
REMARK    2  A    between atoms: C2_2  and  C3_5 
REMARK    3  A    between atoms: C3_5  and  N1_6 
REMARK    4  A    between atoms: C3_5  and  C17_37 
REMARK       I    between atoms: N1_6  and  C4_8 
REMARK    5  A    between atoms: C4_8  and  C5_10 
REMARK    6  A    between atoms: C5_10  and  N2_11 
REMARK    7  A    between atoms: N2_11  and  O3_13 
REMARK    8  A    between atoms: O3_13  and  C6_14 
REMARK    9  A    between atoms: C6_14  and  N3_16 
REMARK   10  A    between atoms: C9_20  and  C10_21 
REMARK   11  A    between atoms: C11_26  and  O5_27 
REMARK   12  A    between atoms: C11_26  and  N7_29 
REMARK   13  A    between atoms: C15_33  and  C16_34 
ROOT
HETATM    1  C5  UNL     1      -0.572   0.735   0.133  1.00  0.00     0.172 C 
HETATM    2  C11 UNL     1      -0.611   2.049   0.666  1.00  0.00     0.174 C 
ENDROOT
BRANCH   1   3
HETATM    3  C4  UNL     1      -1.653  -0.113  -0.340  1.00  0.00     0.275 C 
HETATM    4  N1  UNL     1      -1.344  -1.464  -0.808  1.00  0.00    -0.339 N 
ATOM      5  H1  UNL     1      -0.378  -1.791  -0.797  1.00  0.00     0.163 HD
HETATM    6  O2  UNL     1      -2.859   0.151  -0.407  1.00  0.00    -0.266 OA
BRANCH   4   7
HETATM    7  C3  UNL     1      -2.379  -2.337  -1.283  1.00  0.00     0.214 C 
BRANCH   7   8
HETATM    8  C2  UNL     1      -2.058  -2.752  -2.708  1.00  0.00     0.147 C 
HETATM    9  C1  UNL     1      -3.123  -3.573  -3.355  1.00  0.00     0.042 C 
BRANCH   8  10
HETATM   10  O1  UNL     1      -0.827  -3.407  -2.675  1.00  0.00    -0.393 OA
ATOM     11  H1  UNL     1      -0.149  -2.884  -2.263  1.00  0.00     0.210 HD
ENDBRANCH   8  10
ENDBRANCH   7   8
BRANCH   7  12
HETATM   12  C17 UNL     1      -2.468  -3.493  -0.383  1.00  0.00     0.199 C 
HETATM   13  O8  UNL     1      -1.723  -3.617   0.620  1.00  0.00    -0.646 OA
HETATM   14  O9  UNL     1      -3.396  -4.499  -0.621  1.00  0.00    -0.646 OA
ENDBRANCH   7  12
ENDBRANCH   4   7
ENDBRANCH   1   3
BRANCH   1  15
HETATM   15  N2  UNL     1       0.590   0.097   0.076  1.00  0.00    -0.255 N 
ATOM     16  H2  UNL     1       0.551  -0.859  -0.277  1.00  0.00     0.195 HD
BRANCH  15  17
HETATM   17  O3  UNL     1       1.796   0.534   0.416  1.00  0.00    -0.252 OA
BRANCH  17  18
HETATM   18  C6  UNL     1       2.949   0.459  -0.407  1.00  0.00     0.270 C 
HETATM   19  C7  UNL     1       3.650   1.767  -0.589  1.00  0.00     0.067 C 
BRANCH  18  20
HETATM   20  N3  UNL     1       3.835  -0.619  -0.037  1.00  0.00    -0.255 N 
HETATM   21  C8  UNL     1       4.947  -0.952  -0.706  1.00  0.00     0.205 A 
HETATM   22  N4  UNL     1       5.507  -2.006  -0.075  1.00  0.00    -0.332 N 
HETATM   23  C9  UNL     1       4.723  -2.321   0.995  1.00  0.00     0.187 A 
ATOM     24  H4  UNL     1       6.366  -2.483  -0.350  1.00  0.00     0.168 HD
HETATM   25  N6  UNL     1       3.708  -1.436   0.971  1.00  0.00    -0.276 N 
ATOM     26  H6  UNL     1       2.945  -1.409   1.648  1.00  0.00     0.189 HD
BRANCH  23  27
HETATM   27  C10 UNL     1       4.976  -3.408   1.937  1.00  0.00     0.300 C 
HETATM   28  N5  UNL     1       6.113  -4.231   1.774  1.00  0.00    -0.054 NA
HETATM   29  O4  UNL     1       4.153  -3.569   2.875  1.00  0.00    -0.268 OA
ENDBRANCH  23  27
ENDBRANCH  18  20
ENDBRANCH  17  18
ENDBRANCH  15  17
ENDBRANCH   1  15
BRANCH   2  30
HETATM   30  O5  UNL     1       0.584   2.430   1.124  1.00  0.00    -0.344 OA
ATOM     31  H5  UNL     1       0.558   3.310   1.481  1.00  0.00     0.219 HD
ENDBRANCH   2  30
BRANCH   2  32
HETATM   32  N7  UNL     1      -1.636   3.005   0.801  1.00  0.00    -0.345 N 
HETATM   33  C12 UNL     1      -2.979   3.034   0.330  1.00  0.00     0.126 C 
HETATM   34  C13 UNL     1      -3.404   4.519   0.338  1.00  0.00     0.022 C 
HETATM   35  C14 UNL     1      -2.674   5.035   1.534  1.00  0.00     0.038 C 
HETATM   36  C15 UNL     1      -1.414   4.243   1.587  1.00  0.00     0.187 C 
BRANCH  36  37
HETATM   37  C16 UNL     1      -1.018   3.949   2.974  1.00  0.00     0.196 C 
HETATM   38  O6  UNL     1      -0.710   4.903   3.724  1.00  0.00    -0.646 OA
HETATM   39  O7  UNL     1      -0.973   2.670   3.480  1.00  0.00    -0.646 OA
ENDBRANCH  36  37
ENDBRANCH   2  32
TORSDOF 13
