REMARK  14 active torsions:
REMARK  status: ('A' for Active; 'I' for Inactive)
REMARK    1  A    between atoms: N1_1  and  C1_5 
REMARK    2  A    between atoms: C1_5  and  C2_6 
REMARK    3  A    between atoms: C2_6  and  C3_7 
REMARK    4  A    between atoms: C3_7  and  C4_8 
REMARK    5  A    between atoms: C4_8  and  C5_9 
REMARK    6  A    between atoms: C5_9  and  N2_10 
REMARK    7  A    between atoms: C5_9  and  C6_14 
REMARK       I    between atoms: C6_14  and  N3_16 
REMARK    8  A    between atoms: C8_18  and  N4_19 
REMARK    9  A    between atoms: N5_22  and  C10_23 
REMARK   10  A    between atoms: C10_23  and  C11_24 
REMARK   11  A    between atoms: C11_24  and  C12_25 
REMARK   12  A    between atoms: C12_25  and  N6_26 
REMARK   13  A    between atoms: C12_25  and  O3_30 
REMARK   14  A    between atoms: C18_42  and  C19_43 
ROOT
HETATM    1  C6  UNL     1       1.347   0.929   0.702  1.00  0.00     0.251 C 
HETATM    2  O1  UNL     1       0.813   1.847  -0.034  1.00  0.00    -0.271 OA
HETATM    3  N3  UNL     1       0.997  -0.386   0.355  1.00  0.00    -0.335 N 
HETATM    4  C7  UNL     1       0.136  -0.799  -0.763  1.00  0.00     0.152 C 
HETATM    5  C8  UNL     1      -0.467  -2.125  -0.433  1.00  0.00     0.116 C 
HETATM    6  C17 UNL     1       0.184  -2.491   0.879  1.00  0.00     0.062 C 
HETATM    7  C18 UNL     1       1.396  -1.590   1.006  1.00  0.00     0.178 C 
ENDROOT
BRANCH   5   8
HETATM    8  N4  UNL     1      -1.916  -2.132  -0.380  1.00  0.00    -0.276 N 
HETATM    9  C9  UNL     1      -2.646  -1.319   0.420  1.00  0.00     0.333 A 
HETATM   10  O2  UNL     1      -1.944  -0.527   1.145  1.00  0.00    -0.246 OA
HETATM   11  N5  UNL     1      -3.976  -1.322   0.475  1.00  0.00    -0.264 N 
HETATM   12  C13 UNL     1      -4.655  -2.183  -0.309  1.00  0.00     0.282 A 
HETATM   13  O4  UNL     1      -5.911  -2.249  -0.315  1.00  0.00    -0.265 OA
HETATM   14  C14 UNL     1      -3.958  -3.026  -1.135  1.00  0.00     0.147 A 
HETATM   15  N7  UNL     1      -4.319  -3.981  -2.023  1.00  0.00    -0.345 N 
HETATM   16  C16 UNL     1      -2.585  -2.998  -1.170  1.00  0.00     0.145 A 
HETATM   17  C15 UNL     1      -3.213  -4.508  -2.570  1.00  0.00     0.182 A 
ATOM     18  H7  UNL     1      -5.277  -4.256  -2.241  1.00  0.00     0.167 HD
HETATM   19  N8  UNL     1      -2.115  -3.921  -2.063  1.00  0.00    -0.336 N 
ATOM     20  H8  UNL     1      -1.142  -4.121  -2.294  1.00  0.00     0.168 HD
BRANCH  11  21
HETATM   21  C10 UNL     1      -4.728  -0.434   1.299  1.00  0.00     0.141 C 
BRANCH  21  22
HETATM   22  C11 UNL     1      -5.263   0.796   0.700  1.00  0.00     0.081 C 
BRANCH  22  23
HETATM   23  C12 UNL     1      -4.381   1.834   0.153  1.00  0.00     0.317 C 
BRANCH  23  24
HETATM   24  N6  UNL     1      -3.477   2.470   1.081  1.00  0.00    -0.053 N 
ATOM     25  H63 UNL     1      -4.004   2.849   1.868  1.00  0.00     0.277 HD
ATOM     26  H62 UNL     1      -2.918   1.761   1.555  1.00  0.00     0.277 HD
ATOM     27  H61 UNL     1      -2.864   3.191   0.701  1.00  0.00     0.277 HD
ENDBRANCH  23  24
BRANCH  23  28
HETATM   28  O3  UNL     1      -5.220   2.837  -0.397  1.00  0.00    -0.370 OA
ATOM     29  H3  UNL     1      -4.649   3.509  -0.751  1.00  0.00     0.212 HD
ENDBRANCH  23  28
ENDBRANCH  22  23
ENDBRANCH  21  22
ENDBRANCH  11  21
ENDBRANCH   5   8
BRANCH   7  30
HETATM   30  C19 UNL     1       2.593  -2.218   0.390  1.00  0.00     0.254 C 
HETATM   31  N9  UNL     1       3.232  -1.624  -0.699  1.00  0.00    -0.060 NA
HETATM   32  O5  UNL     1       2.981  -3.305   0.912  1.00  0.00    -0.275 OA
ENDBRANCH   7  30
BRANCH   1  33
HETATM   33  C5  UNL     1       2.213   1.401   1.754  1.00  0.00     0.275 C 
BRANCH  33  34
HETATM   34  C4  UNL     1       3.059   2.534   1.192  1.00  0.00     0.042 C 
BRANCH  34  35
HETATM   35  C3  UNL     1       4.133   2.069   0.260  1.00  0.00     0.004 C 
BRANCH  35  36
HETATM   36  C2  UNL     1       4.873   3.331  -0.199  1.00  0.00     0.027 C 
BRANCH  36  37
HETATM   37  C1  UNL     1       5.980   2.990  -1.142  1.00  0.00     0.229 C 
BRANCH  37  38
HETATM   38  N1  UNL     1       5.495   2.322  -2.319  1.00  0.00    -0.079 N 
ATOM     39  H13 UNL     1       4.946   1.497  -2.077  1.00  0.00     0.274 HD
ATOM     40  H12 UNL     1       4.768   2.868  -2.782  1.00  0.00     0.274 HD
ATOM     41  H11 UNL     1       6.251   2.089  -2.963  1.00  0.00     0.274 HD
ENDBRANCH  37  38
ENDBRANCH  36  37
ENDBRANCH  35  36
ENDBRANCH  34  35
ENDBRANCH  33  34
BRANCH  33  42
HETATM   42  N2  UNL     1       2.973   0.461   2.491  1.00  0.00    -0.067 N 
ATOM     43  H23 UNL     1       3.745   0.098   1.932  1.00  0.00     0.275 HD
ATOM     44  H22 UNL     1       3.505   0.921   3.230  1.00  0.00     0.275 HD
ATOM     45  H21 UNL     1       2.406  -0.299   2.868  1.00  0.00     0.275 HD
ENDBRANCH  33  42
ENDBRANCH   1  33
TORSDOF 14
