REMARK  9 active torsions:
REMARK  status: ('A' for Active; 'I' for Inactive)
REMARK    1  A    between atoms: C2_2  and  C3_3 
REMARK    2  A    between atoms: C3_3  and  C4_4 
REMARK    3  A    between atoms: C4_4  and  N1_5 
REMARK    4  A    between atoms: C4_4  and  C13_20 
REMARK    5  A    between atoms: N1_5  and  C5_7 
REMARK    6  A    between atoms: C5_7  and  O1_8 
REMARK    7  A    between atoms: C5_7  and  C6_10 
REMARK       I    between atoms: N2_14  and  C10_15 
REMARK    8  A    between atoms: C10_15  and  O3_17 
REMARK       I    between atoms: C13_20  and  N3_22 
REMARK    9  A    between atoms: N3_22  and  C14_24 
ROOT
HETATM    1  N1  UNL     1       0.705  -0.859  -0.474  1.00  0.00    -0.384 N 
ATOM      2  H1  UNL     1       0.752  -1.474  -1.286  1.00  0.00     0.156 HD
ENDROOT
BRANCH   1   3
HETATM    3  C4  UNL     1       1.904  -0.490   0.141  1.00  0.00     0.174 C 
BRANCH   3   4
HETATM    4  C3  UNL     1       2.050  -0.969   1.575  1.00  0.00     0.060 C 
BRANCH   4   5
HETATM    5  C2  UNL     1       1.982  -2.467   1.634  1.00  0.00    -0.034 C 
HETATM    6  C1  UNL     1       2.989  -3.191   2.112  1.00  0.00     0.007 C 
ENDBRANCH   4   5
ENDBRANCH   3   4
BRANCH   3   7
HETATM    7  C13 UNL     1       2.212   0.976   0.040  1.00  0.00     0.241 C 
HETATM    8  O4  UNL     1       1.435   1.774  -0.539  1.00  0.00    -0.271 OA
HETATM    9  N3  UNL     1       3.400   1.531   0.596  1.00  0.00    -0.351 N 
ATOM     10  H3  UNL     1       4.045   0.900   1.072  1.00  0.00     0.163 HD
BRANCH   9  11
HETATM   11  C14 UNL     1       3.746   2.915   0.530  1.00  0.00     0.022 C 
HETATM   12  C15 UNL     1       3.922   3.445  -0.874  1.00  0.00     0.037 C 
HETATM   13  C16 UNL     1       5.056   3.139   1.293  1.00  0.00     0.037 C 
HETATM   14  C17 UNL     1       2.678   3.798   1.182  1.00  0.00     0.037 C 
ENDBRANCH   9  11
ENDBRANCH   3   7
ENDBRANCH   1   3
BRANCH   1  15
HETATM   15  C5  UNL     1      -0.537  -0.441  -0.048  1.00  0.00     0.219 C 
BRANCH  15  16
HETATM   16  O1  UNL     1      -0.906  -0.559   1.259  1.00  0.00    -0.377 OA
ATOM     17  H1  UNL     1      -1.762  -0.271   1.553  1.00  0.00     0.212 HD
ENDBRANCH  15  16
BRANCH  15  18
HETATM   18  C6  UNL     1      -1.612  -1.208  -0.852  1.00  0.00     0.052 C 
HETATM   19  C7  UNL     1      -1.463  -2.672  -0.618  1.00  0.00     0.012 C 
HETATM   20  C8  UNL     1      -2.707  -3.437  -0.871  1.00  0.00     0.020 C 
HETATM   21  C9  UNL     1      -3.815  -2.674  -1.548  1.00  0.00     0.128 C 
HETATM   22  N2  UNL     1      -3.973  -1.345  -1.031  1.00  0.00    -0.328 N 
HETATM   23  C10 UNL     1      -5.155  -0.626  -1.303  1.00  0.00     0.362 C 
HETATM   24  C12 UNL     1      -2.928  -0.753  -0.238  1.00  0.00     0.137 C 
HETATM   25  O2  UNL     1      -6.078  -1.152  -2.001  1.00  0.00    -0.238 OA
BRANCH  23  26
HETATM   26  O3  UNL     1      -5.381   0.666  -0.839  1.00  0.00    -0.309 OA
HETATM   27  C11 UNL     1      -6.600   1.338  -1.150  1.00  0.00     0.215 C 
ENDBRANCH  23  26
ENDBRANCH  15  18
ENDBRANCH   1  15
TORSDOF 9
