REMARK  8 active torsions:
REMARK  status: ('A' for Active; 'I' for Inactive)
REMARK    1  A    between atoms: C2_2  and  C4_4 
REMARK       I    between atoms: C4_4  and  N1_6 
REMARK    2  A    between atoms: N1_6  and  C5_8 
REMARK    3  A    between atoms: C5_8  and  C7_10 
REMARK       I    between atoms: C7_10  and  N2_12 
REMARK    4  A    between atoms: C10_15  and  C11_16 
REMARK       I    between atoms: C11_16  and  N3_18 
REMARK    5  A    between atoms: N3_18  and  O4_20 
REMARK    6  A    between atoms: C13_22  and  C14_23 
REMARK    7  A    between atoms: C14_23  and  C15_25 
REMARK    8  A    between atoms: C15_25  and  C16_26 
ROOT
HETATM    1  C7  UNL     1       0.671   0.064  -0.216  1.00  0.00     0.243 C 
HETATM    2  O2  UNL     1       0.603  -0.651  -1.250  1.00  0.00    -0.271 OA
HETATM    3  N2  UNL     1      -0.515   0.257   0.535  1.00  0.00    -0.338 N 
HETATM    4  C8  UNL     1      -0.617   1.022   1.762  1.00  0.00     0.127 C 
HETATM    5  C9  UNL     1      -1.535   0.080   2.558  1.00  0.00     0.036 C 
HETATM    6  C10 UNL     1      -2.606  -0.178   1.556  1.00  0.00     0.112 C 
HETATM    7  C13 UNL     1      -1.828  -0.259   0.241  1.00  0.00     0.169 C 
ENDROOT
BRANCH   1   8
HETATM    8  C5  UNL     1       1.983   0.651   0.145  1.00  0.00     0.173 C 
HETATM    9  C6  UNL     1       1.917   2.157  -0.106  1.00  0.00     0.042 C 
BRANCH   8  10
HETATM   10  N1  UNL     1       2.984   0.173  -0.818  1.00  0.00    -0.344 N 
HETATM   11  C4  UNL     1       4.119  -0.527  -0.377  1.00  0.00     0.247 C 
HETATM   12  O1  UNL     1       4.280  -0.749   0.855  1.00  0.00    -0.268 OA
ATOM     13  H1  UNL     1       2.854   0.351  -1.814  1.00  0.00     0.163 HD
BRANCH  11  14
HETATM   14  C2  UNL     1       5.125  -1.012  -1.295  1.00  0.00    -0.004 C 
HETATM   15  C1  UNL     1       5.095  -0.855  -2.605  1.00  0.00     0.024 C 
HETATM   16  C3  UNL     1       6.322  -1.766  -0.766  1.00  0.00     0.053 C 
ENDBRANCH  11  14
ENDBRANCH   8  10
ENDBRANCH   1   8
BRANCH   7  17
HETATM   17  C14 UNL     1      -2.571   0.571  -0.745  1.00  0.00     0.150 C 
HETATM   18  O5  UNL     1      -3.719   0.256  -1.094  1.00  0.00    -0.296 OA
BRANCH  17  19
HETATM   19  C15 UNL     1      -2.016   1.795  -1.365  1.00  0.00     0.080 C 
BRANCH  19  20
HETATM   20  C16 UNL     1      -3.009   2.430  -2.320  1.00  0.00     0.003 C 
HETATM   21  C17 UNL     1      -2.418   3.673  -2.935  1.00  0.00     0.005 C 
ENDBRANCH  19  20
ENDBRANCH  17  19
ENDBRANCH   7  17
BRANCH   6  22
HETATM   22  C11 UNL     1      -3.350  -1.437   1.805  1.00  0.00     0.247 C 
HETATM   23  O3  UNL     1      -4.592  -1.376   2.041  1.00  0.00    -0.271 OA
HETATM   24  N3  UNL     1      -2.734  -2.698   1.790  1.00  0.00    -0.235 N 
ATOM     25  H3  UNL     1      -1.734  -2.773   1.602  1.00  0.00     0.197 HD
BRANCH  24  26
HETATM   26  O4  UNL     1      -3.453  -3.804   2.022  1.00  0.00    -0.283 OA
HETATM   27  C12 UNL     1      -2.975  -4.508   3.126  1.00  0.00     0.237 C 
ENDBRANCH  24  26
ENDBRANCH   6  22
TORSDOF 8
