REMARK  8 active torsions:
REMARK  status: ('A' for Active; 'I' for Inactive)
REMARK    1  A    between atoms: C2_2  and  C3_3 
REMARK    2  A    between atoms: C3_3  and  C4_4 
REMARK    3  A    between atoms: C4_4  and  N1_5 
REMARK    4  A    between atoms: N1_5  and  C5_7 
REMARK    5  A    between atoms: C6_10  and  S1_11 
REMARK    6  A    between atoms: C8_15  and  N4_16 
REMARK    7  A    between atoms: N4_16  and  C9_18 
REMARK    8  A    between atoms: C13_25  and  C14_26 
ROOT
HETATM    1  C5  UNL     1       2.386   1.014   0.457  1.00  0.00     0.694 A 
HETATM    2  N2  UNL     1       2.485  -0.296   0.718  1.00  0.00    -0.169 N 
ATOM      3  H2  UNL     1       3.386  -0.696   0.979  1.00  0.00     0.186 HD
HETATM    4  C6  UNL     1       1.381  -1.100   0.635  1.00  0.00     0.174 A 
HETATM    5  N3  UNL     1       0.179  -0.605   0.293  1.00  0.00    -0.169 N 
ATOM      6  H3  UNL     1      -0.636  -1.215   0.234  1.00  0.00     0.186 HD
HETATM    7  C8  UNL     1       0.071   0.709   0.030  1.00  0.00     0.695 A 
HETATM    8  N6  UNL     1       1.154   1.491   0.113  1.00  0.00    -0.022 N 
ATOM      9  H6  UNL     1       1.055   2.486  -0.089  1.00  0.00     0.203 HD
ENDROOT
BRANCH   7  10
HETATM   10  N4  UNL     1      -1.068   1.231  -0.303  1.00  0.00    -0.220 N 
ATOM     11  H4  UNL     1      -1.114   2.232  -0.495  1.00  0.00     0.178 HD
BRANCH  10  12
HETATM   12  C9  UNL     1      -2.280   0.441  -0.412  1.00  0.00     0.114 C 
HETATM   13  C10 UNL     1      -2.297  -0.172  -1.819  1.00  0.00     0.128 C 
HETATM   14  C11 UNL     1      -3.416   0.344  -2.654  1.00  0.00     0.219 C 
HETATM   15  O1  UNL     1      -3.238   0.707  -3.857  1.00  0.00    -0.274 OA
HETATM   16  N5  UNL     1      -4.700   0.409  -2.036  1.00  0.00    -0.356 N 
HETATM   17  C12 UNL     1      -4.637   0.328  -0.627  1.00  0.00     0.095 A 
ATOM     18  H5  UNL     1      -5.572   0.504  -2.557  1.00  0.00     0.162 HD
HETATM   19  C13 UNL     1      -4.657   1.283   0.410  1.00  0.00     0.016 A 
HETATM   20  C16 UNL     1      -3.448   1.315  -0.320  1.00  0.00     0.038 A 
BRANCH  19  21
HETATM   21  C14 UNL     1      -4.627   0.793   1.852  1.00  0.00     0.002 C 
HETATM   22  C15 UNL     1      -5.819  -0.090   2.151  1.00  0.00     0.005 C 
ENDBRANCH  19  21
ENDBRANCH  10  12
ENDBRANCH   7  10
BRANCH   4  23
HETATM   23  S1  UNL     1       1.597  -2.850   1.000  1.00  0.00    -0.097 SA
HETATM   24  C7  UNL     1       2.011  -3.712  -0.539  1.00  0.00     0.099 C 
ENDBRANCH   4  23
BRANCH   1  25
HETATM   25  N1  UNL     1       3.397   1.799   0.525  1.00  0.00    -0.225 N 
ATOM     26  H1  UNL     1       3.272   2.790   0.318  1.00  0.00     0.177 HD
BRANCH  25  27
HETATM   27  C4  UNL     1       4.701   1.319   0.885  1.00  0.00     0.142 C 
BRANCH  27  28
HETATM   28  C3  UNL     1       5.436   0.720  -0.324  1.00  0.00     0.046 C 
BRANCH  28  29
HETATM   29  C2  UNL     1       6.769   0.239   0.107  1.00  0.00    -0.035 C 
HETATM   30  C1  UNL     1       7.073  -1.035  -0.035  1.00  0.00     0.007 C 
ENDBRANCH  28  29
ENDBRANCH  27  28
ENDBRANCH  25  27
ENDBRANCH   1  25
TORSDOF 8
