REMARK  7 active torsions:
REMARK  status: ('A' for Active; 'I' for Inactive)
REMARK    1  A    between atoms: C2_2  and  N1_3 
REMARK       I    between atoms: N1_3  and  C3_5 
REMARK       I    between atoms: C3_5  and  N2_7 
REMARK    2  A    between atoms: N2_7  and  C4_9 
REMARK    3  A    between atoms: C4_9  and  C5_10 
REMARK    4  A    between atoms: C5_10  and  C6_11 
REMARK    5  A    between atoms: C6_11  and  N3_12 
REMARK    6  A    between atoms: C9_15  and  C10_16 
REMARK    7  A    between atoms: C10_16  and  O2_17 
ROOT
HETATM    1  C5  UNL     1       0.810  -1.108  -0.048  1.00  0.00     0.192 C 
HETATM    2  C14 UNL     1       1.323  -1.834  -1.319  1.00  0.00     0.213 C 
HETATM    3  O3  UNL     1       2.137  -2.777  -0.626  1.00  0.00    -0.352 OA
HETATM    4  C15 UNL     1       1.321  -3.291   0.362  1.00  0.00     0.220 C 
HETATM    5  C16 UNL     1       2.005  -3.732   1.611  1.00  0.00     0.078 C 
HETATM    6  C17 UNL     1       0.703  -4.563  -0.240  1.00  0.00     0.078 C 
HETATM    7  N4  UNL     1       0.265  -2.280   0.612  1.00  0.00    -0.029 N 
ATOM      8  H41 UNL     1      -0.672  -2.549   0.311  1.00  0.00     0.281 HD
ATOM      9  H42 UNL     1       0.016  -2.148   1.592  1.00  0.00     0.281 HD
ENDROOT
BRANCH   1  10
HETATM   10  C4  UNL     1       2.055  -0.586   0.606  1.00  0.00     0.167 C 
BRANCH  10  11
HETATM   11  N2  UNL     1       2.725   0.343  -0.269  1.00  0.00    -0.341 N 
HETATM   12  C3  UNL     1       3.952   0.984   0.154  1.00  0.00     0.316 C 
HETATM   13  N1  UNL     1       4.611   1.893  -0.689  1.00  0.00    -0.344 N 
HETATM   14  O1  UNL     1       4.416   0.712   1.291  1.00  0.00    -0.247 OA
ATOM     15  H1  UNL     1       4.212   2.096  -1.606  1.00  0.00     0.164 HD
ATOM     16  H2  UNL     1       2.334   0.549  -1.188  1.00  0.00     0.164 HD
BRANCH  13  17
HETATM   17  C2  UNL     1       5.837   2.550  -0.298  1.00  0.00     0.120 C 
HETATM   18  C1  UNL     1       5.684   3.382   0.942  1.00  0.00     0.026 C 
ENDBRANCH  13  17
ENDBRANCH  10  11
ENDBRANCH   1  10
BRANCH   1  19
HETATM   19  C6  UNL     1      -0.082   0.003  -0.335  1.00  0.00     0.315 C 
BRANCH  19  20
HETATM   20  N3  UNL     1      -1.361  -0.205  -0.936  1.00  0.00     0.091 N 
HETATM   21  C7  UNL     1      -1.776   1.169  -1.341  1.00  0.00     0.273 C 
HETATM   22  C8  UNL     1      -2.517   1.882  -0.235  1.00  0.00     0.037 C 
HETATM   23  C9  UNL     1      -3.950   1.346  -0.343  1.00  0.00     0.013 C 
HETATM   24  C12 UNL     1      -3.787  -0.138  -0.484  1.00  0.00     0.037 C 
HETATM   25  C13 UNL     1      -2.401  -0.605   0.003  1.00  0.00     0.273 C 
BRANCH  23  26
HETATM   26  C10 UNL     1      -4.847   1.800   0.747  1.00  0.00     0.171 C 
BRANCH  26  27
HETATM   27  O2  UNL     1      -6.129   1.274   0.600  1.00  0.00    -0.396 OA
HETATM   28  C11 UNL     1      -6.733   1.619  -0.587  1.00  0.00     0.201 C 
ENDBRANCH  26  27
ENDBRANCH  23  26
ENDBRANCH  19  20
ENDBRANCH   1  19
TORSDOF 7
