REMARK  4 active torsions:
REMARK  status: ('A' for Active; 'I' for Inactive)
REMARK    1  A    between atoms: N1_1  and  C1_4 
REMARK    2  A    between atoms: C2_7  and  N3_8 
REMARK    3  A    between atoms: N4_11  and  N5_12 
REMARK    4  A    between atoms: N5_12  and  N6_14 
ROOT
HETATM    1  C1  UNL     1       3.525   0.516   0.323  1.00  0.00     0.694 A 
HETATM    2  N2  UNL     1       3.017  -0.716   0.273  1.00  0.00    -0.021 N 
ATOM      3  H2  UNL     1       3.634  -1.508   0.093  1.00  0.00     0.203 HD
HETATM    4  C2  UNL     1       1.711  -0.926   0.455  1.00  0.00     0.717 A 
HETATM    5  N4  UNL     1       0.909   0.109   0.690  1.00  0.00    -0.020 N 
HETATM    6  C7  UNL     1       1.430   1.340   0.739  1.00  0.00     0.375 A 
HETATM    7  O2  UNL     1       0.689   2.328   0.960  1.00  0.00    -0.243 OA
HETATM    8  N7  UNL     1       2.736   1.591   0.560  1.00  0.00    -0.139 N 
ATOM      9  H7  UNL     1       3.113   2.538   0.600  1.00  0.00     0.189 HD
ENDROOT
BRANCH   5  10
HETATM   10  N5  UNL     1      -0.459  -0.021   0.887  1.00  0.00    -0.237 N 
ATOM     11  H5  UNL     1      -0.825  -0.297   1.798  1.00  0.00     0.203 HD
BRANCH  10  12
HETATM   12  N6  UNL     1      -1.326   0.230  -0.174  1.00  0.00    -0.208 NA
HETATM   13  C3  UNL     1      -1.913  -0.924  -0.766  1.00  0.00     0.123 C 
HETATM   14  C4  UNL     1      -3.411  -0.789  -0.746  1.00  0.00     0.096 C 
HETATM   15  C5  UNL     1      -3.665   0.578  -0.284  1.00  0.00     0.142 C 
HETATM   16  O1  UNL     1      -4.725   1.176  -0.284  1.00  0.00    -0.297 OA
HETATM   17  C6  UNL     1      -2.390   1.133   0.198  1.00  0.00     0.193 C 
ENDBRANCH  10  12
ENDBRANCH   5  10
BRANCH   4  18
HETATM   18  N3  UNL     1       1.257  -2.119   0.396  1.00  0.00    -0.232 N 
ATOM     19  H32 UNL     1       1.872  -2.913   0.216  1.00  0.00     0.174 HD
ATOM     20  H31 UNL     1       0.259  -2.279   0.535  1.00  0.00     0.174 HD
ENDBRANCH   4  18
BRANCH   1  21
HETATM   21  N1  UNL     1       4.805   0.712   0.137  1.00  0.00    -0.234 N 
ATOM     22  H12 UNL     1       5.399  -0.098  -0.041  1.00  0.00     0.174 HD
ATOM     23  H11 UNL     1       5.194   1.654   0.175  1.00  0.00     0.174 HD
ENDBRANCH   1  21
TORSDOF 4
