REMARK  4 active torsions:
REMARK  status: ('A' for Active; 'I' for Inactive)
REMARK    1  A    between atoms: C5_13  and  C6_14 
REMARK    2  A    between atoms: C6_14  and  C7_15 
REMARK    3  A    between atoms: C7_15  and  N4_16 
REMARK    4  A    between atoms: C7_15  and  N5_20 
ROOT
HETATM    1  N1  UNL     1       0.644   2.091   0.973  1.00  0.00    -0.082 NA
HETATM    2  C1  UNL     1       1.105   0.905   0.340  1.00  0.00     0.131 C 
HETATM    3  N2  UNL     1       2.361   0.497   0.677  1.00  0.00    -0.307 N 
ATOM      4  H2  UNL     1       2.819   1.039   1.410  1.00  0.00     0.170 HD
HETATM    5  C2  UNL     1       3.079  -0.525   0.173  1.00  0.00     0.315 C 
HETATM    6  O1  UNL     1       4.298  -0.499   0.475  1.00  0.00    -0.262 OA
HETATM    7  C3  UNL     1       2.610  -1.552  -0.611  1.00  0.00     0.316 C 
HETATM    8  O2  UNL     1       3.329  -2.574  -0.633  1.00  0.00    -0.262 OA
HETATM    9  N3  UNL     1       1.499  -1.638  -1.361  1.00  0.00    -0.285 N 
ATOM     10  H3  UNL     1       1.385  -2.495  -1.903  1.00  0.00     0.172 HD
HETATM   11  C4  UNL     1       0.509  -0.713  -1.480  1.00  0.00     0.258 C 
HETATM   12  O3  UNL     1      -0.203  -0.778  -2.508  1.00  0.00    -0.267 OA
HETATM   13  C5  UNL     1       0.245   0.279  -0.550  1.00  0.00     0.055 C 
ENDROOT
BRANCH  13  14
HETATM   14  C6  UNL     1      -1.163   0.718  -0.506  1.00  0.00     0.110 C 
BRANCH  14  15
HETATM   15  C7  UNL     1      -1.906   0.113   0.667  1.00  0.00     0.382 C 
BRANCH  15  16
HETATM   16  N4  UNL     1      -3.266   0.604   0.625  1.00  0.00    -0.050 N 
ATOM     17  H43 UNL     1      -3.320   1.622   0.604  1.00  0.00     0.276 HD
ATOM     18  H42 UNL     1      -3.724   0.427  -0.269  1.00  0.00     0.276 HD
ATOM     19  H41 UNL     1      -3.766   0.197   1.415  1.00  0.00     0.276 HD
ENDBRANCH  15  16
BRANCH  15  20
HETATM   20  N5  UNL     1      -1.943  -1.338   0.569  1.00  0.00    -0.050 N 
ATOM     21  H53 UNL     1      -2.333  -1.645  -0.322  1.00  0.00     0.276 HD
ATOM     22  H52 UNL     1      -1.007  -1.732   0.473  1.00  0.00     0.276 HD
ATOM     23  H51 UNL     1      -2.443  -1.745   1.359  1.00  0.00     0.276 HD
ENDBRANCH  15  20
ENDBRANCH  14  15
ENDBRANCH  13  14
TORSDOF 4
