REMARK  8 active torsions:
REMARK  status: ('A' for Active; 'I' for Inactive)
REMARK    1  A    between atoms: C2_2  and  C3_3 
REMARK    2  A    between atoms: C3_3  and  N1_4 
REMARK    3  A    between atoms: C3_3  and  C14_23 
REMARK    4  A    between atoms: N1_4  and  C4_6 
REMARK    5  A    between atoms: C4_6  and  O1_7 
REMARK    6  A    between atoms: C4_6  and  C5_9 
REMARK    7  A    between atoms: C8_14  and  N2_15 
REMARK       I    between atoms: N3_19  and  C12_20 
REMARK    8  A    between atoms: C14_23  and  O3_25 
ROOT
HETATM    1  C5  UNL     1      -0.181   0.770   0.880  1.00  0.00     0.181 C 
HETATM    2  C6  UNL     1      -0.538   2.134   0.191  1.00  0.00     0.126 C 
HETATM    3 BR1  UNL     1      -0.315   1.955  -1.707  1.00  0.00    -0.085 Br
HETATM    4  C7  UNL     1      -2.070   2.110   0.411  1.00  0.00     0.237 C 
HETATM    5  F1  UNL     1      -2.328   2.260   1.728  1.00  0.00    -0.244 F 
HETATM    6  C8  UNL     1      -2.322   0.706  -0.135  1.00  0.00     0.328 C 
HETATM    7  N3  UNL     1      -1.143  -0.081   0.247  1.00  0.00    -0.308 N 
HETATM    8  C12 UNL     1      -1.038  -1.481   0.088  1.00  0.00     0.218 C 
HETATM    9  C13 UNL     1       0.034  -2.324   0.722  1.00  0.00     0.117 C 
HETATM   10  O2  UNL     1      -1.846  -2.190  -0.606  1.00  0.00    -0.274 OA
ENDROOT
BRANCH   1  11
HETATM   11  C4  UNL     1       1.227   0.618   0.683  1.00  0.00     0.136 C 
BRANCH  11  12
HETATM   12  N1  UNL     1       1.968   0.040  -0.344  1.00  0.00    -0.366 N 
ATOM     13  H1  UNL     1       1.453  -0.369  -1.124  1.00  0.00     0.161 HD
BRANCH  12  14
HETATM   14  C3  UNL     1       3.406  -0.024  -0.389  1.00  0.00     0.111 C 
BRANCH  14  15
HETATM   15  C2  UNL     1       3.913   0.717  -1.603  1.00  0.00     0.023 C 
HETATM   16  C1  UNL     1       3.600   2.162  -1.655  1.00  0.00     0.007 C 
ENDBRANCH  14  15
BRANCH  14  17
HETATM   17  C14 UNL     1       3.867  -1.446  -0.506  1.00  0.00     0.136 C 
HETATM   18  C15 UNL     1       3.790  -2.254   0.735  1.00  0.00     0.041 C 
BRANCH  17  19
HETATM   19  O3  UNL     1       3.374  -2.136  -1.580  1.00  0.00    -0.394 OA
ATOM     20  H3  UNL     1       3.666  -3.037  -1.654  1.00  0.00     0.210 HD
ENDBRANCH  17  19
ENDBRANCH  14  17
ENDBRANCH  12  14
ENDBRANCH  11  12
BRANCH  11  21
HETATM   21  O1  UNL     1       1.966   1.123   1.646  1.00  0.00    -0.348 OA
ATOM     22  H1  UNL     1       1.460   1.517   2.347  1.00  0.00     0.219 HD
ENDBRANCH  11  21
ENDBRANCH   1  11
BRANCH   6  23
HETATM   23  N2  UNL     1      -3.582   0.227   0.291  1.00  0.00    -0.055 N 
HETATM   24  C9  UNL     1      -4.307  -0.486  -0.767  1.00  0.00     0.274 C 
HETATM   25  C10 UNL     1      -4.469   1.338   0.643  1.00  0.00     0.274 C 
HETATM   26  C11 UNL     1      -3.582  -0.630   1.458  1.00  0.00     0.274 C 
ENDBRANCH   6  23
TORSDOF 8
