REMARK  6 active torsions:
REMARK  status: ('A' for Active; 'I' for Inactive)
REMARK    1  A    between atoms: C2_2  and  C3_3 
REMARK    2  A    between atoms: C3_3  and  N1_4 
REMARK    3  A    between atoms: N1_4  and  C5_6 
REMARK    4  A    between atoms: C6_9  and  N3_11 
REMARK       I    between atoms: N3_11  and  C7_13 
REMARK    5  A    between atoms: C7_13  and  C8_15 
REMARK    6  A    between atoms: N4_21  and  C12_22 
ROOT
HETATM    1  C5  UNL     1      -1.676   0.086   0.627  1.00  0.00     0.276 C 
HETATM    2  N2  UNL     1      -0.533   0.821   0.199  1.00  0.00    -0.354 N 
ATOM      3  H2  UNL     1      -0.538   1.841   0.201  1.00  0.00     0.159 HD
HETATM    4  C6  UNL     1       0.606   0.107  -0.228  1.00  0.00     0.201 C 
HETATM    5 CL1  UNL     1       0.755   0.368  -2.011  1.00  0.00    -0.070 Cl
HETATM    6  C11 UNL     1       0.615  -1.365  -0.021  1.00  0.00     0.197 C 
HETATM    7  N4  UNL     1      -0.669  -1.987  -0.265  1.00  0.00    -0.340 N 
HETATM    8  C15 UNL     1      -1.816  -1.148  -0.172  1.00  0.00     0.262 C 
HETATM    9  O2  UNL     1      -2.869  -1.503  -0.765  1.00  0.00    -0.269 OA
ENDROOT
BRANCH   4  10
HETATM   10  N3  UNL     1       1.810   0.700   0.329  1.00  0.00    -0.320 N 
HETATM   11  C7  UNL     1       3.124   0.416  -0.095  1.00  0.00     0.227 C 
HETATM   12  O1  UNL     1       3.334  -0.397  -1.021  1.00  0.00    -0.273 OA
ATOM     13  H3  UNL     1       1.695   1.374   1.086  1.00  0.00     0.166 HD
BRANCH  11  14
HETATM   14  C8  UNL     1       4.299   1.066   0.536  1.00  0.00     0.119 A 
HETATM   15  C9  UNL     1       5.390   1.543  -0.384  1.00  0.00     0.060 A 
HETATM   16  C10 UNL     1       5.617   0.379   0.538  1.00  0.00     0.126 A 
HETATM   17 CL2  UNL     1       5.705  -1.206  -0.285  1.00  0.00    -0.101 Cl
HETATM   18 CL3  UNL     1       6.778   0.624   1.839  1.00  0.00    -0.101 Cl
ENDBRANCH  11  14
ENDBRANCH   4  10
BRANCH   1  19
HETATM   19  N1  UNL     1      -2.842   0.892   0.720  1.00  0.00    -0.369 N 
HETATM   20  C4  UNL     1      -3.036   1.557   1.959  1.00  0.00     0.151 C 
BRANCH  19  21
HETATM   21  C3  UNL     1      -3.371   1.467  -0.431  1.00  0.00     0.060 C 
BRANCH  21  22
HETATM   22  C2  UNL     1      -2.767   2.741  -0.926  1.00  0.00     0.040 C 
HETATM   23  C1  UNL     1      -2.824   3.897   0.015  1.00  0.00     0.010 C 
ENDBRANCH  21  22
ENDBRANCH  19  21
ENDBRANCH   1  19
BRANCH   7  24
HETATM   24  C12 UNL     1      -0.765  -3.405  -0.588  1.00  0.00     0.079 C 
HETATM   25  C13 UNL     1      -0.071  -3.680  -1.925  1.00  0.00     0.032 C 
HETATM   26  C14 UNL     1      -0.157  -4.279   0.478  1.00  0.00     0.032 C 
ENDBRANCH   7  24
TORSDOF 6
