REMARK  6 active torsions:
REMARK  status: ('A' for Active; 'I' for Inactive)
REMARK    1  A    between atoms: C2_2  and  C4_4 
REMARK    2  A    between atoms: C4_4  and  N1_5 
REMARK    3  A    between atoms: C4_4  and  C14_23 
REMARK       I    between atoms: N1_5  and  C5_7 
REMARK    4  A    between atoms: C5_7  and  C6_9 
REMARK       I    between atoms: N2_15  and  C10_16 
REMARK    5  A    between atoms: C10_16  and  C11_18 
REMARK    6  A    between atoms: C12_19  and  C13_20 
REMARK       I    between atoms: C14_23  and  N3_25 
ROOT
HETATM    1  N1  UNL     1      -0.544   0.533   0.966  1.00  0.00    -0.346 N 
ATOM      2  H1  UNL     1      -0.543   1.472   1.364  1.00  0.00     0.163 HD
HETATM    3  C5  UNL     1       0.638   0.046   0.356  1.00  0.00     0.241 C 
HETATM    4  O1  UNL     1       0.656  -1.085  -0.135  1.00  0.00    -0.271 OA
ENDROOT
BRANCH   3   5
HETATM    5  C6  UNL     1       1.815   0.932   0.336  1.00  0.00     0.185 C 
HETATM    6  C7  UNL     1       2.467   0.671   1.720  1.00  0.00     0.115 C 
HETATM    7  C8  UNL     1       3.906   0.945   1.495  1.00  0.00     0.261 C 
HETATM    8  F1  UNL     1       4.696  -0.154   1.874  1.00  0.00    -0.204 F 
HETATM    9  F2  UNL     1       4.318   2.042   2.238  1.00  0.00    -0.204 F 
HETATM   10  C9  UNL     1       4.103   1.167   0.026  1.00  0.00     0.206 C 
HETATM   11  N2  UNL     1       2.859   0.651  -0.566  1.00  0.00    -0.329 N 
HETATM   12  C10 UNL     1       2.857   0.045  -1.890  1.00  0.00     0.244 C 
HETATM   13  O2  UNL     1       1.787  -0.306  -2.453  1.00  0.00    -0.268 OA
BRANCH  12  14
HETATM   14  C11 UNL     1       4.080  -0.180  -2.619  1.00  0.00     0.081 C 
HETATM   15  C12 UNL     1       4.062  -0.729  -3.818  1.00  0.00     0.090 C 
BRANCH  15  16
HETATM   16  C13 UNL     1       5.306  -0.955  -4.548  1.00  0.00     0.198 C 
HETATM   17  O3  UNL     1       5.319  -1.479  -5.698  1.00  0.00    -0.645 OA
HETATM   18  O4  UNL     1       6.527  -0.587  -3.972  1.00  0.00    -0.645 OA
ENDBRANCH  15  16
ENDBRANCH  12  14
ENDBRANCH   3   5
BRANCH   1  19
HETATM   19  C4  UNL     1      -1.766  -0.266   1.044  1.00  0.00     0.180 C 
BRANCH  19  20
HETATM   20  C2  UNL     1      -2.166  -0.431   2.495  1.00  0.00     0.009 C 
HETATM   21  C1  UNL     1      -2.439   0.869   3.176  1.00  0.00     0.012 C 
HETATM   22  C3  UNL     1      -3.402  -1.279   2.581  1.00  0.00     0.012 C 
ENDBRANCH  19  20
BRANCH  19  23
HETATM   23  C14 UNL     1      -2.773   0.488   0.257  1.00  0.00     0.243 C 
HETATM   24  O5  UNL     1      -2.716   1.770   0.198  1.00  0.00    -0.271 OA
HETATM   25  N3  UNL     1      -3.822  -0.135  -0.457  1.00  0.00    -0.345 N 
HETATM   26  C15 UNL     1      -4.357  -1.438  -0.780  1.00  0.00     0.164 C 
HETATM   27  C17 UNL     1      -4.935   0.416  -1.248  1.00  0.00     0.164 C 
HETATM   28  C16 UNL     1      -4.924  -0.850  -2.057  1.00  0.00     0.206 C 
HETATM   29  F3  UNL     1      -4.077  -0.866  -3.128  1.00  0.00    -0.246 F 
ENDBRANCH  19  23
ENDBRANCH   1  19
TORSDOF 6
