REMARK  7 active torsions:
REMARK  status: ('A' for Active; 'I' for Inactive)
REMARK    1  A    between atoms: N2_5  and  C3_6 
REMARK    2  A    between atoms: C3_6  and  C4_7 
REMARK    3  A    between atoms: C4_7  and  O1_8 
REMARK    4  A    between atoms: C4_7  and  C5_10 
REMARK    5  A    between atoms: C5_10  and  N3_11 
REMARK    6  A    between atoms: N3_11  and  C8_14 
REMARK    7  A    between atoms: C9_18  and  C10_19 
ROOT
HETATM    1  C1  UNL     1       3.088   1.646  -0.529  1.00  0.00     0.055 C 
HETATM    2  C2  UNL     1       3.327   0.631   0.570  1.00  0.00     0.146 C 
HETATM    3 BR1  UNL     1       4.710   1.239   1.777  1.00  0.00    -0.058 Br
HETATM    4  N1  UNL     1       2.122   0.295   1.273  1.00  0.00    -0.095 NA
HETATM    5  N2  UNL     1       1.637  -0.830   0.611  1.00  0.00    -0.234 N 
HETATM    6  N4  UNL     1       2.715  -1.426  -0.037  1.00  0.00    -0.291 N 
ATOM      7  H4  UNL     1       2.707  -2.372  -0.419  1.00  0.00     0.187 HD
HETATM    8  C9  UNL     1       3.718  -0.633  -0.091  1.00  0.00     0.051 C 
ENDROOT
BRANCH   5   9
HETATM    9  C3  UNL     1       0.274  -1.299   0.594  1.00  0.00     0.198 C 
BRANCH   9  10
HETATM   10  C4  UNL     1      -0.692  -0.290   0.014  1.00  0.00     0.165 C 
BRANCH  10  11
HETATM   11  O1  UNL     1      -0.382   0.041  -1.297  1.00  0.00    -0.392 OA
ATOM     12  H1  UNL     1      -0.989   0.675  -1.661  1.00  0.00     0.210 HD
ENDBRANCH  10  11
BRANCH  10  13
HETATM   13  C5  UNL     1      -2.070  -0.860   0.152  1.00  0.00     0.271 C 
BRANCH  13  14
HETATM   14  N3  UNL     1      -3.115   0.033  -0.277  1.00  0.00    -0.060 N 
HETATM   15  C6  UNL     1      -3.136   0.211  -1.711  1.00  0.00     0.273 C 
HETATM   16  C7  UNL     1      -4.386  -0.625   0.068  1.00  0.00     0.273 C 
BRANCH  14  17
HETATM   17  C8  UNL     1      -3.107   1.296   0.384  1.00  0.00     0.350 C 
HETATM   18 CL1  UNL     1      -2.138   2.525  -0.477  1.00  0.00    -0.101 Cl
ENDBRANCH  14  17
ENDBRANCH  13  14
ENDBRANCH  10  13
ENDBRANCH   9  10
ENDBRANCH   5   9
BRANCH   8  19
HETATM   19  C10 UNL     1       5.070  -0.909  -0.713  1.00  0.00     0.142 C 
HETATM   20 BR2  UNL     1       6.462  -0.800   0.620  1.00  0.00    -0.090 Br
ENDBRANCH   8  19
TORSDOF 7
