REMARK  8 active torsions:
REMARK  status: ('A' for Active; 'I' for Inactive)
REMARK    1  A    between atoms: C2_2  and  C3_3 
REMARK    2  A    between atoms: C3_3  and  C5_5 
REMARK    3  A    between atoms: C5_5  and  N1_6 
REMARK    4  A    between atoms: C5_5  and  C8_12 
REMARK       I    between atoms: N1_6  and  C6_8 
REMARK    5  A    between atoms: C6_8  and  C7_10 
REMARK    6  A    between atoms: C8_12  and  O2_13 
REMARK    7  A    between atoms: C8_12  and  N2_15 
REMARK    8  A    between atoms: C12_21  and  C14_23 
REMARK       I    between atoms: C14_23  and  N3_25 
ROOT
HETATM    1  C8  UNL     1      -0.142  -0.423   0.346  1.00  0.00     0.167 C 
ENDROOT
BRANCH   1   2
HETATM    2  C5  UNL     1      -1.560  -0.285   0.554  1.00  0.00     0.088 C 
BRANCH   2   3
HETATM    3  C3  UNL     1      -2.502   0.412  -0.293  1.00  0.00    -0.053 C 
HETATM    4  C4  UNL     1      -2.421   1.894  -0.247  1.00  0.00     0.046 C 
BRANCH   3   5
HETATM    5  C2  UNL     1      -2.879  -0.080  -1.631  1.00  0.00     0.031 C 
HETATM    6  C1  UNL     1      -4.260   0.512  -1.955  1.00  0.00     0.010 C 
ENDBRANCH   3   5
ENDBRANCH   2   3
BRANCH   2   7
HETATM    7  N1  UNL     1      -2.072  -1.643   0.913  1.00  0.00    -0.323 N 
HETATM    8  C6  UNL     1      -2.507  -2.031   2.168  1.00  0.00     0.232 C 
HETATM    9  O1  UNL     1      -2.493  -1.221   3.131  1.00  0.00    -0.272 OA
ATOM     10  H1  UNL     1      -2.103  -2.342   0.171  1.00  0.00     0.169 HD
BRANCH   8  11
HETATM   11  C7  UNL     1      -2.996  -3.414   2.384  1.00  0.00     0.188 C 
HETATM   12 BR1  UNL     1      -3.589  -3.690   4.200  1.00  0.00    -0.087 Br
ENDBRANCH   8  11
ENDBRANCH   2   7
ENDBRANCH   1   2
BRANCH   1  13
HETATM   13  O2  UNL     1       0.380  -1.487   1.005  1.00  0.00    -0.344 OA
ATOM     14  H2  UNL     1       1.316  -1.578   0.868  1.00  0.00     0.219 HD
ENDBRANCH   1  13
BRANCH   1  15
HETATM   15  N2  UNL     1       0.868   0.240  -0.352  1.00  0.00    -0.336 N 
HETATM   16  C9  UNL     1       0.741   1.379  -1.228  1.00  0.00     0.205 C 
HETATM   17  C10 UNL     1       2.050   1.573  -1.969  1.00  0.00     0.262 C 
HETATM   18  F1  UNL     1       2.636   2.771  -1.663  1.00  0.00    -0.204 F 
HETATM   19  F2  UNL     1       1.725   1.585  -3.338  1.00  0.00    -0.204 F 
HETATM   20  C11 UNL     1       2.859   0.373  -1.630  1.00  0.00     0.121 C 
HETATM   21  C12 UNL     1       2.310  -0.090  -0.285  1.00  0.00     0.117 C 
HETATM   22  C13 UNL     1       2.624  -1.534  -0.192  1.00  0.00     0.049 C 
BRANCH  21  23
HETATM   23  C14 UNL     1       2.979   0.734   0.736  1.00  0.00     0.245 C 
HETATM   24  O3  UNL     1       2.352   1.611   1.352  1.00  0.00    -0.271 OA
HETATM   25  N3  UNL     1       4.359   0.543   1.038  1.00  0.00    -0.363 N 
HETATM   26  C15 UNL     1       5.045   1.343   2.035  1.00  0.00     0.149 C 
ATOM     27  H3  UNL     1       4.880  -0.178   0.538  1.00  0.00     0.162 HD
ENDBRANCH  21  23
ENDBRANCH   1  15
TORSDOF 8
