REMARK  8 active torsions:
REMARK  status: ('A' for Active; 'I' for Inactive)
REMARK    1  A    between atoms: C2_2  and  C3_3 
REMARK    2  A    between atoms: C4_4  and  C5_5 
REMARK    3  A    between atoms: C11_11  and  O1_12 
REMARK    4  A    between atoms: C12_14  and  C13_15 
REMARK    5  A    between atoms: C13_15  and  C14_16 
REMARK    6  A    between atoms: C20_22  and  O2_23 
REMARK    7  A    between atoms: C20_22  and  C21_25 
REMARK    8  A    between atoms: C21_25  and  O3_26 
ROOT
HETATM    1  C5  UNL     1       2.054   0.340   0.858  1.00  0.00     0.049 C 
HETATM    2  C6  UNL     1       1.171   1.366   1.455  1.00  0.00     0.045 C 
HETATM    3  C7  UNL     1      -0.044   0.787   2.069  1.00  0.00    -0.080 C 
HETATM    4  C8  UNL     1      -0.349   1.127   3.488  1.00  0.00     0.043 C 
HETATM    5  C9  UNL     1      -0.919  -0.017   1.501  1.00  0.00    -0.064 C 
HETATM    6  C10 UNL     1      -2.186  -0.733   1.851  1.00  0.00     0.068 C 
HETATM    7  C11 UNL     1      -2.008  -1.480   0.542  1.00  0.00     0.135 C 
HETATM    8  C12 UNL     1      -0.924  -0.550   0.108  1.00  0.00     0.019 C 
HETATM    9  C18 UNL     1       0.397  -1.204  -0.230  1.00  0.00     0.034 C 
HETATM   10  C19 UNL     1       0.087  -2.618  -0.642  1.00  0.00     0.014 C 
HETATM   11  C20 UNL     1       1.471  -1.060   0.769  1.00  0.00     0.090 C 
ENDROOT
BRANCH   8  12
HETATM   12  C13 UNL     1      -1.295   0.536  -0.877  1.00  0.00     0.044 C 
BRANCH  12  13
HETATM   13  C14 UNL     1      -2.617   1.136  -0.676  1.00  0.00    -0.024 C 
HETATM   14  C15 UNL     1      -3.565   1.204  -1.596  1.00  0.00    -0.091 C 
HETATM   15  C16 UNL     1      -3.424   0.677  -2.980  1.00  0.00     0.042 C 
HETATM   16  C17 UNL     1      -4.867   1.856  -1.208  1.00  0.00     0.042 C 
ENDBRANCH  12  13
ENDBRANCH   8  12
BRANCH   7  17
HETATM   17  O1  UNL     1      -3.200  -1.490  -0.127  1.00  0.00    -0.394 OA
ATOM     18  H1  UNL     1      -3.089  -1.958  -0.946  1.00  0.00     0.210 HD
ENDBRANCH   7  17
BRANCH  11  19
HETATM   19  O2  UNL     1       1.139  -1.469   2.064  1.00  0.00    -0.387 OA
ATOM     20  H2  UNL     1       0.774  -2.344   2.008  1.00  0.00     0.210 HD
ENDBRANCH  11  19
BRANCH  11  21
HETATM   21  C21 UNL     1       2.669  -1.914   0.383  1.00  0.00     0.203 C 
BRANCH  21  22
HETATM   22  O3  UNL     1       2.450  -3.259   0.400  1.00  0.00    -0.398 OA
ATOM     23  H3  UNL     1       3.198  -3.792   0.159  1.00  0.00     0.209 HD
ENDBRANCH  21  22
ENDBRANCH  11  21
BRANCH   1  24
HETATM   24  C4  UNL     1       2.559   0.837  -0.441  1.00  0.00    -0.019 C 
HETATM   25  C3  UNL     1       3.828   1.163  -0.574  1.00  0.00    -0.004 C 
BRANCH  25  26
HETATM   26  C2  UNL     1       4.376   1.658  -1.836  1.00  0.00    -0.011 C 
HETATM   27  C1  UNL     1       5.655   1.974  -1.925  1.00  0.00     0.011 C 
ENDBRANCH  25  26
ENDBRANCH   1  24
TORSDOF 8
