REMARK  9 active torsions:
REMARK  status: ('A' for Active; 'I' for Inactive)
REMARK    1  A    between atoms: C2_2  and  C4_4 
REMARK    2  A    between atoms: C5_5  and  C6_6 
REMARK    3  A    between atoms: C6_6  and  O1_8 
REMARK    4  A    between atoms: C6_6  and  C8_10 
REMARK    5  A    between atoms: C8_10  and  C9_11 
REMARK    6  A    between atoms: C9_11  and  C10_12 
REMARK    7  A    between atoms: C10_12  and  O2_13 
REMARK    8  A    between atoms: C10_12  and  C11_15 
REMARK    9  A    between atoms: C17_21  and  O3_22 
ROOT
HETATM    1  C10 UNL     1       0.101  -0.865   0.463  1.00  0.00     0.127 C 
ENDROOT
BRANCH   1   2
HETATM    2  C9  UNL     1       1.312  -1.566  -0.050  1.00  0.00     0.036 C 
BRANCH   2   3
HETATM    3  C8  UNL     1       2.414  -1.902   0.859  1.00  0.00     0.053 C 
BRANCH   3   4
HETATM    4  C6  UNL     1       3.176  -0.903   1.615  1.00  0.00     0.117 C 
HETATM    5  C7  UNL     1       2.596  -0.302   2.831  1.00  0.00     0.060 C 
BRANCH   4   6
HETATM    6  C5  UNL     1       3.795   0.080   0.694  1.00  0.00    -0.064 C 
HETATM    7  C4  UNL     1       4.292   0.895  -0.043  1.00  0.00    -0.069 C 
BRANCH   7   8
HETATM    8  C2  UNL     1       4.896   1.855  -0.927  1.00  0.00    -0.018 C 
HETATM    9  C1  UNL     1       5.219   1.555  -2.165  1.00  0.00     0.028 C 
HETATM   10  C3  UNL     1       5.159   3.222  -0.418  1.00  0.00     0.057 C 
ENDBRANCH   7   8
ENDBRANCH   4   6
BRANCH   4  11
HETATM   11  O1  UNL     1       4.311  -1.687   2.134  1.00  0.00    -0.378 OA
ATOM     12  H1  UNL     1       3.914  -2.317   2.724  1.00  0.00     0.211 HD
ENDBRANCH   4  11
ENDBRANCH   3   4
ENDBRANCH   2   3
ENDBRANCH   1   2
BRANCH   1  13
HETATM   13  O2  UNL     1       0.393   0.396   0.951  1.00  0.00    -0.395 OA
ATOM     14  H2  UNL     1      -0.379   0.843   1.278  1.00  0.00     0.210 HD
ENDBRANCH   1  13
BRANCH   1  15
HETATM   15  C11 UNL     1      -0.949  -0.750  -0.557  1.00  0.00     0.051 C 
HETATM   16  C12 UNL     1      -1.538  -1.995  -1.104  1.00  0.00    -0.082 C 
HETATM   17  C13 UNL     1      -1.431  -3.271  -0.866  1.00  0.00     0.015 C 
HETATM   18  C14 UNL     1      -2.496  -1.426  -2.142  1.00  0.00     0.039 C 
HETATM   19  C15 UNL     1      -2.905  -0.121  -1.563  1.00  0.00     0.001 C 
HETATM   20  C16 UNL     1      -4.335   0.127  -1.340  1.00  0.00     0.037 C 
HETATM   21  C20 UNL     1      -2.221  -0.060  -0.181  1.00  0.00    -0.030 C 
HETATM   22  C17 UNL     1      -4.528   1.494  -0.761  1.00  0.00     0.118 C 
HETATM   23  C18 UNL     1      -3.328   2.190  -0.255  1.00  0.00     0.032 C 
HETATM   24  C19 UNL     1      -2.150   1.379   0.142  1.00  0.00     0.013 C 
HETATM   25  C21 UNL     1      -2.988  -0.865   0.833  1.00  0.00     0.016 C 
BRANCH  22  26
HETATM   26  O3  UNL     1      -5.596   1.506   0.172  1.00  0.00    -0.396 OA
ATOM     27  H3  UNL     1      -5.718   2.373   0.539  1.00  0.00     0.210 HD
ENDBRANCH  22  26
ENDBRANCH   1  15
TORSDOF 9
