REMARK  5 active torsions:
REMARK  status: ('A' for Active; 'I' for Inactive)
REMARK    1  A    between atoms: C3_3  and  N1_5 
REMARK    2  A    between atoms: N1_5  and  C5_7 
REMARK    3  A    between atoms: C10_12  and  C11_13 
REMARK    4  A    between atoms: C12_14  and  C14_16 
REMARK    5  A    between atoms: C20_24  and  O3_25 
ROOT
HETATM    1  C5  UNL     1       1.914   0.222  -0.743  1.00  0.00     0.110 C 
HETATM    2  C6  UNL     1       0.888   0.863   0.155  1.00  0.00     0.028 C 
HETATM    3  C7  UNL     1      -0.470   1.011  -0.498  1.00  0.00     0.012 C 
HETATM    4  C8  UNL     1      -1.094  -0.323  -0.874  1.00  0.00    -0.033 C 
HETATM    5  C9  UNL     1      -1.025  -0.588  -2.342  1.00  0.00     0.016 C 
HETATM    6  C10 UNL     1      -2.593  -0.365  -0.506  1.00  0.00     0.017 C 
HETATM    7  C15 UNL     1      -2.764  -1.443   0.489  1.00  0.00     0.010 C 
HETATM    8  C16 UNL     1      -1.630  -2.400   0.016  1.00  0.00     0.006 C 
HETATM    9  C17 UNL     1      -0.532  -1.322   0.038  1.00  0.00     0.001 C 
HETATM   10  C18 UNL     1       0.745  -1.950  -0.108  1.00  0.00     0.017 C 
HETATM   11  C19 UNL     1       0.731  -3.385  -0.668  1.00  0.00     0.013 C 
HETATM   12  C20 UNL     1       1.868  -1.256  -0.805  1.00  0.00     0.144 C 
ENDROOT
BRANCH   1  13
HETATM   13  N1  UNL     1       3.212   0.763  -0.406  1.00  0.00    -0.387 N 
ATOM     14  H1  UNL     1       3.744   1.192  -1.164  1.00  0.00     0.159 HD
BRANCH  13  15
HETATM   15  C3  UNL     1       3.813   0.755   0.869  1.00  0.00    -0.003 C 
HETATM   16  C2  UNL     1       4.311   1.884   1.329  1.00  0.00    -0.007 C 
HETATM   17  C1  UNL     1       4.240   3.122   0.531  1.00  0.00     0.038 C 
HETATM   18  C4  UNL     1       3.916  -0.455   1.720  1.00  0.00     0.067 C 
ENDBRANCH  13  15
ENDBRANCH   1  13
BRANCH  12  19
HETATM   19  O3  UNL     1       1.948  -1.637  -2.171  1.00  0.00    -0.393 OA
ATOM     20  H3  UNL     1       1.918  -2.586  -2.211  1.00  0.00     0.210 HD
ENDBRANCH  12  19
BRANCH   6  21
HETATM   21  C11 UNL     1      -3.157   0.939  -0.262  1.00  0.00    -0.008 C 
HETATM   22  C12 UNL     1      -3.864   1.402   0.743  1.00  0.00     0.011 C 
HETATM   23  C13 UNL     1      -4.284   0.658   1.944  1.00  0.00     0.055 C 
BRANCH  22  24
HETATM   24  C14 UNL     1      -4.280   2.799   0.672  1.00  0.00     0.204 C 
HETATM   25  O1  UNL     1      -4.950   3.295   1.592  1.00  0.00    -0.644 OA
HETATM   26  O2  UNL     1      -3.929   3.566  -0.413  1.00  0.00    -0.644 OA
ENDBRANCH  22  24
ENDBRANCH   6  21
TORSDOF 5
