REMARK  6 active torsions:
REMARK  status: ('A' for Active; 'I' for Inactive)
REMARK    1  A    between atoms: C6_6  and  O1_7 
REMARK    2  A    between atoms: C6_6  and  C7_9 
REMARK    3  A    between atoms: C7_9  and  N1_10 
REMARK    4  A    between atoms: C7_9  and  C8_14 
REMARK    5  A    between atoms: C8_14  and  C9_15 
REMARK    6  A    between atoms: C9_15  and  C10_16 
ROOT
HETATM    1  C1  UNL     1      -2.210   2.611  -1.404  1.00  0.00     0.011 C 
HETATM    2  C2  UNL     1      -1.300   1.367  -1.329  1.00  0.00    -0.009 C 
HETATM    3  C3  UNL     1      -0.010   1.858  -2.007  1.00  0.00     0.005 C 
HETATM    4  C4  UNL     1       0.759   2.364  -0.831  1.00  0.00     0.009 C 
HETATM    5  C5  UNL     1       0.471   1.470   0.315  1.00  0.00     0.031 C 
HETATM    6  C6  UNL     1       1.308   0.253   0.446  1.00  0.00     0.090 C 
HETATM    7  C11 UNL     1       0.439  -0.842  -0.147  1.00  0.00     0.046 C 
HETATM    8  C12 UNL     1      -0.864  -0.421   0.463  1.00  0.00     0.002 C 
HETATM    9  C13 UNL     1      -2.001  -1.264   0.423  1.00  0.00    -0.005 C 
HETATM   10  C14 UNL     1      -2.380  -2.149  -0.694  1.00  0.00     0.005 C 
HETATM   11  C15 UNL     1      -3.785  -2.571  -0.220  1.00  0.00     0.001 C 
HETATM   12  C16 UNL     1      -4.248  -1.465   0.746  1.00  0.00     0.005 C 
HETATM   13  C17 UNL     1      -3.276  -0.392   0.423  1.00  0.00    -0.010 C 
HETATM   14  C18 UNL     1      -3.126   0.726   1.348  1.00  0.00     0.006 C 
HETATM   15  C19 UNL     1      -1.946   1.613   1.073  1.00  0.00     0.011 C 
HETATM   16  C20 UNL     1      -0.977   1.011   0.052  1.00  0.00    -0.026 C 
ENDROOT
BRANCH   6  17
HETATM   17  O1  UNL     1       1.355   0.000   1.858  1.00  0.00    -0.387 OA
ATOM     18  H1  UNL     1       1.891  -0.780   1.942  1.00  0.00     0.210 HD
ENDBRANCH   6  17
BRANCH   6  19
HETATM   19  C7  UNL     1       2.702   0.259   0.042  1.00  0.00     0.218 C 
BRANCH  19  20
HETATM   20  N1  UNL     1       3.082   0.449  -1.298  1.00  0.00    -0.072 N 
ATOM     21  H13 UNL     1       2.596  -0.248  -1.863  1.00  0.00     0.274 HD
ATOM     22  H12 UNL     1       2.659   1.318  -1.623  1.00  0.00     0.274 HD
ATOM     23  H11 UNL     1       4.062   0.453  -1.582  1.00  0.00     0.274 HD
ENDBRANCH  19  20
BRANCH  19  24
HETATM   24  C8  UNL     1       3.390  -1.020   0.548  1.00  0.00     0.046 C 
BRANCH  24  25
HETATM   25  C9  UNL     1       4.860  -1.012   0.123  1.00  0.00     0.115 C 
BRANCH  25  26
HETATM   26  C10 UNL     1       5.452  -2.271   0.651  1.00  0.00     0.172 C 
HETATM   27  O2  UNL     1       5.251  -3.396   0.175  1.00  0.00    -0.648 OA
HETATM   28  O3  UNL     1       6.288  -2.166   1.758  1.00  0.00    -0.648 OA
ENDBRANCH  25  26
ENDBRANCH  24  25
ENDBRANCH  19  24
ENDBRANCH   6  19
TORSDOF 6
