REMARK  8 active torsions:
REMARK  status: ('A' for Active; 'I' for Inactive)
REMARK    1  A    between atoms: O1_2  and  C2_3 
REMARK    2  A    between atoms: C2_3  and  C3_4 
REMARK    3  A    between atoms: C3_4  and  O2_5 
REMARK    4  A    between atoms: C4_7  and  C5_8 
REMARK    5  A    between atoms: C5_8  and  O3_11 
REMARK    6  A    between atoms: C11_16  and  C13_18 
REMARK    7  A    between atoms: C13_18  and  C14_19 
REMARK    8  A    between atoms: C14_19  and  O4_20 
ROOT
HETATM    1  C3  UNL     1      -1.823   0.616  -0.464  1.00  0.00     0.113 C 
HETATM    2  C4  UNL     1      -2.049  -0.861  -0.514  1.00  0.00    -0.013 C 
HETATM    3  C8  UNL     1      -0.891  -1.480  -0.174  1.00  0.00    -0.012 C 
HETATM    4  C9  UNL     1       0.150  -0.459   0.112  1.00  0.00     0.021 C 
HETATM    5  C10 UNL     1       1.530  -0.947  -0.225  1.00  0.00     0.019 C 
HETATM    6  C11 UNL     1       2.608  -0.203   0.508  1.00  0.00    -0.038 C 
HETATM    7  C12 UNL     1       2.501  -0.263   1.987  1.00  0.00     0.015 C 
HETATM    8  C15 UNL     1       2.602   1.231   0.029  1.00  0.00    -0.010 C 
HETATM    9  C16 UNL     1       3.872   1.934   0.455  1.00  0.00     0.011 C 
HETATM   10  C17 UNL     1       1.366   1.972   0.459  1.00  0.00     0.006 C 
HETATM   11  C18 UNL     1       0.297   1.958  -0.612  1.00  0.00     0.014 C 
HETATM   12  C19 UNL     1      -0.325   0.638  -0.815  1.00  0.00     0.000 C 
HETATM   13  C20 UNL     1      -0.273   0.186  -2.270  1.00  0.00     0.019 C 
ENDROOT
BRANCH   1  14
HETATM   14  C2  UNL     1      -2.090   1.217   0.863  1.00  0.00     0.210 C 
BRANCH  14  15
HETATM   15  O1  UNL     1      -3.468   1.320   1.161  1.00  0.00    -0.393 OA
HETATM   16  C1  UNL     1      -3.549   1.901   2.432  1.00  0.00     0.201 C 
ENDBRANCH  14  15
ENDBRANCH   1  14
BRANCH   1  17
HETATM   17  O2  UNL     1      -2.425   1.304  -1.513  1.00  0.00    -0.382 OA
ATOM     18  H2  UNL     1      -2.254   0.918  -2.364  1.00  0.00     0.211 HD
ENDBRANCH   1  17
BRANCH   2  19
HETATM   19  C5  UNL     1      -3.277  -1.578  -0.876  1.00  0.00     0.077 C 
HETATM   20  C6  UNL     1      -3.787  -1.180  -2.253  1.00  0.00     0.050 C 
HETATM   21  C7  UNL     1      -4.411  -1.506   0.083  1.00  0.00     0.050 C 
BRANCH  19  22
HETATM   22  O3  UNL     1      -2.951  -2.957  -1.026  1.00  0.00    -0.386 OA
ATOM     23  H3  UNL     1      -3.746  -3.421  -1.260  1.00  0.00     0.211 HD
ENDBRANCH  19  22
ENDBRANCH   2  19
BRANCH   6  24
HETATM   24  C13 UNL     1       3.948  -0.781   0.107  1.00  0.00     0.035 C 
BRANCH  24  25
HETATM   25  C14 UNL     1       4.100  -2.230   0.423  1.00  0.00     0.165 C 
BRANCH  25  26
HETATM   26  O4  UNL     1       5.395  -2.597  -0.013  1.00  0.00    -0.401 OA
ATOM     27  H4  UNL     1       5.492  -3.520   0.188  1.00  0.00     0.209 HD
ENDBRANCH  25  26
ENDBRANCH  24  25
ENDBRANCH   6  24
TORSDOF 8
