REMARK  6 active torsions:
REMARK  status: ('A' for Active; 'I' for Inactive)
REMARK    1  A    between atoms: C2_2  and  N1_3 
REMARK    2  A    between atoms: C2_2  and  C10_17 
REMARK    3  A    between atoms: N1_3  and  N2_5 
REMARK    4  A    between atoms: N2_5  and  C3_7 
REMARK    5  A    between atoms: C3_7  and  N3_9 
REMARK    6  A    between atoms: N3_9  and  C4_11 
ROOT
HETATM    1  N1  UNL     1       1.278  -0.098  -1.481  1.00  0.00    -0.301 N 
ATOM      2  H1  UNL     1       0.545  -0.501  -2.065  1.00  0.00     0.186 HD
ENDROOT
BRANCH   1   3
HETATM    3  C2  UNL     1       2.094  -0.868  -0.879  1.00  0.00     0.051 C 
HETATM    4  C1  UNL     1       1.910  -2.306  -1.083  1.00  0.00     0.072 C 
BRANCH   3   5
HETATM    5  C10 UNL     1       3.129  -0.304  -0.025  1.00  0.00     0.096 A 
HETATM    6  N4  UNL     1       3.375   0.978   0.271  1.00  0.00    -0.348 N 
HETATM    7  C11 UNL     1       4.398   1.119   1.094  1.00  0.00     0.182 A 
ATOM      8  H4  UNL     1       2.833   1.759  -0.098  1.00  0.00     0.167 HD
HETATM    9  N5  UNL     1       4.830  -0.132   1.340  1.00  0.00    -0.341 N 
HETATM   10  C12 UNL     1       4.094  -1.034   0.685  1.00  0.00     0.133 A 
ATOM     11  H5  UNL     1       5.617  -0.361   1.947  1.00  0.00     0.167 HD
HETATM   12 CL1  UNL     1       4.258  -2.769   0.680  1.00  0.00    -0.062 Cl
ENDBRANCH   3   5
ENDBRANCH   1   3
BRANCH   1  13
HETATM   13  N2  UNL     1       1.370   1.273  -1.355  1.00  0.00    -0.276 N 
ATOM     14  H2  UNL     1       2.190   1.709  -1.777  1.00  0.00     0.189 HD
BRANCH  13  15
HETATM   15  C3  UNL     1       0.470   2.140  -0.716  1.00  0.00     0.186 C 
HETATM   16  S1  UNL     1       0.861   3.774  -0.702  1.00  0.00    -0.040 SA
BRANCH  15  17
HETATM   17  N3  UNL     1      -0.724   1.819  -0.081  1.00  0.00    -0.361 N 
ATOM     18  H3  UNL     1      -1.229   2.598   0.342  1.00  0.00     0.162 HD
BRANCH  17  19
HETATM   19  C4  UNL     1      -1.328   0.540   0.051  1.00  0.00     0.083 C 
HETATM   20  C5  UNL     1      -1.860   0.096  -1.302  1.00  0.00     0.025 C 
HETATM   21  C6  UNL     1      -3.389   0.243  -1.274  1.00  0.00     0.002 C 
HETATM   22  C7  UNL     1      -4.023  -0.706  -0.287  1.00  0.00     0.000 C 
HETATM   23  C8  UNL     1      -3.229  -0.733   1.000  1.00  0.00     0.002 C 
HETATM   24  C9  UNL     1      -2.449   0.555   1.083  1.00  0.00     0.025 C 
ENDBRANCH  17  19
ENDBRANCH  15  17
ENDBRANCH  13  15
ENDBRANCH   1  13
TORSDOF 6
