REMARK  5 active torsions:
REMARK  status: ('A' for Active; 'I' for Inactive)
REMARK    1  A    between atoms: C2_2  and  N1_3 
REMARK    2  A    between atoms: N1_3  and  C3_4 
REMARK    3  A    between atoms: N1_3  and  C8_15 
REMARK    4  A    between atoms: C3_4  and  C4_5 
REMARK    5  A    between atoms: C5_8  and  N3_9 
ROOT
HETATM    1  N1  UNL     1       0.435  -0.408  -0.297  1.00  0.00    -0.344 N 
ENDROOT
BRANCH   1   2
HETATM    2  C2  UNL     1       0.713  -1.586  -1.004  1.00  0.00     0.064 C 
HETATM    3  C1  UNL     1      -0.198  -2.711  -0.562  1.00  0.00     0.055 C 
ENDBRANCH   1   2
BRANCH   1   4
HETATM    4  C3  UNL     1       1.230   0.720  -0.534  1.00  0.00     0.126 C 
BRANCH   4   5
HETATM    5  C4  UNL     1       2.647   0.701  -0.025  1.00  0.00     0.063 A 
HETATM    6  N2  UNL     1       3.159  -0.266   0.702  1.00  0.00    -0.335 N 
HETATM    7  C5  UNL     1       4.418  -0.148   1.119  1.00  0.00     0.143 A 
ATOM      8  H2  UNL     1       2.605  -1.088   0.941  1.00  0.00     0.168 HD
HETATM    9  S1  UNL     1       4.911   1.349   0.486  1.00  0.00    -0.057 SA
HETATM   10  C6  UNL     1       3.463   1.772  -0.301  1.00  0.00     0.010 A 
HETATM   11  C7  UNL     1       3.131   3.006  -1.105  1.00  0.00     0.059 C 
BRANCH   7  12
HETATM   12  N3  UNL     1       5.149  -0.962   1.844  1.00  0.00    -0.380 N 
ATOM     13  H32 UNL     1       4.853  -1.861   2.224  1.00  0.00     0.158 HD
ATOM     14  H31 UNL     1       6.113  -0.872   2.163  1.00  0.00     0.158 HD
ENDBRANCH   7  12
ENDBRANCH   4   5
ENDBRANCH   1   4
BRANCH   1  15
HETATM   15  C8  UNL     1      -0.699  -0.266   0.491  1.00  0.00     0.114 C 
HETATM   16  C9  UNL     1      -2.023  -0.003  -0.027  1.00  0.00     0.070 A 
HETATM   17  C10 UNL     1      -3.043   0.012   0.963  1.00  0.00     0.027 A 
HETATM   18  C13 UNL     1      -2.320   0.261  -1.310  1.00  0.00     0.262 A 
HETATM   19  C11 UNL     1      -2.721  -0.277   2.382  1.00  0.00     0.069 C 
HETATM   20  N4  UNL     1      -4.285   0.293   0.567  1.00  0.00    -0.312 N 
HETATM   21  C12 UNL     1      -4.579   0.557  -0.726  1.00  0.00     0.327 A 
ATOM     22  H4  UNL     1      -5.034   0.309   1.259  1.00  0.00     0.170 HD
HETATM   23  O1  UNL     1      -5.746   0.823  -1.111  1.00  0.00    -0.247 OA
HETATM   24  N5  UNL     1      -3.607   0.543  -1.665  1.00  0.00    -0.275 N 
ATOM     25  H5  UNL     1      -3.835   0.743  -2.639  1.00  0.00     0.173 HD
HETATM   26  O2  UNL     1      -1.471   0.267  -2.211  1.00  0.00    -0.267 OA
ENDBRANCH   1  15
TORSDOF 5
