REMARK  7 active torsions:
REMARK  status: ('A' for Active; 'I' for Inactive)
REMARK    1  A    between atoms: C2_2  and  N1_3 
REMARK    2  A    between atoms: N1_3  and  C3_5 
REMARK    3  A    between atoms: C4_6  and  N2_7 
REMARK    4  A    between atoms: N3_10  and  C7_11 
REMARK    5  A    between atoms: C11_17  and  N5_18 
REMARK    6  A    between atoms: C12_23  and  N7_24 
REMARK    7  A    between atoms: N7_24  and  C13_26 
ROOT
HETATM    1  C3  UNL     1      -1.096   0.001   0.123  1.00  0.00     0.118 A 
HETATM    2  C4  UNL     1       0.149   0.454  -0.205  1.00  0.00     0.150 A 
HETATM    3  N4  UNL     1       0.233   1.473  -1.130  1.00  0.00    -0.175 N 
ATOM      4  H4  UNL     1       1.147   1.836  -1.401  1.00  0.00     0.186 HD
HETATM    5  C11 UNL     1      -0.881   1.992  -1.678  1.00  0.00     0.679 A 
HETATM    6  N6  UNL     1      -2.109   1.562  -1.368  1.00  0.00    -0.175 N 
ATOM      7  H6  UNL     1      -2.930   1.981  -1.805  1.00  0.00     0.186 HD
HETATM    8  C12 UNL     1      -2.245   0.570  -0.473  1.00  0.00     0.147 A 
ENDROOT
BRANCH   2   9
HETATM    9  N2  UNL     1       1.334  -0.033   0.391  1.00  0.00    -0.359 N 
HETATM   10  C5  UNL     1       1.859   0.744   1.513  1.00  0.00     0.168 C 
HETATM   11  C6  UNL     1       3.356   0.996   1.350  1.00  0.00     0.078 C 
HETATM   12  N3  UNL     1       3.811   0.229   0.266  1.00  0.00    -0.391 N 
HETATM   13  C9  UNL     1       3.481  -1.147   0.223  1.00  0.00     0.141 C 
HETATM   14  C10 UNL     1       1.969  -1.218  -0.091  1.00  0.00     0.144 C 
BRANCH  12  15
HETATM   15  C7  UNL     1       5.006   0.622  -0.384  1.00  0.00     0.117 C 
HETATM   16  C8  UNL     1       6.254   0.476   0.425  1.00  0.00     0.026 C 
ENDBRANCH  12  15
ENDBRANCH   2   9
BRANCH   1  17
HETATM   17  N1  UNL     1      -1.250  -1.079   1.031  1.00  0.00    -0.384 N 
ATOM     18  H1  UNL     1      -1.174  -0.941   2.039  1.00  0.00     0.159 HD
BRANCH  17  19
HETATM   19  C2  UNL     1      -1.521  -2.390   0.465  1.00  0.00     0.115 C 
HETATM   20  C1  UNL     1      -1.569  -3.486   1.496  1.00  0.00     0.026 C 
ENDBRANCH  17  19
ENDBRANCH   1  17
BRANCH   8  21
HETATM   21  N7  UNL     1      -3.342   0.065  -0.088  1.00  0.00    -0.370 N 
ATOM     22  H7  UNL     1      -3.243  -0.681   0.600  1.00  0.00     0.161 HD
BRANCH  21  23
HETATM   23  C13 UNL     1      -4.677   0.355  -0.445  1.00  0.00     0.075 C 
HETATM   24  C14 UNL     1      -5.090   1.804  -0.252  1.00  0.00     0.031 C 
HETATM   25  C15 UNL     1      -5.574  -0.466   0.494  1.00  0.00     0.031 C 
ENDBRANCH  21  23
ENDBRANCH   8  21
BRANCH   5  26
HETATM   26  N5  UNL     1      -0.781   2.945  -2.559  1.00  0.00    -0.234 N 
ATOM     27  H52 UNL     1       0.155   3.273  -2.795  1.00  0.00     0.174 HD
ATOM     28  H51 UNL     1      -1.625   3.338  -2.974  1.00  0.00     0.174 HD
ENDBRANCH   5  26
TORSDOF 7
