REMARK  3 active torsions:
REMARK  status: ('A' for Active; 'I' for Inactive)
REMARK    1  A    between atoms: C2_2  and  N1_3 
REMARK    2  A    between atoms: N1_3  and  C3_5 
REMARK    3  A    between atoms: C4_8  and  N3_9 
ROOT
HETATM    1  C3  UNL     1       0.058   0.596   0.462  1.00  0.00     0.149 A 
HETATM    2  N2  UNL     1      -1.051   1.300   0.770  1.00  0.00    -0.175 N 
ATOM      3  H2  UNL     1      -0.933   2.260   1.095  1.00  0.00     0.186 HD
HETATM    4  C4  UNL     1      -2.299   0.817   0.676  1.00  0.00     0.679 A 
HETATM    5  N4  UNL     1      -2.486  -0.429   0.257  1.00  0.00    -0.173 N 
ATOM      6  H4  UNL     1      -3.432  -0.804   0.184  1.00  0.00     0.186 HD
HETATM    7  C5  UNL     1      -1.440  -1.195  -0.070  1.00  0.00     0.169 A 
HETATM    8  N5  UNL     1      -1.367  -2.472  -0.516  1.00  0.00    -0.268 N 
ATOM      9  H5  UNL     1      -2.154  -3.098  -0.686  1.00  0.00     0.190 HD
HETATM   10  N6  UNL     1      -0.083  -2.760  -0.691  1.00  0.00    -0.240 N 
ATOM     11  H6  UNL     1       0.284  -3.653  -1.021  1.00  0.00     0.208 HD
HETATM   12  N7  UNL     1       0.640  -1.708  -0.370  1.00  0.00    -0.279 N 
ATOM     13  H7  UNL     1       1.658  -1.669  -0.417  1.00  0.00     0.189 HD
HETATM   14  C6  UNL     1      -0.142  -0.694   0.027  1.00  0.00     0.140 A 
ENDROOT
BRANCH   1  15
HETATM   15  N1  UNL     1       1.227   1.111   0.571  1.00  0.00    -0.374 N 
ATOM     16  H1  UNL     1       1.256   2.075   0.902  1.00  0.00     0.161 HD
BRANCH  15  17
HETATM   17  C2  UNL     1       2.485   0.520   0.293  1.00  0.00     0.116 C 
HETATM   18  C1  UNL     1       2.849   0.496  -1.160  1.00  0.00     0.026 C 
ENDBRANCH  15  17
ENDBRANCH   1  15
BRANCH   4  19
HETATM   19  N3  UNL     1      -3.344   1.526   0.983  1.00  0.00    -0.234 N 
ATOM     20  H32 UNL     1      -3.200   2.483   1.305  1.00  0.00     0.174 HD
ATOM     21  H31 UNL     1      -4.293   1.159   0.912  1.00  0.00     0.174 HD
ENDBRANCH   4  19
TORSDOF 3
