REMARK  1 active torsions:
REMARK  status: ('A' for Active; 'I' for Inactive)
REMARK    1  A    between atoms: N1_2  and  C2_4 
REMARK       I    between atoms: N4_10  and  C4_12 
REMARK       I    between atoms: C4_12  and  N5_13 
REMARK       I    between atoms: C4_12  and  N6_17 
ROOT
HETATM    1  C2  UNL     1      -2.186   0.164   0.469  1.00  0.00     0.162 A 
HETATM    2  N2  UNL     1      -1.261   1.112   0.607  1.00  0.00    -0.278 N 
ATOM      3  H2  UNL     1      -1.531   2.075   0.806  1.00  0.00     0.189 HD
HETATM    4  N3  UNL     1      -0.022   0.792   0.485  1.00  0.00    -0.278 N 
ATOM      5  H3  UNL     1       0.706   1.499   0.586  1.00  0.00     0.189 HD
HETATM    6  C3  UNL     1       0.298  -0.472   0.226  1.00  0.00     0.165 A 
HETATM    7  N4  UNL     1       1.495  -0.996   0.067  1.00  0.00    -0.320 N 
ATOM      8  H4  UNL     1       1.620  -1.989  -0.131  1.00  0.00     0.165 HD
HETATM    9  C4  UNL     1       2.625  -0.101   0.185  1.00  0.00     0.482 C 
HETATM   10  N5  UNL     1       3.881  -0.817   0.229  1.00  0.00    -0.033 N 
ATOM     11  H51 UNL     1       4.678  -0.186   0.312  1.00  0.00     0.278 HD
ATOM     12  H52 UNL     1       3.982  -1.437  -0.575  1.00  0.00     0.278 HD
ATOM     13  H53 UNL     1       3.883  -1.516   0.972  1.00  0.00     0.278 HD
HETATM   14  N6  UNL     1       2.647   0.732  -1.001  1.00  0.00    -0.033 N 
ATOM     15  H61 UNL     1       3.444   1.363  -0.918  1.00  0.00     0.278 HD
ATOM     16  H62 UNL     1       1.766   1.222  -1.159  1.00  0.00     0.278 HD
ATOM     17  H63 UNL     1       2.656   0.192  -1.866  1.00  0.00     0.278 HD
HETATM   18  S1  UNL     1      -1.239  -1.219   0.156  1.00  0.00    -0.016 SA
ENDROOT
BRANCH   1  19
HETATM   19  N1  UNL     1      -3.494   0.303   0.558  1.00  0.00    -0.374 N 
HETATM   20  C1  UNL     1      -4.266  -0.908   0.362  1.00  0.00     0.148 C 
ATOM     21  H1  UNL     1      -3.933   1.203   0.752  1.00  0.00     0.161 HD
ENDBRANCH   1  19
TORSDOF 1
