REMARK  3 active torsions:
REMARK  status: ('A' for Active; 'I' for Inactive)
REMARK    1  A    between atoms: C3_5  and  N2_6 
REMARK    2  A    between atoms: C4_9  and  N3_10 
REMARK    3  A    between atoms: N3_10  and  C5_12 
ROOT
HETATM    1  C5  UNL     1       2.929   0.154   0.600  1.00  0.00     0.245 C 
HETATM    2  C6  UNL     1       3.143   1.423  -0.123  1.00  0.00     0.078 C 
HETATM    3  N4  UNL     1       3.297   2.409  -0.701  1.00  0.00    -0.196 NA
ENDROOT
BRANCH   1   4
HETATM    4  N3  UNL     1       1.920  -0.656   0.006  1.00  0.00    -0.360 N 
ATOM      5  H3  UNL     1       2.242  -1.469  -0.519  1.00  0.00     0.162 HD
BRANCH   4   6
HETATM    6  C4  UNL     1       0.665  -0.480   0.057  1.00  0.00     0.161 A 
HETATM    7  C3  UNL     1      -0.159  -1.383  -0.589  1.00  0.00     0.146 A 
HETATM    8  N1  UNL     1      -1.498  -1.173  -0.519  1.00  0.00    -0.329 N 
HETATM    9  C2  UNL     1      -2.001  -0.117   0.159  1.00  0.00     0.093 A 
ATOM     10  H1  UNL     1      -2.134  -1.821  -0.984  1.00  0.00     0.168 HD
HETATM   11  C1  UNL     1      -3.468   0.131   0.247  1.00  0.00     0.090 C 
HETATM   12  N6  UNL     1      -1.153   0.737   0.774  1.00  0.00    -0.288 N 
HETATM   13  N5  UNL     1       0.163   0.570   0.731  1.00  0.00    -0.281 N 
ATOM     14  H6  UNL     1      -1.535   1.532   1.286  1.00  0.00     0.188 HD
ATOM     15  H5  UNL     1       0.784   1.228   1.202  1.00  0.00     0.188 HD
BRANCH   7  16
HETATM   16  N2  UNL     1       0.329  -2.389  -1.234  1.00  0.00    -0.382 N 
ATOM     17  H22 UNL     1      -0.279  -3.055  -1.711  1.00  0.00     0.157 HD
ATOM     18  H21 UNL     1       1.335  -2.547  -1.287  1.00  0.00     0.157 HD
ENDBRANCH   7  16
ENDBRANCH   4   6
ENDBRANCH   1   4
TORSDOF 3
