REMARK  8 active torsions:
REMARK  status: ('A' for Active; 'I' for Inactive)
REMARK    1  A    between atoms: C2_2  and  C4_4 
REMARK    2  A    between atoms: C4_4  and  C5_5 
REMARK    3  A    between atoms: C4_4  and  N2_12 
REMARK    4  A    between atoms: C5_5  and  O1_6 
REMARK    5  A    between atoms: N1_8  and  O2_10 
REMARK    6  A    between atoms: C8_15  and  N3_16 
REMARK       I    between atoms: N3_16  and  C9_18 
REMARK    7  A    between atoms: C9_18  and  C10_20 
REMARK    8  A    between atoms: C11_21  and  C12_22 
ROOT
HETATM    1  N3  UNL     1       0.554   0.232   0.033  1.00  0.00    -0.356 N 
ATOM      2  H3  UNL     1       1.080   0.807  -0.625  1.00  0.00     0.162 HD
HETATM    3  C9  UNL     1       1.277  -0.603   0.922  1.00  0.00     0.223 C 
HETATM    4  O3  UNL     1       0.570  -1.301   1.727  1.00  0.00    -0.273 OA
ENDROOT
BRANCH   1   5
HETATM    5  C8  UNL     1      -0.878   0.311   0.011  1.00  0.00     0.087 C 
HETATM    6  C7  UNL     1      -1.322   1.728   0.308  1.00  0.00     0.055 C 
HETATM    7  C6  UNL     1      -2.841   1.802   0.469  1.00  0.00     0.275 C 
HETATM    8  N2  UNL     1      -3.328   0.486   0.093  1.00  0.00     0.101 N 
HETATM    9  C22 UNL     1      -2.949   0.270  -1.263  1.00  0.00     0.275 C 
HETATM   10  C21 UNL     1      -1.490  -0.179  -1.266  1.00  0.00     0.055 C 
BRANCH   8  11
HETATM   11  C4  UNL     1      -4.697   0.309   0.428  1.00  0.00     0.301 C 
BRANCH  11  12
HETATM   12  C2  UNL     1      -5.653   1.240  -0.283  1.00  0.00     0.019 C 
HETATM   13  C1  UNL     1      -7.014   1.235   0.425  1.00  0.00     0.012 C 
HETATM   14  C3  UNL     1      -5.928   0.870  -1.708  1.00  0.00     0.012 C 
ENDBRANCH  11  12
BRANCH  11  15
HETATM   15  C5  UNL     1      -5.158  -1.093   0.457  1.00  0.00     0.170 C 
HETATM   16  N1  UNL     1      -4.484  -2.059  -0.052  1.00  0.00    -0.249 N 
ATOM     17  H1  UNL     1      -3.589  -1.858  -0.498  1.00  0.00     0.196 HD
BRANCH  15  18
HETATM   18  O1  UNL     1      -6.383  -1.377   1.067  1.00  0.00    -0.346 OA
ATOM     19  H1  UNL     1      -6.680  -2.279   1.086  1.00  0.00     0.219 HD
ENDBRANCH  15  18
BRANCH  16  20
HETATM   20  O2  UNL     1      -4.928  -3.338  -0.013  1.00  0.00    -0.288 OA
ATOM     21  H2  UNL     1      -4.429  -4.053  -0.390  1.00  0.00     0.244 HD
ENDBRANCH  16  20
ENDBRANCH  11  15
ENDBRANCH   8  11
ENDBRANCH   1   5
BRANCH   3  22
HETATM   22  C10 UNL     1       2.739  -0.702   0.963  1.00  0.00     0.098 C 
HETATM   23  C11 UNL     1       3.378   0.622   1.270  1.00  0.00     0.108 C 
HETATM   24  C13 UNL     1       4.837   0.686   0.947  1.00  0.00     0.023 C 
HETATM   25  C14 UNL     1       5.169   0.265  -0.453  1.00  0.00    -0.046 C 
HETATM   26  C15 UNL     1       6.431  -0.596  -0.426  1.00  0.00     0.015 C 
HETATM   27  C16 UNL     1       5.547   1.490  -1.304  1.00  0.00     0.015 C 
HETATM   28  C17 UNL     1       4.046  -0.408  -1.166  1.00  0.00     0.018 C 
HETATM   29  C18 UNL     1       3.230  -1.335  -0.301  1.00  0.00    -0.034 C 
HETATM   30  C19 UNL     1       4.084  -2.570   0.027  1.00  0.00     0.015 C 
HETATM   31  C20 UNL     1       2.113  -1.865  -1.187  1.00  0.00     0.015 C 
BRANCH  23  32
HETATM   32  C12 UNL     1       3.251   0.849   2.778  1.00  0.00     0.392 C 
HETATM   33  F1  UNL     1       3.894  -0.166   3.473  1.00  0.00    -0.171 F 
HETATM   34  F2  UNL     1       1.935   0.825   3.180  1.00  0.00    -0.171 F 
HETATM   35  F3  UNL     1       3.883   2.022   3.148  1.00  0.00    -0.171 F 
ENDBRANCH  23  32
ENDBRANCH   3  22
TORSDOF 8
