REMARK  5 active torsions:
REMARK  status: ('A' for Active; 'I' for Inactive)
REMARK    1  A    between atoms: N1_1  and  C1_4 
REMARK    2  A    between atoms: C7_12  and  C8_13 
REMARK    3  A    between atoms: C8_13  and  C9_14 
REMARK    4  A    between atoms: C15_22  and  C16_23 
REMARK    5  A    between atoms: C18_25  and  C19_26 
ROOT
HETATM    1  C1  UNL     1      -1.614   4.906   1.384  1.00  0.00     0.114 A 
HETATM    2  C2  UNL     1      -2.162   4.188   0.279  1.00  0.00     0.136 A 
HETATM    3  N2  UNL     1      -1.462   3.126  -0.066  1.00  0.00    -0.361 N 
ATOM      4  H2  UNL     1      -1.826   2.584  -0.850  1.00  0.00     0.165 HD
HETATM    5  C3  UNL     1      -0.345   2.678   0.482  1.00  0.00     0.060 A 
HETATM    6  C4  UNL     1       0.307   1.546  -0.059  1.00  0.00     0.015 A 
HETATM    7  C5  UNL     1       1.650   1.753  -0.440  1.00  0.00     0.018 A 
HETATM    8  C6  UNL     1       2.386   0.776  -1.054  1.00  0.00     0.026 A 
HETATM    9  C7  UNL     1       1.744  -0.424  -1.284  1.00  0.00     0.013 A 
HETATM   10  N3  UNL     1       0.494  -0.590  -0.920  1.00  0.00    -0.361 N 
ATOM     11  H3  UNL     1       0.065  -1.495  -1.116  1.00  0.00     0.165 HD
HETATM   12  C15 UNL     1      -0.288   0.360  -0.294  1.00  0.00     0.028 A 
HETATM   13  C24 UNL     1       0.182   3.370   1.547  1.00  0.00     0.120 A 
HETATM   14  N5  UNL     1      -0.526   4.512   1.965  1.00  0.00    -0.349 N 
ATOM     15  H5  UNL     1      -0.169   5.049   2.755  1.00  0.00     0.167 HD
ENDROOT
BRANCH  12  16
HETATM   16  C16 UNL     1      -1.549  -0.064   0.249  1.00  0.00     0.068 C 
HETATM   17  C17 UNL     1      -2.794  -0.130  -0.530  1.00  0.00     0.028 C 
HETATM   18  C18 UNL     1      -3.870  -0.911   0.195  1.00  0.00     0.124 C 
HETATM   19  C20 UNL     1      -3.347  -2.282   0.632  1.00  0.00     0.199 C 
HETATM   20  C21 UNL     1      -2.850  -2.967  -0.601  1.00  0.00     0.036 C 
HETATM   21  N4  UNL     1      -2.191  -2.096   1.462  1.00  0.00    -0.065 N 
HETATM   22  C22 UNL     1      -1.443  -2.399  -0.741  1.00  0.00     0.036 C 
HETATM   23  C23 UNL     1      -1.252  -1.602   0.539  1.00  0.00     0.196 C 
ATOM     24  H42 UNL     1      -2.338  -1.512   2.285  1.00  0.00     0.278 HD
ATOM     25  H41 UNL     1      -1.894  -2.921   1.983  1.00  0.00     0.278 HD
BRANCH  18  26
HETATM   26  C19 UNL     1      -4.518  -0.202   1.348  1.00  0.00     0.393 C 
HETATM   27  F1  UNL     1      -5.089   0.954   0.949  1.00  0.00    -0.171 F 
HETATM   28  F2  UNL     1      -5.581  -1.052   1.743  1.00  0.00    -0.171 F 
HETATM   29  F3  UNL     1      -3.744  -0.112   2.484  1.00  0.00    -0.171 F 
ENDBRANCH  18  26
ENDBRANCH  12  16
BRANCH   9  30
HETATM   30  C8  UNL     1       2.534  -1.564  -1.889  1.00  0.00     0.095 C 
BRANCH  30  31
HETATM   31  C9  UNL     1       3.893  -1.560  -1.299  1.00  0.00    -0.053 A 
HETATM   32  C10 UNL     1       4.045  -1.775   0.036  1.00  0.00     0.007 A 
HETATM   33  C11 UNL     1       5.350  -1.751   0.536  1.00  0.00     0.001 A 
HETATM   34  C12 UNL     1       6.404  -1.525  -0.272  1.00  0.00     0.000 A 
HETATM   35  C13 UNL     1       6.247  -1.303  -1.668  1.00  0.00     0.001 A 
HETATM   36  C14 UNL     1       4.961  -1.333  -2.122  1.00  0.00     0.007 A 
ENDBRANCH  30  31
ENDBRANCH   9  30
BRANCH   1  37
HETATM   37  N1  UNL     1      -2.308   5.949   1.668  1.00  0.00    -0.384 N 
ATOM     38  H12 UNL     1      -3.165   6.259   1.210  1.00  0.00     0.157 HD
ATOM     39  H11 UNL     1      -1.916   6.462   2.458  1.00  0.00     0.157 HD
ENDBRANCH   1  37
TORSDOF 5
