REMARK  7 active torsions:
REMARK  status: ('A' for Active; 'I' for Inactive)
REMARK    1  A    between atoms: C3_5  and  N2_6 
REMARK    2  A    between atoms: C5_12  and  C6_13 
REMARK    3  A    between atoms: C6_13  and  N4_14 
REMARK    4  A    between atoms: N4_14  and  C7_16 
REMARK    5  A    between atoms: C8_19  and  C9_20 
REMARK    6  A    between atoms: C9_20  and  N6_21 
REMARK    7  A    between atoms: C15_27  and  N7_28 
ROOT
HETATM    1  C7  UNL     1       0.473  -1.967  -0.215  1.00  0.00     0.680 A 
HETATM    2  N5  UNL     1      -0.565  -1.199   0.185  1.00  0.00    -0.194 N 
ATOM      3  H5  UNL     1      -0.383  -0.245   0.497  1.00  0.00     0.184 HD
HETATM    4  C8  UNL     1      -1.831  -1.654   0.184  1.00  0.00     0.058 A 
HETATM    5  C14 UNL     1      -2.036  -2.946  -0.244  1.00  0.00     0.076 A 
HETATM    6  C15 UNL     1      -0.985  -3.745  -0.657  1.00  0.00     0.116 A 
HETATM    7  N8  UNL     1       0.271  -3.228  -0.633  1.00  0.00    -0.177 N 
ATOM      8  H8  UNL     1       1.062  -3.798  -0.933  1.00  0.00     0.185 HD
ENDROOT
BRANCH   1   9
HETATM    9  N4  UNL     1       1.651  -1.446  -0.179  1.00  0.00    -0.222 N 
ATOM     10  H4  UNL     1       2.446  -2.011  -0.476  1.00  0.00     0.178 HD
BRANCH   9  11
HETATM   11  C6  UNL     1       1.889  -0.090   0.267  1.00  0.00     0.180 C 
BRANCH  11  12
HETATM   12  C5  UNL     1       3.329   0.225   0.172  1.00  0.00    -0.001 A 
HETATM   13  C2  UNL     1       3.841   1.458   0.536  1.00  0.00     0.032 A 
HETATM   14  C1  UNL     1       2.913   2.496   1.038  1.00  0.00     0.069 C 
HETATM   15  N1  UNL     1       5.168   1.639   0.410  1.00  0.00    -0.196 N 
HETATM   16  C3  UNL     1       6.005   0.697  -0.045  1.00  0.00     0.675 A 
ATOM     17  H1  UNL     1       5.558   2.543   0.675  1.00  0.00     0.184 HD
HETATM   18  N3  UNL     1       5.519  -0.507  -0.403  1.00  0.00    -0.202 N 
HETATM   19  C4  UNL     1       4.206  -0.732  -0.294  1.00  0.00     0.116 A 
ATOM     20  H3  UNL     1       6.143  -1.235  -0.752  1.00  0.00     0.183 HD
BRANCH  16  21
HETATM   21  N2  UNL     1       7.282   0.878  -0.164  1.00  0.00    -0.234 N 
ATOM     22  H22 UNL     1       7.650   1.790   0.107  1.00  0.00     0.174 HD
ATOM     23  H21 UNL     1       7.919   0.161  -0.510  1.00  0.00     0.174 HD
ENDBRANCH  16  21
ENDBRANCH  11  12
ENDBRANCH   9  11
ENDBRANCH   1   9
BRANCH   4  24
HETATM   24  C9  UNL     1      -2.921  -0.785   0.625  1.00  0.00     0.330 C 
BRANCH  24  25
HETATM   25  N6  UNL     1      -3.588  -0.062  -0.408  1.00  0.00     0.094 N 
HETATM   26  C10 UNL     1      -2.785   0.831  -1.173  1.00  0.00     0.273 C 
HETATM   27  C11 UNL     1      -3.664   2.061  -1.449  1.00  0.00     0.032 C 
HETATM   28  C12 UNL     1      -4.380   2.151  -0.093  1.00  0.00     0.032 C 
HETATM   29  C13 UNL     1      -4.680   0.688   0.157  1.00  0.00     0.273 C 
ENDBRANCH  24  25
ENDBRANCH   4  24
BRANCH   6  30
HETATM   30  N7  UNL     1      -1.164  -4.958  -1.061  1.00  0.00    -0.385 N 
ATOM     31  H72 UNL     1      -2.107  -5.346  -1.079  1.00  0.00     0.157 HD
ATOM     32  H71 UNL     1      -0.389  -5.547  -1.366  1.00  0.00     0.157 HD
ENDBRANCH   6  30
TORSDOF 7
