REMARK  8 active torsions:
REMARK  status: ('A' for Active; 'I' for Inactive)
REMARK    1  A    between atoms: C3_3  and  C4_4 
REMARK    2  A    between atoms: C6_9  and  N3_10 
REMARK    3  A    between atoms: N3_10  and  C7_11 
REMARK    4  A    between atoms: C11_17  and  N5_18 
REMARK    5  A    between atoms: N5_18  and  C12_20 
REMARK    6  A    between atoms: C12_20  and  C13_21 
REMARK    7  A    between atoms: C13_21  and  C14_22 
REMARK    8  A    between atoms: C16_28  and  N8_29 
ROOT
HETATM    1  C1  UNL     1      -7.543   2.510  -1.153  1.00  0.00     0.012 C 
HETATM    2  C2  UNL     1      -7.190   1.477  -0.643  1.00  0.00    -0.113 C 
HETATM    3  C3  UNL     1      -6.780   0.223  -0.018  1.00  0.00     0.139 C 
ENDROOT
BRANCH   3   4
HETATM    4  C4  UNL     1      -5.324   0.049   0.031  1.00  0.00     0.038 A 
HETATM    5  C5  UNL     1      -4.527   0.720   0.944  1.00  0.00     0.130 A 
HETATM    6  N1  UNL     1      -5.133   1.611   1.874  1.00  0.00    -0.082 NA
HETATM    7  N2  UNL     1      -3.213   0.514   0.930  1.00  0.00    -0.304 N 
HETATM    8  C6  UNL     1      -2.601  -0.338   0.047  1.00  0.00     0.265 A 
ATOM      9  H2  UNL     1      -2.635   1.012   1.607  1.00  0.00     0.171 HD
HETATM   10  N7  UNL     1      -3.449  -0.969  -0.829  1.00  0.00    -0.302 N 
HETATM   11  C16 UNL     1      -4.753  -0.817  -0.875  1.00  0.00     0.112 A 
ATOM     12  H7  UNL     1      -3.031  -1.611  -1.502  1.00  0.00     0.171 HD
BRANCH   8  13
HETATM   13  N3  UNL     1      -1.307  -0.583  -0.013  1.00  0.00    -0.335 NA
BRANCH  13  14
HETATM   14  C7  UNL     1      -0.147  -0.751  -0.087  1.00  0.00     0.264 A 
HETATM   15  N4  UNL     1       0.422  -1.932   0.300  1.00  0.00    -0.320 N 
HETATM   16  C8  UNL     1       1.725  -2.161   0.240  1.00  0.00     0.013 A 
ATOM     17  H4  UNL     1      -0.186  -2.672   0.652  1.00  0.00     0.169 HD
HETATM   18  C9  UNL     1       2.347  -3.449   0.661  1.00  0.00     0.068 C 
HETATM   19  C10 UNL     1       2.568  -1.168  -0.235  1.00  0.00     0.073 A 
HETATM   20  C11 UNL     1       2.018   0.041  -0.634  1.00  0.00     0.106 A 
HETATM   21  N6  UNL     1       0.691   0.218  -0.552  1.00  0.00    -0.302 N 
ATOM     22  H6  UNL     1       0.295   1.110  -0.848  1.00  0.00     0.171 HD
BRANCH  20  23
HETATM   23  N5  UNL     1       2.756   0.996  -1.077  1.00  0.00    -0.376 N 
ATOM     24  H5  UNL     1       2.288   1.859  -1.354  1.00  0.00     0.161 HD
BRANCH  23  25
HETATM   25  C12 UNL     1       4.190   0.948  -1.215  1.00  0.00     0.121 C 
BRANCH  25  26
HETATM   26  C13 UNL     1       4.774   1.585   0.016  1.00  0.00     0.019 C 
BRANCH  26  27
HETATM   27  C14 UNL     1       6.288   1.602   0.009  1.00  0.00    -0.003 C 
HETATM   28  C15 UNL     1       6.879   0.233  -0.057  1.00  0.00     0.005 C 
ENDBRANCH  26  27
ENDBRANCH  25  26
ENDBRANCH  23  25
ENDBRANCH  20  23
ENDBRANCH  13  14
ENDBRANCH   8  13
BRANCH  11  29
HETATM   29  N8  UNL     1      -5.486  -1.457  -1.742  1.00  0.00    -0.385 N 
ATOM     30  H82 UNL     1      -6.499  -1.339  -1.778  1.00  0.00     0.157 HD
ATOM     31  H81 UNL     1      -5.063  -2.098  -2.413  1.00  0.00     0.157 HD
ENDBRANCH  11  29
ENDBRANCH   3   4
TORSDOF 8
