REMARK  7 active torsions:
REMARK  status: ('A' for Active; 'I' for Inactive)
REMARK    1  A    between atoms: C2_2  and  C4_4 
REMARK    2  A    between atoms: C4_4  and  C5_5 
REMARK    3  A    between atoms: C9_10  and  N1_11 
REMARK    4  A    between atoms: C10_18  and  C11_19 
REMARK    5  A    between atoms: C11_19  and  C12_20 
REMARK    6  A    between atoms: C12_20  and  C13_21 
REMARK    7  A    between atoms: C17_29  and  N5_30 
ROOT
HETATM    1  C5  UNL     1      -2.302   0.224  -0.581  1.00  0.00     0.153 C 
HETATM    2  O1  UNL     1      -2.813  -0.196   0.628  1.00  0.00    -0.370 OA
HETATM    3  C6  UNL     1      -2.860  -1.558   0.762  1.00  0.00     0.108 C 
HETATM    4  C7  UNL     1      -3.885  -2.242  -0.082  1.00  0.00     0.050 C 
HETATM    5  C8  UNL     1      -3.175  -1.856   2.233  1.00  0.00     0.050 C 
HETATM    6  C9  UNL     1      -1.455  -2.135   0.537  1.00  0.00     0.414 C 
HETATM    7  N2  UNL     1      -1.025  -1.811  -0.788  1.00  0.00    -0.037 N 
ATOM      8  H21 UNL     1      -1.590  -2.278  -1.497  1.00  0.00     0.280 HD
ATOM      9  H22 UNL     1      -0.125  -2.235  -1.011  1.00  0.00     0.280 HD
HETATM   10  C10 UNL     1      -1.007  -0.394  -0.967  1.00  0.00     0.217 C 
ENDROOT
BRANCH  10  11
HETATM   11  C11 UNL     1       0.184   0.198  -0.263  1.00  0.00     0.038 C 
BRANCH  11  12
HETATM   12  C12 UNL     1       1.450  -0.493  -0.720  1.00  0.00     0.039 C 
BRANCH  12  13
HETATM   13  C13 UNL     1       2.672   0.077  -0.032  1.00  0.00     0.246 C 
HETATM   14  N3  UNL     1       2.793   1.473  -0.328  1.00  0.00    -0.065 N 
HETATM   15  C14 UNL     1       3.836   2.096   0.460  1.00  0.00     0.263 C 
ATOM     16  H32 UNL     1       2.935   1.632  -1.326  1.00  0.00     0.277 HD
ATOM     17  H31 UNL     1       1.902   1.956  -0.216  1.00  0.00     0.277 HD
HETATM   18  C15 UNL     1       4.952   1.093   0.739  1.00  0.00     0.302 C 
HETATM   19  N4  UNL     1       5.016   0.221  -0.436  1.00  0.00     0.118 N 
HETATM   20  C16 UNL     1       6.272  -0.474  -0.524  1.00  0.00     0.312 C 
HETATM   21  C17 UNL     1       3.904  -0.725  -0.281  1.00  0.00     0.446 C 
BRANCH  21  22
HETATM   22  N5  UNL     1       3.817  -1.590  -1.432  1.00  0.00    -0.045 N 
ATOM     23  H53 UNL     1       3.001  -2.198  -1.362  1.00  0.00     0.277 HD
ATOM     24  H52 UNL     1       3.563  -1.056  -2.263  1.00  0.00     0.277 HD
ATOM     25  H51 UNL     1       4.660  -2.139  -1.602  1.00  0.00     0.277 HD
ENDBRANCH  21  22
ENDBRANCH  12  13
ENDBRANCH  11  12
ENDBRANCH  10  11
BRANCH   1  26
HETATM   26  C4  UNL     1      -2.226   1.722  -0.635  1.00  0.00     0.038 C 
BRANCH  26  27
HETATM   27  C2  UNL     1      -3.552   2.400  -0.474  1.00  0.00    -0.020 C 
HETATM   28  C1  UNL     1      -4.212   2.073   0.850  1.00  0.00     0.009 C 
HETATM   29  C3  UNL     1      -3.300   3.901  -0.479  1.00  0.00     0.009 C 
ENDBRANCH  26  27
ENDBRANCH   1  26
BRANCH   6  30
HETATM   30  N1  UNL     1      -1.468  -3.565   0.759  1.00  0.00    -0.047 N 
ATOM     31  H13 UNL     1      -1.838  -3.806   1.678  1.00  0.00     0.276 HD
ATOM     32  H12 UNL     1      -2.171  -4.035   0.188  1.00  0.00     0.276 HD
ATOM     33  H11 UNL     1      -0.535  -3.948   0.610  1.00  0.00     0.276 HD
ENDBRANCH   6  30
TORSDOF 7
