REMARK  4 active torsions:
REMARK  status: ('A' for Active; 'I' for Inactive)
REMARK    1  A    between atoms: C2_2  and  C3_3 
REMARK    2  A    between atoms: C3_3  and  N1_4 
REMARK    3  A    between atoms: C6_10  and  N2_11 
REMARK    4  A    between atoms: N3_16  and  N4_18 
ROOT
HETATM    1  C1  UNL     1       0.712   0.800  -2.066  1.00  0.00     0.023 C 
HETATM    2  C2  UNL     1       0.762   0.280  -0.634  1.00  0.00     0.022 C 
HETATM    3  C4  UNL     1       1.106  -1.156  -0.645  1.00  0.00     0.019 C 
HETATM    4  C5  UNL     1       0.202  -1.717   0.459  1.00  0.00     0.040 C 
HETATM    5  C6  UNL     1      -1.095  -1.031   0.085  1.00  0.00     0.231 C 
HETATM    6  C7  UNL     1      -0.628   0.362  -0.109  1.00  0.00     0.043 C 
HETATM    7  N3  UNL     1      -1.310   1.425   0.136  1.00  0.00    -0.312 N 
ATOM      8  H3  UNL     1      -0.888   2.338  -0.035  1.00  0.00     0.185 HD
ENDROOT
BRANCH   2   9
HETATM    9  C3  UNL     1       1.669   1.173   0.137  1.00  0.00     0.244 C 
BRANCH   9  10
HETATM   10  N1  UNL     1       1.851   0.853   1.508  1.00  0.00    -0.078 N 
ATOM     11  H13 UNL     1       0.944   0.799   1.972  1.00  0.00     0.274 HD
ATOM     12  H12 UNL     1       2.162  -0.114   1.597  1.00  0.00     0.274 HD
ATOM     13  H11 UNL     1       2.473   1.465   2.036  1.00  0.00     0.274 HD
ENDBRANCH   9  10
ENDBRANCH   2   9
BRANCH   5  14
HETATM   14  N2  UNL     1      -2.102  -1.157   1.100  1.00  0.00    -0.070 N 
ATOM     15  H23 UNL     1      -2.261  -2.136   1.337  1.00  0.00     0.275 HD
ATOM     16  H22 UNL     1      -1.758  -0.823   2.000  1.00  0.00     0.275 HD
ATOM     17  H21 UNL     1      -2.976  -0.695   0.848  1.00  0.00     0.275 HD
ENDBRANCH   5  14
BRANCH   7  18
HETATM   18  N4  UNL     1      -2.612   1.360   0.629  1.00  0.00    -0.345 N 
ATOM     19  H42 UNL     1      -3.019   0.439   0.794  1.00  0.00     0.176 HD
ATOM     20  H41 UNL     1      -3.153   2.203   0.823  1.00  0.00     0.176 HD
ENDBRANCH   7  18
TORSDOF 4
