REMARK  9 active torsions:
REMARK  status: ('A' for Active; 'I' for Inactive)
REMARK    1  A    between atoms: C2_2  and  C3_3 
REMARK    2  A    between atoms: C3_3  and  N1_4 
REMARK    3  A    between atoms: N1_4  and  C4_6 
REMARK    4  A    between atoms: C5_11  and  N4_12 
REMARK    5  A    between atoms: N5_14  and  N6_16 
REMARK    6  A    between atoms: N6_16  and  C6_18 
REMARK    7  A    between atoms: C6_18  and  N7_19 
REMARK    8  A    between atoms: C6_18  and  C7_23 
REMARK    9  A    between atoms: C7_23  and  N8_24 
ROOT
HETATM    1  N4  UNL     1      -1.546  -2.126   1.156  1.00  0.00    -0.266 N 
ATOM      2  H4  UNL     1      -1.575  -2.878   1.845  1.00  0.00     0.190 HD
HETATM    3  N5  UNL     1      -2.560  -1.864   0.484  1.00  0.00    -0.243 N 
ATOM      4  H5  UNL     1      -3.414  -2.403   0.626  1.00  0.00     0.208 HD
ENDROOT
BRANCH   1   5
HETATM    5  C5  UNL     1      -0.349  -1.385   0.970  1.00  0.00     0.206 A 
HETATM    6  N3  UNL     1      -0.320  -0.037   1.118  1.00  0.00    -0.266 N 
HETATM    7  N2  UNL     1       0.804   0.636   0.941  1.00  0.00    -0.130 N 
ATOM      8  H3  UNL     1      -1.174   0.462   1.368  1.00  0.00     0.189 HD
HETATM    9  C4  UNL     1       1.952   0.009   0.608  1.00  0.00     0.696 A 
ATOM     10  H2  UNL     1       0.804   1.649   1.058  1.00  0.00     0.205 HD
HETATM   11  N9  UNL     1       1.947  -1.329   0.456  1.00  0.00    -0.152 N 
HETATM   12  C8  UNL     1       0.827  -2.012   0.631  1.00  0.00     0.306 A 
ATOM     13  H9  UNL     1       2.807  -1.817   0.206  1.00  0.00     0.188 HD
HETATM   14  O1  UNL     1       0.780  -3.279   0.496  1.00  0.00    -0.263 OA
BRANCH   9  15
HETATM   15  N1  UNL     1       3.023   0.683   0.443  1.00  0.00    -0.221 N 
ATOM     16  H1  UNL     1       3.011   1.696   0.563  1.00  0.00     0.178 HD
BRANCH  15  17
HETATM   17  C3  UNL     1       4.264   0.006   0.083  1.00  0.00     0.164 C 
BRANCH  17  18
HETATM   18  C2  UNL     1       5.355   0.947  -0.189  1.00  0.00    -0.017 C 
HETATM   19  C1  UNL     1       5.960   0.987  -1.367  1.00  0.00     0.008 C 
ENDBRANCH  17  18
ENDBRANCH  15  17
ENDBRANCH   9  15
ENDBRANCH   1   5
BRANCH   3  20
HETATM   20  N6  UNL     1      -2.538  -0.847  -0.454  1.00  0.00    -0.290 N 
ATOM     21  H6  UNL     1      -1.690  -0.663  -0.990  1.00  0.00     0.184 HD
BRANCH  20  22
HETATM   22  C6  UNL     1      -3.716  -0.051  -0.670  1.00  0.00     0.322 C 
BRANCH  22  23
HETATM   23  N7  UNL     1      -3.501   0.959  -1.685  1.00  0.00    -0.055 N 
ATOM     24  H73 UNL     1      -2.694   1.542  -1.465  1.00  0.00     0.276 HD
ATOM     25  H72 UNL     1      -3.166   0.546  -2.556  1.00  0.00     0.276 HD
ATOM     26  H71 UNL     1      -4.337   1.524  -1.838  1.00  0.00     0.276 HD
ENDBRANCH  22  23
BRANCH  22  27
HETATM   27  C7  UNL     1      -4.102   0.562   0.663  1.00  0.00     0.285 C 
BRANCH  27  28
HETATM   28  N8  UNL     1      -5.271   1.386   0.582  1.00  0.00    -0.076 N 
ATOM     29  H83 UNL     1      -5.160   2.106  -0.132  1.00  0.00     0.274 HD
ATOM     30  H82 UNL     1      -6.053   0.870   0.178  1.00  0.00     0.274 HD
ATOM     31  H81 UNL     1      -5.531   1.798   1.478  1.00  0.00     0.274 HD
ENDBRANCH  27  28
ENDBRANCH  22  27
ENDBRANCH  20  22
ENDBRANCH   3  20
TORSDOF 9
