REMARK  8 active torsions:
REMARK  status: ('A' for Active; 'I' for Inactive)
REMARK    1  A    between atoms: O1_2  and  C2_3 
REMARK    2  A    between atoms: C2_3  and  C3_4 
REMARK    3  A    between atoms: C3_4  and  C4_5 
REMARK    4  A    between atoms: C3_4  and  N3_10 
REMARK    5  A    between atoms: C4_5  and  N1_6 
REMARK    6  A    between atoms: N3_10  and  N4_11 
REMARK    7  A    between atoms: N4_11  and  C6_13 
REMARK    8  A    between atoms: C8_17  and  N6_18 
ROOT
HETATM    1  N1  UNL     1      -2.908   2.221  -0.914  1.00  0.00    -0.327 N 
ATOM      2  H1  UNL     1      -2.421   2.696  -0.154  1.00  0.00     0.171 HD
HETATM    3  C5  UNL     1      -3.920   2.908  -1.639  1.00  0.00     0.177 C 
HETATM    4  N2  UNL     1      -4.746   3.470  -2.208  1.00  0.00    -0.172 NA
ENDROOT
BRANCH   1   5
HETATM    5  C4  UNL     1      -2.561   0.854  -1.244  1.00  0.00     0.156 C 
BRANCH   5   6
HETATM    6  C3  UNL     1      -1.494   0.314  -0.333  1.00  0.00     0.141 C 
BRANCH   6   7
HETATM    7  C2  UNL     1      -1.975   0.327   1.071  1.00  0.00     0.191 C 
BRANCH   7   8
HETATM    8  O1  UNL     1      -3.079  -0.467   1.248  1.00  0.00    -0.394 OA
HETATM    9  C1  UNL     1      -2.903  -1.801   0.960  1.00  0.00     0.201 C 
ENDBRANCH   7   8
ENDBRANCH   6   7
BRANCH   6  10
HETATM   10  N3  UNL     1      -0.343   1.183  -0.481  1.00  0.00    -0.132 NA
BRANCH  10  11
HETATM   11  N4  UNL     1       0.720   0.832   0.305  1.00  0.00    -0.300 N 
ATOM     12  H4  UNL     1       0.754   1.191   1.259  1.00  0.00     0.182 HD
BRANCH  11  13
HETATM   13  C6  UNL     1       1.784  -0.009  -0.138  1.00  0.00     0.083 A 
HETATM   14  C7  UNL     1       1.713  -0.482  -1.436  1.00  0.00     0.138 A 
HETATM   15  N5  UNL     1       2.716  -1.276  -1.858  1.00  0.00    -0.200 N 
HETATM   16  C8  UNL     1       3.750  -1.607  -1.070  1.00  0.00     0.675 A 
ATOM     17  H5  UNL     1       2.688  -1.639  -2.811  1.00  0.00     0.183 HD
HETATM   18  N7  UNL     1       3.803  -1.139   0.190  1.00  0.00    -0.194 N 
HETATM   19  C9  UNL     1       2.838  -0.338   0.687  1.00  0.00     0.051 A 
ATOM     20  H7  UNL     1       4.592  -1.396   0.784  1.00  0.00     0.184 HD
HETATM   21  C10 UNL     1       2.886   0.186   2.079  1.00  0.00     0.071 C 
BRANCH  16  22
HETATM   22  N6  UNL     1       4.661  -2.372  -1.562  1.00  0.00    -0.234 N 
ATOM     23  H62 UNL     1       4.621  -2.727  -2.517  1.00  0.00     0.174 HD
ATOM     24  H61 UNL     1       5.447  -2.624  -0.963  1.00  0.00     0.174 HD
ENDBRANCH  16  22
ENDBRANCH  11  13
ENDBRANCH  10  11
ENDBRANCH   6  10
ENDBRANCH   5   6
ENDBRANCH   1   5
TORSDOF 8
