REMARK  11 active torsions:
REMARK  status: ('A' for Active; 'I' for Inactive)
REMARK    1  A    between atoms: C2_2  and  C3_3 
REMARK    2  A    between atoms: C3_3  and  O1_4 
REMARK    3  A    between atoms: C3_3  and  C4_6 
REMARK    4  A    between atoms: C4_6  and  N1_7 
REMARK    5  A    between atoms: C4_6  and  C10_21 
REMARK    6  A    between atoms: N1_7  and  C5_9 
REMARK    7  A    between atoms: C5_9  and  C6_10 
REMARK    8  A    between atoms: C8_12  and  C9_13 
REMARK    9  A    between atoms: C9_13  and  N2_14 
REMARK   10  A    between atoms: C10_21  and  N4_22 
REMARK   11  A    between atoms: C10_21  and  O3_26 
ROOT
HETATM    1  N1  UNL     1      -0.582  -0.073   0.543  1.00  0.00    -0.385 N 
ATOM      2  H1  UNL     1      -0.366   0.299   1.468  1.00  0.00     0.159 HD
ENDROOT
BRANCH   1   3
HETATM    3  C4  UNL     1      -1.851  -0.645   0.282  1.00  0.00     0.169 C 
BRANCH   3   4
HETATM    4  C3  UNL     1      -2.516   0.208  -0.759  1.00  0.00     0.167 C 
BRANCH   4   5
HETATM    5  C2  UNL     1      -2.636   1.577  -0.144  1.00  0.00    -0.004 C 
HETATM    6  C1  UNL     1      -3.817   2.148   0.061  1.00  0.00     0.009 C 
ENDBRANCH   4   5
BRANCH   4   7
HETATM    7  O1  UNL     1      -3.784  -0.213  -1.125  1.00  0.00    -0.390 OA
ATOM      8  H1  UNL     1      -3.708  -1.077  -1.513  1.00  0.00     0.210 HD
ENDBRANCH   4   7
ENDBRANCH   3   4
BRANCH   3   9
HETATM    9  C10 UNL     1      -1.793  -2.103  -0.107  1.00  0.00     0.341 C 
BRANCH   9  10
HETATM   10  N4  UNL     1      -3.115  -2.650  -0.332  1.00  0.00    -0.051 N 
ATOM     11  H43 UNL     1      -3.720  -2.504   0.476  1.00  0.00     0.277 HD
ATOM     12  H42 UNL     1      -3.632  -2.102  -1.019  1.00  0.00     0.277 HD
ATOM     13  H41 UNL     1      -3.076  -3.635  -0.595  1.00  0.00     0.277 HD
ENDBRANCH   9  10
BRANCH   9  14
HETATM   14  O3  UNL     1      -1.214  -2.830   0.927  1.00  0.00    -0.368 OA
ATOM     15  H3  UNL     1      -1.178  -3.747   0.682  1.00  0.00     0.212 HD
ENDBRANCH   9  14
ENDBRANCH   3   9
ENDBRANCH   1   3
BRANCH   1  16
HETATM   16  C5  UNL     1       0.375  -0.022  -0.479  1.00  0.00     0.115 C 
BRANCH  16  17
HETATM   17  C6  UNL     1       1.603   0.654   0.086  1.00  0.00     0.072 A 
HETATM   18  C7  UNL     1       2.874   0.322  -0.250  1.00  0.00     0.069 A 
HETATM   19  C8  UNL     1       3.691   1.177   0.474  1.00  0.00     0.104 A 
HETATM   20  O2  UNL     1       2.896   1.943   1.177  1.00  0.00    -0.240 OA
HETATM   21  N3  UNL     1       1.648   1.661   0.972  1.00  0.00    -0.260 N 
ATOM     22  H3  UNL     1       0.847   2.120   1.405  1.00  0.00     0.195 HD
BRANCH  19  23
HETATM   23  C9  UNL     1       5.179   1.181   0.425  1.00  0.00     0.296 C 
BRANCH  23  24
HETATM   24  N2  UNL     1       5.683  -0.182   0.397  1.00  0.00    -0.073 N 
ATOM     25  H23 UNL     1       5.329  -0.736   1.177  1.00  0.00     0.274 HD
ATOM     26  H22 UNL     1       5.278  -0.723  -0.367  1.00  0.00     0.274 HD
ATOM     27  H21 UNL     1       6.702  -0.179   0.363  1.00  0.00     0.274 HD
ENDBRANCH  23  24
ENDBRANCH  19  23
ENDBRANCH  16  17
ENDBRANCH   1  16
TORSDOF 11
