REMARK  13 active torsions:
REMARK  status: ('A' for Active; 'I' for Inactive)
REMARK    1  A    between atoms: N1_1  and  C1_5 
REMARK    2  A    between atoms: C1_5  and  C2_6 
REMARK    3  A    between atoms: C1_5  and  C9_17 
REMARK    4  A    between atoms: C2_6  and  O1_7 
REMARK    5  A    between atoms: O1_7  and  C3_8 
REMARK    6  A    between atoms: C7_12  and  N2_13 
REMARK    7  A    between atoms: C9_17  and  N3_18 
REMARK    8  A    between atoms: C9_17  and  C10_22 
REMARK    9  A    between atoms: C10_22  and  O4_23 
REMARK   10  A    between atoms: C10_22  and  N4_25 
REMARK   11  A    between atoms: N4_25  and  C11_28 
REMARK   12  A    between atoms: C11_28  and  N5_30 
REMARK   13  A    between atoms: N5_30  and  O5_31 
ROOT
HETATM    1  C1  UNL     1       0.513   1.693  -0.502  1.00  0.00     0.242 C 
ENDROOT
BRANCH   1   2
HETATM    2  N1  UNL     1       0.523   1.580  -1.946  1.00  0.00    -0.071 N 
ATOM      3  H13 UNL     1       0.045   0.748  -2.291  1.00  0.00     0.274 HD
ATOM      4  H12 UNL     1      -0.071   2.267  -2.411  1.00  0.00     0.274 HD
ATOM      5  H11 UNL     1       1.502   1.633  -2.228  1.00  0.00     0.274 HD
ENDBRANCH   1   2
BRANCH   1   6
HETATM    6  C2  UNL     1      -0.955   1.614  -0.079  1.00  0.00     0.210 C 
BRANCH   6   7
HETATM    7  O1  UNL     1      -1.444   0.356  -0.526  1.00  0.00    -0.349 OA
BRANCH   7   8
HETATM    8  C3  UNL     1      -2.774   0.071  -0.245  1.00  0.00     0.071 A 
HETATM    9  C4  UNL     1      -3.610   0.943   0.432  1.00  0.00     0.037 A 
HETATM   10  C5  UNL     1      -4.929   0.633   0.697  1.00  0.00     0.005 A 
HETATM   11  C6  UNL     1      -5.472  -0.568   0.295  1.00  0.00     0.036 A 
HETATM   12  C7  UNL     1      -4.647  -1.447  -0.383  1.00  0.00     0.105 A 
HETATM   13  C8  UNL     1      -3.334  -1.125  -0.640  1.00  0.00     0.072 A 
BRANCH  12  14
HETATM   14  N2  UNL     1      -5.171  -2.692  -0.812  1.00  0.00    -0.116 N 
HETATM   15  O2  UNL     1      -6.366  -2.995  -0.582  1.00  0.00    -0.532 OA
HETATM   16  O3  UNL     1      -4.336  -3.548  -1.482  1.00  0.00    -0.532 OA
ENDBRANCH  12  14
ENDBRANCH   7   8
ENDBRANCH   6   7
ENDBRANCH   1   6
BRANCH   1  17
HETATM   17  C9  UNL     1       1.219   0.556   0.171  1.00  0.00     0.271 C 
BRANCH  17  18
HETATM   18  N3  UNL     1       1.134   0.793   1.613  1.00  0.00    -0.069 N 
ATOM     19  H33 UNL     1       1.491   1.707   1.891  1.00  0.00     0.275 HD
ATOM     20  H32 UNL     1       0.177   0.922   1.942  1.00  0.00     0.275 HD
ATOM     21  H31 UNL     1       1.615   0.019   2.071  1.00  0.00     0.275 HD
ENDBRANCH  17  18
BRANCH  17  22
HETATM   22  C10 UNL     1       2.674   0.456  -0.210  1.00  0.00     0.354 C 
BRANCH  22  23
HETATM   23  O4  UNL     1       2.774   0.232  -1.569  1.00  0.00    -0.368 OA
ATOM     24  H4  UNL     1       3.691   0.169  -1.809  1.00  0.00     0.212 HD
ENDBRANCH  22  23
BRANCH  22  25
HETATM   25  N4  UNL     1       3.239  -0.646   0.557  1.00  0.00    -0.017 N 
ATOM     26  H42 UNL     1       3.079  -0.526   1.557  1.00  0.00     0.283 HD
ATOM     27  H41 UNL     1       2.713  -1.508   0.416  1.00  0.00     0.283 HD
BRANCH  25  28
HETATM   28  C11 UNL     1       4.647  -0.828   0.262  1.00  0.00     0.380 C 
HETATM   29  S1  UNL     1       5.622   0.648   0.653  1.00  0.00    -0.042 SA
BRANCH  28  30
HETATM   30  N5  UNL     1       5.138  -1.919   1.054  1.00  0.00    -0.058 NA
BRANCH  30  31
HETATM   31  O5  UNL     1       4.517  -3.077   0.820  1.00  0.00    -0.293 OA
ATOM     32  H5  UNL     1       4.842  -3.799   1.344  1.00  0.00     0.238 HD
ENDBRANCH  30  31
ENDBRANCH  28  30
ENDBRANCH  25  28
ENDBRANCH  22  25
ENDBRANCH  17  22
ENDBRANCH   1  17
TORSDOF 13
