REMARK  15 active torsions:
REMARK  status: ('A' for Active; 'I' for Inactive)
REMARK    1  A    between atoms: C2_2  and  N1_3 
REMARK    2  A    between atoms: C2_2  and  C3_7 
REMARK    3  A    between atoms: C3_7  and  S1_8 
REMARK    4  A    between atoms: S1_8  and  C4_9 
REMARK    5  A    between atoms: C4_9  and  C5_10 
REMARK    6  A    between atoms: C5_10  and  N2_11 
REMARK    7  A    between atoms: C5_10  and  C12_30 
REMARK    8  A    between atoms: N2_11  and  C6_13 
REMARK    9  A    between atoms: C9_17  and  N4_18 
REMARK   10  A    between atoms: N4_18  and  C10_20 
REMARK   11  A    between atoms: C10_20  and  C11_21 
REMARK   12  A    between atoms: C11_21  and  N5_22 
REMARK   13  A    between atoms: N6_26  and  N7_27 
REMARK   14  A    between atoms: C12_30  and  N8_31 
REMARK   15  A    between atoms: C12_30  and  O1_35 
ROOT
HETATM    1  N2  UNL     1       0.344   0.630   0.823  1.00  0.00    -0.364 N 
ATOM      2  H2  UNL     1       0.522   0.692   1.825  1.00  0.00     0.161 HD
ENDROOT
BRANCH   1   3
HETATM    3  C5  UNL     1       1.390   1.067  -0.067  1.00  0.00     0.148 C 
BRANCH   3   4
HETATM    4  C4  UNL     1       1.966   0.030  -0.956  1.00  0.00     0.103 C 
BRANCH   4   5
HETATM    5  S1  UNL     1       2.731  -1.384  -0.205  1.00  0.00    -0.165 SA
BRANCH   5   6
HETATM    6  C3  UNL     1       4.451  -1.651  -0.587  1.00  0.00     0.106 C 
BRANCH   6   7
HETATM    7  C2  UNL     1       5.430  -0.630  -0.160  1.00  0.00     0.188 C 
HETATM    8  C1  UNL     1       6.815  -1.188  -0.631  1.00  0.00     0.040 C 
BRANCH   7   9
HETATM    9  N1  UNL     1       5.335   0.608  -0.930  1.00  0.00    -0.075 N 
ATOM     10  H13 UNL     1       6.121   1.249  -0.822  1.00  0.00     0.274 HD
ATOM     11  H12 UNL     1       5.440   0.501  -1.939  1.00  0.00     0.274 HD
ATOM     12  H11 UNL     1       4.433   0.972  -0.623  1.00  0.00     0.274 HD
ENDBRANCH   7   9
ENDBRANCH   6   7
ENDBRANCH   5   6
ENDBRANCH   4   5
ENDBRANCH   3   4
BRANCH   3  13
HETATM   13  C12 UNL     1       2.358   1.981   0.641  1.00  0.00     0.339 C 
BRANCH  13  14
HETATM   14  N8  UNL     1       1.543   3.081   1.167  1.00  0.00    -0.051 N 
ATOM     15  H83 UNL     1       0.980   3.550   0.458  1.00  0.00     0.277 HD
ATOM     16  H82 UNL     1       0.767   2.773   1.752  1.00  0.00     0.277 HD
ATOM     17  H81 UNL     1       2.198   3.699   1.646  1.00  0.00     0.277 HD
ENDBRANCH  13  14
BRANCH  13  18
HETATM   18  O1  UNL     1       2.993   1.409   1.722  1.00  0.00    -0.368 OA
ATOM     19  H1  UNL     1       3.603   1.985   2.168  1.00  0.00     0.212 HD
ENDBRANCH  13  18
ENDBRANCH   3  13
ENDBRANCH   1   3
BRANCH   1  20
HETATM   20  C6  UNL     1      -0.920   0.118   0.409  1.00  0.00     0.157 A 
HETATM   21  C7  UNL     1      -1.425  -0.101  -0.837  1.00  0.00     0.159 A 
HETATM   22  N3  UNL     1      -2.701  -0.585  -0.792  1.00  0.00    -0.192 N 
HETATM   23  C8  UNL     1      -3.442  -0.963  -1.999  1.00  0.00     0.175 C 
HETATM   24  C9  UNL     1      -3.009  -0.670   0.505  1.00  0.00     0.702 A 
HETATM   25  N6  UNL     1      -1.916  -0.242   1.242  1.00  0.00    -0.075 N 
BRANCH  24  26
HETATM   26  N4  UNL     1      -4.231  -1.010   1.115  1.00  0.00    -0.223 N 
ATOM     27  H4  UNL     1      -4.180  -1.152   2.124  1.00  0.00     0.177 HD
BRANCH  26  28
HETATM   28  C10 UNL     1      -5.519  -1.187   0.557  1.00  0.00     0.165 C 
BRANCH  28  29
HETATM   29  C11 UNL     1      -6.133   0.124   0.065  1.00  0.00     0.249 C 
BRANCH  29  30
HETATM   30  N5  UNL     1      -7.451  -0.133  -0.485  1.00  0.00    -0.078 N 
ATOM     31  H53 UNL     1      -7.432  -0.846  -1.214  1.00  0.00     0.274 HD
ATOM     32  H52 UNL     1      -8.057  -0.617   0.178  1.00  0.00     0.274 HD
ATOM     33  H51 UNL     1      -7.861   0.742  -0.813  1.00  0.00     0.274 HD
ENDBRANCH  29  30
ENDBRANCH  28  29
ENDBRANCH  26  28
ENDBRANCH  24  26
BRANCH  25  34
HETATM   34  N7  UNL     1      -1.860  -0.186   2.632  1.00  0.00    -0.322 N 
ATOM     35  H72 UNL     1      -1.056   0.129   3.174  1.00  0.00     0.178 HD
ATOM     36  H71 UNL     1      -2.614  -0.459   3.263  1.00  0.00     0.178 HD
ENDBRANCH  25  34
ENDBRANCH   1  20
TORSDOF 15
