REMARK  14 active torsions:
REMARK  status: ('A' for Active; 'I' for Inactive)
REMARK    1  A    between atoms: N1_1  and  C1_4 
REMARK    2  A    between atoms: C2_7  and  S1_8 
REMARK    3  A    between atoms: S1_8  and  C3_9 
REMARK    4  A    between atoms: C3_9  and  C4_10 
REMARK    5  A    between atoms: C4_10  and  N3_11 
REMARK    6  A    between atoms: C4_10  and  C5_15 
REMARK    7  A    between atoms: C5_15  and  N4_16 
REMARK    8  A    between atoms: N4_16  and  C6_18 
REMARK    9  A    between atoms: C6_18  and  O1_19 
REMARK   10  A    between atoms: C6_18  and  C7_21 
REMARK   11  A    between atoms: C6_18  and  C8_26 
REMARK   12  A    between atoms: C7_21  and  N5_22 
REMARK   13  A    between atoms: C8_26  and  S2_27 
REMARK   14  A    between atoms: S2_27  and  C9_28 
ROOT
HETATM    1  C5  UNL     1      -0.281   0.441  -0.866  1.00  0.00     0.150 C 
ENDROOT
BRANCH   1   2
HETATM    2  C4  UNL     1       1.044   0.250  -1.580  1.00  0.00     0.210 C 
BRANCH   2   3
HETATM    3  C3  UNL     1       1.642  -1.082  -1.352  1.00  0.00     0.116 C 
BRANCH   3   4
HETATM    4  S1  UNL     1       2.306  -1.443   0.246  1.00  0.00    -0.090 SA
BRANCH   4   5
HETATM    5  C2  UNL     1       3.830  -0.556   0.531  1.00  0.00     0.174 A 
HETATM    6  N2  UNL     1       4.532   0.253  -0.272  1.00  0.00    -0.168 N 
HETATM    7  C1  UNL     1       5.621   0.666   0.391  1.00  0.00     0.692 A 
ATOM      8  H2  UNL     1       4.281   0.511  -1.226  1.00  0.00     0.186 HD
HETATM    9  N9  UNL     1       5.628   0.124   1.628  1.00  0.00    -0.130 N 
HETATM   10  N8  UNL     1       4.546  -0.610   1.703  1.00  0.00    -0.265 N 
ATOM     11  H9  UNL     1       6.331   0.259   2.354  1.00  0.00     0.205 HD
ATOM     12  H8  UNL     1       4.271  -1.151   2.523  1.00  0.00     0.189 HD
BRANCH   7  13
HETATM   13  N1  UNL     1       6.553   1.470  -0.064  1.00  0.00    -0.233 N 
ATOM     14  H12 UNL     1       6.548   1.879  -0.998  1.00  0.00     0.174 HD
ATOM     15  H11 UNL     1       7.382   1.784   0.441  1.00  0.00     0.174 HD
ENDBRANCH   7  13
ENDBRANCH   4   5
ENDBRANCH   3   4
ENDBRANCH   2   3
BRANCH   2  16
HETATM   16  N3  UNL     1       1.914   1.377  -1.385  1.00  0.00    -0.073 N 
ATOM     17  H33 UNL     1       2.325   1.338  -0.452  1.00  0.00     0.274 HD
ATOM     18  H32 UNL     1       2.750   1.271  -1.960  1.00  0.00     0.274 HD
ATOM     19  H31 UNL     1       1.501   2.296  -1.542  1.00  0.00     0.274 HD
ENDBRANCH   2  16
ENDBRANCH   1   2
BRANCH   1  20
HETATM   20  N4  UNL     1      -1.249  -0.503  -1.276  1.00  0.00    -0.388 N 
ATOM     21  H4  UNL     1      -1.019  -1.224  -1.960  1.00  0.00     0.156 HD
BRANCH  20  22
HETATM   22  C6  UNL     1      -2.548  -0.425  -0.714  1.00  0.00     0.160 C 
BRANCH  22  23
HETATM   23  O1  UNL     1      -3.419   0.396  -1.389  1.00  0.00    -0.369 OA
ATOM     24  H1  UNL     1      -4.290   0.448  -1.012  1.00  0.00     0.212 HD
ENDBRANCH  22  23
BRANCH  22  25
HETATM   25  C7  UNL     1      -3.079  -1.884  -0.742  1.00  0.00     0.290 C 
BRANCH  25  26
HETATM   26  N5  UNL     1      -2.165  -2.676   0.058  1.00  0.00    -0.075 N 
ATOM     27  H53 UNL     1      -1.194  -2.595  -0.243  1.00  0.00     0.274 HD
ATOM     28  H52 UNL     1      -2.038  -2.312   1.002  1.00  0.00     0.274 HD
ATOM     29  H51 UNL     1      -2.514  -3.634   0.040  1.00  0.00     0.274 HD
ENDBRANCH  25  26
ENDBRANCH  22  25
BRANCH  22  30
HETATM   30  C8  UNL     1      -2.531  -0.055   0.745  1.00  0.00     0.144 C 
BRANCH  30  31
HETATM   31  S2  UNL     1      -4.158   0.068   1.495  1.00  0.00    -0.086 SA
BRANCH  31  32
HETATM   32  C9  UNL     1      -5.092   1.466   0.944  1.00  0.00     0.188 A 
HETATM   33  N6  UNL     1      -6.341   1.962   1.097  1.00  0.00    -0.218 N 
HETATM   34  O2  UNL     1      -6.098   2.974   0.333  1.00  0.00    -0.153 OA
ATOM     35  H6  UNL     1      -7.162   1.654   1.618  1.00  0.00     0.199 HD
HETATM   36  N7  UNL     1      -4.872   2.523   0.162  1.00  0.00    -0.218 N 
ATOM     37  H7  UNL     1      -4.065   2.855  -0.366  1.00  0.00     0.199 HD
ENDBRANCH  31  32
ENDBRANCH  30  31
ENDBRANCH  22  30
ENDBRANCH  20  22
ENDBRANCH   1  20
TORSDOF 14
