REMARK  13 active torsions:
REMARK  status: ('A' for Active; 'I' for Inactive)
REMARK    1  A    between atoms: C2_2  and  N1_3 
REMARK    2  A    between atoms: C2_2  and  C13_29 
REMARK    3  A    between atoms: N1_3  and  C3_6 
REMARK    4  A    between atoms: C3_6  and  O1_7 
REMARK    5  A    between atoms: C3_6  and  N2_9 
REMARK    6  A    between atoms: N2_9  and  C4_11 
REMARK    7  A    between atoms: C4_11  and  C5_12 
REMARK    8  A    between atoms: C4_11  and  C6_17 
REMARK    9  A    between atoms: C5_12  and  N3_13 
REMARK   10  A    between atoms: C6_17  and  O2_18 
REMARK   11  A    between atoms: C6_17  and  N4_20 
REMARK   12  A    between atoms: N4_20  and  C7_22 
REMARK   13  A    between atoms: C7_22  and  C9_24 
ROOT
HETATM    1  N2  UNL     1       0.743   0.309   0.216  1.00  0.00    -0.365 N 
ATOM      2  H2  UNL     1       0.974   1.120  -0.359  1.00  0.00     0.158 HD
ENDROOT
BRANCH   1   3
HETATM    3  C3  UNL     1       1.555   0.050   1.316  1.00  0.00     0.423 C 
BRANCH   3   4
HETATM    4  N1  UNL     1       2.851   0.779   1.248  1.00  0.00    -0.021 N 
ATOM      5  H12 UNL     1       3.343   0.806   2.141  1.00  0.00     0.283 HD
ATOM      6  H11 UNL     1       2.739   1.786   1.130  1.00  0.00     0.283 HD
BRANCH   4   7
HETATM    7  C2  UNL     1       3.624   0.168   0.194  1.00  0.00     0.256 C 
HETATM    8  C1  UNL     1       3.927  -1.287   0.506  1.00  0.00     0.049 C 
BRANCH   7   9
HETATM    9  C13 UNL     1       4.905   0.816  -0.060  1.00  0.00     0.141 A 
HETATM   10  N5  UNL     1       5.371   1.131  -1.283  1.00  0.00    -0.273 N 
HETATM   11  N6  UNL     1       6.548   1.692  -1.183  1.00  0.00    -0.225 N 
ATOM     12  H5  UNL     1       4.878   0.958  -2.159  1.00  0.00     0.189 HD
HETATM   13  N7  UNL     1       6.876   1.757   0.100  1.00  0.00    -0.005 NA
ATOM     14  H6  UNL     1       7.118   2.024  -1.961  1.00  0.00     0.205 HD
HETATM   15  N8  UNL     1       5.875   1.224   0.779  1.00  0.00    -0.269 N 
ATOM     16  H8  UNL     1       5.842   1.135   1.795  1.00  0.00     0.185 HD
ENDBRANCH   7   9
ENDBRANCH   4   7
ENDBRANCH   3   4
BRANCH   3  17
HETATM   17  O1  UNL     1       0.939   0.723   2.428  1.00  0.00    -0.355 OA
ATOM     18  H1  UNL     1       0.112   0.258   2.471  1.00  0.00     0.213 HD
ENDBRANCH   3  17
ENDBRANCH   1   3
BRANCH   1  19
HETATM   19  C4  UNL     1      -0.360  -0.453  -0.161  1.00  0.00     0.154 C 
BRANCH  19  20
HETATM   20  C5  UNL     1       0.026  -1.889  -0.585  1.00  0.00     0.258 C 
BRANCH  20  21
HETATM   21  N3  UNL     1       0.928  -1.832  -1.722  1.00  0.00    -0.077 N 
ATOM     22  H33 UNL     1       0.539  -1.293  -2.496  1.00  0.00     0.274 HD
ATOM     23  H32 UNL     1       1.746  -1.252  -1.536  1.00  0.00     0.274 HD
ATOM     24  H31 UNL     1       1.183  -2.779  -2.002  1.00  0.00     0.274 HD
ENDBRANCH  20  21
ENDBRANCH  19  20
BRANCH  19  25
HETATM   25  C6  UNL     1      -1.458  -0.534   0.870  1.00  0.00     0.238 C 
BRANCH  25  26
HETATM   26  O2  UNL     1      -1.009  -1.176   2.063  1.00  0.00    -0.375 OA
ATOM     27  H2  UNL     1      -1.701  -1.227   2.712  1.00  0.00     0.212 HD
ENDBRANCH  25  26
BRANCH  25  28
HETATM   28  N4  UNL     1      -2.671  -1.111   0.538  1.00  0.00    -0.385 N 
ATOM     29  H4  UNL     1      -2.908  -1.987   1.004  1.00  0.00     0.156 HD
BRANCH  28  30
HETATM   30  C7  UNL     1      -3.595  -0.613  -0.368  1.00  0.00     0.132 C 
HETATM   31  C8  UNL     1      -3.216  -0.488  -1.802  1.00  0.00     0.039 C 
BRANCH  30  32
HETATM   32  C9  UNL     1      -4.251   0.669   0.081  1.00  0.00     0.074 A 
HETATM   33  C10 UNL     1      -5.597   0.900  -0.062  1.00  0.00     0.037 A 
HETATM   34  C11 UNL     1      -5.842   2.169   0.459  1.00  0.00     0.027 A 
HETATM   35  C12 UNL     1      -4.617   2.628   0.889  1.00  0.00     0.142 A 
HETATM   36  O3  UNL     1      -3.737   1.716   0.643  1.00  0.00    -0.325 OA
ENDBRANCH  30  32
ENDBRANCH  28  30
ENDBRANCH  25  28
ENDBRANCH  19  25
ENDBRANCH   1  19
TORSDOF 13
