REMARK  8 active torsions:
REMARK  status: ('A' for Active; 'I' for Inactive)
REMARK    1  A    between atoms: N1_1  and  C1_4 
REMARK    2  A    between atoms: C2_7  and  N3_8 
REMARK    3  A    between atoms: N3_8  and  C3_10 
REMARK    4  A    between atoms: C3_10  and  C4_11 
REMARK    5  A    between atoms: C4_11  and  O1_12 
REMARK    6  A    between atoms: O1_12  and  C5_13 
REMARK    7  A    between atoms: C5_13  and  C6_14 
REMARK    8  A    between atoms: C6_14  and  N4_15 
ROOT
HETATM    1  N3  UNL     1       3.323  -0.466  -0.873  1.00  0.00    -0.224 N 
ATOM      2  H3  UNL     1       2.926  -0.613  -1.801  1.00  0.00     0.177 HD
ENDROOT
BRANCH   1   3
HETATM    3  C2  UNL     1       4.572  -0.256  -0.776  1.00  0.00     0.679 A 
HETATM    4  N2  UNL     1       5.247  -0.048   0.346  1.00  0.00    -0.176 N 
HETATM    5  C1  UNL     1       6.581   0.168   0.374  1.00  0.00     0.133 A 
ATOM      6  H2  UNL     1       4.736  -0.051   1.229  1.00  0.00     0.186 HD
HETATM    7  C15 UNL     1       7.264   0.170  -0.820  1.00  0.00     0.070 A 
HETATM    8  C14 UNL     1       6.577  -0.046  -2.007  1.00  0.00     0.129 A 
HETATM    9 BR1  UNL     1       9.154   0.474  -0.788  1.00  0.00    -0.046 Br
HETATM   10  N5  UNL     1       5.261  -0.251  -1.945  1.00  0.00    -0.201 N 
ATOM     11  H5  UNL     1       4.750  -0.411  -2.813  1.00  0.00     0.183 HD
BRANCH   5  12
HETATM   12  N1  UNL     1       7.226   0.370   1.475  1.00  0.00    -0.384 N 
ATOM     13  H12 UNL     1       6.720   0.369   2.360  1.00  0.00     0.157 HD
ATOM     14  H11 UNL     1       8.233   0.533   1.496  1.00  0.00     0.157 HD
ENDBRANCH   5  12
ENDBRANCH   1   3
BRANCH   1  15
HETATM   15  C3  UNL     1       2.449  -0.506   0.255  1.00  0.00     0.164 C 
BRANCH  15  16
HETATM   16  C4  UNL     1       2.004   0.865   0.727  1.00  0.00     0.188 C 
BRANCH  16  17
HETATM   17  O1  UNL     1       1.320   1.555  -0.266  1.00  0.00    -0.385 OA
BRANCH  17  18
HETATM   18  C5  UNL     1       0.179   0.890  -0.690  1.00  0.00     0.212 C 
BRANCH  18  19
HETATM   19  C6  UNL     1      -0.828   0.660   0.408  1.00  0.00     0.094 C 
BRANCH  19  20
HETATM   20  N4  UNL     1      -1.949  -0.019  -0.101  1.00  0.00    -0.352 N 
HETATM   21  C7  UNL     1      -2.764   0.684  -1.004  1.00  0.00     0.068 C 
HETATM   22  C8  UNL     1      -4.041   0.035  -1.371  1.00  0.00     0.045 C 
HETATM   23  C9  UNL     1      -5.243   0.588  -0.647  1.00  0.00     0.005 C 
HETATM   24  C10 UNL     1      -5.940  -0.430   0.196  1.00  0.00     0.001 C 
HETATM   25  C11 UNL     1      -5.009  -1.400   0.867  1.00  0.00     0.005 C 
HETATM   26  C12 UNL     1      -3.794  -0.670   1.401  1.00  0.00     0.045 C 
HETATM   27  C13 UNL     1      -2.533  -1.022   0.697  1.00  0.00     0.068 C 
ENDBRANCH  19  20
ENDBRANCH  18  19
ENDBRANCH  17  18
ENDBRANCH  16  17
ENDBRANCH  15  16
ENDBRANCH   1  15
TORSDOF 8
