REMARK  6 active torsions:
REMARK  status: ('A' for Active; 'I' for Inactive)
REMARK    1  A    between atoms: S1_2  and  C2_3 
REMARK    2  A    between atoms: C2_3  and  C3_4 
REMARK    3  A    between atoms: C3_4  and  C4_5 
REMARK    4  A    between atoms: C4_5  and  N1_6 
REMARK    5  A    between atoms: C4_5  and  C5_10 
REMARK       I    between atoms: C5_10  and  N2_12 
REMARK    6  A    between atoms: N2_12  and  C6_14 
ROOT
HETATM    1  C6  UNL     1       0.190  -0.967   0.136  1.00  0.00     0.084 C 
HETATM    2  C7  UNL     1      -0.738  -1.635  -0.822  1.00  0.00     0.025 C 
HETATM    3  C8  UNL     1      -1.617  -2.683  -0.214  1.00  0.00     0.002 C 
HETATM    4  C9  UNL     1      -3.111  -2.466  -0.506  1.00  0.00     0.000 C 
HETATM    5  C10 UNL     1      -3.440  -1.134   0.082  1.00  0.00     0.000 C 
HETATM    6  C11 UNL     1      -4.865  -0.753   0.186  1.00  0.00     0.000 C 
HETATM    7  C12 UNL     1      -5.203   0.490  -0.584  1.00  0.00     0.000 C 
HETATM    8  C13 UNL     1      -4.992   1.775   0.108  1.00  0.00     0.000 C 
HETATM    9  C14 UNL     1      -3.666   2.054   0.700  1.00  0.00     0.000 C 
HETATM   10  C15 UNL     1      -2.661   2.677  -0.282  1.00  0.00     0.000 C 
HETATM   11  C16 UNL     1      -1.252   2.563   0.232  1.00  0.00     0.000 C 
HETATM   12  C17 UNL     1      -0.471   1.415  -0.420  1.00  0.00     0.002 C 
HETATM   13  C18 UNL     1      -0.160   0.388   0.610  1.00  0.00     0.025 C 
ENDROOT
BRANCH   1  14
HETATM   14  N2  UNL     1       1.568  -0.926  -0.339  1.00  0.00    -0.355 N 
HETATM   15  C5  UNL     1       2.617  -1.589   0.335  1.00  0.00     0.248 C 
HETATM   16  O1  UNL     1       2.342  -2.232   1.378  1.00  0.00    -0.271 OA
ATOM     17  H2  UNL     1       1.781  -0.401  -1.187  1.00  0.00     0.162 HD
BRANCH  15  18
HETATM   18  C4  UNL     1       4.023  -1.565  -0.122  1.00  0.00     0.275 C 
BRANCH  18  19
HETATM   19  C3  UNL     1       4.557  -0.144  -0.203  1.00  0.00     0.053 C 
BRANCH  19  20
HETATM   20  C2  UNL     1       5.969  -0.218  -0.731  1.00  0.00     0.076 C 
BRANCH  20  21
HETATM   21  S1  UNL     1       6.681   1.452  -0.860  1.00  0.00    -0.173 SA
HETATM   22  C1  UNL     1       6.900   2.228   0.742  1.00  0.00     0.089 C 
ENDBRANCH  20  21
ENDBRANCH  19  20
ENDBRANCH  18  19
BRANCH  18  23
HETATM   23  N1  UNL     1       4.880  -2.310   0.776  1.00  0.00    -0.066 N 
ATOM     24  H13 UNL     1       5.863  -2.272   0.507  1.00  0.00     0.275 HD
ATOM     25  H12 UNL     1       4.972  -1.869   1.691  1.00  0.00     0.275 HD
ATOM     26  H11 UNL     1       4.522  -3.263   0.830  1.00  0.00     0.275 HD
ENDBRANCH  18  23
ENDBRANCH  15  18
ENDBRANCH   1  14
TORSDOF 6
