REMARK  8 active torsions:
REMARK  status: ('A' for Active; 'I' for Inactive)
REMARK    1  A    between atoms: C2_2  and  C3_3 
REMARK    2  A    between atoms: C3_3  and  C5_5 
REMARK    3  A    between atoms: C5_5  and  C7_7 
REMARK    4  A    between atoms: C7_7  and  C8_8 
REMARK    5  A    between atoms: C8_8  and  C9_9 
REMARK    6  A    between atoms: C12_12  and  O1_13 
REMARK    7  A    between atoms: C16_18  and  C17_19 
REMARK    8  A    between atoms: C17_19  and  O2_21 
ROOT
HETATM    1  C9  UNL     1      -0.254   0.467  -0.524  1.00  0.00     0.122 C 
HETATM    2  C10 UNL     1      -0.110   1.337  -1.723  1.00  0.00     0.034 C 
HETATM    3  C11 UNL     1       1.288   1.713  -2.069  1.00  0.00     0.037 C 
HETATM    4  C12 UNL     1       2.064   1.949  -0.811  1.00  0.00     0.152 C 
HETATM    5  C13 UNL     1       1.921   0.760   0.136  1.00  0.00     0.087 C 
HETATM    6  C14 UNL     1       2.831   1.010   1.290  1.00  0.00     0.041 C 
HETATM    7  C15 UNL     1       3.417  -0.239   1.891  1.00  0.00     0.010 C 
HETATM    8  C16 UNL     1       4.062  -1.138   0.892  1.00  0.00     0.014 C 
HETATM    9  C19 UNL     1       3.699  -0.798  -0.530  1.00  0.00     0.010 C 
HETATM   10  C20 UNL     1       2.199  -0.546  -0.547  1.00  0.00     0.041 C 
HETATM   11  O3  UNL     1       0.564   0.777   0.528  1.00  0.00    -0.372 OA
ENDROOT
BRANCH   4  12
HETATM   12  O1  UNL     1       3.366   2.325  -1.004  1.00  0.00    -0.393 OA
ATOM     13  H1  UNL     1       3.859   2.475  -0.206  1.00  0.00     0.210 HD
ENDBRANCH   4  12
BRANCH   1  14
HETATM   14  C8  UNL     1      -1.689   0.552  -0.047  1.00  0.00     0.032 C 
BRANCH  14  15
HETATM   15  C7  UNL     1      -2.661   0.095  -1.099  1.00  0.00     0.007 C 
BRANCH  15  16
HETATM   16  C5  UNL     1      -4.086   0.157  -0.685  1.00  0.00    -0.015 C 
HETATM   17  C6  UNL     1      -4.599   1.536  -0.421  1.00  0.00     0.010 C 
BRANCH  16  18
HETATM   18  C3  UNL     1      -4.392  -0.700   0.529  1.00  0.00    -0.015 C 
HETATM   19  C4  UNL     1      -3.923  -2.115   0.312  1.00  0.00     0.010 C 
BRANCH  18  20
HETATM   20  C2  UNL     1      -5.917  -0.685   0.692  1.00  0.00    -0.000 C 
HETATM   21  C1  UNL     1      -6.316  -1.540   1.893  1.00  0.00     0.005 C 
ENDBRANCH  18  20
ENDBRANCH  16  18
ENDBRANCH  15  16
ENDBRANCH  14  15
ENDBRANCH   1  14
BRANCH   8  22
HETATM   22  C17 UNL     1       5.558  -1.253   1.081  1.00  0.00     0.118 C 
HETATM   23  C18 UNL     1       6.251   0.078   0.957  1.00  0.00     0.040 C 
BRANCH  22  24
HETATM   24  O2  UNL     1       6.116  -2.100   0.126  1.00  0.00    -0.396 OA
ATOM     25  H2  UNL     1       7.056  -2.172   0.245  1.00  0.00     0.210 HD
ENDBRANCH  22  24
ENDBRANCH   8  22
TORSDOF 8
