REMARK  8 active torsions:
REMARK  status: ('A' for Active; 'I' for Inactive)
REMARK    1  A    between atoms: N1_1  and  N2_4 
REMARK    2  A    between atoms: N2_4  and  N3_5 
REMARK    3  A    between atoms: N3_5  and  C1_7 
REMARK    4  A    between atoms: C1_7  and  C2_8 
REMARK    5  A    between atoms: C2_8  and  C3_9 
REMARK    6  A    between atoms: C5_11  and  C6_12 
REMARK    7  A    between atoms: N5_21  and  N6_23 
REMARK    8  A    between atoms: N6_23  and  C13_25 
ROOT
HETATM    1  C3  UNL     1      -1.520  -1.702   0.956  1.00  0.00    -0.073 C 
HETATM    2  C4  UNL     1      -1.974  -0.449   0.815  1.00  0.00     0.006 C 
HETATM    3  C5  UNL     1      -1.095   0.732   0.962  1.00  0.00     0.139 C 
HETATM    4  N4  UNL     1       0.224   0.518   0.438  1.00  0.00    -0.366 N 
ATOM      5  H4  UNL     1       0.785   1.279   0.055  1.00  0.00     0.161 HD
HETATM    6  C12 UNL     1       0.700  -0.819   0.486  1.00  0.00     0.096 C 
HETATM    7  N5  UNL     1       1.740  -1.160  -0.149  1.00  0.00    -0.288 N 
ATOM      8  H5  UNL     1       2.038  -2.133  -0.080  1.00  0.00     0.188 HD
HETATM    9  C19 UNL     1      -0.039  -1.866   1.268  1.00  0.00     0.111 C 
ENDROOT
BRANCH   7  10
HETATM   10  N6  UNL     1       2.507  -0.305  -0.934  1.00  0.00    -0.300 N 
ATOM     11  H6  UNL     1       2.110   0.125  -1.769  1.00  0.00     0.187 HD
BRANCH  10  12
HETATM   12  C13 UNL     1       3.836  -0.041  -0.561  1.00  0.00     0.048 A 
HETATM   13  C14 UNL     1       4.800  -0.995  -0.793  1.00  0.00     0.031 A 
HETATM   14  C15 UNL     1       6.129  -0.766  -0.447  1.00  0.00     0.002 A 
HETATM   15  C16 UNL     1       6.447   0.448   0.136  1.00  0.00     0.000 A 
HETATM   16  C17 UNL     1       5.501   1.431   0.383  1.00  0.00     0.002 A 
HETATM   17  C18 UNL     1       4.190   1.145   0.016  1.00  0.00     0.031 A 
ENDBRANCH  10  12
ENDBRANCH   7  10
BRANCH   3  18
HETATM   18  C6  UNL     1      -1.767   1.928   0.464  1.00  0.00    -0.032 A 
HETATM   19  C7  UNL     1      -2.861   2.395   1.166  1.00  0.00     0.009 A 
HETATM   20  C8  UNL     1      -3.531   3.532   0.786  1.00  0.00     0.001 A 
HETATM   21  C9  UNL     1      -3.135   4.261  -0.319  1.00  0.00     0.000 A 
HETATM   22  C10 UNL     1      -2.027   3.791  -1.033  1.00  0.00     0.001 A 
HETATM   23  C11 UNL     1      -1.369   2.649  -0.639  1.00  0.00     0.009 A 
ENDBRANCH   3  18
BRANCH   1  24
HETATM   24  C2  UNL     1      -2.381  -2.884   0.816  1.00  0.00     0.056 C 
BRANCH  24  25
HETATM   25  C1  UNL     1      -3.810  -2.572   0.507  1.00  0.00     0.160 C 
BRANCH  25  26
HETATM   26  N3  UNL     1      -4.570  -3.817   0.400  1.00  0.00    -0.252 N 
ATOM     27  H3  UNL     1      -5.590  -3.815   0.411  1.00  0.00     0.196 HD
BRANCH  26  28
HETATM   28  N2  UNL     1      -3.934  -4.871   0.296  1.00  0.00    -0.249 NA
BRANCH  28  29
HETATM   29  N1  UNL     1      -3.367  -5.920   0.599  1.00  0.00    -0.261 N 
ATOM     30  H12 UNL     1      -3.560  -5.867   1.599  1.00  0.00     0.193 HD
ATOM     31  H11 UNL     1      -2.842  -6.790   0.513  1.00  0.00     0.193 HD
ENDBRANCH  28  29
ENDBRANCH  26  28
ENDBRANCH  25  26
ENDBRANCH  24  25
ENDBRANCH   1  24
TORSDOF 8
