REMARK  7 active torsions:
REMARK  status: ('A' for Active; 'I' for Inactive)
REMARK    1  A    between atoms: C2_2  and  C3_3 
REMARK    2  A    between atoms: C3_3  and  C4_4 
REMARK    3  A    between atoms: C4_4  and  C5_5 
REMARK    4  A    between atoms: N1_12  and  C11_13 
REMARK    5  A    between atoms: C11_13  and  C12_14 
REMARK    6  A    between atoms: C12_14  and  N2_15 
REMARK    7  A    between atoms: N2_15  and  C13_17 
ROOT
HETATM    1  C4  UNL     1      -1.437  -0.230   0.023  1.00  0.00    -0.004 C 
HETATM    2  C9  UNL     1      -0.503   0.734   0.757  1.00  0.00     0.035 C 
HETATM    3  C10 UNL     1       0.760   1.003   0.058  1.00  0.00     0.123 C 
HETATM    4  N1  UNL     1       1.328  -0.104  -0.620  1.00  0.00    -0.392 N 
HETATM    5  C14 UNL     1       0.812  -1.376  -0.199  1.00  0.00     0.123 C 
HETATM    6  C15 UNL     1      -0.685  -1.444  -0.353  1.00  0.00     0.035 C 
ENDROOT
BRANCH   1   7
HETATM    7  C3  UNL     1      -2.543  -0.594   0.950  1.00  0.00     0.014 C 
BRANCH   7   8
HETATM    8  C2  UNL     1      -3.327   0.499   1.559  1.00  0.00    -0.004 C 
HETATM    9  C1  UNL     1      -4.426  -0.154   2.424  1.00  0.00     0.005 C 
ENDBRANCH   7   8
ENDBRANCH   1   7
BRANCH   1  10
HETATM   10  C5  UNL     1      -1.993   0.439  -1.189  1.00  0.00    -0.009 A 
HETATM   11  C6  UNL     1      -3.270   0.693  -1.578  1.00  0.00     0.016 A 
HETATM   12  C7  UNL     1      -3.470   1.314  -2.755  1.00  0.00     0.008 A 
HETATM   13  C8  UNL     1      -2.358   1.647  -3.487  1.00  0.00     0.050 A 
HETATM   14  S1  UNL     1      -1.075   1.092  -2.521  1.00  0.00    -0.106 SA
ENDBRANCH   1  10
BRANCH   4  15
HETATM   15  C11 UNL     1       2.702  -0.084  -0.900  1.00  0.00     0.077 C 
BRANCH  15  16
HETATM   16  C12 UNL     1       3.634  -0.155   0.286  1.00  0.00     0.165 C 
BRANCH  16  17
HETATM   17  N2  UNL     1       4.996  -0.131  -0.208  1.00  0.00    -0.370 N 
ATOM     18  H2  UNL     1       5.159  -0.055  -1.212  1.00  0.00     0.161 HD
BRANCH  17  19
HETATM   19  C13 UNL     1       6.099  -0.210   0.660  1.00  0.00     0.145 C 
HETATM   20  S2  UNL     1       5.879  -0.328   2.282  1.00  0.00    -0.052 SA
HETATM   21  S3  UNL     1       7.783  -0.179   0.018  1.00  0.00    -0.021 SA
ENDBRANCH  17  19
ENDBRANCH  16  17
ENDBRANCH  15  16
ENDBRANCH   4  15
TORSDOF 7
