REMARK  7 active torsions:
REMARK  status: ('A' for Active; 'I' for Inactive)
REMARK    1  A    between atoms: C2_2  and  C3_3 
REMARK    2  A    between atoms: C4_4  and  C5_5 
REMARK    3  A    between atoms: C10_10  and  C12_12 
REMARK    4  A    between atoms: C14_14  and  C15_15 
REMARK    5  A    between atoms: C16_18  and  C18_20 
REMARK    6  A    between atoms: C19_23  and  C20_24 
REMARK    7  A    between atoms: C20_24  and  C21_25 
ROOT
HETATM    1  C5  UNL     1      -0.295  -1.039  -0.829  1.00  0.00     0.017 C 
HETATM    2  C6  UNL     1       0.028  -2.264  -1.669  1.00  0.00     0.009 C 
HETATM    3  C7  UNL     1      -0.863  -3.421  -1.481  1.00  0.00     0.001 C 
HETATM    4  C8  UNL     1      -1.591  -3.191  -0.178  1.00  0.00     0.001 C 
HETATM    5  C9  UNL     1      -2.521  -2.043  -0.464  1.00  0.00     0.010 C 
HETATM    6  C10 UNL     1      -1.736  -0.723  -0.758  1.00  0.00    -0.028 C 
HETATM    7  C11 UNL     1      -2.069  -0.453  -2.259  1.00  0.00     0.016 C 
ENDROOT
BRANCH   6   8
HETATM    8  C12 UNL     1      -2.425   0.280   0.017  1.00  0.00    -0.003 A 
HETATM    9  C13 UNL     1      -3.885   0.276  -0.631  1.00  0.00     0.018 C 
HETATM   10  C14 UNL     1      -2.728   0.372   1.464  1.00  0.00     0.116 A 
HETATM   11  C16 UNL     1      -2.058   1.499   0.643  1.00  0.00     0.068 A 
HETATM   12  C17 UNL     1      -0.818   1.914   1.395  1.00  0.00     0.029 C 
BRANCH  10  13
HETATM   13  C15 UNL     1      -2.138  -0.259   2.593  1.00  0.00     0.179 C 
HETATM   14  O1  UNL     1      -1.079  -0.879   2.582  1.00  0.00    -0.648 OA
HETATM   15  O2  UNL     1      -2.738  -0.222   3.847  1.00  0.00    -0.648 OA
ENDBRANCH  10  13
BRANCH  11  16
HETATM   16  C18 UNL     1      -2.787   2.756   0.349  1.00  0.00     0.183 C 
HETATM   17  O3  UNL     1      -3.835   2.782  -0.295  1.00  0.00    -0.647 OA
HETATM   18  O4  UNL     1      -2.346   4.025   0.782  1.00  0.00    -0.647 OA
ENDBRANCH  11  16
ENDBRANCH   6   8
BRANCH   1  19
HETATM   19  C4  UNL     1       0.469  -0.002  -1.568  1.00  0.00    -0.021 C 
HETATM   20  C3  UNL     1       1.531   0.626  -1.279  1.00  0.00     0.003 C 
BRANCH  20  21
HETATM   21  C2  UNL     1       2.450   0.603  -0.153  1.00  0.00    -0.066 C 
HETATM   22  C1  UNL     1       2.369  -0.367   0.929  1.00  0.00     0.048 C 
HETATM   23  C19 UNL     1       3.470   1.473  -0.162  1.00  0.00    -0.018 C 
BRANCH  23  24
HETATM   24  C20 UNL     1       4.520   1.548   0.825  1.00  0.00     0.061 C 
BRANCH  24  25
HETATM   25  C21 UNL     1       5.868   1.197   0.181  1.00  0.00     0.148 A 
HETATM   26  C22 UNL     1       7.089   1.192   0.937  1.00  0.00     0.200 A 
HETATM   27  O5  UNL     1       6.434  -0.053   0.726  1.00  0.00    -0.381 OA
ENDBRANCH  24  25
ENDBRANCH  23  24
ENDBRANCH  20  21
ENDBRANCH   1  19
TORSDOF 7
