REMARK  8 active torsions:
REMARK  status: ('A' for Active; 'I' for Inactive)
REMARK    1  A    between atoms: C2_2  and  C5_5 
REMARK    2  A    between atoms: C8_8  and  C9_9 
REMARK    3  A    between atoms: C9_9  and  C10_10 
REMARK    4  A    between atoms: C10_10  and  C11_11 
REMARK    5  A    between atoms: C11_11  and  C12_12 
REMARK    6  A    between atoms: C12_12  and  C13_13 
REMARK    7  A    between atoms: C13_13  and  C14_14 
REMARK       I    between atoms: C14_14  and  N1_16 
REMARK    8  A    between atoms: N1_16  and  S1_18 
ROOT
HETATM    1  C5  UNL     1      -3.286   0.823  -0.136  1.00  0.00    -0.006 C 
HETATM    2  C6  UNL     1      -2.782   1.214  -1.507  1.00  0.00     0.006 C 
HETATM    3  C7  UNL     1      -1.432   0.564  -1.760  1.00  0.00     0.006 C 
HETATM    4  C8  UNL     1      -0.673   0.426  -0.416  1.00  0.00    -0.006 C 
HETATM    5  C15 UNL     1      -1.291  -0.603   0.427  1.00  0.00    -0.036 C 
HETATM    6  C16 UNL     1      -0.883  -2.023   0.249  1.00  0.00     0.010 C 
HETATM    7  C17 UNL     1      -1.240  -2.707   1.574  1.00  0.00     0.001 C 
HETATM    8  C18 UNL     1      -0.950  -1.671   2.607  1.00  0.00     0.001 C 
HETATM    9  C19 UNL     1      -1.195  -0.358   1.913  1.00  0.00     0.010 C 
HETATM   10  C20 UNL     1      -2.802  -0.586   0.111  1.00  0.00     0.015 C 
ENDROOT
BRANCH   4  11
HETATM   11  C9  UNL     1       0.768   0.278  -0.787  1.00  0.00     0.005 C 
BRANCH  11  12
HETATM   12  C10 UNL     1       1.728   0.146   0.331  1.00  0.00     0.000 C 
BRANCH  12  13
HETATM   13  C11 UNL     1       3.134  -0.024  -0.198  1.00  0.00     0.000 C 
BRANCH  13  14
HETATM   14  C12 UNL     1       3.554   1.156  -1.022  1.00  0.00     0.009 C 
BRANCH  14  15
HETATM   15  C13 UNL     1       4.949   1.008  -1.547  1.00  0.00     0.104 C 
BRANCH  15  16
HETATM   16  C14 UNL     1       6.008   0.921  -0.535  1.00  0.00     0.233 C 
HETATM   17  O1  UNL     1       5.851   1.048   0.701  1.00  0.00    -0.273 OA
HETATM   18  N1  UNL     1       7.370   0.667  -0.948  1.00  0.00    -0.235 N 
ATOM     19  H1  UNL     1       7.566   0.553  -1.942  1.00  0.00     0.184 HD
BRANCH  18  20
HETATM   20  S1  UNL     1       8.661   0.551   0.159  1.00  0.00     0.211 S 
HETATM   21  O2  UNL     1       9.861   1.322  -0.329  1.00  0.00    -0.578 OA
HETATM   22  O3  UNL     1       9.102  -0.891   0.275  1.00  0.00    -0.578 OA
HETATM   23  O4  UNL     1       8.145   1.120   1.653  1.00  0.00    -0.578 OA
ENDBRANCH  18  20
ENDBRANCH  15  16
ENDBRANCH  14  15
ENDBRANCH  13  14
ENDBRANCH  12  13
ENDBRANCH  11  12
ENDBRANCH   4  11
BRANCH   1  24
HETATM   24  C2  UNL     1      -4.789   0.792  -0.057  1.00  0.00    -0.048 C 
HETATM   25  C1  UNL     1      -5.154   0.389   1.363  1.00  0.00     0.015 C 
HETATM   26  C3  UNL     1      -5.437   2.095  -0.357  1.00  0.00     0.015 C 
HETATM   27  C4  UNL     1      -5.359  -0.316  -0.953  1.00  0.00     0.015 C 
ENDBRANCH   1  24
TORSDOF 8
