REMARK  6 active torsions:
REMARK  status: ('A' for Active; 'I' for Inactive)
REMARK    1  A    between atoms: S1_2  and  C2_3 
REMARK    2  A    between atoms: C2_3  and  C3_4 
REMARK    3  A    between atoms: C3_4  and  C4_5 
REMARK    4  A    between atoms: C4_5  and  C18_19 
REMARK    5  A    between atoms: C5_6  and  C6_7 
REMARK       I    between atoms: C18_19  and  N1_21 
REMARK    6  A    between atoms: N1_21  and  C19_23 
ROOT
HETATM    1  C4  UNL     1       1.264   1.347   0.426  1.00  0.00     0.026 C 
HETATM    2  C5  UNL     1       0.123   0.474   0.595  1.00  0.00    -0.000 C 
ENDROOT
BRANCH   1   3
HETATM    3  C3  UNL     1       1.222   2.614  -0.343  1.00  0.00     0.000 C 
BRANCH   3   4
HETATM    4  C2  UNL     1       0.970   2.643  -1.772  1.00  0.00     0.101 C 
BRANCH   4   5
HETATM    5  S1  UNL     1       0.977   4.376  -2.327  1.00  0.00    -0.170 SA
HETATM    6  C1  UNL     1       2.640   5.051  -2.135  1.00  0.00     0.090 C 
ENDBRANCH   4   5
ENDBRANCH   3   4
ENDBRANCH   1   3
BRANCH   1   7
HETATM    7  C18 UNL     1       2.574   0.632   0.228  1.00  0.00     0.251 C 
HETATM    8  O1  UNL     1       3.377   1.142  -0.568  1.00  0.00    -0.268 OA
HETATM    9  N1  UNL     1       2.918  -0.554   0.886  1.00  0.00    -0.351 N 
ATOM     10  H1  UNL     1       2.248  -0.961   1.539  1.00  0.00     0.163 HD
BRANCH   9  11
HETATM   11  C19 UNL     1       4.189  -1.232   0.680  1.00  0.00     0.112 C 
HETATM   12  C20 UNL     1       4.955  -1.221   1.960  1.00  0.00     0.054 C 
HETATM   13  C21 UNL     1       5.688  -2.524   1.967  1.00  0.00     0.234 C 
HETATM   14  N2  UNL     1       5.030  -3.412   1.061  1.00  0.00    -0.073 N 
HETATM   15  C22 UNL     1       4.045  -2.674   0.337  1.00  0.00     0.257 C 
ATOM     16  H22 UNL     1       5.683  -3.900   0.447  1.00  0.00     0.277 HD
ATOM     17  H21 UNL     1       4.640  -4.230   1.529  1.00  0.00     0.277 HD
ENDBRANCH   9  11
ENDBRANCH   1   7
BRANCH   2  18
HETATM   18  C6  UNL     1      -0.701  -0.164  -0.421  1.00  0.00    -0.017 C 
HETATM   19  C7  UNL     1       0.021  -0.988  -1.482  1.00  0.00     0.020 C 
HETATM   20  C8  UNL     1      -1.427  -1.390   0.339  1.00  0.00     0.020 C 
HETATM   21  C9  UNL     1      -2.489  -0.429   0.642  1.00  0.00     0.003 C 
HETATM   22  C10 UNL     1      -3.893  -0.905   0.737  1.00  0.00    -0.043 C 
HETATM   23  C16 UNL     1      -2.096   0.266  -0.641  1.00  0.00    -0.029 C 
HETATM   24  C11 UNL     1      -4.706   0.120   1.499  1.00  0.00     0.015 C 
HETATM   25  C12 UNL     1      -3.873  -2.167   1.623  1.00  0.00     0.015 C 
HETATM   26  C13 UNL     1      -4.612  -1.233  -0.503  1.00  0.00     0.009 C 
HETATM   27  C14 UNL     1      -4.320  -0.191  -1.573  1.00  0.00     0.002 C 
HETATM   28  C15 UNL     1      -2.829  -0.310  -1.820  1.00  0.00     0.010 C 
HETATM   29  C17 UNL     1      -2.475   1.728  -0.520  1.00  0.00     0.016 C 
ENDBRANCH   2  18
TORSDOF 6
