REMARK  6 active torsions:
REMARK  status: ('A' for Active; 'I' for Inactive)
REMARK    1  A    between atoms: O1_1  and  C1_3 
REMARK    2  A    between atoms: C1_3  and  C2_4 
REMARK    3  A    between atoms: C2_4  and  C3_5 
REMARK    4  A    between atoms: C4_6  and  C5_7 
REMARK    5  A    between atoms: C5_7  and  C6_8 
REMARK    6  A    between atoms: C14_18  and  N2_19 
ROOT
HETATM    1  C1  UNL     1       0.275  -0.312   0.101  1.00  0.00     0.078 C 
HETATM    2  C11 UNL     1      -0.329   0.498  -0.994  1.00  0.00     0.007 C 
HETATM    3  C12 UNL     1      -1.460   0.420  -1.662  1.00  0.00    -0.026 C 
HETATM    4  C13 UNL     1      -2.548  -0.573  -1.510  1.00  0.00     0.062 C 
HETATM    5  C14 UNL     1      -3.076  -0.651  -0.114  1.00  0.00     0.226 C 
HETATM    6  C20 UNL     1      -2.107   0.071   0.829  1.00  0.00     0.039 C 
HETATM    7  C21 UNL     1      -0.865  -0.746   0.997  1.00  0.00     0.044 C 
ENDROOT
BRANCH   1   8
HETATM    8  O1  UNL     1       0.858  -1.404  -0.517  1.00  0.00    -0.386 OA
ATOM      9  H1  UNL     1       0.241  -1.964  -0.974  1.00  0.00     0.211 HD
ENDBRANCH   1   8
BRANCH   1  10
HETATM   10  C2  UNL     1       1.254   0.577   0.826  1.00  0.00     0.069 C 
BRANCH  10  11
HETATM   11  C3  UNL     1       2.039  -0.019   1.891  1.00  0.00    -0.024 C 
HETATM   12  C4  UNL     1       2.972  -1.105   1.800  1.00  0.00    -0.006 C 
BRANCH  12  13
HETATM   13  C5  UNL     1       4.265  -1.133   1.127  1.00  0.00    -0.002 C 
BRANCH  13  14
HETATM   14  C6  UNL     1       4.437  -0.939  -0.321  1.00  0.00     0.103 C 
HETATM   15  C7  UNL     1       5.939  -1.112  -0.630  1.00  0.00     0.029 C 
HETATM   16  C8  UNL     1       6.622   0.159  -0.234  1.00  0.00     0.007 C 
HETATM   17  C9  UNL     1       6.104   1.256  -1.130  1.00  0.00     0.044 C 
HETATM   18  C10 UNL     1       4.615   1.365  -1.121  1.00  0.00     0.056 C 
HETATM   19  N1  UNL     1       3.904   0.172  -0.956  1.00  0.00    -0.394 N 
ATOM     20  H1  UNL     1       2.952   0.117  -1.319  1.00  0.00     0.159 HD
ENDBRANCH  13  14
ENDBRANCH  12  13
ENDBRANCH  10  11
ENDBRANCH   1  10
BRANCH   5  21
HETATM   21  N2  UNL     1      -4.385  -0.115   0.079  1.00  0.00     0.093 N 
HETATM   22  C15 UNL     1      -4.521   1.281  -0.188  1.00  0.00     0.273 C 
HETATM   23  C16 UNL     1      -5.863   1.714   0.419  1.00  0.00     0.030 C 
HETATM   24  C17 UNL     1      -6.923   1.026  -0.401  1.00  0.00     0.003 C 
HETATM   25  C18 UNL     1      -6.784  -0.457  -0.338  1.00  0.00     0.030 C 
HETATM   26  C19 UNL     1      -5.374  -0.947  -0.516  1.00  0.00     0.273 C 
ENDBRANCH   5  21
TORSDOF 6
