REMARK  7 active torsions:
REMARK  status: ('A' for Active; 'I' for Inactive)
REMARK    1  A    between atoms: C2_2  and  O1_3 
REMARK    2  A    between atoms: C11_13  and  C13_15 
REMARK    3  A    between atoms: C14_16  and  C15_17 
REMARK    4  A    between atoms: N1_20  and  C18_21 
REMARK    5  A    between atoms: C18_21  and  C19_22 
REMARK    6  A    between atoms: C19_22  and  C20_23 
REMARK    7  A    between atoms: C20_23  and  N2_24 
ROOT
HETATM    1  C1  UNL     1      -4.023   2.279   0.740  1.00  0.00     0.046 C 
HETATM    2  C2  UNL     1      -4.541   0.992   0.175  1.00  0.00     0.058 C 
HETATM    3  C3  UNL     1      -4.729   1.100  -1.302  1.00  0.00     0.038 C 
HETATM    4  C4  UNL     1      -4.332  -0.154  -2.042  1.00  0.00     0.003 C 
HETATM    5  C5  UNL     1      -2.857  -0.493  -1.796  1.00  0.00     0.006 C 
HETATM    6  C6  UNL     1      -2.427  -0.030  -0.430  1.00  0.00     0.004 C 
HETATM    7  C7  UNL     1      -3.618  -0.183   0.444  1.00  0.00     0.025 C 
HETATM    8  C8  UNL     1      -3.393  -0.425   1.889  1.00  0.00     0.008 C 
HETATM    9  C9  UNL     1      -2.457  -1.562   2.067  1.00  0.00     0.002 C 
HETATM   10  C10 UNL     1      -1.572  -1.872   0.904  1.00  0.00     0.013 C 
HETATM   11  C11 UNL     1      -1.158  -0.690   0.090  1.00  0.00    -0.022 C 
HETATM   12  C12 UNL     1      -0.325  -1.207  -1.065  1.00  0.00     0.020 C 
ENDROOT
BRANCH  11  13
HETATM   13  C13 UNL     1      -0.414   0.358   0.816  1.00  0.00    -0.016 C 
HETATM   14  C14 UNL     1       0.831   0.146   1.518  1.00  0.00     0.009 C 
BRANCH  14  15
HETATM   15  C15 UNL     1       2.051  -0.313   0.850  1.00  0.00    -0.020 A 
HETATM   16  C16 UNL     1       2.551  -1.604   0.725  1.00  0.00     0.030 A 
HETATM   17  C17 UNL     1       3.722  -1.603   0.044  1.00  0.00     0.091 A 
HETATM   18  N1  UNL     1       3.988  -0.329  -0.275  1.00  0.00    -0.366 N 
HETATM   19  C21 UNL     1       3.010   0.478   0.190  1.00  0.00     0.101 A 
BRANCH  18  20
HETATM   20  C18 UNL     1       5.180   0.075  -1.020  1.00  0.00     0.129 C 
BRANCH  20  21
HETATM   21  C19 UNL     1       6.266   0.355  -0.009  1.00  0.00     0.047 C 
BRANCH  21  22
HETATM   22  C20 UNL     1       7.549   0.782  -0.673  1.00  0.00     0.231 C 
BRANCH  22  23
HETATM   23  N2  UNL     1       7.274   1.992  -1.427  1.00  0.00    -0.079 N 
ATOM     24  H23 UNL     1       6.504   1.882  -2.087  1.00  0.00     0.274 HD
ATOM     25  H22 UNL     1       6.858   2.729  -0.857  1.00  0.00     0.274 HD
ATOM     26  H21 UNL     1       8.143   2.281  -1.877  1.00  0.00     0.274 HD
ENDBRANCH  22  23
ENDBRANCH  21  22
ENDBRANCH  20  21
ENDBRANCH  18  20
ENDBRANCH  14  15
ENDBRANCH  11  13
BRANCH   2  27
HETATM   27  O1  UNL     1      -5.744   0.696   0.850  1.00  0.00    -0.390 OA
ATOM     28  H1  UNL     1      -6.073  -0.120   0.492  1.00  0.00     0.210 HD
ENDBRANCH   2  27
TORSDOF 7
