REMARK  6 active torsions:
REMARK  status: ('A' for Active; 'I' for Inactive)
REMARK    1  A    between atoms: N1_2  and  C2_3 
REMARK    2  A    between atoms: N1_2  and  C8_9 
REMARK    3  A    between atoms: C2_3  and  C3_4 
REMARK    4  A    between atoms: C3_4  and  C4_5 
REMARK    5  A    between atoms: C8_9  and  C9_10 
REMARK    6  A    between atoms: N3_18  and  C15_19 
ROOT
HETATM    1  C9  UNL     1       0.099  -0.855   0.440  1.00  0.00     0.022 A 
HETATM    2  C10 UNL     1      -0.755  -1.102   1.481  1.00  0.00     0.104 A 
HETATM    3  N2  UNL     1      -2.096  -0.941   1.280  1.00  0.00    -0.350 N 
ATOM      4  H2  UNL     1      -2.756  -1.116   2.038  1.00  0.00     0.166 HD
HETATM    5  C11 UNL     1      -2.540  -0.547   0.065  1.00  0.00     0.120 A 
HETATM    6  C12 UNL     1      -1.683  -0.308  -0.954  1.00  0.00     0.037 A 
HETATM    7  C13 UNL     1      -2.396   0.068  -2.057  1.00  0.00     0.035 A 
HETATM    8  C14 UNL     1      -3.749   0.060  -1.695  1.00  0.00     0.094 A 
HETATM    9  N3  UNL     1      -3.804  -0.310  -0.418  1.00  0.00    -0.338 N 
HETATM   10  C20 UNL     1      -0.239  -0.458  -0.806  1.00  0.00     0.053 A 
HETATM   11  N4  UNL     1       0.365  -0.215  -1.836  1.00  0.00    -0.398 N 
ATOM     12  H41 UNL     1       0.110   0.085  -2.777  1.00  0.00     0.156 HD
ATOM     13  H42 UNL     1       1.374  -0.320  -1.733  1.00  0.00     0.156 HD
ENDROOT
BRANCH   1  14
HETATM   14  C8  UNL     1       1.579  -1.160   0.660  1.00  0.00     0.100 C 
BRANCH  14  15
HETATM   15  N1  UNL     1       2.350  -0.010   0.418  1.00  0.00    -0.393 N 
HETATM   16  C1  UNL     1       1.965   1.197   0.991  1.00  0.00     0.148 C 
BRANCH  15  17
HETATM   17  C2  UNL     1       3.769  -0.206   0.259  1.00  0.00     0.122 C 
BRANCH  17  18
HETATM   18  C3  UNL     1       4.245   0.641  -0.879  1.00  0.00     0.024 C 
BRANCH  18  19
HETATM   19  C4  UNL     1       5.744   0.643  -1.067  1.00  0.00    -0.013 A 
HETATM   20  C5  UNL     1       6.492   1.229   0.121  1.00  0.00     0.005 A 
HETATM   21  C6  UNL     1       7.254  -0.051   0.306  1.00  0.00     0.001 A 
HETATM   22  C7  UNL     1       6.467  -0.649  -0.816  1.00  0.00     0.005 A 
ENDBRANCH  18  19
ENDBRANCH  17  18
ENDBRANCH  15  17
ENDBRANCH  14  15
ENDBRANCH   1  14
BRANCH   9  23
HETATM   23  C15 UNL     1      -4.966  -0.477   0.400  1.00  0.00     0.091 C 
HETATM   24  C16 UNL     1      -5.201   0.716   1.299  1.00  0.00     0.026 C 
HETATM   25  C17 UNL     1      -6.622   0.458   1.777  1.00  0.00     0.002 C 
HETATM   26  C18 UNL     1      -7.319   0.191   0.437  1.00  0.00     0.002 C 
HETATM   27  C19 UNL     1      -6.247  -0.486  -0.404  1.00  0.00     0.026 C 
ENDBRANCH   9  23
TORSDOF 6
