REMARK  7 active torsions:
REMARK  status: ('A' for Active; 'I' for Inactive)
REMARK    1  A    between atoms: N1_2  and  C2_5 
REMARK    2  A    between atoms: C2_5  and  C3_6 
REMARK    3  A    between atoms: C3_6  and  C4_7 
REMARK    4  A    between atoms: C4_7  and  N2_8 
REMARK    5  A    between atoms: N2_8  and  C5_10 
REMARK    6  A    between atoms: C5_10  and  C6_11 
REMARK    7  A    between atoms: C14_20  and  C15_21 
ROOT
HETATM    1  C6  UNL     1       1.345  -0.405  -0.313  1.00  0.00     0.024 C 
HETATM    2  C7  UNL     1       1.606  -1.276   0.836  1.00  0.00     0.011 C 
HETATM    3  C8  UNL     1       0.368  -1.803   1.486  1.00  0.00     0.021 C 
HETATM    4  C9  UNL     1      -0.902  -1.657   0.697  1.00  0.00     0.101 C 
HETATM    5  C10 UNL     1      -0.896  -2.642  -0.377  1.00  0.00     0.064 C 
HETATM    6  N3  UNL     1      -0.887  -3.416  -1.215  1.00  0.00    -0.197 NA
HETATM    7  C11 UNL     1      -1.121  -0.243   0.232  1.00  0.00    -0.024 C 
HETATM    8  C12 UNL     1      -1.926  -0.197  -1.020  1.00  0.00     0.011 C 
HETATM    9  C13 UNL     1      -3.214   0.613  -0.841  1.00  0.00     0.006 C 
HETATM   10  C14 UNL     1      -4.010  -0.114   0.220  1.00  0.00    -0.007 C 
HETATM   11  C19 UNL     1      -3.282   0.033   1.511  1.00  0.00     0.006 C 
HETATM   12  C20 UNL     1      -1.868   0.478   1.357  1.00  0.00     0.011 C 
HETATM   13  C21 UNL     1       0.152   0.501   0.037  1.00  0.00     0.020 C 
ENDROOT
BRANCH   1  14
HETATM   14  C5  UNL     1       2.424   0.564  -0.697  1.00  0.00     0.060 C 
BRANCH  14  15
HETATM   15  N2  UNL     1       3.699   0.126  -1.063  1.00  0.00    -0.402 N 
ATOM     16  H2  UNL     1       4.003   0.132  -2.037  1.00  0.00     0.158 HD
BRANCH  15  17
HETATM   17  C4  UNL     1       4.539  -0.319  -0.043  1.00  0.00     0.120 C 
BRANCH  17  18
HETATM   18  C3  UNL     1       5.937  -0.696  -0.563  1.00  0.00     0.047 C 
BRANCH  18  19
HETATM   19  C2  UNL     1       6.607   0.459  -1.236  1.00  0.00     0.233 C 
BRANCH  19  20
HETATM   20  N1  UNL     1       6.787   1.599  -0.383  1.00  0.00    -0.079 N 
HETATM   21  C1  UNL     1       7.749   1.369   0.668  1.00  0.00     0.266 C 
ATOM     22  H12 UNL     1       5.895   1.911   0.001  1.00  0.00     0.276 HD
ATOM     23  H11 UNL     1       7.032   2.426  -0.927  1.00  0.00     0.276 HD
ENDBRANCH  19  20
ENDBRANCH  18  19
ENDBRANCH  17  18
ENDBRANCH  15  17
ENDBRANCH  14  15
ENDBRANCH   1  14
BRANCH  10  24
HETATM   24  C15 UNL     1      -5.422   0.370   0.253  1.00  0.00    -0.048 C 
HETATM   25  C16 UNL     1      -5.518   1.835   0.553  1.00  0.00     0.015 C 
HETATM   26  C17 UNL     1      -6.044   0.111  -1.103  1.00  0.00     0.015 C 
HETATM   27  C18 UNL     1      -6.204  -0.424   1.273  1.00  0.00     0.015 C 
ENDBRANCH  10  24
TORSDOF 7
