REMARK  10 active torsions:
REMARK  status: ('A' for Active; 'I' for Inactive)
REMARK    1  A    between atoms: C2_2  and  O1_3 
REMARK    2  A    between atoms: O1_3  and  C3_4 
REMARK       I    between atoms: C3_4  and  N1_6 
REMARK    3  A    between atoms: N1_6  and  C4_8 
REMARK    4  A    between atoms: C4_8  and  C5_9 
REMARK    5  A    between atoms: C5_9  and  C6_10 
REMARK    6  A    between atoms: C6_10  and  C7_11 
REMARK    7  A    between atoms: C7_11  and  C8_12 
REMARK    8  A    between atoms: C14_18  and  N2_19 
REMARK    9  A    between atoms: N2_19  and  C15_21 
REMARK   10  A    between atoms: C15_21  and  S2_23 
ROOT
HETATM    1  C8  UNL     1      -0.792  -0.191  -1.155  1.00  0.00    -0.039 C 
HETATM    2  C9  UNL     1      -0.674   1.068  -0.373  1.00  0.00     0.014 C 
HETATM    3  C10 UNL     1      -2.057   1.512   0.113  1.00  0.00    -0.013 C 
HETATM    4  C11 UNL     1      -2.482   0.392   1.071  1.00  0.00     0.011 C 
HETATM    5  C12 UNL     1      -2.685  -0.879   0.269  1.00  0.00     0.010 C 
HETATM    6  C13 UNL     1      -1.387  -1.322  -0.340  1.00  0.00     0.016 C 
HETATM    7  C14 UNL     1      -3.668  -0.653  -0.838  1.00  0.00     0.091 C 
HETATM    8  C17 UNL     1      -3.173   0.427  -1.757  1.00  0.00     0.010 C 
HETATM    9  C18 UNL     1      -3.032   1.719  -0.984  1.00  0.00     0.011 C 
HETATM   10  C19 UNL     1      -1.838   0.058  -2.276  1.00  0.00     0.016 C 
ENDROOT
BRANCH   1  11
HETATM   11  C7  UNL     1       0.450  -0.559  -1.854  1.00  0.00     0.010 C 
BRANCH  11  12
HETATM   12  C6  UNL     1       1.715  -0.822  -1.192  1.00  0.00     0.002 C 
BRANCH  12  13
HETATM   13  C5  UNL     1       2.434   0.224  -0.441  1.00  0.00     0.020 C 
BRANCH  13  14
HETATM   14  C4  UNL     1       3.754  -0.381   0.101  1.00  0.00     0.125 C 
BRANCH  14  15
HETATM   15  N1  UNL     1       4.478   0.630   0.843  1.00  0.00    -0.337 N 
HETATM   16  C3  UNL     1       5.723   0.325   1.442  1.00  0.00     0.360 C 
HETATM   17  O2  UNL     1       6.263  -0.809   1.371  1.00  0.00    -0.239 OA
ATOM     18  H1  UNL     1       4.088   1.568   0.934  1.00  0.00     0.164 HD
BRANCH  16  19
HETATM   19  O1  UNL     1       6.411   1.291   2.150  1.00  0.00    -0.304 OA
BRANCH  19  20
HETATM   20  C2  UNL     1       7.658   0.997   2.754  1.00  0.00     0.176 C 
HETATM   21  C1  UNL     1       8.612   0.574   1.677  1.00  0.00     0.034 C 
ENDBRANCH  19  20
ENDBRANCH  16  19
ENDBRANCH  14  15
ENDBRANCH  13  14
ENDBRANCH  12  13
ENDBRANCH  11  12
ENDBRANCH   1  11
BRANCH   7  22
HETATM   22  N2  UNL     1      -4.962  -0.347  -0.292  1.00  0.00    -0.370 N 
ATOM     23  H2  UNL     1      -5.322   0.606  -0.345  1.00  0.00     0.161 HD
BRANCH  22  24
HETATM   24  C15 UNL     1      -5.739  -1.360   0.319  1.00  0.00     0.134 C 
HETATM   25  S1  UNL     1      -5.241  -2.897   0.388  1.00  0.00    -0.053 SA
BRANCH  24  26
HETATM   26  S2  UNL     1      -7.353  -1.006   1.029  1.00  0.00    -0.105 SA
HETATM   27  C16 UNL     1      -7.695   0.744   0.798  1.00  0.00     0.098 C 
ENDBRANCH  24  26
ENDBRANCH  22  24
ENDBRANCH   7  22
TORSDOF 10
