REMARK  9 active torsions:
REMARK  status: ('A' for Active; 'I' for Inactive)
REMARK    1  A    between atoms: O1_1  and  C1_3 
REMARK    2  A    between atoms: C1_3  and  C2_4 
REMARK    3  A    between atoms: C5_7  and  C6_8 
REMARK    4  A    between atoms: C6_8  and  C7_9 
REMARK    5  A    between atoms: C7_9  and  N1_10 
REMARK    6  A    between atoms: C13_16  and  C14_17 
REMARK    7  A    between atoms: C15_18  and  C16_19 
REMARK    8  A    between atoms: C21_24  and  C22_25 
REMARK    9  A    between atoms: C22_25  and  O2_26 
ROOT
HETATM    1  N1  UNL     1       0.258  -0.542   0.674  1.00  0.00    -0.367 N 
HETATM    2  C8  UNL     1      -0.170  -1.782   1.155  1.00  0.00     0.064 C 
HETATM    3  C9  UNL     1      -0.884  -2.630   0.120  1.00  0.00     0.049 C 
HETATM    4  C10 UNL     1      -1.548  -1.661  -0.839  1.00  0.00    -0.003 C 
HETATM    5  C11 UNL     1      -2.785  -2.159  -1.486  1.00  0.00     0.006 C 
HETATM    6  C12 UNL     1      -3.866  -1.100  -1.188  1.00  0.00     0.009 C 
HETATM    7  C13 UNL     1      -3.096   0.127  -0.780  1.00  0.00     0.014 C 
HETATM    8  C20 UNL     1      -1.994  -0.508   0.024  1.00  0.00     0.023 C 
HETATM    9  C21 UNL     1      -0.783   0.341   0.268  1.00  0.00     0.116 C 
ENDROOT
BRANCH   1  10
HETATM   10  C7  UNL     1       1.536  -0.053   0.890  1.00  0.00     0.064 C 
BRANCH  10  11
HETATM   11  C6  UNL     1       2.614  -0.800   0.144  1.00  0.00     0.049 C 
BRANCH  11  12
HETATM   12  C5  UNL     1       3.989  -0.255   0.378  1.00  0.00    -0.010 C 
HETATM   13  C4  UNL     1       5.015  -1.043  -0.400  1.00  0.00     0.005 C 
HETATM   14  C3  UNL     1       6.386  -0.832   0.203  1.00  0.00     0.007 C 
HETATM   15  C2  UNL     1       6.491   0.591   0.666  1.00  0.00     0.009 C 
HETATM   16  C24 UNL     1       5.598   1.519  -0.125  1.00  0.00     0.007 C 
HETATM   17  C23 UNL     1       4.135   1.195   0.069  1.00  0.00     0.005 C 
BRANCH  15  18
HETATM   18  C1  UNL     1       7.920   1.058   0.353  1.00  0.00     0.168 C 
BRANCH  18  19
HETATM   19  O1  UNL     1       8.205   0.993  -0.993  1.00  0.00    -0.400 OA
ATOM     20  H1  UNL     1       9.089   1.282  -1.187  1.00  0.00     0.209 HD
ENDBRANCH  18  19
ENDBRANCH  15  18
ENDBRANCH  11  12
ENDBRANCH  10  11
ENDBRANCH   1  10
BRANCH   9  21
HETATM   21  C22 UNL     1      -0.435   1.323  -0.787  1.00  0.00     0.190 C 
BRANCH  21  22
HETATM   22  O2  UNL     1       0.020   0.808  -1.983  1.00  0.00    -0.399 OA
ATOM     23  H2  UNL     1       0.243   1.437  -2.659  1.00  0.00     0.209 HD
ENDBRANCH  21  22
ENDBRANCH   9  21
BRANCH   7  24
HETATM   24  C14 UNL     1      -3.846   1.108   0.022  1.00  0.00    -0.025 C 
HETATM   25  C15 UNL     1      -5.077   1.246   0.356  1.00  0.00    -0.026 C 
BRANCH  25  26
HETATM   26  C16 UNL     1      -6.250   0.435   0.042  1.00  0.00     0.008 C 
HETATM   27  C17 UNL     1      -7.521   1.318  -0.042  1.00  0.00     0.008 C 
HETATM   28  C18 UNL     1      -8.228   0.258   0.733  1.00  0.00     0.001 C 
HETATM   29  C19 UNL     1      -6.877  -0.123   1.321  1.00  0.00     0.008 C 
ENDBRANCH  25  26
ENDBRANCH   7  24
TORSDOF 9
