REMARK  7 active torsions:
REMARK  status: ('A' for Active; 'I' for Inactive)
REMARK    1  A    between atoms: C2_2  and  C3_3 
REMARK    2  A    between atoms: C9_9  and  C10_10 
REMARK    3  A    between atoms: C10_10  and  N1_16 
REMARK    4  A    between atoms: C11_11  and  C12_12 
REMARK    5  A    between atoms: C12_12  and  C13_13 
REMARK    6  A    between atoms: C13_13  and  O1_14 
REMARK       I    between atoms: N1_16  and  C14_18 
REMARK    7  A    between atoms: C14_18  and  C15_20 
ROOT
HETATM    1  C10 UNL     1       0.997  -1.399   0.523  1.00  0.00     0.013 C 
HETATM    2  C11 UNL     1       1.118  -2.428   1.355  1.00  0.00     0.001 C 
ENDROOT
BRANCH   1   3
HETATM    3  C9  UNL     1       2.088  -0.562   0.215  1.00  0.00     0.044 C 
HETATM    4  C5  UNL     1       2.662  -0.536  -1.187  1.00  0.00    -0.004 C 
HETATM    5  C4  UNL     1       3.933   0.300  -0.888  1.00  0.00     0.010 C 
HETATM    6  C6  UNL     1       1.761   0.414  -1.901  1.00  0.00     0.006 C 
HETATM    7  C3  UNL     1       3.660   1.040   0.356  1.00  0.00    -0.010 C 
HETATM    8  C8  UNL     1       2.114   0.919   0.435  1.00  0.00    -0.000 C 
HETATM    9  C7  UNL     1       1.544   1.471  -0.854  1.00  0.00     0.006 C 
BRANCH   7  10
HETATM   10  C2  UNL     1       4.249   2.298   0.690  1.00  0.00     0.000 C 
HETATM   11  C1  UNL     1       4.115   3.521  -0.103  1.00  0.00     0.005 C 
ENDBRANCH   7  10
ENDBRANCH   1   3
BRANCH   1  12
HETATM   12  N1  UNL     1      -0.356  -1.362   0.001  1.00  0.00    -0.330 N 
HETATM   13  C14 UNL     1      -1.340  -0.445   0.391  1.00  0.00     0.231 C 
HETATM   14  O2  UNL     1      -0.997   0.400   1.284  1.00  0.00    -0.272 OA
ATOM     15  H1  UNL     1      -0.610  -2.056  -0.703  1.00  0.00     0.168 HD
BRANCH  13  16
HETATM   16  C15 UNL     1      -2.703  -0.347  -0.101  1.00  0.00     0.048 C 
HETATM   17  C16 UNL     1      -3.406  -1.679   0.198  1.00  0.00     0.026 C 
HETATM   18  C17 UNL     1      -2.891  -0.121  -1.566  1.00  0.00    -0.001 C 
HETATM   19  C18 UNL     1      -2.301  -1.181  -2.457  1.00  0.00     0.011 C 
HETATM   20  C19 UNL     1      -2.387   1.219  -2.033  1.00  0.00     0.005 C 
HETATM   21  C20 UNL     1      -2.906   2.360  -1.220  1.00  0.00     0.001 C 
HETATM   22  C21 UNL     1      -3.049   2.121   0.236  1.00  0.00     0.010 C 
HETATM   23  C22 UNL     1      -3.508   0.728   0.609  1.00  0.00    -0.031 C 
HETATM   24  C23 UNL     1      -4.953   0.637   0.190  1.00  0.00     0.016 C 
HETATM   25  C24 UNL     1      -3.426   0.628   2.094  1.00  0.00     0.016 C 
ENDBRANCH  13  16
ENDBRANCH   1  12
BRANCH   2  26
HETATM   26  C12 UNL     1       2.298  -2.892   2.079  1.00  0.00     0.055 C 
BRANCH  26  27
HETATM   27  C13 UNL     1       2.713  -4.298   1.675  1.00  0.00     0.168 C 
BRANCH  27  28
HETATM   28  O1  UNL     1       3.825  -4.675   2.390  1.00  0.00    -0.401 OA
ATOM     29  H1  UNL     1       4.084  -5.553   2.138  1.00  0.00     0.209 HD
ENDBRANCH  27  28
ENDBRANCH  26  27
ENDBRANCH   2  26
TORSDOF 7
