REMARK  8 active torsions:
REMARK  status: ('A' for Active; 'I' for Inactive)
REMARK    1  A    between atoms: C2_2  and  C3_3 
REMARK    2  A    between atoms: C4_4  and  O1_5 
REMARK    3  A    between atoms: C9_11  and  C10_12 
REMARK    4  A    between atoms: C10_12  and  C11_13 
REMARK    5  A    between atoms: C10_12  and  C13_15 
REMARK    6  A    between atoms: C13_15  and  C15_17 
REMARK    7  A    between atoms: C15_17  and  C16_19 
REMARK    8  A    between atoms: C17_21  and  C19_23 
ROOT
HETATM    1  C3  UNL     1       3.437  -0.585   0.082  1.00  0.00     0.045 C 
HETATM    2  C4  UNL     1       3.277  -1.842  -0.666  1.00  0.00     0.126 C 
HETATM    3  C5  UNL     1       2.337  -1.527  -1.793  1.00  0.00     0.033 C 
HETATM    4  C6  UNL     1       0.973  -1.183  -1.216  1.00  0.00     0.013 C 
HETATM    5  C7  UNL     1       0.885  -0.441   0.019  1.00  0.00    -0.031 C 
HETATM    6  C8  UNL     1       0.629  -1.430   1.194  1.00  0.00     0.016 C 
HETATM    7  C9  UNL     1      -0.243   0.594   0.204  1.00  0.00     0.011 C 
HETATM    8  C17 UNL     1      -0.099   1.781  -0.677  1.00  0.00    -0.022 C 
HETATM    9  C18 UNL     1      -0.895   1.924  -1.901  1.00  0.00     0.020 C 
HETATM   10  C21 UNL     1       1.385   1.837  -1.181  1.00  0.00     0.014 C 
HETATM   11  C22 UNL     1       2.311   1.581  -0.075  1.00  0.00     0.012 C 
HETATM   12  C23 UNL     1       2.231   0.161   0.492  1.00  0.00    -0.027 C 
HETATM   13  C24 UNL     1       2.336   0.311   1.987  1.00  0.00     0.016 C 
ENDROOT
BRANCH   7  14
HETATM   14  C10 UNL     1      -1.560   0.050   0.599  1.00  0.00     0.002 C 
BRANCH  14  15
HETATM   15  C11 UNL     1      -2.341   1.404   0.928  1.00  0.00     0.001 C 
HETATM   16  C12 UNL     1      -3.732   1.270   1.398  1.00  0.00     0.005 C 
ENDBRANCH  14  15
BRANCH  14  17
HETATM   17  C13 UNL     1      -2.577  -0.573  -0.237  1.00  0.00     0.061 C 
HETATM   18  C14 UNL     1      -2.321  -1.736  -1.137  1.00  0.00     0.018 C 
BRANCH  17  19
HETATM   19  C15 UNL     1      -3.447  -1.392   0.741  1.00  0.00     0.166 C 
HETATM   20  O2  UNL     1      -2.968  -1.646   1.804  1.00  0.00    -0.292 OA
BRANCH  19  21
HETATM   21  C16 UNL     1      -4.789  -1.876   0.442  1.00  0.00     0.150 C 
HETATM   22  N1  UNL     1      -5.463  -1.397  -0.697  1.00  0.00    -0.111 NA
ENDBRANCH  19  21
ENDBRANCH  17  19
ENDBRANCH  14  17
ENDBRANCH   7  14
BRANCH   8  23
HETATM   23  C19 UNL     1      -0.146   3.105   0.018  1.00  0.00    -0.027 C 
HETATM   24  C20 UNL     1      -0.178   4.225  -0.657  1.00  0.00     0.007 C 
ENDBRANCH   8  23
BRANCH   1  25
HETATM   25  C2  UNL     1       4.445  -0.790   1.147  1.00  0.00    -0.029 C 
HETATM   26  C1  UNL     1       4.873  -1.951   1.587  1.00  0.00     0.007 C 
ENDBRANCH   1  25
BRANCH   2  27
HETATM   27  O1  UNL     1       4.517  -2.119  -1.304  1.00  0.00    -0.395 OA
ATOM     28  H1  UNL     1       4.414  -2.931  -1.787  1.00  0.00     0.210 HD
ENDBRANCH   2  27
TORSDOF 8
