REMARK  8 active torsions:
REMARK  status: ('A' for Active; 'I' for Inactive)
REMARK       I    between atoms: C1_4  and  N3_6 
REMARK       I    between atoms: N3_6  and  C2_8 
REMARK    1  A    between atoms: C2_8  and  C3_10 
REMARK    2  A    between atoms: C3_10  and  O2_11 
REMARK    3  A    between atoms: C3_10  and  C4_13 
REMARK    4  A    between atoms: C4_13  and  O3_14 
REMARK    5  A    between atoms: C4_13  and  C5_16 
REMARK    6  A    between atoms: C6_20  and  N6_21 
REMARK    7  A    between atoms: C9_24  and  N7_25 
REMARK    8  A    between atoms: N7_25  and  N8_27 
ROOT
HETATM    1  C5  UNL     1       0.731   1.018  -0.773  1.00  0.00     0.276 C 
HETATM    2  N4  UNL     1       0.799   0.468   0.542  1.00  0.00    -0.102 NA
HETATM    3  N5  UNL     1      -0.537   0.184   0.880  1.00  0.00    -0.266 N 
ATOM      4  H5  UNL     1      -0.865   0.016   1.831  1.00  0.00     0.186 HD
HETATM    5  C6  UNL     1      -1.295   0.162  -0.162  1.00  0.00     0.247 C 
HETATM    6  O5  UNL     1      -0.480   0.434  -1.246  1.00  0.00    -0.294 OA
ENDROOT
BRANCH   1   7
HETATM    7  C4  UNL     1       1.882   0.747  -1.673  1.00  0.00     0.203 C 
BRANCH   7   8
HETATM    8  C3  UNL     1       3.155   1.466  -1.339  1.00  0.00     0.242 C 
BRANCH   8   9
HETATM    9  C2  UNL     1       3.845   1.036  -0.127  1.00  0.00     0.255 C 
HETATM   10  N3  UNL     1       4.361  -0.274  -0.022  1.00  0.00    -0.299 N 
HETATM   11  C1  UNL     1       5.025  -0.677   1.159  1.00  0.00     0.188 C 
ATOM     12  H3  UNL     1       4.255  -0.929  -0.797  1.00  0.00     0.171 HD
HETATM   13  N1  UNL     1       5.513  -1.875   1.292  1.00  0.00    -0.373 N 
HETATM   14  N2  UNL     1       5.200   0.190   2.262  1.00  0.00    -0.064 NA
ATOM     15  H12 UNL     1       5.992  -2.166   2.144  1.00  0.00     0.158 HD
ATOM     16  H11 UNL     1       5.387  -2.500   0.496  1.00  0.00     0.158 HD
HETATM   17  O1  UNL     1       4.012   1.817   0.877  1.00  0.00    -0.270 OA
ENDBRANCH   8   9
BRANCH   8  18
HETATM   18  O2  UNL     1       2.825   2.830  -1.159  1.00  0.00    -0.383 OA
ATOM     19  H2  UNL     1       2.376   3.110  -1.948  1.00  0.00     0.210 HD
ENDBRANCH   8  18
ENDBRANCH   7   8
BRANCH   7  20
HETATM   20  O3  UNL     1       2.103  -0.608  -1.868  1.00  0.00    -0.388 OA
ATOM     21  H3  UNL     1       1.297  -1.063  -2.080  1.00  0.00     0.210 HD
ENDBRANCH   7  20
ENDBRANCH   1   7
BRANCH   5  22
HETATM   22  N6  UNL     1      -2.712  -0.097  -0.175  1.00  0.00    -0.238 N 
HETATM   23  C7  UNL     1      -3.576   0.552  -0.958  1.00  0.00     0.109 A 
HETATM   24  C8  UNL     1      -4.933   0.313  -0.978  1.00  0.00     0.068 A 
HETATM   25  C9  UNL     1      -5.390  -0.678  -0.112  1.00  0.00     0.124 A 
HETATM   26  N9  UNL     1      -4.522  -1.332   0.676  1.00  0.00    -0.293 N 
HETATM   27  C10 UNL     1      -3.191  -1.044   0.645  1.00  0.00     0.335 A 
ATOM     28  H9  UNL     1      -4.864  -2.056   1.308  1.00  0.00     0.172 HD
HETATM   29  O4  UNL     1      -2.443  -1.701   1.413  1.00  0.00    -0.246 OA
BRANCH  25  30
HETATM   30  N7  UNL     1      -6.653  -0.909  -0.123  1.00  0.00    -0.292 N 
ATOM     31  H7  UNL     1      -7.245  -0.366  -0.752  1.00  0.00     0.188 HD
BRANCH  30  32
HETATM   32  N8  UNL     1      -7.251  -1.877   0.695  1.00  0.00    -0.344 N 
ATOM     33  H82 UNL     1      -6.645  -2.410   1.318  1.00  0.00     0.176 HD
ATOM     34  H81 UNL     1      -8.254  -2.061   0.686  1.00  0.00     0.176 HD
ENDBRANCH  30  32
ENDBRANCH  25  30
ENDBRANCH   5  22
TORSDOF 8
