REMARK  10 active torsions:
REMARK  status: ('A' for Active; 'I' for Inactive)
REMARK    1  A    between atoms: N1_2  and  C2_4 
REMARK    2  A    between atoms: C3_7  and  N3_8 
REMARK    3  A    between atoms: N7_19  and  C6_20 
REMARK    4  A    between atoms: C6_20  and  C7_21 
REMARK    5  A    between atoms: C6_20  and  O1_26 
REMARK    6  A    between atoms: C7_21  and  N8_22 
REMARK    7  A    between atoms: O1_26  and  C8_27 
REMARK    8  A    between atoms: C8_27  and  C9_29 
REMARK    9  A    between atoms: C10_33  and  O3_34 
REMARK   10  A    between atoms: C11_36  and  O4_37 
ROOT
HETATM    1  C2  UNL     1       3.830  -0.040   1.525  1.00  0.00     0.148 A 
HETATM    2  N2  UNL     1       3.516  -1.246   2.025  1.00  0.00    -0.175 N 
ATOM      3  H2  UNL     1       4.126  -1.674   2.721  1.00  0.00     0.186 HD
HETATM    4  C3  UNL     1       2.402  -1.904   1.621  1.00  0.00     0.679 A 
HETATM    5  N4  UNL     1       1.552  -1.401   0.707  1.00  0.00    -0.173 N 
ATOM      6  H4  UNL     1       0.722  -1.922   0.424  1.00  0.00     0.186 HD
HETATM    7  C4  UNL     1       1.822  -0.195   0.175  1.00  0.00     0.173 A 
HETATM    8  C5  UNL     1       2.971   0.492   0.587  1.00  0.00     0.140 A 
HETATM    9  N5  UNL     1       2.956   1.626  -0.108  1.00  0.00    -0.279 N 
ATOM     10  H5  UNL     1       3.657   2.364  -0.050  1.00  0.00     0.189 HD
HETATM   11  N6  UNL     1       1.887   1.644  -0.886  1.00  0.00    -0.236 N 
ATOM     12  H6  UNL     1       1.648   2.409  -1.517  1.00  0.00     0.208 HD
HETATM   13  N7  UNL     1       1.169   0.546  -0.742  1.00  0.00    -0.227 N 
ENDROOT
BRANCH  13  14
HETATM   14  C6  UNL     1      -0.077   0.190  -1.423  1.00  0.00     0.282 C 
BRANCH  14  15
HETATM   15  C7  UNL     1      -0.077   0.711  -2.848  1.00  0.00     0.285 C 
BRANCH  15  16
HETATM   16  N8  UNL     1       1.109   0.283  -3.566  1.00  0.00    -0.075 N 
ATOM     17  H83 UNL     1       1.961   0.546  -3.071  1.00  0.00     0.274 HD
ATOM     18  H82 UNL     1       1.218  -0.731  -3.538  1.00  0.00     0.274 HD
ATOM     19  H81 UNL     1       1.109   0.633  -4.524  1.00  0.00     0.274 HD
ENDBRANCH  15  16
ENDBRANCH  14  15
BRANCH  14  20
HETATM   20  O1  UNL     1      -1.212   0.590  -0.709  1.00  0.00    -0.290 OA
BRANCH  20  21
HETATM   21  C8  UNL     1      -2.170  -0.239  -0.185  1.00  0.00     0.294 C 
HETATM   22  O2  UNL     1      -2.034  -1.476  -0.352  1.00  0.00    -0.263 OA
BRANCH  21  23
HETATM   23  C9  UNL     1      -3.362   0.285   0.571  1.00  0.00     0.320 C 
HETATM   24  N9  UNL     1      -4.235  -0.767   1.028  1.00  0.00    -0.030 N 
HETATM   25  C10 UNL     1      -5.147  -0.471  -0.053  1.00  0.00     0.351 C 
ATOM     26  H92 UNL     1      -3.875  -1.714   1.149  1.00  0.00     0.281 HD
ATOM     27  H91 UNL     1      -4.569  -0.773   1.992  1.00  0.00     0.281 HD
HETATM   28  C11 UNL     1      -4.454   0.835  -0.285  1.00  0.00     0.215 C 
BRANCH  25  29
HETATM   29  O3  UNL     1      -5.011  -1.331  -1.146  1.00  0.00    -0.368 OA
ATOM     30  H3  UNL     1      -5.611  -1.136  -1.857  1.00  0.00     0.212 HD
ENDBRANCH  25  29
BRANCH  28  31
HETATM   31  O4  UNL     1      -5.139   1.884   0.359  1.00  0.00    -0.389 OA
ATOM     32  H4  UNL     1      -5.834   2.234  -0.186  1.00  0.00     0.210 HD
ENDBRANCH  28  31
ENDBRANCH  21  23
ENDBRANCH  20  21
ENDBRANCH  14  20
ENDBRANCH  13  14
BRANCH   4  33
HETATM   33  N3  UNL     1       2.122  -3.074   2.125  1.00  0.00    -0.234 N 
ATOM     34  H32 UNL     1       2.766  -3.455   2.818  1.00  0.00     0.174 HD
ATOM     35  H31 UNL     1       1.284  -3.569   1.821  1.00  0.00     0.174 HD
ENDBRANCH   4  33
BRANCH   1  36
HETATM   36  N1  UNL     1       4.887   0.576   1.913  1.00  0.00    -0.378 N 
HETATM   37  C1  UNL     1       5.313   1.855   1.449  1.00  0.00     0.147 C 
ATOM     38  H1  UNL     1       5.470   0.113   2.610  1.00  0.00     0.160 HD
ENDBRANCH   1  36
TORSDOF 10
