REMARK  18 active torsions:
REMARK  status: ('A' for Active; 'I' for Inactive)
REMARK    1  A    between atoms: N1_1  and  C1_5 
REMARK    2  A    between atoms: C1_5  and  C2_6 
REMARK    3  A    between atoms: C2_6  and  C3_7 
REMARK    4  A    between atoms: C3_7  and  N2_8 
REMARK    5  A    between atoms: N2_8  and  C4_11 
REMARK    6  A    between atoms: C4_11  and  C5_12 
REMARK    7  A    between atoms: C5_12  and  C6_13 
REMARK    8  A    between atoms: C6_13  and  C7_14 
REMARK    9  A    between atoms: C7_14  and  C8_15 
REMARK   10  A    between atoms: C8_15  and  C9_16 
REMARK   11  A    between atoms: C9_16  and  C10_17 
REMARK   12  A    between atoms: C10_17  and  C11_18 
REMARK   13  A    between atoms: C11_18  and  C12_19 
REMARK   14  A    between atoms: C12_19  and  C13_20 
REMARK   15  A    between atoms: C13_20  and  C14_21 
REMARK   16  A    between atoms: C14_21  and  C15_22 
REMARK   17  A    between atoms: C15_22  and  C16_23 
REMARK   18  A    between atoms: C16_23  and  C17_24 
ROOT
HETATM    1  C8  UNL     1      -1.511  -2.717  -0.614  1.00  0.00     0.000 C 
ENDROOT
BRANCH   1   2
HETATM    2  C7  UNL     1      -2.270  -1.492  -0.999  1.00  0.00     0.000 C 
BRANCH   2   3
HETATM    3  C6  UNL     1      -3.738  -1.625  -0.717  1.00  0.00     0.002 C 
BRANCH   3   4
HETATM    4  C5  UNL     1      -3.996  -1.864   0.731  1.00  0.00     0.027 C 
BRANCH   4   5
HETATM    5  C4  UNL     1      -3.464  -0.758   1.578  1.00  0.00     0.232 C 
BRANCH   5   6
HETATM    6  N2  UNL     1      -4.059   0.498   1.223  1.00  0.00    -0.075 N 
ATOM      7  H22 UNL     1      -3.916   0.713   0.236  1.00  0.00     0.277 HD
ATOM      8  H21 UNL     1      -3.549   1.281   1.631  1.00  0.00     0.277 HD
BRANCH   6   9
HETATM    9  C3  UNL     1      -5.437   0.538   1.569  1.00  0.00     0.233 C 
BRANCH   9  10
HETATM   10  C2  UNL     1      -6.092   1.863   1.217  1.00  0.00     0.055 C 
BRANCH  10  11
HETATM   11  C1  UNL     1      -7.544   1.768   1.636  1.00  0.00     0.231 C 
BRANCH  11  12
HETATM   12  N1  UNL     1      -8.274   2.971   1.352  1.00  0.00    -0.079 N 
ATOM     13  H13 UNL     1      -7.822   3.783   1.772  1.00  0.00     0.274 HD
ATOM     14  H12 UNL     1      -8.191   3.228   0.369  1.00  0.00     0.274 HD
ATOM     15  H11 UNL     1      -9.252   2.907   1.634  1.00  0.00     0.274 HD
ENDBRANCH  11  12
ENDBRANCH  10  11
ENDBRANCH   9  10
ENDBRANCH   6   9
ENDBRANCH   5   6
ENDBRANCH   4   5
ENDBRANCH   3   4
ENDBRANCH   2   3
ENDBRANCH   1   2
BRANCH   1  16
HETATM   16  C9  UNL     1      -0.044  -2.538  -0.903  1.00  0.00     0.000 C 
BRANCH  16  17
HETATM   17  C10 UNL     1       0.198  -2.299  -2.347  1.00  0.00     0.000 C 
BRANCH  17  18
HETATM   18  C11 UNL     1       1.680  -2.156  -2.687  1.00  0.00     0.000 C 
BRANCH  18  19
HETATM   19  C12 UNL     1       2.247  -0.999  -1.934  1.00  0.00     0.000 C 
BRANCH  19  20
HETATM   20  C13 UNL     1       3.721  -0.784  -2.233  1.00  0.00     0.000 C 
BRANCH  20  21
HETATM   21  C14 UNL     1       4.178   0.416  -1.409  1.00  0.00     0.000 C 
BRANCH  21  22
HETATM   22  C15 UNL     1       5.640   0.707  -1.645  1.00  0.00     0.005 C 
BRANCH  22  23
HETATM   23  C16 UNL     1       6.132   1.878  -0.858  1.00  0.00     0.038 C 
BRANCH  23  24
HETATM   24  C17 UNL     1       5.995   1.699   0.610  1.00  0.00    -0.058 A 
HETATM   25  C18 UNL     1       6.991   1.128   1.367  1.00  0.00     0.007 A 
HETATM   26  C19 UNL     1       6.823   0.985   2.715  1.00  0.00     0.001 A 
HETATM   27  C20 UNL     1       5.662   1.408   3.337  1.00  0.00     0.000 A 
HETATM   28  C21 UNL     1       4.665   1.981   2.575  1.00  0.00     0.001 A 
HETATM   29  C22 UNL     1       4.843   2.121   1.214  1.00  0.00     0.007 A 
ENDBRANCH  23  24
ENDBRANCH  22  23
ENDBRANCH  21  22
ENDBRANCH  20  21
ENDBRANCH  19  20
ENDBRANCH  18  19
ENDBRANCH  17  18
ENDBRANCH  16  17
ENDBRANCH   1  16
TORSDOF 18
