REMARK  13 active torsions:
REMARK  status: ('A' for Active; 'I' for Inactive)
REMARK    1  A    between atoms: C2_2  and  C3_3 
REMARK    2  A    between atoms: C3_3  and  C4_4 
REMARK    3  A    between atoms: C4_4  and  C15_19 
REMARK    4  A    between atoms: C5_5  and  C6_6 
REMARK    5  A    between atoms: C6_6  and  C7_7 
REMARK    6  A    between atoms: C7_7  and  C8_8 
REMARK    7  A    between atoms: C8_8  and  C10_10 
REMARK    8  A    between atoms: C10_10  and  C11_12 
REMARK    9  A    between atoms: C11_12  and  O2_13 
REMARK   10  A    between atoms: C11_12  and  C13_15 
REMARK   11  A    between atoms: C13_15  and  O3_17 
REMARK   12  A    between atoms: C15_19  and  C16_20 
REMARK   13  A    between atoms: C16_20  and  C17_21 
ROOT
HETATM    1  C6  UNL     1      -0.041  -0.613   1.392  1.00  0.00     0.028 C 
ENDROOT
BRANCH   1   2
HETATM    2  C5  UNL     1       1.172   0.213   1.381  1.00  0.00    -0.024 C 
HETATM    3  C4  UNL     1       2.338  -0.135   0.853  1.00  0.00    -0.080 C 
BRANCH   3   4
HETATM    4  C3  UNL     1       2.480  -1.455   0.207  1.00  0.00     0.060 C 
BRANCH   4   5
HETATM    5  C2  UNL     1       3.564  -2.211   0.935  1.00  0.00    -0.033 C 
HETATM    6  C1  UNL     1       3.310  -3.362   1.524  1.00  0.00     0.007 C 
ENDBRANCH   4   5
ENDBRANCH   3   4
BRANCH   3   7
HETATM    7  C15 UNL     1       3.466   0.806   1.014  1.00  0.00     0.038 C 
BRANCH   7   8
HETATM    8  C16 UNL     1       4.053   1.405  -0.191  1.00  0.00     0.031 C 
BRANCH   8   9
HETATM    9  C17 UNL     1       4.634   0.488  -1.169  1.00  0.00    -0.024 C 
HETATM   10  C18 UNL     1       4.298   0.550  -2.475  1.00  0.00    -0.091 C 
HETATM   11  C19 UNL     1       4.911  -0.396  -3.424  1.00  0.00     0.042 C 
HETATM   12  C20 UNL     1       3.320   1.577  -2.895  1.00  0.00     0.042 C 
ENDBRANCH   8   9
ENDBRANCH   7   8
ENDBRANCH   3   7
ENDBRANCH   1   2
BRANCH   1  13
HETATM   13  C7  UNL     1      -1.173   0.079   0.600  1.00  0.00     0.015 C 
BRANCH  13  14
HETATM   14  C8  UNL     1      -2.350  -0.890   0.702  1.00  0.00     0.054 C 
HETATM   15  C9  UNL     1      -1.869  -2.179   0.073  1.00  0.00     0.018 C 
BRANCH  14  16
HETATM   16  C10 UNL     1      -3.526  -0.421  -0.025  1.00  0.00     0.161 C 
HETATM   17  O1  UNL     1      -3.978  -1.104  -0.928  1.00  0.00    -0.295 OA
BRANCH  16  18
HETATM   18  C11 UNL     1      -4.241   0.853   0.245  1.00  0.00     0.218 C 
BRANCH  18  19
HETATM   19  O2  UNL     1      -5.314   1.063  -0.576  1.00  0.00    -0.381 OA
HETATM   20  C12 UNL     1      -5.203   2.185  -1.384  1.00  0.00     0.202 C 
ENDBRANCH  18  19
BRANCH  18  21
HETATM   21  C13 UNL     1      -4.675   0.977   1.680  1.00  0.00     0.150 C 
HETATM   22  C14 UNL     1      -5.750   0.004   2.058  1.00  0.00     0.042 C 
BRANCH  21  23
HETATM   23  O3  UNL     1      -5.181   2.263   1.874  1.00  0.00    -0.393 OA
ATOM     24  H3  UNL     1      -5.455   2.341   2.780  1.00  0.00     0.210 HD
ENDBRANCH  21  23
ENDBRANCH  18  21
ENDBRANCH  16  18
ENDBRANCH  14  16
ENDBRANCH  13  14
ENDBRANCH   1  13
TORSDOF 13
