REMARK  12 active torsions:
REMARK  status: ('A' for Active; 'I' for Inactive)
REMARK    1  A    between atoms: C2_2  and  C3_3 
REMARK    2  A    between atoms: C4_4  and  C5_5 
REMARK    3  A    between atoms: C5_5  and  N1_6 
REMARK    4  A    between atoms: N1_6  and  C6_9 
REMARK    5  A    between atoms: C6_9  and  C7_10 
REMARK    6  A    between atoms: C9_12  and  C10_13 
REMARK    7  A    between atoms: C10_13  and  C11_14 
REMARK    8  A    between atoms: C11_14  and  C12_15 
REMARK    9  A    between atoms: C14_17  and  C15_18 
REMARK   10  A    between atoms: C15_18  and  O1_19 
REMARK   11  A    between atoms: O1_19  and  C16_20 
REMARK   12  A    between atoms: C16_20  and  C17_21 
ROOT
HETATM    1  C10 UNL     1      -0.767  -0.831  -0.349  1.00  0.00     0.031 C 
ENDROOT
BRANCH   1   2
HETATM    2  C9  UNL     1      -1.814  -1.531   0.413  1.00  0.00    -0.022 C 
HETATM    3  C7  UNL     1      -3.014  -1.703  -0.124  1.00  0.00    -0.062 C 
HETATM    4  C8  UNL     1      -3.287  -1.191  -1.476  1.00  0.00     0.044 C 
BRANCH   3   5
HETATM    5  C6  UNL     1      -4.063  -2.414   0.662  1.00  0.00     0.266 C 
BRANCH   5   6
HETATM    6  N1  UNL     1      -5.225  -1.604   0.902  1.00  0.00    -0.069 N 
ATOM      7  H12 UNL     1      -6.002  -2.174   1.236  1.00  0.00     0.277 HD
ATOM      8  H11 UNL     1      -5.625  -1.273   0.024  1.00  0.00     0.277 HD
BRANCH   6   9
HETATM    9  C5  UNL     1      -4.970  -0.491   1.808  1.00  0.00     0.260 C 
BRANCH   9  10
HETATM   10  C4  UNL     1      -6.226   0.269   1.963  1.00  0.00     0.000 C 
HETATM   11  C3  UNL     1      -6.426   1.525   1.669  1.00  0.00    -0.003 C 
BRANCH  11  12
HETATM   12  C2  UNL     1      -5.422   2.408   1.126  1.00  0.00    -0.011 C 
HETATM   13  C1  UNL     1      -5.610   3.658   0.829  1.00  0.00     0.011 C 
ENDBRANCH  11  12
ENDBRANCH   9  10
ENDBRANCH   6   9
ENDBRANCH   5   6
ENDBRANCH   3   5
ENDBRANCH   1   2
BRANCH   1  14
HETATM   14  C11 UNL     1       0.453  -1.708  -0.581  1.00  0.00     0.037 C 
BRANCH  14  15
HETATM   15  C12 UNL     1       1.429  -0.914  -1.352  1.00  0.00    -0.085 C 
HETATM   16  C13 UNL     1       1.055  -0.400  -2.682  1.00  0.00     0.043 C 
HETATM   17  C14 UNL     1       2.619  -0.671  -0.856  1.00  0.00     0.001 C 
BRANCH  17  18
HETATM   18  C15 UNL     1       3.602   0.141  -1.655  1.00  0.00     0.195 C 
BRANCH  18  19
HETATM   19  O1  UNL     1       4.754  -0.547  -1.936  1.00  0.00    -0.383 OA
BRANCH  19  20
HETATM   20  C16 UNL     1       5.463  -0.964  -0.820  1.00  0.00     0.206 C 
BRANCH  20  21
HETATM   21  C17 UNL     1       5.832   0.245  -0.039  1.00  0.00    -0.035 A 
HETATM   22  C18 UNL     1       6.425   1.286  -0.735  1.00  0.00     0.009 A 
HETATM   23  C19 UNL     1       6.785   2.432  -0.050  1.00  0.00     0.001 A 
HETATM   24  C20 UNL     1       6.560   2.548   1.314  1.00  0.00     0.000 A 
HETATM   25  C21 UNL     1       5.971   1.519   2.016  1.00  0.00     0.001 A 
HETATM   26  C22 UNL     1       5.621   0.387   1.313  1.00  0.00     0.009 A 
ENDBRANCH  20  21
ENDBRANCH  19  20
ENDBRANCH  18  19
ENDBRANCH  17  18
ENDBRANCH  14  15
ENDBRANCH   1  14
TORSDOF 12
