REMARK  12 active torsions:
REMARK  status: ('A' for Active; 'I' for Inactive)
REMARK    1  A    between atoms: C2_2  and  C3_3 
REMARK    2  A    between atoms: C2_2  and  C16_20 
REMARK    3  A    between atoms: C3_3  and  O1_4 
REMARK    4  A    between atoms: O1_4  and  C4_5 
REMARK    5  A    between atoms: C4_5  and  C5_6 
REMARK    6  A    between atoms: C5_6  and  C6_7 
REMARK    7  A    between atoms: C6_7  and  C7_8 
REMARK    8  A    between atoms: C7_8  and  C8_9 
REMARK    9  A    between atoms: C8_9  and  N1_10 
REMARK   10  A    between atoms: N1_10  and  C9_13 
REMARK   11  A    between atoms: C9_13  and  C10_14 
REMARK   12  A    between atoms: C16_20  and  C17_21 
ROOT
HETATM    1  C5  UNL     1       0.174  -0.237  -1.025  1.00  0.00     0.026 C 
ENDROOT
BRANCH   1   2
HETATM    2  C4  UNL     1      -1.265  -0.265  -1.558  1.00  0.00     0.167 C 
BRANCH   2   3
HETATM    3  O1  UNL     1      -1.758  -1.534  -1.598  1.00  0.00    -0.391 OA
BRANCH   3   4
HETATM    4  C3  UNL     1      -3.028  -1.585  -2.101  1.00  0.00     0.172 C 
BRANCH   4   5
HETATM    5  C2  UNL     1      -3.976  -0.779  -1.256  1.00  0.00     0.010 C 
HETATM    6  C1  UNL     1      -5.381  -0.880  -1.838  1.00  0.00     0.012 C 
BRANCH   5   7
HETATM    7  C16 UNL     1      -3.924  -1.253   0.156  1.00  0.00     0.045 C 
BRANCH   7   8
HETATM    8  C17 UNL     1      -4.819  -0.472   1.053  1.00  0.00    -0.058 A 
HETATM    9  C18 UNL     1      -6.122  -0.872   1.255  1.00  0.00     0.007 A 
HETATM   10  C19 UNL     1      -6.945  -0.134   2.089  1.00  0.00     0.001 A 
HETATM   11  C20 UNL     1      -6.439   0.996   2.703  1.00  0.00     0.000 A 
HETATM   12  C21 UNL     1      -5.131   1.397   2.500  1.00  0.00     0.001 A 
HETATM   13  C22 UNL     1      -4.303   0.661   1.666  1.00  0.00     0.007 A 
ENDBRANCH   7   8
ENDBRANCH   5   7
ENDBRANCH   4   5
ENDBRANCH   3   4
ENDBRANCH   2   3
ENDBRANCH   1   2
BRANCH   1  14
HETATM   14  C6  UNL     1       0.606   1.205  -1.013  1.00  0.00     0.004 C 
BRANCH  14  15
HETATM   15  C7  UNL     1       1.998   1.358  -0.499  1.00  0.00     0.027 C 
BRANCH  15  16
HETATM   16  C8  UNL     1       2.969   0.616  -1.375  1.00  0.00     0.232 C 
BRANCH  16  17
HETATM   17  N1  UNL     1       4.338   0.752  -0.902  1.00  0.00    -0.071 N 
ATOM     18  H12 UNL     1       5.012   0.458  -1.609  1.00  0.00     0.277 HD
ATOM     19  H11 UNL     1       4.613   1.731  -0.823  1.00  0.00     0.277 HD
BRANCH  17  20
HETATM   20  C9  UNL     1       4.525   0.052   0.325  1.00  0.00     0.270 C 
BRANCH  20  21
HETATM   21  C10 UNL     1       5.881   0.130   0.873  1.00  0.00    -0.033 A 
HETATM   22  C11 UNL     1       6.858   0.967   0.373  1.00  0.00     0.009 A 
HETATM   23  C12 UNL     1       8.126   1.007   0.914  1.00  0.00     0.001 A 
HETATM   24  C13 UNL     1       8.400   0.181   1.979  1.00  0.00     0.000 A 
HETATM   25  C14 UNL     1       7.463  -0.656   2.497  1.00  0.00     0.001 A 
HETATM   26  C15 UNL     1       6.207  -0.679   1.942  1.00  0.00     0.009 A 
ENDBRANCH  20  21
ENDBRANCH  17  20
ENDBRANCH  16  17
ENDBRANCH  15  16
ENDBRANCH  14  15
ENDBRANCH   1  14
TORSDOF 12
