REMARK  16 active torsions:
REMARK  status: ('A' for Active; 'I' for Inactive)
REMARK    1  A    between atoms: O1_2  and  C2_3 
REMARK    2  A    between atoms: C2_3  and  C5_6 
REMARK    3  A    between atoms: C6_7  and  C7_8 
REMARK    4  A    between atoms: C7_8  and  C8_10 
REMARK    5  A    between atoms: C8_10  and  O3_11 
REMARK    6  A    between atoms: C8_10  and  C11_15 
REMARK    7  A    between atoms: O3_11  and  C9_12 
REMARK    8  A    between atoms: C11_15  and  C12_16 
REMARK    9  A    between atoms: C11_15  and  O6_19 
REMARK   10  A    between atoms: C12_16  and  O5_17 
REMARK   11  A    between atoms: O6_19  and  C13_20 
REMARK   12  A    between atoms: C14_21  and  O7_22 
REMARK   13  A    between atoms: O7_22  and  C15_23 
REMARK   14  A    between atoms: C18_29  and  O11_30 
REMARK   15  A    between atoms: C19_32  and  O12_33 
REMARK   16  A    between atoms: O12_33  and  C20_34 
ROOT
HETATM    1  C11 UNL     1      -0.178   0.753  -1.288  1.00  0.00     0.183 C 
ENDROOT
BRANCH   1   2
HETATM    2  C8  UNL     1       1.253   0.963  -0.986  1.00  0.00     0.236 C 
BRANCH   2   3
HETATM    3  C7  UNL     1       1.751   0.732   0.352  1.00  0.00     0.181 C 
HETATM    4  O2  UNL     1       1.315   1.283   1.396  1.00  0.00    -0.290 OA
BRANCH   3   5
HETATM    5  C6  UNL     1       2.860  -0.211   0.580  1.00  0.00     0.052 C 
HETATM    6  C5  UNL     1       3.337  -0.447   1.785  1.00  0.00     0.014 C 
BRANCH   6   7
HETATM    7  C2  UNL     1       4.428  -1.364   2.090  1.00  0.00     0.071 C 
HETATM    8  C3  UNL     1       5.451  -0.569   2.915  1.00  0.00     0.050 C 
HETATM    9  C4  UNL     1       5.147  -1.905   0.897  1.00  0.00     0.050 C 
BRANCH   7  10
HETATM   10  O1  UNL     1       3.997  -2.436   2.877  1.00  0.00    -0.382 OA
HETATM   11  C1  UNL     1       5.058  -3.246   3.216  1.00  0.00     0.202 C 
ENDBRANCH   7  10
ENDBRANCH   6   7
ENDBRANCH   3   5
ENDBRANCH   2   3
BRANCH   2  12
HETATM   12  O3  UNL     1       2.052   0.275  -1.973  1.00  0.00    -0.305 OA
BRANCH  12  13
HETATM   13  C9  UNL     1       2.835   0.930  -2.898  1.00  0.00     0.255 C 
HETATM   14  C10 UNL     1       3.653   0.165  -3.909  1.00  0.00     0.126 C 
HETATM   15  O4  UNL     1       2.841   2.198  -2.870  1.00  0.00    -0.266 OA
ENDBRANCH  12  13
ENDBRANCH   2  12
ENDBRANCH   1   2
BRANCH   1  16
HETATM   16  C12 UNL     1      -0.454   1.395  -2.700  1.00  0.00     0.199 C 
BRANCH  16  17
HETATM   17  O5  UNL     1      -1.745   1.128  -3.109  1.00  0.00    -0.398 OA
ATOM     18  H5  UNL     1      -1.911   1.515  -3.960  1.00  0.00     0.209 HD
ENDBRANCH  16  17
ENDBRANCH   1  16
BRANCH   1  19
HETATM   19  O6  UNL     1      -1.022   1.298  -0.372  1.00  0.00    -0.368 OA
BRANCH  19  20
HETATM   20  C13 UNL     1      -2.135   0.579  -0.024  1.00  0.00     0.210 C 
HETATM   21  C14 UNL     1      -2.124   0.077   1.434  1.00  0.00     0.310 C 
HETATM   22  O9  UNL     1      -1.873   1.149   2.322  1.00  0.00    -0.284 OA
HETATM   23  C17 UNL     1      -2.451   2.368   1.910  1.00  0.00     0.292 C 
HETATM   24  O10 UNL     1      -1.934   3.446   2.226  1.00  0.00    -0.262 OA
HETATM   25  C18 UNL     1      -3.689   2.190   1.094  1.00  0.00     0.249 C 
HETATM   26  C19 UNL     1      -3.344   1.475  -0.197  1.00  0.00     0.194 C 
BRANCH  21  27
HETATM   27  O7  UNL     1      -1.174  -0.927   1.655  1.00  0.00    -0.287 OA
BRANCH  27  28
HETATM   28  C15 UNL     1      -1.502  -2.245   2.019  1.00  0.00     0.257 C 
HETATM   29  C16 UNL     1      -0.482  -3.284   2.243  1.00  0.00     0.126 C 
HETATM   30  O8  UNL     1      -2.715  -2.504   2.145  1.00  0.00    -0.266 OA
ENDBRANCH  27  28
ENDBRANCH  21  27
BRANCH  25  31
HETATM   31  O11 UNL     1      -4.694   1.591   1.807  1.00  0.00    -0.383 OA
ATOM     32  H11 UNL     1      -5.482   1.478   1.288  1.00  0.00     0.210 HD
ENDBRANCH  25  31
BRANCH  26  33
HETATM   33  O12 UNL     1      -4.489   0.774  -0.567  1.00  0.00    -0.376 OA
BRANCH  33  34
HETATM   34  C20 UNL     1      -5.077   1.271  -1.704  1.00  0.00     0.114 C 
HETATM   35  C21 UNL     1      -6.452   1.868  -1.386  1.00  0.00     0.039 C 
HETATM   36  C22 UNL     1      -5.281   0.281  -2.804  1.00  0.00     0.039 C 
ENDBRANCH  33  34
ENDBRANCH  26  33
ENDBRANCH  19  20
ENDBRANCH   1  19
TORSDOF 16
