REMARK  17 active torsions:
REMARK  status: ('A' for Active; 'I' for Inactive)
REMARK    1  A    between atoms: C2_2  and  O1_3 
REMARK    2  A    between atoms: O1_3  and  C3_4 
REMARK    3  A    between atoms: C3_4  and  C4_6 
REMARK    4  A    between atoms: C4_6  and  C5_7 
REMARK    5  A    between atoms: C5_7  and  C6_8 
REMARK    6  A    between atoms: C5_7  and  C15_27 
REMARK    7  A    between atoms: C6_8  and  O3_9 
REMARK    8  A    between atoms: C6_8  and  C7_11 
REMARK    9  A    between atoms: C8_13  and  O5_14 
REMARK   10  A    between atoms: C9_16  and  C10_17 
REMARK   11  A    between atoms: C10_17  and  O7_19 
REMARK   12  A    between atoms: C12_21  and  O8_22 
REMARK   13  A    between atoms: O8_22  and  C13_23 
REMARK   14  A    between atoms: C15_27  and  O11_28 
REMARK   15  A    between atoms: C15_27  and  C18_32 
REMARK   16  A    between atoms: O11_28  and  C16_29 
REMARK   17  A    between atoms: C18_32  and  C20_34 
ROOT
HETATM    1  C6  UNL     1      -0.633   0.493  -0.658  1.00  0.00     0.180 C 
ENDROOT
BRANCH   1   2
HETATM    2  C5  UNL     1      -1.822   0.791   0.131  1.00  0.00     0.058 C 
BRANCH   2   3
HETATM    3  C4  UNL     1      -2.587  -0.380   0.626  1.00  0.00     0.121 C 
BRANCH   3   4
HETATM    4  C3  UNL     1      -2.012  -1.289   1.610  1.00  0.00     0.259 C 
HETATM    5  O2  UNL     1      -1.244  -0.867   2.506  1.00  0.00    -0.265 OA
BRANCH   4   6
HETATM    6  O1  UNL     1      -2.301  -2.650   1.585  1.00  0.00    -0.322 OA
BRANCH   6   7
HETATM    7  C2  UNL     1      -1.816  -3.613   2.473  1.00  0.00     0.174 C 
HETATM    8  C1  UNL     1      -0.317  -3.684   2.384  1.00  0.00     0.034 C 
ENDBRANCH   6   7
ENDBRANCH   4   6
ENDBRANCH   3   4
ENDBRANCH   2   3
BRANCH   2   9
HETATM    9  C15 UNL     1      -2.751   1.825  -0.493  1.00  0.00     0.142 C 
BRANCH   9  10
HETATM   10  O11 UNL     1      -3.512   1.351  -1.541  1.00  0.00    -0.315 OA
BRANCH  10  11
HETATM   11  C16 UNL     1      -3.377   1.659  -2.847  1.00  0.00     0.255 C 
HETATM   12  C17 UNL     1      -4.237   1.105  -3.950  1.00  0.00     0.126 C 
HETATM   13  O12 UNL     1      -2.477   2.459  -3.171  1.00  0.00    -0.266 OA
ENDBRANCH  10  11
ENDBRANCH   9  10
BRANCH   9  14
HETATM   14  C18 UNL     1      -3.374   2.794   0.440  1.00  0.00     0.011 C 
HETATM   15  C19 UNL     1      -4.233   2.283   1.532  1.00  0.00     0.012 C 
BRANCH  14  16
HETATM   16  C20 UNL     1      -2.369   3.765   1.084  1.00  0.00     0.002 C 
HETATM   17  C21 UNL     1      -1.639   4.607   0.103  1.00  0.00     0.005 C 
ENDBRANCH  14  16
ENDBRANCH   9  14
ENDBRANCH   2   9
ENDBRANCH   1   2
BRANCH   1  18
HETATM   18  O3  UNL     1       0.038   1.664  -1.118  1.00  0.00    -0.390 OA
ATOM     19  H3  UNL     1       0.813   1.470  -1.632  1.00  0.00     0.210 HD
ENDBRANCH   1  18
BRANCH   1  20
HETATM   20  C7  UNL     1       0.466  -0.386  -0.192  1.00  0.00     0.295 C 
HETATM   21  O4  UNL     1       1.186   0.284   0.790  1.00  0.00    -0.328 OA
HETATM   22  C8  UNL     1       2.299  -0.397   1.232  1.00  0.00     0.278 C 
HETATM   23  C9  UNL     1       3.215  -0.557   0.023  1.00  0.00     0.196 C 
HETATM   24  C12 UNL     1       2.420  -1.323  -1.001  1.00  0.00     0.291 C 
HETATM   25  O10 UNL     1       1.301  -0.561  -1.338  1.00  0.00    -0.327 OA
BRANCH  22  26
HETATM   26  O5  UNL     1       2.936   0.396   2.177  1.00  0.00    -0.370 OA
ATOM     27  H5  UNL     1       3.704  -0.074   2.482  1.00  0.00     0.212 HD
ENDBRANCH  22  26
BRANCH  23  28
HETATM   28  C10 UNL     1       4.505  -1.139   0.378  1.00  0.00     0.272 C 
HETATM   29  O6  UNL     1       5.008  -2.196  -0.029  1.00  0.00    -0.265 OA
BRANCH  28  30
HETATM   30  O7  UNL     1       5.275  -0.405   1.301  1.00  0.00    -0.326 OA
HETATM   31  C11 UNL     1       6.530  -0.838   1.736  1.00  0.00     0.213 C 
ENDBRANCH  28  30
ENDBRANCH  23  28
BRANCH  24  32
HETATM   32  O8  UNL     1       3.198  -1.394  -2.179  1.00  0.00    -0.289 OA
BRANCH  32  33
HETATM   33  C13 UNL     1       3.498  -2.570  -2.819  1.00  0.00     0.257 C 
HETATM   34  C14 UNL     1       4.332  -2.515  -4.051  1.00  0.00     0.126 C 
HETATM   35  O9  UNL     1       3.070  -3.642  -2.360  1.00  0.00    -0.266 OA
ENDBRANCH  32  33
ENDBRANCH  24  32
ENDBRANCH   1  20
TORSDOF 17
