REMARK  13 active torsions:
REMARK  status: ('A' for Active; 'I' for Inactive)
REMARK    1  A    between atoms: C2_2  and  C3_3 
REMARK    2  A    between atoms: C3_3  and  C4_4 
REMARK    3  A    between atoms: C4_4  and  C5_5 
REMARK    4  A    between atoms: C5_5  and  O1_6 
REMARK    5  A    between atoms: C5_5  and  C19_29 
REMARK    6  A    between atoms: O1_6  and  C6_7 
REMARK    7  A    between atoms: C7_8  and  O2_9 
REMARK    8  A    between atoms: O2_9  and  C8_10 
REMARK    9  A    between atoms: C8_10  and  O3_11 
REMARK   10  A    between atoms: C10_13  and  C11_14 
REMARK   11  A    between atoms: C11_14  and  O5_16 
REMARK   12  A    between atoms: C19_29  and  O11_30 
REMARK   13  A    between atoms: C19_29  and  C20_32 
ROOT
HETATM    1  C6  UNL     1       0.050   0.065  -0.606  1.00  0.00     0.248 C 
HETATM    2  C7  UNL     1      -1.165   0.636   0.094  1.00  0.00     0.211 C 
HETATM    3  C10 UNL     1      -2.300  -0.312   0.225  1.00  0.00     0.229 C 
HETATM    4  O6  UNL     1      -3.553   0.268   0.251  1.00  0.00    -0.327 OA
HETATM    5  C13 UNL     1      -4.413  -0.549  -0.507  1.00  0.00     0.162 C 
HETATM    6  C14 UNL     1      -4.894   0.231  -1.704  1.00  0.00     0.078 C 
HETATM    7  C15 UNL     1      -5.582  -1.048   0.275  1.00  0.00     0.078 C 
HETATM    8  O7  UNL     1      -3.627  -1.638  -0.956  1.00  0.00    -0.322 OA
HETATM    9  C16 UNL     1      -2.416  -1.036  -1.132  1.00  0.00     0.317 C 
HETATM   10  O8  UNL     1      -1.315  -1.856  -1.200  1.00  0.00    -0.296 OA
HETATM   11  C17 UNL     1      -0.255  -1.003  -1.592  1.00  0.00     0.318 C 
HETATM   12  O9  UNL     1       0.841  -1.644  -2.093  1.00  0.00    -0.305 OA
HETATM   13  C18 UNL     1       0.665  -1.017  -3.319  1.00  0.00     0.350 C 
HETATM   14  O10 UNL     1      -0.568  -0.538  -2.890  1.00  0.00    -0.305 OA
ENDROOT
BRANCH   1  15
HETATM   15  O1  UNL     1       1.037  -0.311   0.296  1.00  0.00    -0.367 OA
BRANCH  15  16
HETATM   16  C5  UNL     1       2.186   0.434   0.252  1.00  0.00     0.161 C 
BRANCH  16  17
HETATM   17  C4  UNL     1       3.423  -0.297  -0.134  1.00  0.00     0.035 C 
BRANCH  17  18
HETATM   18  C3  UNL     1       3.815  -1.438   0.747  1.00  0.00     0.002 C 
BRANCH  18  19
HETATM   19  C2  UNL     1       5.098  -2.030   0.138  1.00  0.00    -0.004 C 
HETATM   20  C1  UNL     1       6.195  -1.009   0.089  1.00  0.00     0.005 C 
ENDBRANCH  18  19
ENDBRANCH  17  18
ENDBRANCH  16  17
BRANCH  16  21
HETATM   21  C19 UNL     1       2.436   1.226   1.513  1.00  0.00     0.247 C 
BRANCH  21  22
HETATM   22  O11 UNL     1       2.543   0.480   2.655  1.00  0.00    -0.382 OA
ATOM     23  H11 UNL     1       2.700   0.978   3.448  1.00  0.00     0.210 HD
ENDBRANCH  21  22
BRANCH  21  24
HETATM   24  C20 UNL     1       3.711   1.999   1.296  1.00  0.00     0.205 C 
HETATM   25  O12 UNL     1       4.655   1.885   2.117  1.00  0.00    -0.646 OA
HETATM   26  O13 UNL     1       3.885   2.837   0.218  1.00  0.00    -0.646 OA
ENDBRANCH  21  24
ENDBRANCH  16  21
ENDBRANCH  15  16
ENDBRANCH   1  15
BRANCH   2  27
HETATM   27  O2  UNL     1      -1.615   1.820  -0.452  1.00  0.00    -0.355 OA
BRANCH  27  28
HETATM   28  C8  UNL     1      -1.490   2.901   0.409  1.00  0.00     0.337 C 
BRANCH  28  29
HETATM   29  O3  UNL     1      -1.967   4.035  -0.238  1.00  0.00    -0.372 OA
HETATM   30  C9  UNL     1      -3.303   3.814  -0.562  1.00  0.00     0.204 C 
ENDBRANCH  28  29
ENDBRANCH  27  28
ENDBRANCH   2  27
BRANCH   3  31
HETATM   31  C11 UNL     1      -2.168  -1.269   1.322  1.00  0.00     0.301 C 
HETATM   32  O4  UNL     1      -3.121  -1.446   2.115  1.00  0.00    -0.261 OA
BRANCH  31  33
HETATM   33  O5  UNL     1      -1.016  -2.009   1.537  1.00  0.00    -0.324 OA
HETATM   34  C12 UNL     1      -0.943  -2.924   2.618  1.00  0.00     0.213 C 
ENDBRANCH  31  33
ENDBRANCH   3  31
TORSDOF 13
