REMARK  16 active torsions:
REMARK  status: ('A' for Active; 'I' for Inactive)
REMARK    1  A    between atoms: C2_2  and  C3_3 
REMARK    2  A    between atoms: C3_3  and  C4_4 
REMARK    3  A    between atoms: C4_4  and  O2_6 
REMARK    4  A    between atoms: O2_6  and  C5_7 
REMARK    5  A    between atoms: C6_8  and  O3_9 
REMARK    6  A    between atoms: O3_9  and  C7_10 
REMARK    7  A    between atoms: C8_11  and  O4_12 
REMARK    8  A    between atoms: O4_12  and  C9_13 
REMARK    9  A    between atoms: C12_17  and  O6_18 
REMARK   10  A    between atoms: O6_18  and  C13_19 
REMARK   11  A    between atoms: C15_22  and  S1_23 
REMARK   12  A    between atoms: S1_23  and  C16_24 
REMARK   13  A    between atoms: C16_24  and  C17_25 
REMARK   14  A    between atoms: C19_28  and  C20_29 
REMARK   15  A    between atoms: C20_29  and  O9_30 
REMARK   16  A    between atoms: C21_32  and  O10_33 
ROOT
HETATM    1  C7  UNL     1      -0.373  -0.151   0.459  1.00  0.00     0.170 C 
HETATM    2  C8  UNL     1      -0.748  -1.557   0.677  1.00  0.00     0.164 C 
HETATM    3  C11 UNL     1      -2.148  -1.500   1.300  1.00  0.00     0.069 C 
HETATM    4  C12 UNL     1      -2.407   0.006   1.477  1.00  0.00     0.150 C 
HETATM    5  C15 UNL     1      -1.754   0.496   0.196  1.00  0.00     0.108 C 
ENDROOT
BRANCH   1   6
HETATM    6  O3  UNL     1       0.520   0.165  -0.504  1.00  0.00    -0.349 OA
BRANCH   6   7
HETATM    7  C6  UNL     1       1.525   1.036  -0.276  1.00  0.00     0.293 C 
HETATM    8  C5  UNL     1       2.826   0.482  -0.785  1.00  0.00     0.218 C 
HETATM    9  C21 UNL     1       2.478   0.278  -2.245  1.00  0.00     0.183 C 
HETATM   10  C19 UNL     1       1.537   1.459  -2.462  1.00  0.00     0.179 C 
HETATM   11  O8  UNL     1       1.425   2.122  -1.239  1.00  0.00    -0.348 OA
BRANCH   8  12
HETATM   12  O2  UNL     1       3.184  -0.651  -0.076  1.00  0.00    -0.308 OA
BRANCH  12  13
HETATM   13  C4  UNL     1       4.409  -0.751   0.597  1.00  0.00     0.262 C 
HETATM   14  O1  UNL     1       5.142   0.270   0.498  1.00  0.00    -0.265 OA
BRANCH  13  15
HETATM   15  C3  UNL     1       4.858  -1.918   1.368  1.00  0.00     0.137 C 
BRANCH  15  16
HETATM   16  C2  UNL     1       6.207  -1.660   1.908  1.00  0.00    -0.027 C 
HETATM   17  C1  UNL     1       6.437  -1.671   3.214  1.00  0.00     0.007 C 
ENDBRANCH  15  16
ENDBRANCH  13  15
ENDBRANCH  12  13
ENDBRANCH   8  12
BRANCH   9  18
HETATM   18  O10 UNL     1       3.559   0.466  -3.092  1.00  0.00    -0.390 OA
ATOM     19  H10 UNL     1       3.341   0.338  -4.008  1.00  0.00     0.210 HD
ENDBRANCH   9  18
BRANCH  10  20
HETATM   20  C20 UNL     1       2.117   2.457  -3.445  1.00  0.00     0.198 C 
BRANCH  20  21
HETATM   21  O9  UNL     1       1.230   3.530  -3.510  1.00  0.00    -0.398 OA
ATOM     22  H9  UNL     1       1.593   4.155  -4.126  1.00  0.00     0.209 HD
ENDBRANCH  20  21
ENDBRANCH  10  20
ENDBRANCH   6   7
ENDBRANCH   1   6
BRANCH   2  23
HETATM   23  O4  UNL     1       0.147  -2.171   1.593  1.00  0.00    -0.314 OA
BRANCH  23  24
HETATM   24  C9  UNL     1       0.816  -3.361   1.247  1.00  0.00     0.255 C 
HETATM   25  C10 UNL     1       1.747  -4.063   2.145  1.00  0.00     0.126 C 
HETATM   26  O5  UNL     1       0.552  -3.798   0.079  1.00  0.00    -0.266 OA
ENDBRANCH  23  24
ENDBRANCH   2  23
BRANCH   5  27
HETATM   27  S1  UNL     1      -2.600  -0.327  -1.153  1.00  0.00    -0.159 SA
BRANCH  27  28
HETATM   28  C16 UNL     1      -4.164   0.493  -1.520  1.00  0.00     0.074 C 
BRANCH  28  29
HETATM   29  C17 UNL     1      -3.967   1.904  -2.062  1.00  0.00     0.006 C 
HETATM   30  C18 UNL     1      -5.388   2.426  -2.315  1.00  0.00     0.006 C 
ENDBRANCH  28  29
ENDBRANCH  27  28
ENDBRANCH   5  27
BRANCH   4  31
HETATM   31  O6  UNL     1      -3.751   0.335   1.479  1.00  0.00    -0.315 OA
BRANCH  31  32
HETATM   32  C13 UNL     1      -4.353   1.074   2.501  1.00  0.00     0.255 C 
HETATM   33  C14 UNL     1      -5.804   1.386   2.427  1.00  0.00     0.126 C 
HETATM   34  O7  UNL     1      -3.631   1.457   3.467  1.00  0.00    -0.266 OA
ENDBRANCH  31  32
ENDBRANCH   4  31
TORSDOF 16
