REMARK  17 active torsions:
REMARK  status: ('A' for Active; 'I' for Inactive)
REMARK    1  A    between atoms: C2_2  and  O2_4 
REMARK    2  A    between atoms: O2_4  and  C3_5 
REMARK    3  A    between atoms: C3_5  and  C4_6 
REMARK    4  A    between atoms: C5_8  and  O4_9 
REMARK    5  A    between atoms: O4_9  and  C6_10 
REMARK    6  A    between atoms: C6_10  and  C7_11 
REMARK    7  A    between atoms: C7_11  and  O5_12 
REMARK    8  A    between atoms: C7_11  and  C8_14 
REMARK    9  A    between atoms: C8_14  and  O6_15 
REMARK   10  A    between atoms: C8_14  and  C9_17 
REMARK   11  A    between atoms: C9_17  and  C10_18 
REMARK   12  A    between atoms: C13_21  and  O7_22 
REMARK   13  A    between atoms: O7_22  and  C14_23 
REMARK   14  A    between atoms: C16_26  and  O9_27 
REMARK   15  A    between atoms: O9_27  and  C17_28 
REMARK   16  A    between atoms: C19_31  and  O11_32 
REMARK   17  A    between atoms: O11_32  and  C20_33 
ROOT
HETATM    1  C4  UNL     1      -2.517  -0.230   1.697  1.00  0.00     0.181 C 
HETATM    2  O3  UNL     1      -1.162  -0.355   1.750  1.00  0.00    -0.348 OA
HETATM    3  C5  UNL     1      -0.487  -0.357   0.550  1.00  0.00     0.292 C 
HETATM    4  C13 UNL     1      -1.025  -1.327  -0.459  1.00  0.00     0.219 C 
HETATM    5  C16 UNL     1      -2.513  -1.549  -0.316  1.00  0.00     0.198 C 
HETATM    6  C19 UNL     1      -3.111  -0.303   0.304  1.00  0.00     0.195 C 
ENDROOT
BRANCH   3   7
HETATM    7  O4  UNL     1       0.836  -0.701   0.819  1.00  0.00    -0.356 OA
BRANCH   7   8
HETATM    8  C6  UNL     1       1.716   0.311   0.442  1.00  0.00     0.205 C 
BRANCH   8   9
HETATM    9  C7  UNL     1       3.158  -0.083   0.742  1.00  0.00     0.170 C 
BRANCH   9  10
HETATM   10  O5  UNL     1       3.542  -1.212   0.083  1.00  0.00    -0.391 OA
ATOM     11  H5  UNL     1       4.440  -1.457   0.270  1.00  0.00     0.210 HD
ENDBRANCH   9  10
BRANCH   9  12
HETATM   12  C8  UNL     1       4.059   1.090   0.479  1.00  0.00     0.149 C 
BRANCH  12  13
HETATM   13  O6  UNL     1       3.539   2.232   1.170  1.00  0.00    -0.393 OA
ATOM     14  H6  UNL     1       4.109   2.974   1.004  1.00  0.00     0.210 HD
ENDBRANCH  12  13
BRANCH  12  15
HETATM   15  C9  UNL     1       5.470   0.940   0.934  1.00  0.00     0.038 C 
BRANCH  15  16
HETATM   16  C10 UNL     1       6.255  -0.178   0.340  1.00  0.00    -0.020 C 
HETATM   17  C11 UNL     1       7.681  -0.127   0.940  1.00  0.00     0.009 C 
HETATM   18  C12 UNL     1       6.421  -0.064  -1.159  1.00  0.00     0.009 C 
ENDBRANCH  15  16
ENDBRANCH  12  15
ENDBRANCH   9  12
ENDBRANCH   8   9
ENDBRANCH   7   8
ENDBRANCH   3   7
BRANCH   4  19
HETATM   19  O7  UNL     1      -0.719  -0.817  -1.743  1.00  0.00    -0.308 OA
BRANCH  19  20
HETATM   20  C14 UNL     1       0.118  -1.432  -2.646  1.00  0.00     0.255 C 
HETATM   21  C15 UNL     1       0.331  -0.757  -3.954  1.00  0.00     0.126 C 
HETATM   22  O8  UNL     1       0.650  -2.513  -2.320  1.00  0.00    -0.266 OA
ENDBRANCH  19  20
ENDBRANCH   4  19
BRANCH   1  23
HETATM   23  C3  UNL     1      -3.039   0.969   2.457  1.00  0.00     0.213 C 
BRANCH  23  24
HETATM   24  O2  UNL     1      -2.535   2.179   1.981  1.00  0.00    -0.319 OA
BRANCH  24  25
HETATM   25  C2  UNL     1      -2.930   3.362   2.585  1.00  0.00     0.254 C 
HETATM   26  C1  UNL     1      -2.423   4.694   2.120  1.00  0.00     0.126 C 
HETATM   27  O1  UNL     1      -3.737   3.279   3.547  1.00  0.00    -0.266 OA
ENDBRANCH  24  25
ENDBRANCH  23  24
ENDBRANCH   1  23
BRANCH   5  28
HETATM   28  O9  UNL     1      -3.144  -1.972  -1.472  1.00  0.00    -0.311 OA
BRANCH  28  29
HETATM   29  C17 UNL     1      -3.797  -3.193  -1.578  1.00  0.00     0.255 C 
HETATM   30  C18 UNL     1      -4.433  -3.529  -2.865  1.00  0.00     0.126 C 
HETATM   31  O10 UNL     1      -3.792  -3.914  -0.565  1.00  0.00    -0.266 OA
ENDBRANCH  28  29
ENDBRANCH   5  28
BRANCH   6  32
HETATM   32  O11 UNL     1      -4.506  -0.538   0.418  1.00  0.00    -0.311 OA
BRANCH  32  33
HETATM   33  C20 UNL     1      -5.466   0.295  -0.097  1.00  0.00     0.255 C 
HETATM   34  C21 UNL     1      -6.927   0.049   0.023  1.00  0.00     0.126 C 
HETATM   35  O12 UNL     1      -5.087   1.326  -0.708  1.00  0.00    -0.266 OA
ENDBRANCH  32  33
ENDBRANCH   6  32
TORSDOF 17
