REMARK  4 active torsions:
REMARK  status: ('A' for Active; 'I' for Inactive)
REMARK    1  A    between atoms: N1_1  and  C1_4 
REMARK    2  A    between atoms: C2_7  and  N3_8 
REMARK    3  A    between atoms: N4_11  and  C3_12 
REMARK    4  A    between atoms: C4_15  and  N6_16 
ROOT
HETATM    1  C1  UNL     1       4.666   0.695  -0.331  1.00  0.00     0.138 A 
HETATM    2  N2  UNL     1       3.803   1.603   0.151  1.00  0.00    -0.175 N 
ATOM      3  H2  UNL     1       4.131   2.558   0.293  1.00  0.00     0.186 HD
HETATM    4  C2  UNL     1       2.505   1.308   0.460  1.00  0.00     0.687 A 
HETATM    5  N4  UNL     1       2.039   0.059   0.284  1.00  0.00    -0.117 N 
HETATM    6  C8  UNL     1       2.889  -0.863  -0.198  1.00  0.00     0.146 A 
HETATM    7  C9  UNL     1       4.202  -0.584  -0.515  1.00  0.00     0.094 A 
HETATM    8 CL1  UNL     1       5.301  -1.795  -1.142  1.00  0.00    -0.079 Cl
ENDROOT
BRANCH   5   9
HETATM    9  C3  UNL     1       0.675  -0.263   0.606  1.00  0.00     0.283 A 
HETATM   10  N5  UNL     1      -0.411  -0.100  -0.192  1.00  0.00    -0.150 N 
HETATM   11  C4  UNL     1      -1.502  -0.517   0.467  1.00  0.00     0.705 A 
ATOM     12  H5  UNL     1      -0.399   0.278  -1.139  1.00  0.00     0.188 HD
HETATM   13  N7  UNL     1      -1.066  -0.929   1.662  1.00  0.00    -0.087 N 
HETATM   14  O2  UNL     1       0.221  -0.769   1.717  1.00  0.00    -0.184 OA
ATOM     15  H7  UNL     1      -1.649  -1.307   2.408  1.00  0.00     0.214 HD
BRANCH  11  16
HETATM   16  N6  UNL     1      -2.848  -0.530   0.019  1.00  0.00    -0.193 N 
HETATM   17  C5  UNL     1      -3.359  -0.086  -1.282  1.00  0.00     0.170 C 
HETATM   18  C6  UNL     1      -4.829   0.108  -0.965  1.00  0.00     0.190 C 
HETATM   19  O1  UNL     1      -4.935   0.032   0.434  1.00  0.00    -0.370 OA
HETATM   20  C7  UNL     1      -4.027  -0.981   0.733  1.00  0.00     0.311 C 
ENDBRANCH  11  16
ENDBRANCH   5   9
BRANCH   4  21
HETATM   21  N3  UNL     1       1.719   2.221   0.920  1.00  0.00    -0.234 N 
ATOM     22  H32 UNL     1       2.072   3.168   1.054  1.00  0.00     0.174 HD
ATOM     23  H31 UNL     1       0.750   2.001   1.151  1.00  0.00     0.174 HD
ENDBRANCH   4  21
BRANCH   1  24
HETATM   24  N1  UNL     1       5.881   1.053  -0.600  1.00  0.00    -0.384 N 
ATOM     25  H12 UNL     1       6.226   2.003  -0.463  1.00  0.00     0.157 HD
ATOM     26  H11 UNL     1       6.537   0.363  -0.966  1.00  0.00     0.157 HD
ENDBRANCH   1  24
TORSDOF 4
