REMARK  5 active torsions:
REMARK  status: ('A' for Active; 'I' for Inactive)
REMARK    1  A    between atoms: O1_2  and  C2_3 
REMARK    2  A    between atoms: C2_3  and  C3_5 
REMARK    3  A    between atoms: C4_8  and  C5_9 
REMARK    4  A    between atoms: C7_11  and  N1_12 
REMARK    5  A    between atoms: C8_17  and  O5_18 
ROOT
HETATM    1  C5  UNL     1      -1.381  -0.254  -0.274  1.00  0.00     0.029 A 
HETATM    2  C6  UNL     1      -2.408  -1.115  -0.560  1.00  0.00     0.062 A 
HETATM    3  C7  UNL     1      -3.673  -0.899  -0.055  1.00  0.00     0.101 A 
HETATM    4  N2  UNL     1      -3.863   0.184   0.727  1.00  0.00    -0.322 N 
ATOM      5  H2  UNL     1      -4.796   0.350   1.105  1.00  0.00     0.169 HD
HETATM    6  C8  UNL     1      -2.890   1.054   1.034  1.00  0.00     0.164 A 
HETATM    7  C9  UNL     1      -1.624   0.841   0.530  1.00  0.00     0.096 A 
HETATM    8 CL1  UNL     1      -0.308   1.927   0.885  1.00  0.00    -0.079 Cl
ENDROOT
BRANCH   1   9
HETATM    9  C4  UNL     1      -0.052  -0.537  -0.843  1.00  0.00     0.336 C 
HETATM   10  O4  UNL     1       0.342  -1.847  -0.741  1.00  0.00    -0.200 OA
HETATM   11  O3  UNL     1       1.659  -1.855  -0.633  1.00  0.00    -0.194 OA
HETATM   12  C3  UNL     1       2.084  -0.546  -0.683  1.00  0.00     0.400 C 
HETATM   13  O6  UNL     1       0.973   0.123  -0.124  1.00  0.00    -0.312 OA
BRANCH  12  14
HETATM   14  C2  UNL     1       3.316  -0.306   0.098  1.00  0.00     0.317 C 
HETATM   15  O2  UNL     1       3.854  -1.240   0.708  1.00  0.00    -0.260 OA
BRANCH  14  16
HETATM   16  O1  UNL     1       3.891   0.953   0.164  1.00  0.00    -0.323 OA
HETATM   17  C1  UNL     1       5.056   1.243   0.886  1.00  0.00     0.213 C 
ENDBRANCH  14  16
ENDBRANCH  12  14
ENDBRANCH   1   9
BRANCH   3  18
HETATM   18  N1  UNL     1      -4.644  -1.720  -0.330  1.00  0.00    -0.385 N 
ATOM     19  H12 UNL     1      -4.500  -2.539  -0.921  1.00  0.00     0.157 HD
ATOM     20  H11 UNL     1      -5.580  -1.560   0.044  1.00  0.00     0.157 HD
ENDBRANCH   3  18
BRANCH   6  21
HETATM   21  O5  UNL     1      -3.134   2.157   1.844  1.00  0.00    -0.345 OA
ATOM     22  H5  UNL     1      -2.445   2.773   2.062  1.00  0.00     0.219 HD
ENDBRANCH   6  21
TORSDOF 5
