REMARK  4 active torsions:
REMARK  status: ('A' for Active; 'I' for Inactive)
REMARK    1  A    between atoms: C3_10  and  N4_11 
REMARK    2  A    between atoms: N4_11  and  N5_13 
REMARK    3  A    between atoms: N5_13  and  C4_15 
REMARK    4  A    between atoms: C5_20  and  C6_21 
ROOT
HETATM    1  C4  UNL     1      -0.194   0.333   1.104  1.00  0.00     0.726 A 
HETATM    2  N6  UNL     1       0.684   1.323   1.373  1.00  0.00    -0.128 N 
ATOM      3  H6  UNL     1       0.365   2.217   1.747  1.00  0.00     0.205 HD
HETATM    4  N7  UNL     1       1.978   1.103   1.137  1.00  0.00    -0.268 N 
ATOM      5  H7  UNL     1       2.645   1.848   1.337  1.00  0.00     0.189 HD
HETATM    6  C5  UNL     1       2.439  -0.060   0.646  1.00  0.00     0.164 A 
HETATM    7  N10 UNL     1       1.540  -1.017   0.392  1.00  0.00    -0.268 N 
ATOM      8  H10 UNL     1       1.861  -1.910   0.018  1.00  0.00     0.189 HD
HETATM    9  N11 UNL     1       0.243  -0.841   0.611  1.00  0.00    -0.128 N 
ATOM     10  H11 UNL     1      -0.418  -1.590   0.407  1.00  0.00     0.205 HD
ENDROOT
BRANCH   1  11
HETATM   11  N5  UNL     1      -1.462   0.537   1.331  1.00  0.00    -0.128 N 
ATOM     12  H5  UNL     1      -1.771   1.434   1.705  1.00  0.00     0.205 HD
BRANCH  11  13
HETATM   13  N4  UNL     1      -2.394  -0.455   1.068  1.00  0.00    -0.269 N 
ATOM     14  H4  UNL     1      -2.185  -1.397   1.398  1.00  0.00     0.189 HD
BRANCH  13  15
HETATM   15  C3  UNL     1      -3.495  -0.279   0.443  1.00  0.00     0.159 A 
HETATM   16  C1  UNL     1      -3.907   0.937  -0.060  1.00  0.00     0.097 A 
HETATM   17 CL1  UNL     1      -2.885   2.327   0.157  1.00  0.00    -0.079 Cl
HETATM   18  C2  UNL     1      -5.123   1.009  -0.721  1.00  0.00     0.136 A 
HETATM   19  N1  UNL     1      -5.861  -0.100  -0.853  1.00  0.00    -0.296 N 
HETATM   20  N2  UNL     1      -5.440  -1.249  -0.362  1.00  0.00    -0.241 N 
ATOM     21  H1  UNL     1      -6.757  -0.056  -1.338  1.00  0.00     0.187 HD
HETATM   22  N3  UNL     1      -4.295  -1.342   0.268  1.00  0.00    -0.268 N 
ATOM     23  H2  UNL     1      -6.017  -2.082  -0.475  1.00  0.00     0.208 HD
ATOM     24  H3  UNL     1      -4.004  -2.248   0.636  1.00  0.00     0.190 HD
ENDBRANCH  13  15
ENDBRANCH  11  13
ENDBRANCH   1  11
BRANCH   6  25
HETATM   25  C6  UNL     1       3.874  -0.262   0.400  1.00  0.00     0.096 A 
HETATM   26  C7  UNL     1       4.903   0.629   0.614  1.00  0.00     0.053 A 
HETATM   27  C8  UNL     1       6.091  -0.003   0.236  1.00  0.00     0.109 A 
HETATM   28  N8  UNL     1       5.731  -1.230  -0.183  1.00  0.00    -0.311 N 
HETATM   29  N9  UNL     1       4.412  -1.386  -0.086  1.00  0.00    -0.297 N 
ATOM     30  H8  UNL     1       6.377  -1.940  -0.526  1.00  0.00     0.186 HD
ATOM     31  H9  UNL     1       3.895  -2.227  -0.341  1.00  0.00     0.187 HD
ENDBRANCH   6  25
TORSDOF 4
