REMARK  4 active torsions:
REMARK  status: ('A' for Active; 'I' for Inactive)
REMARK    1  A    between atoms: C2_2  and  C3_3 
REMARK    2  A    between atoms: C7_10  and  O3_11 
REMARK    3  A    between atoms: C8_13  and  N1_14 
REMARK    4  A    between atoms: C10_20  and  N4_21 
ROOT
HETATM    1  C1  UNL     1      -1.379  -1.271   0.580  1.00  0.00     0.082 C 
HETATM    2  C2  UNL     1      -0.677   0.031   0.262  1.00  0.00     0.195 C 
HETATM    3  O2  UNL     1      -0.339   0.763   1.368  1.00  0.00    -0.318 OA
HETATM    4  C7  UNL     1       1.038   0.718   1.525  1.00  0.00     0.312 C 
HETATM    5  C8  UNL     1       1.413  -0.442   0.640  1.00  0.00     0.321 C 
HETATM    6  O4  UNL     1       0.501  -0.297  -0.406  1.00  0.00    -0.321 OA
ENDROOT
BRANCH   5   7
HETATM    7  N1  UNL     1       2.777  -0.303   0.170  1.00  0.00    -0.088 N 
HETATM    8  N2  UNL     1       3.722   0.542   0.542  1.00  0.00    -0.277 N 
HETATM    9  C9  UNL     1       4.841   0.311  -0.165  1.00  0.00     0.215 A 
ATOM     10  H2  UNL     1       3.618   1.261   1.258  1.00  0.00     0.188 HD
HETATM   11  N3  UNL     1       4.581  -0.706  -0.998  1.00  0.00    -0.185 N 
HETATM   12  C10 UNL     1       3.307  -1.079  -0.786  1.00  0.00     0.696 A 
ATOM     13  H3  UNL     1       5.229  -1.120  -1.668  1.00  0.00     0.185 HD
BRANCH  12  14
HETATM   14  N4  UNL     1       2.712  -2.047  -1.426  1.00  0.00    -0.233 N 
ATOM     15  H42 UNL     1       1.745  -2.330  -1.265  1.00  0.00     0.174 HD
ATOM     16  H41 UNL     1       3.115  -2.637  -2.153  1.00  0.00     0.174 HD
ENDBRANCH  12  14
ENDBRANCH   5   7
BRANCH   4  17
HETATM   17  O3  UNL     1       1.416   0.524   2.852  1.00  0.00    -0.367 OA
ATOM     18  H3  UNL     1       2.359   0.493   2.960  1.00  0.00     0.212 HD
ENDBRANCH   4  17
BRANCH   2  19
HETATM   19  C3  UNL     1      -1.600   0.858  -0.605  1.00  0.00     0.217 C 
HETATM   20  O1  UNL     1      -1.994   0.206  -1.740  1.00  0.00    -0.377 OA
HETATM   21  C4  UNL     1      -3.330  -0.140  -1.608  1.00  0.00     0.171 C 
HETATM   22  C5  UNL     1      -3.956   0.818  -0.651  1.00  0.00     0.066 C 
HETATM   23  C6  UNL     1      -2.792   1.293   0.164  1.00  0.00     0.206 C 
HETATM   24  F1  UNL     1      -2.845   2.685   0.274  1.00  0.00    -0.246 F 
ENDBRANCH   2  19
TORSDOF 4
