REMARK  5 active torsions:
REMARK  status: ('A' for Active; 'I' for Inactive)
REMARK    1  A    between atoms: O1_1  and  C1_3 
REMARK    2  A    between atoms: C1_3  and  C2_4 
REMARK    3  A    between atoms: C3_6  and  O3_7 
REMARK    4  A    between atoms: C6_13  and  O5_14 
REMARK    5  A    between atoms: C6_13  and  C7_16 
ROOT
HETATM    1  C2  UNL     1      -1.446  -0.369  -0.715  1.00  0.00     0.196 C 
HETATM    2  O2  UNL     1      -2.301   0.701  -0.839  1.00  0.00    -0.341 OA
HETATM    3  C3  UNL     1      -2.849   0.988   0.393  1.00  0.00     0.326 C 
HETATM    4  S1  UNL     1      -1.436   0.725   1.542  1.00  0.00    -0.067 SA
HETATM    5  C4  UNL     1      -0.328   0.051   0.224  1.00  0.00     0.162 C 
HETATM    6  C5  UNL     1       0.422   1.214  -0.284  1.00  0.00     0.224 C 
HETATM    7  O4  UNL     1       1.665   0.944  -0.812  1.00  0.00    -0.348 OA
HETATM    8  C6  UNL     1       2.372   0.191   0.135  1.00  0.00     0.196 C 
HETATM    9  C8  UNL     1       1.665  -1.137   0.221  1.00  0.00     0.239 C 
HETATM   10  O6  UNL     1       0.380  -1.014   0.672  1.00  0.00    -0.359 OA
ENDROOT
BRANCH   1  11
HETATM   11  C1  UNL     1      -2.185  -1.567  -0.161  1.00  0.00     0.200 C 
BRANCH  11  12
HETATM   12  O1  UNL     1      -3.232  -1.944  -0.991  1.00  0.00    -0.398 OA
ATOM     13  H1  UNL     1      -3.696  -2.696  -0.643  1.00  0.00     0.209 HD
ENDBRANCH  11  12
ENDBRANCH   1  11
BRANCH   3  14
HETATM   14  O3  UNL     1      -3.118   2.364   0.417  1.00  0.00    -0.362 OA
ATOM     15  H3  UNL     1      -3.496   2.562   1.266  1.00  0.00     0.213 HD
ENDBRANCH   3  14
BRANCH   8  16
HETATM   16  O5  UNL     1       2.486   0.838   1.344  1.00  0.00    -0.363 OA
ATOM     17  H5  UNL     1       2.965   0.328   1.986  1.00  0.00     0.213 HD
ENDBRANCH   8  16
BRANCH   8  18
HETATM   18  C7  UNL     1       3.765  -0.041  -0.456  1.00  0.00     0.185 C 
HETATM   19 CL1  UNL     1       4.742  -0.983   0.661  1.00  0.00    -0.125 Cl
ENDBRANCH   8  18
TORSDOF 5
