REMARK  4 active torsions:
REMARK  status: ('A' for Active; 'I' for Inactive)
REMARK    1  A    between atoms: O1_1  and  N1_3 
REMARK    2  A    between atoms: N1_3  and  C1_5 
REMARK    3  A    between atoms: C1_5  and  C2_6 
REMARK    4  A    between atoms: C3_7  and  C4_8 
ROOT
HETATM    1  C1  UNL     1       1.918   1.062   0.119  1.00  0.00     0.234 C 
ENDROOT
BRANCH   1   2
HETATM    2  N1  UNL     1       2.830   0.063  -0.338  1.00  0.00    -0.095 NA
HETATM    3 CL1  UNL     1       4.399   0.381   0.376  1.00  0.00     0.007 Cl
BRANCH   2   4
HETATM    4  O1  UNL     1       2.978   0.172  -1.698  1.00  0.00    -0.297 OA
ATOM      5  H1  UNL     1       2.128  -0.000  -2.085  1.00  0.00     0.238 HD
ENDBRANCH   2   4
ENDBRANCH   1   2
BRANCH   1   6
HETATM    6  C2  UNL     1       0.583   0.516   0.259  1.00  0.00    -0.088 C 
HETATM    7  C3  UNL     1      -0.531   0.077   0.389  1.00  0.00    -0.100 C 
BRANCH   7   8
HETATM    8  C4  UNL     1      -1.868  -0.439   0.568  1.00  0.00     0.065 A 
HETATM    9  C5  UNL     1      -2.458  -1.125  -0.650  1.00  0.00     0.018 A 
HETATM   10  C6  UNL     1      -3.013   0.172  -0.136  1.00  0.00     0.018 A 
ENDBRANCH   7   8
ENDBRANCH   1   6
TORSDOF 4
