REMARK  2 active torsions:
REMARK  status: ('A' for Active; 'I' for Inactive)
REMARK    1  A    between atoms: N2_4  and  C1_6 
REMARK    2  A    between atoms: C2_7  and  O1_8 
ROOT
HETATM    1  C1  UNL     1       0.769  -0.469  -0.167  1.00  0.00     0.145 C 
HETATM    2  C2  UNL     1      -0.697  -0.852   0.063  1.00  0.00     0.144 C 
HETATM    3  C3  UNL     1      -1.381   0.202  -0.805  1.00  0.00     0.035 C 
HETATM    4  C4  UNL     1      -0.512   1.435  -0.663  1.00  0.00     0.025 C 
HETATM    5  C5  UNL     1       0.680   1.017   0.184  1.00  0.00     0.109 C 
HETATM    6 CL1  UNL     1       2.138   1.896  -0.197  1.00  0.00    -0.123 Cl
ENDROOT
BRANCH   1   7
HETATM    7  N2  UNL     1       1.629  -1.178   0.710  1.00  0.00    -0.334 N 
HETATM    8  N1  UNL     1       2.836  -1.327   0.435  1.00  0.00    -0.349 N 
ATOM      9  H12 UNL     1       3.193  -0.929  -0.434  1.00  0.00     0.176 HD
ATOM     10  H11 UNL     1       3.455  -1.837   1.066  1.00  0.00     0.176 HD
ATOM     11  H2  UNL     1       1.256  -1.570   1.575  1.00  0.00     0.180 HD
ENDBRANCH   1   7
BRANCH   2  12
HETATM   12  O1  UNL     1      -0.985  -0.546   1.374  1.00  0.00    -0.393 OA
ATOM     13  H1  UNL     1      -1.894  -0.783   1.517  1.00  0.00     0.210 HD
ENDBRANCH   2  12
TORSDOF 2
