REMARK  2 active torsions:
REMARK  status: ('A' for Active; 'I' for Inactive)
REMARK    1  A    between atoms: O1_1  and  C1_3 
REMARK    2  A    between atoms: C1_3  and  C2_5 
ROOT
HETATM    1  C2  UNL     1       0.509  -0.051   0.149  1.00  0.00     0.039 A 
HETATM    2  C3  UNL     1      -0.583   0.927   0.172  1.00  0.00     0.033 A 
HETATM    3  C4  UNL     1      -1.784  -0.009   0.389  1.00  0.00     0.238 C 
HETATM    4  N1  UNL     1      -1.400  -1.237  -0.270  1.00  0.00    -0.069 N 
ATOM      5  H11 UNL     1      -2.058  -1.531  -0.992  1.00  0.00     0.277 HD
ATOM      6  H12 UNL     1      -1.489  -2.061   0.325  1.00  0.00     0.277 HD
HETATM    7  C5  UNL     1      -0.034  -1.027  -0.775  1.00  0.00     0.204 A 
HETATM    8  C6  UNL     1      -0.065   0.429  -1.107  1.00  0.00     0.038 A 
ENDROOT
BRANCH   1   9
HETATM    9  C1  UNL     1       1.873   0.139   0.593  1.00  0.00     0.225 C 
HETATM   10 CL1  UNL     1       1.871   0.563   2.341  1.00  0.00    -0.095 Cl
BRANCH   9  11
HETATM   11  O1  UNL     1       2.601   1.134  -0.044  1.00  0.00    -0.380 OA
ATOM     12  H1  UNL     1       2.602   0.910  -0.967  1.00  0.00     0.211 HD
ENDBRANCH   9  11
ENDBRANCH   1   9
TORSDOF 2
