REMARK  3 active torsions:
REMARK  status: ('A' for Active; 'I' for Inactive)
REMARK    1  A    between atoms: N2_4  and  C1_6 
REMARK    2  A    between atoms: C1_6  and  C2_7 
REMARK    3  A    between atoms: C3_8  and  C4_9 
ROOT
HETATM    1  N1  UNL     1      -1.955  -1.498   0.155  1.00  0.00    -0.349 N 
ATOM      2  H11 UNL     1      -2.570  -2.308   0.075  1.00  0.00     0.176 HD
ATOM      3  H12 UNL     1      -0.948  -1.659   0.172  1.00  0.00     0.176 HD
HETATM    4  N2  UNL     1      -2.313  -0.323   0.234  1.00  0.00    -0.332 N 
ATOM      5  H2  UNL     1      -3.317  -0.143   0.218  1.00  0.00     0.180 HD
ENDROOT
BRANCH   4   6
HETATM    6  C1  UNL     1      -1.458   0.804   0.345  1.00  0.00     0.232 C 
BRANCH   6   7
HETATM    7  C2  UNL     1      -0.083   0.307   0.444  1.00  0.00    -0.085 C 
HETATM    8  C3  UNL     1       1.057  -0.083   0.528  1.00  0.00    -0.094 C 
BRANCH   8   9
HETATM    9  C4  UNL     1       2.460  -0.543   0.626  1.00  0.00     0.178 C 
HETATM   10 BR1  UNL     1       3.673   0.862   0.032  1.00  0.00    -0.083 Br
ENDBRANCH   8   9
ENDBRANCH   6   7
ENDBRANCH   4   6
TORSDOF 3
