REMARK  3 active torsions:
REMARK  status: ('A' for Active; 'I' for Inactive)
REMARK    1  A    between atoms: S1_2  and  C2_3 
REMARK       I    between atoms: N3_9  and  C4_11 
REMARK    2  A    between atoms: C4_11  and  C5_13 
REMARK    3  A    between atoms: C5_13  and  N4_14 
ROOT
HETATM    1  N4  UNL     1      -0.276   1.613   0.259  1.00  0.00    -0.273 N 
HETATM    2  C6  UNL     1      -1.641   1.309   0.478  1.00  0.00     0.242 C 
HETATM    3  O2  UNL     1      -2.221   1.350   1.580  1.00  0.00    -0.272 OA
HETATM    4  C7  UNL     1      -2.221   0.948  -0.800  1.00  0.00     0.118 C 
HETATM    5  C8  UNL     1      -3.258   1.899  -1.356  1.00  0.00     0.029 C 
HETATM    6  C9  UNL     1      -4.140   0.707  -1.635  1.00  0.00     0.013 C 
HETATM    7  C10 UNL     1      -3.162  -0.153  -0.921  1.00  0.00    -0.009 A 
HETATM    8  C11 UNL     1      -2.826  -1.521  -1.344  1.00  0.00     0.021 A 
HETATM    9  C12 UNL     1      -3.522  -1.186  -0.003  1.00  0.00    -0.038 A 
HETATM   10  C13 UNL     1      -5.003  -1.592   0.033  1.00  0.00     0.015 C 
HETATM   11  C14 UNL     1      -2.748  -1.670   1.181  1.00  0.00     0.015 C 
HETATM   12  C15 UNL     1      -1.065   0.901  -1.767  1.00  0.00     0.239 C 
HETATM   13  O3  UNL     1      -1.017   0.262  -2.820  1.00  0.00    -0.288 OA
HETATM   14  C16 UNL     1      -0.034   1.769  -1.184  1.00  0.00     0.389 C 
HETATM   15  F1  UNL     1       1.244   1.410  -1.523  1.00  0.00    -0.174 F 
HETATM   16  F2  UNL     1      -0.257   3.110  -1.451  1.00  0.00    -0.174 F 
ENDROOT
BRANCH   1  17
HETATM   17  C5  UNL     1       0.793   1.768   1.222  1.00  0.00     0.235 C 
BRANCH  17  18
HETATM   18  C4  UNL     1       1.484   0.483   1.491  1.00  0.00     0.241 C 
HETATM   19  N3  UNL     1       2.566   0.383   2.400  1.00  0.00    -0.305 N 
HETATM   20  C3  UNL     1       3.745   0.059   1.920  1.00  0.00     0.168 A 
ATOM     21  H3  UNL     1       2.434   0.557   3.396  1.00  0.00     0.171 HD
HETATM   22  N2  UNL     1       4.071  -0.196   0.649  1.00  0.00    -0.278 N 
HETATM   23  S2  UNL     1       5.244  -0.148   2.715  1.00  0.00    -0.026 SA
HETATM   24  N1  UNL     1       5.276  -0.495   0.381  1.00  0.00    -0.286 N 
ATOM     25  H2  UNL     1       3.368  -0.151  -0.089  1.00  0.00     0.189 HD
HETATM   26  C2  UNL     1       6.180  -0.548   1.347  1.00  0.00     0.129 A 
ATOM     27  H1  UNL     1       5.548  -0.695  -0.581  1.00  0.00     0.188 HD
HETATM   28  O1  UNL     1       1.072  -0.539   0.875  1.00  0.00    -0.271 OA
BRANCH  26  29
HETATM   29  S1  UNL     1       7.936  -0.950   1.182  1.00  0.00    -0.108 SA
HETATM   30  C1  UNL     1       8.275  -1.278  -0.568  1.00  0.00     0.097 C 
ENDBRANCH  26  29
ENDBRANCH  17  18
ENDBRANCH   1  17
TORSDOF 3
