REMARK  6 active torsions:
REMARK  status: ('A' for Active; 'I' for Inactive)
REMARK    1  A    between atoms: O1_2  and  C2_3 
REMARK    2  A    between atoms: C5_7  and  C6_8 
REMARK    3  A    between atoms: C6_8  and  N1_9 
REMARK    4  A    between atoms: N1_9  and  N2_11 
REMARK    5  A    between atoms: N2_11  and  C7_13 
REMARK    6  A    between atoms: N4_22  and  O3_23 
ROOT
HETATM    1  C6  UNL     1      -0.077  -1.508  -0.020  1.00  0.00     0.120 C 
ENDROOT
BRANCH   1   2
HETATM    2  C5  UNL     1       1.296  -1.039   0.019  1.00  0.00     0.000 A 
HETATM    3  C4  UNL     1       2.026  -1.177   1.190  1.00  0.00     0.038 A 
HETATM    4  C3  UNL     1       3.322  -0.760   1.291  1.00  0.00     0.065 A 
HETATM    5  C2  UNL     1       3.907  -0.184   0.176  1.00  0.00     0.186 A 
HETATM    6 BR1  UNL     1       4.286  -0.973   2.928  1.00  0.00    -0.046 Br
HETATM    7  N4  UNL     1       3.208  -0.046  -0.961  1.00  0.00    -0.211 N 
HETATM    8  C11 UNL     1       1.923  -0.466  -1.043  1.00  0.00     0.138 A 
BRANCH   5   9
HETATM    9  O1  UNL     1       5.230   0.235   0.299  1.00  0.00    -0.338 OA
HETATM   10  C1  UNL     1       5.422   1.615   0.631  1.00  0.00     0.211 C 
ENDBRANCH   5   9
BRANCH   7  11
HETATM   11  O3  UNL     1       3.791   0.526  -2.072  1.00  0.00    -0.281 OA
ATOM     12  H3  UNL     1       3.296   0.624  -2.877  1.00  0.00     0.245 HD
ENDBRANCH   7  11
ENDBRANCH   1   2
BRANCH   1  13
HETATM   13  N1  UNL     1      -0.768  -1.381  -1.107  1.00  0.00    -0.309 N 
ATOM     14  H1  UNL     1      -0.342  -0.950  -1.928  1.00  0.00     0.186 HD
BRANCH  13  15
HETATM   15  N2  UNL     1      -2.063  -1.817  -1.169  1.00  0.00    -0.277 N 
ATOM     16  H2  UNL     1      -2.204  -2.781  -1.471  1.00  0.00     0.189 HD
BRANCH  15  17
HETATM   17  C7  UNL     1      -3.119  -1.145  -0.889  1.00  0.00     0.204 A 
HETATM   18  O2  UNL     1      -4.336  -1.655  -0.979  1.00  0.00    -0.217 OA
HETATM   19  N3  UNL     1      -5.221  -0.791  -0.647  1.00  0.00    -0.262 N 
HETATM   20  C8  UNL     1      -4.659   0.383  -0.305  1.00  0.00     0.050 A 
ATOM     21  H3  UNL     1      -6.225  -0.970  -0.642  1.00  0.00     0.194 HD
HETATM   22  C9  UNL     1      -5.293   1.649   0.141  1.00  0.00     0.072 C 
HETATM   23  C10 UNL     1      -3.287   0.152  -0.463  1.00  0.00     0.089 A 
HETATM   24 BR2  UNL     1      -1.914   1.401  -0.146  1.00  0.00    -0.044 Br
ENDBRANCH  15  17
ENDBRANCH  13  15
ENDBRANCH   1  13
TORSDOF 6
