REMARK  5 active torsions:
REMARK  status: ('A' for Active; 'I' for Inactive)
REMARK    1  A    between atoms: O1_2  and  C2_3 
REMARK    2  A    between atoms: C3_4  and  C4_5 
REMARK    3  A    between atoms: C4_5  and  C5_6 
REMARK    4  A    between atoms: C5_6  and  C6_8 
REMARK    5  A    between atoms: C6_8  and  O3_9 
ROOT
HETATM    1  C2  UNL     1      -0.018   0.968  -0.130  1.00  0.00     0.144 C 
HETATM    2  C3  UNL     1       0.996   0.069   0.468  1.00  0.00     0.080 C 
HETATM    3  C7  UNL     1       0.657  -1.342   0.024  1.00  0.00     0.070 A 
HETATM    4  C8  UNL     1      -0.591  -1.729   0.148  1.00  0.00    -0.001 A 
HETATM    5  C9  UNL     1      -0.663  -3.111  -0.346  1.00  0.00     0.116 A 
HETATM    6  C10 UNL     1      -1.688  -3.409  -1.378  1.00  0.00     0.025 C 
HETATM    7  C11 UNL     1       0.700  -3.446  -0.741  1.00  0.00     0.272 A 
HETATM    8  O4  UNL     1       1.132  -4.556  -1.220  1.00  0.00    -0.264 OA
HETATM    9  O5  UNL     1       1.473  -2.337  -0.507  1.00  0.00    -0.282 OA
HETATM   10  C12 UNL     1      -1.591  -0.787   0.737  1.00  0.00     0.102 C 
HETATM   11  C13 UNL     1      -2.943  -0.744   0.069  1.00  0.00     0.045 C 
HETATM   12  C14 UNL     1      -2.381   0.379  -0.825  1.00  0.00     0.020 C 
HETATM   13  C15 UNL     1      -1.415   0.639   0.305  1.00  0.00     0.040 C 
HETATM   14  C16 UNL     1      -2.036   1.401   1.408  1.00  0.00     0.132 C 
HETATM   15 BR1  UNL     1      -1.292   3.107   1.806  1.00  0.00    -0.085 Br
HETATM   16  C17 UNL     1      -1.937   0.456   2.584  1.00  0.00     0.323 C 
HETATM   17  F1  UNL     1      -3.113   0.411   3.312  1.00  0.00    -0.218 F 
HETATM   18  O6  UNL     1      -1.576  -0.779   2.107  1.00  0.00    -0.339 OA
ENDROOT
BRANCH   2  19
HETATM   19  C4  UNL     1       2.404   0.331   0.135  1.00  0.00     0.094 C 
BRANCH  19  20
HETATM   20  C5  UNL     1       2.931   1.646   0.546  1.00  0.00     0.150 C 
HETATM   21  O2  UNL     1       2.343   2.507   1.151  1.00  0.00    -0.296 OA
BRANCH  20  22
HETATM   22  C6  UNL     1       4.363   1.999   0.191  1.00  0.00     0.242 C 
BRANCH  22  23
HETATM   23  O3  UNL     1       4.725   3.246   0.629  1.00  0.00    -0.394 OA
ATOM     24  H3  UNL     1       5.622   3.467   0.407  1.00  0.00     0.209 HD
ENDBRANCH  22  23
ENDBRANCH  20  22
ENDBRANCH  19  20
ENDBRANCH   2  19
BRANCH   1  25
HETATM   25  O1  UNL     1       0.000   0.804  -1.523  1.00  0.00    -0.389 OA
HETATM   26  C1  UNL     1       0.244   1.990  -2.172  1.00  0.00     0.202 C 
ENDBRANCH   1  25
TORSDOF 5
