REMARK  8 active torsions:
REMARK  status: ('A' for Active; 'I' for Inactive)
REMARK    1  A    between atoms: C2_2  and  C3_3 
REMARK    2  A    between atoms: C2_2  and  C6_8 
REMARK    3  A    between atoms: C3_3  and  C4_4 
REMARK    4  A    between atoms: C4_4  and  C5_5 
REMARK    5  A    between atoms: C15_17  and  N1_18 
REMARK       I    between atoms: N1_18  and  C16_20 
REMARK    6  A    between atoms: C16_20  and  C17_22 
REMARK       I    between atoms: C17_22  and  N2_24 
REMARK       I    between atoms: N2_24  and  C18_26 
REMARK    7  A    between atoms: C18_26  and  O6_28 
REMARK    8  A    between atoms: O6_28  and  C19_29 
ROOT
HETATM    1  C6  UNL     1      -4.806   1.255  -1.284  1.00  0.00    -0.002 C 
HETATM    2  C7  UNL     1      -5.833   1.594  -0.216  1.00  0.00     0.006 C 
HETATM    3  C8  UNL     1      -5.255   1.286   1.132  1.00  0.00     0.006 C 
HETATM    4  C9  UNL     1      -3.943   0.714   0.851  1.00  0.00     0.003 C 
HETATM    5  C10 UNL     1      -3.556   1.259  -0.498  1.00  0.00    -0.036 C 
HETATM    6  C11 UNL     1      -3.189   2.750  -0.322  1.00  0.00     0.016 C 
HETATM    7  C12 UNL     1      -2.339   0.597  -0.959  1.00  0.00     0.010 C 
HETATM    8  C13 UNL     1      -1.223   0.726   0.077  1.00  0.00     0.008 C 
HETATM    9  C14 UNL     1      -1.629   0.246   1.418  1.00  0.00     0.017 C 
HETATM   10  C15 UNL     1      -0.487   0.363   2.388  1.00  0.00     0.089 C 
HETATM   11  C26 UNL     1      -0.963  -0.241   3.704  1.00  0.00     0.026 C 
HETATM   12  C27 UNL     1      -2.241  -0.993   3.562  1.00  0.00     0.003 C 
HETATM   13  C28 UNL     1      -3.384  -0.222   3.002  1.00  0.00     0.010 C 
HETATM   14  C29 UNL     1      -2.917   0.792   1.932  1.00  0.00    -0.034 C 
HETATM   15  C30 UNL     1      -2.809   2.093   2.656  1.00  0.00     0.016 C 
ENDROOT
BRANCH  10  16
HETATM   16  N1  UNL     1       0.663  -0.363   1.923  1.00  0.00    -0.348 N 
HETATM   17  C16 UNL     1       1.898   0.273   1.754  1.00  0.00     0.310 C 
HETATM   18  O3  UNL     1       2.056   1.506   2.002  1.00  0.00    -0.262 OA
ATOM     19  H1  UNL     1       0.578  -1.357   1.713  1.00  0.00     0.163 HD
BRANCH  17  20
HETATM   20  C17 UNL     1       3.055  -0.471   1.281  1.00  0.00     0.317 C 
HETATM   21  O4  UNL     1       2.907  -1.694   1.031  1.00  0.00    -0.262 OA
HETATM   22  N2  UNL     1       4.326   0.109   1.092  1.00  0.00    -0.265 N 
HETATM   23  C18 UNL     1       5.394  -0.674   0.631  1.00  0.00     0.368 C 
ATOM     24  H2  UNL     1       4.469   1.099   1.291  1.00  0.00     0.174 HD
HETATM   25  O5  UNL     1       5.245  -1.910   0.374  1.00  0.00    -0.238 OA
BRANCH  23  26
HETATM   26  O6  UNL     1       6.682  -0.216   0.411  1.00  0.00    -0.298 OA
BRANCH  26  27
HETATM   27  C19 UNL     1       7.730  -0.977  -0.041  1.00  0.00     0.141 C 
HETATM   28  C20 UNL     1       8.908  -1.112   0.880  1.00  0.00     0.033 C 
HETATM   29  C21 UNL     1       9.794  -2.018   0.005  1.00  0.00     0.003 C 
HETATM   30  C22 UNL     1       9.603  -1.432  -1.385  1.00  0.00     0.011 C 
HETATM   31  C23 UNL     1       8.366  -0.556  -1.319  1.00  0.00    -0.021 C 
HETATM   32  C24 UNL     1       8.733   0.907  -1.352  1.00  0.00     0.017 C 
HETATM   33  C25 UNL     1       7.440  -0.819  -2.483  1.00  0.00     0.017 C 
ENDBRANCH  26  27
ENDBRANCH  23  26
ENDBRANCH  17  20
ENDBRANCH  10  16
BRANCH   1  34
HETATM   34  C2  UNL     1      -5.169   0.188  -2.227  1.00  0.00    -0.013 C 
HETATM   35  C1  UNL     1      -3.999   0.161  -3.271  1.00  0.00     0.010 C 
BRANCH  34  36
HETATM   36  C3  UNL     1      -5.393  -1.200  -1.883  1.00  0.00     0.015 C 
BRANCH  36  37
HETATM   37  C4  UNL     1      -6.467  -1.638  -0.957  1.00  0.00     0.113 C 
BRANCH  37  38
HETATM   38  C5  UNL     1      -7.853  -1.360  -1.420  1.00  0.00     0.172 C 
HETATM   39  O1  UNL     1      -8.013  -0.817  -2.532  1.00  0.00    -0.648 OA
HETATM   40  O2  UNL     1      -8.964  -1.671  -0.683  1.00  0.00    -0.648 OA
ENDBRANCH  37  38
ENDBRANCH  36  37
ENDBRANCH  34  36
ENDBRANCH   1  34
TORSDOF 8
