REMARK  11 active torsions:
REMARK  status: ('A' for Active; 'I' for Inactive)
REMARK    1  A    between atoms: C2_2  and  C3_3 
REMARK    2  A    between atoms: C2_2  and  C4_6 
REMARK    3  A    between atoms: C3_3  and  O1_4 
REMARK    4  A    between atoms: C4_6  and  C5_8 
REMARK    5  A    between atoms: C14_17  and  O3_18 
REMARK    6  A    between atoms: C19_24  and  C20_25 
REMARK    7  A    between atoms: C20_25  and  O4_26 
REMARK    8  A    between atoms: C20_25  and  N1_28 
REMARK    9  A    between atoms: C25_33  and  O5_34 
REMARK   10  A    between atoms: O5_34  and  C26_35 
REMARK   11  A    between atoms: C26_35  and  C27_36 
ROOT
HETATM    1  C5  UNL     1       0.908   0.829   0.468  1.00  0.00     0.040 C 
HETATM    2  C6  UNL     1      -0.186   0.619   1.536  1.00  0.00     0.019 C 
HETATM    3  C7  UNL     1      -1.465   1.236   1.127  1.00  0.00     0.007 C 
HETATM    4  C8  UNL     1      -1.956   0.465  -0.035  1.00  0.00     0.003 C 
HETATM    5  C9  UNL     1      -0.941  -0.311  -0.761  1.00  0.00     0.012 C 
HETATM    6  C10 UNL     1      -1.555  -0.792  -2.002  1.00  0.00     0.033 C 
HETATM    7  C11 UNL     1      -2.719  -1.658  -1.664  1.00  0.00    -0.023 C 
HETATM    8  C12 UNL     1      -3.391  -1.506  -0.568  1.00  0.00    -0.072 C 
HETATM    9  C13 UNL     1      -4.552  -2.406  -0.283  1.00  0.00     0.066 C 
HETATM   10  C14 UNL     1      -5.768  -1.662   0.170  1.00  0.00     0.122 C 
HETATM   11  C15 UNL     1      -5.492  -0.465   1.011  1.00  0.00     0.033 C 
HETATM   12  C16 UNL     1      -4.314   0.354   0.589  1.00  0.00     0.016 C 
HETATM   13  C17 UNL     1      -3.046  -0.469   0.428  1.00  0.00    -0.017 C 
HETATM   14  C18 UNL     1      -2.784  -1.213   1.691  1.00  0.00     0.020 C 
HETATM   15  C19 UNL     1       0.511   0.200  -0.817  1.00  0.00     0.044 C 
HETATM   16  C23 UNL     1       1.197  -1.163  -1.064  1.00  0.00     0.022 C 
HETATM   17  C24 UNL     1       2.575  -1.431  -0.847  1.00  0.00     0.033 C 
HETATM   18  C25 UNL     1       2.881  -2.095   0.540  1.00  0.00     0.122 C 
HETATM   19  C28 UNL     1       1.877  -1.358   1.420  1.00  0.00     0.037 C 
HETATM   20  C29 UNL     1       2.080   0.068   1.132  1.00  0.00     0.001 C 
HETATM   21  C30 UNL     1       2.463   0.676   2.467  1.00  0.00     0.011 C 
ENDROOT
BRANCH   1  22
HETATM   22  C4  UNL     1       1.290   2.228   0.598  1.00  0.00     0.143 C 
HETATM   23  O2  UNL     1       0.742   2.762   1.630  1.00  0.00    -0.297 OA
BRANCH  22  24
HETATM   24  C2  UNL     1       2.053   3.290   0.029  1.00  0.00     0.075 C 
HETATM   25  C1  UNL     1       2.012   4.572   0.968  1.00  0.00     0.020 C 
BRANCH  24  26
HETATM   26  C3  UNL     1       3.532   3.212  -0.164  1.00  0.00     0.175 C 
BRANCH  26  27
HETATM   27  O1  UNL     1       4.040   2.249  -0.968  1.00  0.00    -0.400 OA
ATOM     28  H1  UNL     1       4.981   2.199  -1.091  1.00  0.00     0.209 HD
ENDBRANCH  26  27
ENDBRANCH  24  26
ENDBRANCH  22  24
ENDBRANCH   1  22
BRANCH  15  29
HETATM   29  C20 UNL     1       0.790   0.932  -2.055  1.00  0.00     0.123 C 
BRANCH  29  30
HETATM   30  O4  UNL     1       1.822   0.433  -2.702  1.00  0.00    -0.349 OA
ATOM     31  H4  UNL     1       2.003   0.908  -3.505  1.00  0.00     0.219 HD
ENDBRANCH  29  30
BRANCH  29  32
HETATM   32  N1  UNL     1       0.308   1.998  -2.772  1.00  0.00    -0.373 N 
HETATM   33  C21 UNL     1      -0.796   2.878  -2.501  1.00  0.00     0.150 C 
HETATM   34  C22 UNL     1       0.935   2.413  -4.063  1.00  0.00     0.150 C 
ENDBRANCH  29  32
ENDBRANCH  15  29
BRANCH  18  35
HETATM   35  O5  UNL     1       2.567  -3.410   0.516  1.00  0.00    -0.375 OA
BRANCH  35  36
HETATM   36  C26 UNL     1       3.496  -4.352   0.757  1.00  0.00     0.281 C 
BRANCH  36  37
HETATM   37  C27 UNL     1       4.202  -4.398   2.016  1.00  0.00     0.197 C 
HETATM   38  O6  UNL     1       4.072  -3.644   2.985  1.00  0.00    -0.646 OA
HETATM   39  O7  UNL     1       5.161  -5.425   2.170  1.00  0.00    -0.646 OA
ENDBRANCH  36  37
ENDBRANCH  35  36
ENDBRANCH  18  35
BRANCH  10  40
HETATM   40  O3  UNL     1      -6.554  -1.279  -0.934  1.00  0.00    -0.395 OA
ATOM     41  H3  UNL     1      -7.326  -0.806  -0.646  1.00  0.00     0.210 HD
ENDBRANCH  10  40
TORSDOF 11
