REMARK  9 active torsions:
REMARK  status: ('A' for Active; 'I' for Inactive)
REMARK    1  A    between atoms: C2_2  and  C4_4 
REMARK    2  A    between atoms: C5_5  and  O1_6 
REMARK    3  A    between atoms: C16_18  and  C17_19 
REMARK    4  A    between atoms: C17_19  and  C18_20 
REMARK       I    between atoms: C18_20  and  N1_22 
REMARK    5  A    between atoms: N1_22  and  C19_24 
REMARK    6  A    between atoms: C19_24  and  C20_25 
REMARK    7  A    between atoms: C20_25  and  O3_26 
REMARK    8  A    between atoms: C20_25  and  C21_28 
REMARK    9  A    between atoms: C21_28  and  N2_29 
ROOT
HETATM    1  C4  UNL     1      -5.263   1.062   1.624  1.00  0.00     0.026 C 
HETATM    2  C5  UNL     1      -5.293   0.048   2.713  1.00  0.00     0.123 C 
HETATM    3  C6  UNL     1      -5.352  -1.370   2.256  1.00  0.00     0.032 C 
HETATM    4  C7  UNL     1      -4.852  -1.664   0.914  1.00  0.00     0.008 C 
HETATM    5  C8  UNL     1      -4.409  -0.575   0.022  1.00  0.00    -0.001 C 
HETATM    6  C9  UNL     1      -3.256  -1.088  -0.836  1.00  0.00    -0.003 C 
HETATM    7  C10 UNL     1      -3.474  -0.962  -2.310  1.00  0.00     0.006 C 
HETATM    8  C11 UNL     1      -2.452  -1.927  -2.942  1.00  0.00     0.008 C 
HETATM    9  C12 UNL     1      -1.091  -1.495  -2.515  1.00  0.00     0.024 C 
HETATM   10  C13 UNL     1       0.037  -2.051  -3.310  1.00  0.00    -0.009 C 
HETATM   11  C14 UNL     1       0.218  -3.510  -3.337  1.00  0.00     0.010 C 
HETATM   12  C15 UNL     1       1.287  -1.269  -2.866  1.00  0.00     0.037 C 
HETATM   13  C16 UNL     1       1.381  -1.593  -1.371  1.00  0.00     0.131 C 
HETATM   14  O4  UNL     1       0.357  -0.961  -0.719  1.00  0.00    -0.374 OA
HETATM   15  C26 UNL     1      -0.877  -1.535  -1.004  1.00  0.00     0.066 C 
HETATM   16  C27 UNL     1      -1.097  -2.852  -0.373  1.00  0.00     0.047 C 
HETATM   17  C28 UNL     1      -1.928  -0.531  -0.495  1.00  0.00     0.025 C 
HETATM   18  C29 UNL     1      -1.856  -0.228   0.940  1.00  0.00     0.009 C 
HETATM   19  C30 UNL     1      -2.791   0.942   1.209  1.00  0.00     0.010 C 
HETATM   20  C31 UNL     1      -4.167   0.764   0.621  1.00  0.00    -0.034 C 
HETATM   21  C32 UNL     1      -4.304   1.872  -0.439  1.00  0.00     0.016 C 
ENDROOT
BRANCH  13  22
HETATM   22  C17 UNL     1       2.744  -1.298  -0.901  1.00  0.00     0.134 C 
BRANCH  22  23
HETATM   23  C18 UNL     1       3.235   0.067  -1.017  1.00  0.00     0.220 C 
HETATM   24  O2  UNL     1       2.475   0.988  -1.444  1.00  0.00    -0.274 OA
HETATM   25  N1  UNL     1       4.579   0.343  -0.642  1.00  0.00    -0.358 N 
ATOM     26  H1  UNL     1       5.183  -0.404  -0.300  1.00  0.00     0.162 HD
BRANCH  25  27
HETATM   27  C19 UNL     1       5.081   1.700  -0.752  1.00  0.00     0.159 C 
BRANCH  27  28
HETATM   28  C20 UNL     1       6.527   1.800  -0.317  1.00  0.00     0.174 C 
BRANCH  28  29
HETATM   29  O3  UNL     1       7.257   0.961  -1.156  1.00  0.00    -0.389 OA
ATOM     30  H3  UNL     1       8.165   1.024  -0.883  1.00  0.00     0.210 HD
ENDBRANCH  28  29
BRANCH  28  31
HETATM   31  C21 UNL     1       6.717   1.413   1.110  1.00  0.00     0.091 C 
BRANCH  31  32
HETATM   32  N2  UNL     1       8.009   1.452   1.624  1.00  0.00    -0.391 N 
HETATM   33  C22 UNL     1       8.663   2.692   1.792  1.00  0.00     0.122 C 
HETATM   34  C23 UNL     1       9.891   2.267   2.612  1.00  0.00     0.021 C 
HETATM   35  C24 UNL     1      10.237   0.952   1.947  1.00  0.00     0.021 C 
HETATM   36  C25 UNL     1       8.935   0.435   1.319  1.00  0.00     0.122 C 
ENDBRANCH  31  32
ENDBRANCH  28  31
ENDBRANCH  27  28
ENDBRANCH  25  27
ENDBRANCH  22  23
ENDBRANCH  13  22
BRANCH   1  37
HETATM   37  C2  UNL     1      -6.542   1.530   1.088  1.00  0.00    -0.015 C 
HETATM   38  C1  UNL     1      -7.518   0.642   0.463  1.00  0.00     0.010 C 
HETATM   39  C3  UNL     1      -7.296   2.341   2.169  1.00  0.00     0.010 C 
ENDBRANCH   1  37
BRANCH   2  40
HETATM   40  O1  UNL     1      -6.246   0.358   3.679  1.00  0.00    -0.395 OA
ATOM     41  H1  UNL     1      -6.265  -0.289   4.374  1.00  0.00     0.210 HD
ENDBRANCH   2  40
TORSDOF 9
