REMARK  10 active torsions:
REMARK  status: ('A' for Active; 'I' for Inactive)
REMARK    1  A    between atoms: C2_2  and  C3_3 
REMARK    2  A    between atoms: C2_2  and  C13_20 
REMARK    3  A    between atoms: C3_3  and  C4_4 
REMARK    4  A    between atoms: C4_4  and  C5_5 
REMARK    5  A    between atoms: C5_5  and  N1_7 
REMARK    6  A    between atoms: N1_7  and  C6_9 
REMARK    7  A    between atoms: C6_9  and  C7_10 
REMARK    8  A    between atoms: C7_10  and  N2_11 
REMARK    9  A    between atoms: C24_31  and  O1_32 
REMARK   10  A    between atoms: C27_36  and  O2_37 
ROOT
HETATM    1  N2  UNL     1       5.819  -0.651   1.788  1.00  0.00    -0.369 N 
HETATM    2  C8  UNL     1       6.461  -1.475   2.815  1.00  0.00     0.124 C 
HETATM    3  C9  UNL     1       7.892  -1.642   2.347  1.00  0.00     0.027 C 
HETATM    4  C10 UNL     1       7.713  -1.703   0.850  1.00  0.00     0.078 C 
HETATM    5  C11 UNL     1       6.625  -0.741   0.625  1.00  0.00     0.088 C 
HETATM    6  N3  UNL     1       6.419  -0.075  -0.448  1.00  0.00    -0.283 N 
ATOM      7  H3  UNL     1       5.633   0.572  -0.509  1.00  0.00     0.179 HD
HETATM    8  C12 UNL     1       7.275  -0.241  -1.530  1.00  0.00     0.183 C 
HETATM    9  N4  UNL     1       7.988  -0.395  -2.441  1.00  0.00    -0.172 NA
ENDROOT
BRANCH   1  10
HETATM   10  C7  UNL     1       4.600   0.057   2.060  1.00  0.00     0.143 C 
BRANCH  10  11
HETATM   11  C6  UNL     1       4.094   0.856   0.878  1.00  0.00     0.140 C 
BRANCH  11  12
HETATM   12  N1  UNL     1       2.868   1.513   1.295  1.00  0.00    -0.383 N 
ATOM     13  H1  UNL     1       2.524   1.324   2.236  1.00  0.00     0.160 HD
BRANCH  12  14
HETATM   14  C5  UNL     1       2.121   2.395   0.486  1.00  0.00     0.073 C 
HETATM   15  S1  UNL     1       0.796   3.125   1.154  1.00  0.00    -0.066 SA
BRANCH  14  16
HETATM   16  C4  UNL     1       2.506   2.734  -0.869  1.00  0.00     0.069 C 
BRANCH  16  17
HETATM   17  C3  UNL     1       1.632   2.426  -2.013  1.00  0.00     0.011 C 
BRANCH  17  18
HETATM   18  C2  UNL     1       1.319   1.043  -2.401  1.00  0.00    -0.014 C 
HETATM   19  C1  UNL     1       2.674   0.331  -2.744  1.00  0.00     0.010 C 
BRANCH  18  20
HETATM   20  C13 UNL     1       0.553   0.205  -1.492  1.00  0.00    -0.006 C 
HETATM   21  C14 UNL     1       0.383  -1.213  -2.149  1.00  0.00     0.006 C 
HETATM   22  C15 UNL     1      -0.660  -1.865  -1.267  1.00  0.00     0.010 C 
HETATM   23  C16 UNL     1      -1.683  -0.788  -1.277  1.00  0.00    -0.036 C 
HETATM   24  C17 UNL     1      -2.357  -0.748  -2.627  1.00  0.00     0.016 C 
HETATM   25  C18 UNL     1      -0.797   0.457  -1.040  1.00  0.00    -0.002 C 
HETATM   26  C22 UNL     1      -2.664  -0.816  -0.171  1.00  0.00     0.001 C 
HETATM   27  C19 UNL     1      -1.637   1.572  -1.506  1.00  0.00     0.006 C 
HETATM   28  C20 UNL     1      -2.834   1.668  -0.543  1.00  0.00     0.006 C 
HETATM   29  C21 UNL     1      -3.524   0.419  -0.230  1.00  0.00    -0.005 C 
HETATM   30  C30 UNL     1      -4.123   0.536   1.184  1.00  0.00     0.003 C 
HETATM   31  C25 UNL     1      -4.919  -0.684   1.536  1.00  0.00     0.012 C 
HETATM   32  C29 UNL     1      -5.037   1.727   1.295  1.00  0.00     0.008 C 
HETATM   33  C24 UNL     1      -4.885  -1.771   0.512  1.00  0.00     0.129 C 
HETATM   34  C26 UNL     1      -4.466  -1.272   2.879  1.00  0.00     0.021 C 
HETATM   35  C27 UNL     1      -6.352  -0.261   1.722  1.00  0.00     0.129 C 
HETATM   36  C23 UNL     1      -3.554  -2.019  -0.116  1.00  0.00     0.038 C 
HETATM   37  C28 UNL     1      -6.443   1.203   1.374  1.00  0.00     0.033 C 
BRANCH  33  38
HETATM   38  O1  UNL     1      -5.912  -1.587  -0.439  1.00  0.00    -0.395 OA
ATOM     39  H1  UNL     1      -6.759  -1.429  -0.039  1.00  0.00     0.210 HD
ENDBRANCH  33  38
BRANCH  35  40
HETATM   40  O2  UNL     1      -6.820  -0.488   3.018  1.00  0.00    -0.395 OA
ATOM     41  H2  UNL     1      -7.724  -0.221   3.135  1.00  0.00     0.210 HD
ENDBRANCH  35  40
ENDBRANCH  18  20
ENDBRANCH  17  18
ENDBRANCH  16  17
ENDBRANCH  14  16
ENDBRANCH  12  14
ENDBRANCH  11  12
ENDBRANCH  10  11
ENDBRANCH   1  10
TORSDOF 10
