REMARK  7 active torsions:
REMARK  status: ('A' for Active; 'I' for Inactive)
REMARK    1  A    between atoms: C2_2  and  C3_3 
REMARK    2  A    between atoms: C3_3  and  C4_4 
REMARK    3  A    between atoms: C4_4  and  S1_5 
REMARK    4  A    between atoms: S1_5  and  C5_6 
REMARK    5  A    between atoms: S1_5  and  O1_8 
REMARK    6  A    between atoms: O1_8  and  C7_9 
REMARK    7  A    between atoms: C7_9  and  C8_10 
ROOT
HETATM    1  S1  UNL     1      -0.506  -0.110  -0.114  1.00  0.00    -0.089 SA
ENDROOT
BRANCH   1   2
HETATM    2  C4  UNL     1      -1.786  -0.034  -1.275  1.00  0.00     0.095 C 
BRANCH   2   3
HETATM    3  C3  UNL     1      -3.165   0.058  -0.717  1.00  0.00     0.037 C 
BRANCH   3   4
HETATM    4  C2  UNL     1      -3.406  -1.172   0.132  1.00  0.00    -0.036 C 
HETATM    5  C1  UNL     1      -3.687  -1.082   1.415  1.00  0.00     0.007 C 
ENDBRANCH   3   4
ENDBRANCH   2   3
ENDBRANCH   1   2
BRANCH   1   6
HETATM    6  C5  UNL     1      -0.366   1.233   0.973  1.00  0.00     0.087 C 
HETATM    7  C6  UNL     1      -0.129   2.492   0.131  1.00  0.00     0.017 C 
ENDBRANCH   1   6
BRANCH   1   8
HETATM    8  O1  UNL     1       0.881  -0.815  -0.597  1.00  0.00    -0.332 OA
BRANCH   8   9
HETATM    9  C7  UNL     1       2.022  -0.437   0.060  1.00  0.00     0.183 C 
BRANCH   9  10
HETATM   10  C8  UNL     1       3.194  -1.214  -0.548  1.00  0.00     0.023 C 
HETATM   11  C9  UNL     1       4.496  -0.831   0.149  1.00  0.00     0.007 C 
ENDBRANCH   9  10
ENDBRANCH   8   9
ENDBRANCH   1   8
TORSDOF 7
