REMARK  5 active torsions:
REMARK  status: ('A' for Active; 'I' for Inactive)
REMARK    1  A    between atoms: C1_1  and  C2_2 
REMARK    2  A    between atoms: C1_1  and  C6_9 
REMARK    3  A    between atoms: C2_2  and  N1_3 
REMARK    4  A    between atoms: N1_3  and  C3_6 
REMARK    5  A    between atoms: C6_9  and  C7_10 
ROOT
HETATM    1  C2  UNL     1      -0.640  -0.383  -0.197  1.00  0.00     0.232 C 
ENDROOT
BRANCH   1   2
HETATM    2  C1  UNL     1       0.579   0.489   0.025  1.00  0.00     0.028 C 
BRANCH   2   3
HETATM    3  C6  UNL     1       1.760  -0.296  -0.496  1.00  0.00     0.006 C 
BRANCH   3   4
HETATM    4  C7  UNL     1       3.061   0.400  -0.366  1.00  0.00    -0.014 A 
HETATM    5  C8  UNL     1       3.643   0.835   0.899  1.00  0.00     0.005 A 
HETATM    6  C9  UNL     1       4.147  -0.444   0.342  1.00  0.00     0.005 A 
ENDBRANCH   3   4
ENDBRANCH   2   3
ENDBRANCH   1   2
BRANCH   1   7
HETATM    7  N1  UNL     1      -1.828   0.292   0.277  1.00  0.00    -0.071 N 
ATOM      8  H12 UNL     1      -1.731   0.578   1.251  1.00  0.00     0.277 HD
ATOM      9  H11 UNL     1      -1.928   1.213  -0.149  1.00  0.00     0.277 HD
BRANCH   7  10
HETATM   10  C3  UNL     1      -3.011  -0.514   0.078  1.00  0.00     0.186 A 
HETATM   11  C4  UNL     1      -4.293   0.113   0.579  1.00  0.00     0.035 A 
HETATM   12  C5  UNL     1      -4.056   0.021  -0.899  1.00  0.00     0.035 A 
ENDBRANCH   7  10
ENDBRANCH   1   7
TORSDOF 5
