REMARK  5 active torsions:
REMARK  status: ('A' for Active; 'I' for Inactive)
REMARK    1  A    between atoms: C2_2  and  C3_3 
REMARK    2  A    between atoms: C3_3  and  C4_4 
REMARK    3  A    between atoms: C4_4  and  C5_5 
REMARK    4  A    between atoms: C5_5  and  O1_6 
REMARK    5  A    between atoms: O1_6  and  C6_7 
ROOT
HETATM    1  C6  UNL     1       1.184   1.365   0.190  1.00  0.00     0.085 A 
HETATM    2  C7  UNL     1       2.335   0.810  -0.323  1.00  0.00     0.055 A 
HETATM    3  C8  UNL     1       3.413   1.239   0.441  1.00  0.00     0.090 A 
HETATM    4  N1  UNL     1       2.928   2.040   1.400  1.00  0.00    -0.373 N 
ATOM      5  H1  UNL     1       3.487   2.506   2.115  1.00  0.00     0.164 HD
HETATM    6  C9  UNL     1       1.608   2.135   1.278  1.00  0.00     0.124 A 
ENDROOT
BRANCH   1   7
HETATM    7  O1  UNL     1      -0.129   1.256  -0.195  1.00  0.00    -0.350 OA
BRANCH   7   8
HETATM    8  C5  UNL     1      -0.692   0.535  -1.214  1.00  0.00     0.176 C 
BRANCH   8   9
HETATM    9  C4  UNL     1      -0.498  -0.932  -1.049  1.00  0.00     0.030 C 
BRANCH   9  10
HETATM   10  C3  UNL     1      -1.109  -1.454   0.236  1.00  0.00     0.028 C 
BRANCH  10  11
HETATM   11  C2  UNL     1      -2.567  -1.183   0.241  1.00  0.00    -0.037 C 
HETATM   12  C1  UNL     1      -3.407  -2.197   0.326  1.00  0.00     0.007 C 
ENDBRANCH  10  11
ENDBRANCH   9  10
ENDBRANCH   8   9
ENDBRANCH   7   8
ENDBRANCH   1   7
TORSDOF 5
