REMARK  7 active torsions:
REMARK  status: ('A' for Active; 'I' for Inactive)
REMARK    1  A    between atoms: C2_2  and  C3_3 
REMARK    2  A    between atoms: C3_3  and  C4_4 
REMARK    3  A    between atoms: C4_4  and  C5_5 
REMARK    4  A    between atoms: C5_5  and  C6_6 
REMARK    5  A    between atoms: C5_5  and  C8_12 
REMARK    6  A    between atoms: C6_6  and  C7_7 
REMARK    7  A    between atoms: C7_7  and  N1_8 
ROOT
HETATM    1  C5  UNL     1      -0.333   0.663  -0.505  1.00  0.00    -0.009 C 
ENDROOT
BRANCH   1   2
HETATM    2  C4  UNL     1       1.157   1.024  -0.212  1.00  0.00     0.009 C 
BRANCH   2   3
HETATM    3  C3  UNL     1       1.735  -0.025   0.656  1.00  0.00     0.027 C 
BRANCH   3   4
HETATM    4  C2  UNL     1       3.209   0.243   0.922  1.00  0.00    -0.037 C 
HETATM    5  C1  UNL     1       4.132  -0.637   0.561  1.00  0.00     0.007 C 
ENDBRANCH   3   4
ENDBRANCH   2   3
ENDBRANCH   1   2
BRANCH   1   6
HETATM    6  C6  UNL     1      -1.000   0.635   0.802  1.00  0.00     0.032 C 
BRANCH   6   7
HETATM    7  C7  UNL     1      -2.468   0.397   0.877  1.00  0.00     0.230 C 
BRANCH   7   8
HETATM    8  N1  UNL     1      -3.231   1.424   0.160  1.00  0.00    -0.079 N 
ATOM      9  H13 UNL     1      -2.991   2.359   0.489  1.00  0.00     0.274 HD
ATOM     10  H12 UNL     1      -2.919   1.508  -0.808  1.00  0.00     0.274 HD
ATOM     11  H11 UNL     1      -4.237   1.261   0.211  1.00  0.00     0.274 HD
ENDBRANCH   7   8
ENDBRANCH   6   7
ENDBRANCH   1   6
BRANCH   1  12
HETATM   12  C8  UNL     1      -0.261  -0.573  -1.315  1.00  0.00    -0.010 A 
HETATM   13  C9  UNL     1      -1.537  -1.220  -1.832  1.00  0.00     0.005 A 
HETATM   14  C10 UNL     1      -0.722  -1.888  -0.815  1.00  0.00     0.005 A 
ENDBRANCH   1  12
TORSDOF 7
