REMARK  6 active torsions:
REMARK  status: ('A' for Active; 'I' for Inactive)
REMARK    1  A    between atoms: C2_2  and  C3_3 
REMARK    2  A    between atoms: C3_3  and  C4_4 
REMARK    3  A    between atoms: C4_4  and  N1_5 
REMARK    4  A    between atoms: N1_5  and  C5_8 
REMARK    5  A    between atoms: C5_8  and  C6_9 
REMARK    6  A    between atoms: C6_9  and  C7_10 
ROOT
HETATM    1  N1  UNL     1       1.220  -0.379   0.431  1.00  0.00    -0.075 N 
ATOM      2  H11 UNL     1       1.151   0.541   0.866  1.00  0.00     0.277 HD
ATOM      3  H12 UNL     1       1.870  -0.827   1.077  1.00  0.00     0.277 HD
ENDROOT
BRANCH   1   4
HETATM    4  C4  UNL     1       1.796  -0.277  -0.867  1.00  0.00     0.236 C 
BRANCH   4   5
HETATM    5  C3  UNL     1       3.054   0.586  -0.893  1.00  0.00     0.054 C 
BRANCH   5   6
HETATM    6  C2  UNL     1       4.072   0.049   0.060  1.00  0.00    -0.035 C 
HETATM    7  C1  UNL     1       4.561   0.809   1.041  1.00  0.00     0.007 C 
ENDBRANCH   5   6
ENDBRANCH   4   5
ENDBRANCH   1   4
BRANCH   1   8
HETATM    8  C5  UNL     1      -0.064  -1.050   0.455  1.00  0.00     0.232 C 
BRANCH   8   9
HETATM    9  C6  UNL     1      -1.059  -0.131  -0.159  1.00  0.00     0.032 C 
BRANCH   9  10
HETATM   10  C7  UNL     1      -2.468  -0.634  -0.238  1.00  0.00    -0.013 C 
HETATM   11  C8  UNL     1      -3.307   0.490  -0.872  1.00  0.00     0.005 C 
HETATM   12  C9  UNL     1      -3.568   0.960   0.571  1.00  0.00     0.001 C 
HETATM   13  C10 UNL     1      -3.330  -0.496   0.980  1.00  0.00     0.005 C 
ENDBRANCH   9  10
ENDBRANCH   8   9
ENDBRANCH   1   8
TORSDOF 6
