REMARK  5 active torsions:
REMARK  status: ('A' for Active; 'I' for Inactive)
REMARK    1  A    between atoms: C2_2  and  C3_3 
REMARK    2  A    between atoms: C3_3  and  C4_4 
REMARK    3  A    between atoms: C4_4  and  N1_5 
REMARK    4  A    between atoms: N1_5  and  C5_7 
REMARK    5  A    between atoms: C5_7  and  C6_8 
ROOT
HETATM    1  C6  UNL     1       1.854   0.096   0.606  1.00  0.00    -0.006 A 
HETATM    2  C7  UNL     1       2.907  -0.714   0.917  1.00  0.00     0.015 A 
HETATM    3  C8  UNL     1       4.200  -0.304   0.650  1.00  0.00     0.018 A 
HETATM    4  C9  UNL     1       4.381   0.933   0.067  1.00  0.00     0.087 A 
HETATM    5  N2  UNL     1       3.345   1.748  -0.248  1.00  0.00    -0.374 N 
ATOM      6  H2  UNL     1       3.511   2.658  -0.679  1.00  0.00     0.164 HD
HETATM    7  C10 UNL     1       2.096   1.334   0.018  1.00  0.00     0.100 A 
ENDROOT
BRANCH   1   8
HETATM    8  C5  UNL     1       0.450  -0.240   0.848  1.00  0.00     0.095 C 
BRANCH   8   9
HETATM    9  N1  UNL     1      -0.252  -0.450  -0.351  1.00  0.00    -0.398 N 
ATOM     10  H1  UNL     1       0.227  -0.410  -1.251  1.00  0.00     0.158 HD
BRANCH   9  11
HETATM   11  C4  UNL     1      -1.640  -0.719  -0.280  1.00  0.00     0.122 C 
BRANCH  11  12
HETATM   12  C3  UNL     1      -2.337   0.540   0.173  1.00  0.00     0.046 C 
BRANCH  12  13
HETATM   13  C2  UNL     1      -3.798   0.406   0.277  1.00  0.00    -0.035 C 
HETATM   14  C1  UNL     1      -4.500  -0.667   0.006  1.00  0.00     0.007 C 
ENDBRANCH  12  13
ENDBRANCH  11  12
ENDBRANCH   9  11
ENDBRANCH   8   9
ENDBRANCH   1   8
TORSDOF 5
