REMARK  4 active torsions:
REMARK  status: ('A' for Active; 'I' for Inactive)
REMARK    1  A    between atoms: C5_6  and  N1_7 
REMARK    2  A    between atoms: N1_7  and  C6_9 
REMARK    3  A    between atoms: C6_9  and  N2_11 
REMARK    4  A    between atoms: N2_11  and  C7_13 
ROOT
HETATM    1  N1  UNL     1       0.909   0.122  -0.080  1.00  0.00    -0.332 N 
ATOM      2  H1  UNL     1       0.940   1.003   0.434  1.00  0.00     0.168 HD
ENDROOT
BRANCH   1   3
HETATM    3  C5  UNL     1       2.193  -0.486  -0.336  1.00  0.00     0.047 A 
HETATM    4  C2  UNL     1       3.340   0.058   0.173  1.00  0.00    -0.028 A 
HETATM    5  C1  UNL     1       3.364   1.309   1.058  1.00  0.00     0.051 C 
HETATM    6  C3  UNL     1       4.506  -0.561  -0.127  1.00  0.00     0.058 A 
HETATM    7  S1  UNL     1       4.056  -1.865  -1.088  1.00  0.00    -0.111 SA
HETATM    8  C4  UNL     1       2.343  -1.604  -1.099  1.00  0.00     0.079 A 
ENDBRANCH   1   3
BRANCH   1   9
HETATM    9  C6  UNL     1      -0.359  -0.312  -0.428  1.00  0.00     0.173 C 
HETATM   10  S2  UNL     1      -0.666  -1.691  -1.227  1.00  0.00    -0.041 SA
BRANCH   9  11
HETATM   11  N2  UNL     1      -1.499   0.521  -0.039  1.00  0.00    -0.345 N 
ATOM     12  H2  UNL     1      -1.342   1.390   0.471  1.00  0.00     0.163 HD
BRANCH  11  13
HETATM   13  C7  UNL     1      -2.830   0.122  -0.371  1.00  0.00     0.102 C 
HETATM   14  C8  UNL     1      -3.211  -1.210   0.232  1.00  0.00     0.056 C 
HETATM   15  C9  UNL     1      -3.789   1.171   0.121  1.00  0.00     0.056 C 
HETATM   16 CL1  UNL     1      -3.014  -0.029  -2.132  1.00  0.00    -0.096 Cl
ENDBRANCH  11  13
ENDBRANCH   9  11
ENDBRANCH   1   9
TORSDOF 4
