REMARK  3 active torsions:
REMARK  status: ('A' for Active; 'I' for Inactive)
REMARK    1  A    between atoms: C2_2  and  C4_4 
REMARK    2  A    between atoms: C6_8  and  N2_9 
REMARK    3  A    between atoms: N2_9  and  C7_11 
ROOT
HETATM    1  C4  UNL     1      -2.460  -0.074  -0.838  1.00  0.00     0.032 C 
HETATM    2  C5  UNL     1      -2.432  -1.401  -0.134  1.00  0.00     0.128 C 
HETATM    3  N1  UNL     1      -1.203  -1.356   0.622  1.00  0.00    -0.378 N 
ATOM      4  H1  UNL     1      -0.956  -2.039   1.338  1.00  0.00     0.160 HD
HETATM    5  C6  UNL     1      -0.453  -0.365   0.297  1.00  0.00     0.092 C 
HETATM    6  C13 UNL     1      -1.067   0.468  -0.778  1.00  0.00     0.155 C 
HETATM    7 CL1  UNL     1      -1.004   2.194  -0.399  1.00  0.00    -0.116 Cl
ENDROOT
BRANCH   5   8
HETATM    8  N2  UNL     1       0.802  -0.145   0.926  1.00  0.00    -0.374 N 
ATOM      9  H2  UNL     1       0.875   0.585   1.635  1.00  0.00     0.161 HD
BRANCH   8  10
HETATM   10  C7  UNL     1       1.975  -0.915   0.599  1.00  0.00     0.082 C 
HETATM   11  C8  UNL     1       2.372  -0.791  -0.854  1.00  0.00     0.025 C 
HETATM   12  C9  UNL     1       3.013   0.542  -1.136  1.00  0.00     0.002 C 
HETATM   13  C10 UNL     1       4.305   0.667  -0.361  1.00  0.00     0.000 C 
HETATM   14  C11 UNL     1       4.427  -0.392   0.698  1.00  0.00     0.002 C 
HETATM   15  C12 UNL     1       3.141  -0.592   1.474  1.00  0.00     0.025 C 
ENDBRANCH   8  10
ENDBRANCH   5   8
BRANCH   1  16
HETATM   16  C2  UNL     1      -3.511   0.850  -0.344  1.00  0.00    -0.015 C 
HETATM   17  C1  UNL     1      -4.865   0.206  -0.538  1.00  0.00     0.010 C 
HETATM   18  C3  UNL     1      -3.382   1.190   1.119  1.00  0.00     0.010 C 
ENDBRANCH   1  16
TORSDOF 3
