REMARK  4 active torsions:
REMARK  status: ('A' for Active; 'I' for Inactive)
REMARK    1  A    between atoms: C4_5  and  C5_6 
REMARK    2  A    between atoms: C5_6  and  C6_7 
REMARK    3  A    between atoms: C12_13  and  O1_14 
REMARK    4  A    between atoms: C13_16  and  O2_17 
ROOT
HETATM    1  C1  UNL     1       4.138   1.214  -0.502  1.00  0.00     0.018 C 
HETATM    2  C2  UNL     1       3.137   0.594   0.440  1.00  0.00     0.058 C 
HETATM    3  C3  UNL     1       1.752   0.667  -0.088  1.00  0.00     0.023 C 
HETATM    4 CL1  UNL     1       1.146   2.026  -1.082  1.00  0.00    -0.088 Cl
HETATM    5  C4  UNL     1       1.104  -0.418   0.259  1.00  0.00    -0.030 C 
HETATM    6  C12 UNL     1       2.034  -1.340   1.041  1.00  0.00     0.178 C 
HETATM    7  C13 UNL     1       3.393  -0.888   0.525  1.00  0.00     0.160 C 
ENDROOT
BRANCH   5   8
HETATM    8  C5  UNL     1      -0.258  -0.848   0.014  1.00  0.00     0.043 C 
BRANCH   8   9
HETATM    9  C6  UNL     1      -1.282   0.072  -0.484  1.00  0.00    -0.011 C 
HETATM   10  C7  UNL     1      -1.637   1.239   0.392  1.00  0.00     0.005 C 
HETATM   11  C8  UNL     1      -2.987   0.968   1.096  1.00  0.00     0.000 C 
HETATM   12  C9  UNL     1      -4.094   1.002   0.062  1.00  0.00     0.000 C 
HETATM   13  C10 UNL     1      -3.716   0.114  -1.077  1.00  0.00     0.000 C 
HETATM   14  C11 UNL     1      -2.533  -0.777  -0.772  1.00  0.00     0.005 C 
ENDBRANCH   8   9
ENDBRANCH   5   8
BRANCH   6  15
HETATM   15  O1  UNL     1       1.839  -2.613   0.519  1.00  0.00    -0.389 OA
ATOM     16  H1  UNL     1       2.418  -3.187   1.006  1.00  0.00     0.210 HD
ENDBRANCH   6  15
BRANCH   7  17
HETATM   17  O2  UNL     1       3.584  -1.360  -0.773  1.00  0.00    -0.392 OA
ATOM     18  H2  UNL     1       3.745  -2.295  -0.719  1.00  0.00     0.210 HD
ENDBRANCH   7  17
TORSDOF 4
