REMARK  3 active torsions:
REMARK  status: ('A' for Active; 'I' for Inactive)
REMARK    1  A    between atoms: C2_2  and  N1_4 
REMARK    2  A    between atoms: N1_4  and  C4_6 
REMARK    3  A    between atoms: C14_17  and  O1_18 
ROOT
HETATM    1  C4  UNL     1       1.078   0.091  -0.289  1.00  0.00     0.108 C 
HETATM    2  C5  UNL     1       0.449  -1.274  -0.431  1.00  0.00     0.027 C 
HETATM    3  C6  UNL     1      -0.446  -1.651   0.722  1.00  0.00     0.002 C 
HETATM    4  C7  UNL     1      -1.798  -2.075   0.165  1.00  0.00     0.000 C 
HETATM    5  C8  UNL     1      -2.958  -1.490   0.913  1.00  0.00     0.000 C 
HETATM    6  C9  UNL     1      -3.715  -0.474   0.057  1.00  0.00     0.000 C 
HETATM    7  C10 UNL     1      -3.583   0.926   0.599  1.00  0.00     0.000 C 
HETATM    8  C11 UNL     1      -2.651   1.772  -0.270  1.00  0.00     0.003 C 
HETATM    9  C12 UNL     1      -1.379   2.084   0.486  1.00  0.00     0.040 C 
HETATM   10  C13 UNL     1      -0.178   2.276  -0.375  1.00  0.00     0.200 C 
HETATM   11  F1  UNL     1       0.827   2.892   0.350  1.00  0.00    -0.247 F 
HETATM   12  C14 UNL     1       0.294   1.079  -1.129  1.00  0.00     0.174 C 
ENDROOT
BRANCH   1  13
HETATM   13  N1  UNL     1       2.425   0.033  -0.792  1.00  0.00    -0.411 N 
ATOM     14  H1  UNL     1       2.708   0.542  -1.630  1.00  0.00     0.154 HD
BRANCH  13  15
HETATM   15  C2  UNL     1       3.341  -0.771  -0.059  1.00  0.00     0.068 C 
HETATM   16  C1  UNL     1       3.520  -0.169   1.328  1.00  0.00     0.031 C 
HETATM   17  C3  UNL     1       4.712  -0.836  -0.713  1.00  0.00     0.031 C 
ENDBRANCH  13  15
ENDBRANCH   1  13
BRANCH  12  18
HETATM   18  O1  UNL     1       1.101   1.571  -2.185  1.00  0.00    -0.391 OA
ATOM     19  H1  UNL     1       0.610   2.190  -2.712  1.00  0.00     0.210 HD
ENDBRANCH  12  18
TORSDOF 3
