REMARK  16 active torsions:
REMARK  status: ('A' for Active; 'I' for Inactive)
REMARK    1  A    between atoms: C2_2  and  C3_3 
REMARK    2  A    between atoms: C3_3  and  N1_4 
REMARK    3  A    between atoms: N1_4  and  C4_6 
REMARK    4  A    between atoms: C4_6  and  N2_8 
REMARK    5  A    between atoms: N2_8  and  C6_10 
REMARK    6  A    between atoms: C6_10  and  C7_11 
REMARK    7  A    between atoms: C7_11  and  C8_12 
REMARK    8  A    between atoms: C8_12  and  C9_13 
REMARK    9  A    between atoms: C9_13  and  N3_14 
REMARK   10  A    between atoms: N3_14  and  C10_16 
REMARK   11  A    between atoms: N4_25  and  C19_26 
REMARK   12  A    between atoms: C19_26  and  C20_27 
REMARK   13  A    between atoms: C20_27  and  C21_28 
REMARK   14  A    between atoms: C21_28  and  O1_29 
REMARK   15  A    between atoms: O1_29  and  C22_30 
REMARK   16  A    between atoms: C24_35  and  N6_36 
ROOT
HETATM    1  C10 UNL     1      -0.554   0.552  -0.463  1.00  0.00     0.046 C 
HETATM    2  C11 UNL     1      -0.896   1.431  -1.469  1.00  0.00     0.063 C 
HETATM    3  C12 UNL     1      -1.959   2.292  -1.501  1.00  0.00     0.080 A 
HETATM    4  C13 UNL     1      -3.123   2.360  -0.762  1.00  0.00     0.079 A 
HETATM    5  C14 UNL     1      -3.446   1.467   0.247  1.00  0.00     0.063 C 
HETATM    6  C15 UNL     1      -2.776   0.367   0.740  1.00  0.00     0.049 A 
HETATM    7  C16 UNL     1      -1.479  -0.024   0.415  1.00  0.00     0.019 A 
HETATM    8  C17 UNL     1      -1.266  -1.169   1.161  1.00  0.00     0.033 A 
HETATM    9  C18 UNL     1      -2.391  -1.466   1.911  1.00  0.00     0.092 A 
HETATM   10  N4  UNL     1      -3.294  -0.504   1.627  1.00  0.00    -0.356 N 
HETATM   11  N5  UNL     1      -3.877   3.404  -1.170  1.00  0.00    -0.190 N 
ATOM     12  H5  UNL     1      -4.784   3.689  -0.801  1.00  0.00     0.184 HD
HETATM   13  C24 UNL     1      -3.176   3.996  -2.175  1.00  0.00     0.678 A 
HETATM   14  N7  UNL     1      -2.031   3.310  -2.353  1.00  0.00    -0.186 N 
HETATM   15  C25 UNL     1      -1.066   3.688  -3.351  1.00  0.00     0.175 C 
ENDROOT
BRANCH   1  16
HETATM   16  N3  UNL     1       0.636   0.198  -0.278  1.00  0.00    -0.369 N 
ATOM     17  H3  UNL     1       0.759  -0.454   0.497  1.00  0.00     0.165 HD
BRANCH  16  18
HETATM   18  C9  UNL     1       1.833   0.532  -0.939  1.00  0.00     0.061 C 
BRANCH  18  19
HETATM   19  C8  UNL     1       2.676  -0.673  -1.334  1.00  0.00     0.046 C 
BRANCH  19  20
HETATM   20  C7  UNL     1       3.916  -0.345  -2.049  1.00  0.00     0.025 C 
BRANCH  20  21
HETATM   21  C6  UNL     1       4.989   0.440  -1.448  1.00  0.00     0.125 C 
BRANCH  21  22
HETATM   22  N2  UNL     1       5.755  -0.064  -0.353  1.00  0.00    -0.363 N 
HETATM   23  C5  UNL     1       5.177  -0.217   0.958  1.00  0.00     0.152 C 
BRANCH  22  24
HETATM   24  C4  UNL     1       7.130  -0.401  -0.608  1.00  0.00     0.169 C 
HETATM   25  S1  UNL     1       7.631  -0.166  -2.189  1.00  0.00    -0.041 SA
BRANCH  24  26
HETATM   26  N1  UNL     1       8.092  -0.889   0.257  1.00  0.00    -0.364 N 
ATOM     27  H1  UNL     1       9.006  -1.035  -0.173  1.00  0.00     0.162 HD
BRANCH  26  28
HETATM   28  C3  UNL     1       8.036  -1.225   1.644  1.00  0.00     0.148 C 
BRANCH  28  29
HETATM   29  C2  UNL     1       9.328  -1.537   2.279  1.00  0.00    -0.018 C 
HETATM   30  C1  UNL     1      10.493  -1.523   1.691  1.00  0.00     0.008 C 
ENDBRANCH  28  29
ENDBRANCH  26  28
ENDBRANCH  24  26
ENDBRANCH  22  24
ENDBRANCH  21  22
ENDBRANCH  20  21
ENDBRANCH  19  20
ENDBRANCH  18  19
ENDBRANCH  16  18
ENDBRANCH   1  16
BRANCH  10  31
HETATM   31  C19 UNL     1      -4.633  -0.431   2.202  1.00  0.00     0.130 C 
BRANCH  31  32
HETATM   32  C20 UNL     1      -5.629  -1.177   1.333  1.00  0.00     0.047 C 
BRANCH  32  33
HETATM   33  C21 UNL     1      -7.000  -1.076   1.966  1.00  0.00     0.180 C 
BRANCH  33  34
HETATM   34  O1  UNL     1      -7.973  -1.756   1.196  1.00  0.00    -0.322 OA
BRANCH  34  35
HETATM   35  C22 UNL     1      -9.302  -1.831   1.529  1.00  0.00     0.254 C 
HETATM   36  C23 UNL     1     -10.228  -2.580   0.630  1.00  0.00     0.126 C 
HETATM   37  O2  UNL     1      -9.674  -1.262   2.580  1.00  0.00    -0.266 OA
ENDBRANCH  34  35
ENDBRANCH  33  34
ENDBRANCH  32  33
ENDBRANCH  31  32
ENDBRANCH  10  31
BRANCH  13  38
HETATM   38  N6  UNL     1      -3.616   5.037  -2.796  1.00  0.00    -0.234 N 
ATOM     39  H62 UNL     1      -4.483   5.557  -2.661  1.00  0.00     0.174 HD
ATOM     40  H61 UNL     1      -3.091   5.481  -3.549  1.00  0.00     0.174 HD
ENDBRANCH  13  38
TORSDOF 16
