REMARK  12 active torsions:
REMARK  status: ('A' for Active; 'I' for Inactive)
REMARK    1  A    between atoms: C2_2  and  C3_3 
REMARK    2  A    between atoms: C4_4  and  C5_5 
REMARK       I    between atoms: C5_5  and  N1_7 
REMARK    3  A    between atoms: N1_7  and  C6_9 
REMARK    4  A    between atoms: C10_13  and  C11_14 
REMARK       I    between atoms: C11_14  and  N2_16 
REMARK    5  A    between atoms: N2_16  and  C12_18 
REMARK    6  A    between atoms: C12_18  and  C13_19 
REMARK       I    between atoms: C13_19  and  N3_21 
REMARK    7  A    between atoms: N3_21  and  C14_23 
REMARK    8  A    between atoms: C14_23  and  C15_24 
REMARK    9  A    between atoms: C15_24  and  O4_25 
REMARK   10  A    between atoms: N5_29  and  C17_30 
REMARK   11  A    between atoms: N6_33  and  C20_34 
REMARK   12  A    between atoms: C20_34  and  C21_35 
ROOT
HETATM    1  C3  UNL     1      -1.018  -1.422   0.332  1.00  0.00     0.052 A 
HETATM    2  C4  UNL     1       0.226  -2.038   0.309  1.00  0.00     0.090 A 
HETATM    3  C10 UNL     1       1.154  -1.045   0.323  1.00  0.00     0.134 A 
HETATM    4  N4  UNL     1       0.443   0.131   0.348  1.00  0.00    -0.287 N 
ATOM      5  H4  UNL     1       0.862   1.061   0.360  1.00  0.00     0.188 HD
HETATM    6  N5  UNL     1      -0.830  -0.100   0.354  1.00  0.00    -0.259 N 
ENDROOT
BRANCH   3   7
HETATM    7  C11 UNL     1       2.598  -1.115   0.409  1.00  0.00     0.271 C 
HETATM    8  O2  UNL     1       3.201  -2.122   0.738  1.00  0.00    -0.266 OA
HETATM    9  N2  UNL     1       3.352   0.085   0.082  1.00  0.00    -0.347 N 
ATOM     10  H2  UNL     1       2.898   0.954  -0.200  1.00  0.00     0.163 HD
BRANCH   9  11
HETATM   11  C12 UNL     1       4.769  -0.037   0.183  1.00  0.00     0.225 C 
BRANCH  11  12
HETATM   12  C13 UNL     1       5.479   1.208  -0.161  1.00  0.00     0.235 C 
HETATM   13  O3  UNL     1       6.774   1.195  -0.095  1.00  0.00    -0.272 OA
HETATM   14  N3  UNL     1       4.803   2.372  -0.546  1.00  0.00    -0.358 N 
ATOM     15  H3  UNL     1       3.785   2.384  -0.612  1.00  0.00     0.162 HD
BRANCH  14  16
HETATM   16  C14 UNL     1       5.592   3.581  -0.854  1.00  0.00     0.148 C 
BRANCH  16  17
HETATM   17  C15 UNL     1       6.272   4.024   0.408  1.00  0.00     0.186 C 
BRANCH  17  18
HETATM   18  O4  UNL     1       7.040   5.168   0.256  1.00  0.00    -0.394 OA
HETATM   19  C16 UNL     1       8.048   4.959  -0.663  1.00  0.00     0.201 C 
ENDBRANCH  17  18
ENDBRANCH  16  17
ENDBRANCH  14  16
ENDBRANCH  11  12
ENDBRANCH   9  11
ENDBRANCH   3   7
BRANCH   2  20
HETATM   20  C5  UNL     1       0.439  -3.474   0.287  1.00  0.00     0.256 C 
HETATM   21  O1  UNL     1      -0.345  -4.209   0.997  1.00  0.00    -0.267 OA
HETATM   22  N1  UNL     1       1.414  -4.175  -0.439  1.00  0.00    -0.349 N 
ATOM     23  H1  UNL     1       2.065  -3.667  -1.038  1.00  0.00     0.163 HD
BRANCH  22  24
HETATM   24  C6  UNL     1       1.498  -5.613  -0.341  1.00  0.00     0.022 C 
HETATM   25  C7  UNL     1       0.189  -6.201  -0.808  1.00  0.00     0.037 C 
HETATM   26  C8  UNL     1       2.585  -6.177  -1.235  1.00  0.00     0.037 C 
HETATM   27  C9  UNL     1       1.752  -6.004   1.101  1.00  0.00     0.037 C 
ENDBRANCH  22  24
ENDBRANCH   2  20
BRANCH   1  28
HETATM   28  C2  UNL     1      -2.353  -2.066   0.352  1.00  0.00     0.056 C 
HETATM   29  C1  UNL     1      -2.772  -2.543   1.702  1.00  0.00     0.011 C 
ENDBRANCH   1  28
BRANCH   6  30
HETATM   30  C17 UNL     1      -1.886   0.876   0.380  1.00  0.00     0.063 A 
HETATM   31  C18 UNL     1      -2.539   1.291  -0.758  1.00  0.00     0.049 A 
HETATM   32  C19 UNL     1      -3.533   2.219  -0.644  1.00  0.00     0.097 A 
HETATM   33  N6  UNL     1      -3.891   2.739   0.555  1.00  0.00    -0.321 N 
HETATM   34  C25 UNL     1      -3.271   2.352   1.678  1.00  0.00     0.249 A 
HETATM   35  O5  UNL     1      -3.597   2.830   2.804  1.00  0.00    -0.268 OA
HETATM   36  C26 UNL     1      -2.264   1.416   1.585  1.00  0.00     0.106 A 
BRANCH  33  37
HETATM   37  C20 UNL     1      -4.956   3.720   0.628  1.00  0.00     0.159 C 
BRANCH  37  38
HETATM   38  C21 UNL     1      -6.280   3.072   0.816  1.00  0.00    -0.005 C 
HETATM   39  C22 UNL     1      -7.234   3.238  -0.069  1.00  0.00    -0.090 C 
HETATM   40  C23 UNL     1      -7.049   4.070  -1.288  1.00  0.00     0.042 C 
HETATM   41  C24 UNL     1      -8.549   2.577   0.143  1.00  0.00     0.042 C 
ENDBRANCH  37  38
ENDBRANCH  33  37
ENDBRANCH   6  30
TORSDOF 12
