REMARK  12 active torsions:
REMARK  status: ('A' for Active; 'I' for Inactive)
REMARK    1  A    between atoms: C3_3  and  O1_4 
REMARK    2  A    between atoms: O1_4  and  C4_5 
REMARK    3  A    between atoms: C7_10  and  N2_11 
REMARK       I    between atoms: N2_11  and  C8_13 
REMARK    4  A    between atoms: C8_13  and  C9_15 
REMARK    5  A    between atoms: C9_15  and  C10_16 
REMARK    6  A    between atoms: C10_16  and  C11_17 
REMARK       I    between atoms: C11_17  and  N3_19 
REMARK    7  A    between atoms: N3_19  and  C12_21 
REMARK    8  A    between atoms: C12_21  and  C13_22 
REMARK    9  A    between atoms: C13_22  and  C14_23 
REMARK   10  A    between atoms: C14_23  and  C15_24 
REMARK       I    between atoms: C15_24  and  N4_26 
REMARK   11  A    between atoms: N4_26  and  C16_28 
REMARK   12  A    between atoms: C24_37  and  O5_38 
ROOT
HETATM    1  C1  UNL     1     -12.049  -1.222   1.316  1.00  0.00     0.014 C 
HETATM    2  C2  UNL     1     -11.031  -0.776   0.856  1.00  0.00    -0.091 C 
HETATM    3  C3  UNL     1      -9.767  -0.248   0.289  1.00  0.00     0.268 C 
ENDROOT
BRANCH   3   4
HETATM    4  O1  UNL     1      -8.911  -1.332   0.139  1.00  0.00    -0.337 OA
BRANCH   4   5
HETATM    5  C4  UNL     1      -7.603  -1.253  -0.371  1.00  0.00     0.105 A 
HETATM    6  C5  UNL     1      -7.104  -0.056  -0.750  1.00  0.00     0.070 A 
HETATM    7  C6  UNL     1      -5.798   0.081  -1.269  1.00  0.00     0.054 A 
HETATM    8  N1  UNL     1      -5.220   1.194  -1.663  1.00  0.00    -0.335 N 
HETATM    9  C22 UNL     1      -5.076  -1.076  -1.361  1.00  0.00     0.038 A 
HETATM   10  C7  UNL     1      -3.969   1.132  -2.128  1.00  0.00     0.152 A 
ATOM     11  H1  UNL     1      -5.715   2.084  -1.615  1.00  0.00     0.168 HD
HETATM   12  S1  UNL     1      -3.597  -0.527  -2.009  1.00  0.00    -0.052 SA
HETATM   13  C23 UNL     1      -5.608  -2.316  -0.963  1.00  0.00     0.060 A 
HETATM   14  C24 UNL     1      -6.879  -2.413  -0.464  1.00  0.00     0.102 A 
BRANCH  10  15
HETATM   15  N2  UNL     1      -3.241   2.136  -2.561  1.00  0.00    -0.307 N 
HETATM   16  C8  UNL     1      -1.930   1.880  -3.018  1.00  0.00     0.224 C 
HETATM   17  O2  UNL     1      -1.674   1.334  -4.117  1.00  0.00    -0.273 OA
ATOM     18  H2  UNL     1      -3.616   3.084  -2.567  1.00  0.00     0.171 HD
BRANCH  16  19
HETATM   19  C9  UNL     1      -0.795   2.280  -2.152  1.00  0.00     0.112 C 
BRANCH  19  20
HETATM   20  C10 UNL     1       0.440   2.387  -2.988  1.00  0.00     0.112 C 
BRANCH  20  21
HETATM   21  C11 UNL     1       1.619   2.807  -2.139  1.00  0.00     0.221 C 
HETATM   22  O3  UNL     1       1.453   2.769  -0.922  1.00  0.00    -0.273 OA
HETATM   23  N3  UNL     1       2.801   3.212  -2.764  1.00  0.00    -0.341 N 
ATOM     24  H3  UNL     1       2.790   3.215  -3.784  1.00  0.00     0.167 HD
BRANCH  23  25
HETATM   25  C12 UNL     1       4.005   3.616  -2.157  1.00  0.00     0.064 C 
BRANCH  25  26
HETATM   26  C13 UNL     1       4.880   2.683  -1.434  1.00  0.00     0.054 C 
BRANCH  26  27
HETATM   27  C14 UNL     1       4.327   1.936  -0.282  1.00  0.00     0.108 C 
BRANCH  27  28
HETATM   28  C15 UNL     1       5.448   1.149   0.360  1.00  0.00     0.218 C 
HETATM   29  O4  UNL     1       6.604   1.247  -0.089  1.00  0.00    -0.274 OA
HETATM   30  N4  UNL     1       5.192   0.313   1.458  1.00  0.00    -0.356 N 
ATOM     31  H4  UNL     1       4.238   0.235   1.811  1.00  0.00     0.162 HD
BRANCH  30  32
HETATM   32  C16 UNL     1       6.258  -0.451   2.110  1.00  0.00     0.084 C 
HETATM   33  C17 UNL     1       6.069  -1.888   1.783  1.00  0.00     0.025 C 
HETATM   34  C18 UNL     1       6.539  -2.742   2.935  1.00  0.00     0.002 C 
HETATM   35  C19 UNL     1       7.712  -2.052   3.588  1.00  0.00     0.000 C 
HETATM   36  C20 UNL     1       7.218  -0.848   4.373  1.00  0.00     0.002 C 
HETATM   37  C21 UNL     1       6.139  -0.128   3.585  1.00  0.00     0.025 C 
ENDBRANCH  30  32
ENDBRANCH  27  28
ENDBRANCH  26  27
ENDBRANCH  25  26
ENDBRANCH  23  25
ENDBRANCH  20  21
ENDBRANCH  19  20
ENDBRANCH  16  19
ENDBRANCH  10  15
BRANCH  14  38
HETATM   38  O5  UNL     1      -7.408  -3.608  -0.074  1.00  0.00    -0.353 OA
HETATM   39  C25 UNL     1      -6.644  -4.814  -0.174  1.00  0.00     0.210 C 
ENDBRANCH  14  38
ENDBRANCH   4   5
ENDBRANCH   3   4
TORSDOF 12
