REMARK  13 active torsions:
REMARK  status: ('A' for Active; 'I' for Inactive)
REMARK    1  A    between atoms: C6_8  and  C7_9 
REMARK    2  A    between atoms: C7_9  and  C8_10 
REMARK    3  A    between atoms: C12_14  and  O1_15 
REMARK    4  A    between atoms: O1_15  and  C13_16 
REMARK    5  A    between atoms: C13_16  and  C14_17 
REMARK    6  A    between atoms: C15_20  and  O4_21 
REMARK    7  A    between atoms: O4_21  and  C16_22 
REMARK    8  A    between atoms: C16_22  and  C17_23 
REMARK    9  A    between atoms: C17_23  and  O5_24 
REMARK   10  A    between atoms: O5_24  and  C18_25 
REMARK   11  A    between atoms: C18_25  and  C19_26 
REMARK   12  A    between atoms: C19_26  and  N2_27 
REMARK   13  A    between atoms: C27_37  and  O6_38 
ROOT
HETATM    1  C8  UNL     1      -4.421   0.176   1.740  1.00  0.00     0.000 A 
HETATM    2  C9  UNL     1      -3.558  -0.841   1.424  1.00  0.00     0.028 A 
HETATM    3  C10 UNL     1      -2.182  -0.651   1.550  1.00  0.00    -0.006 A 
HETATM    4  C11 UNL     1      -1.290  -1.657   1.236  1.00  0.00     0.055 A 
HETATM    5  C12 UNL     1       0.066  -1.453   1.363  1.00  0.00     0.121 A 
HETATM    6  C15 UNL     1       0.578  -0.234   1.810  1.00  0.00     0.177 A 
HETATM    7  N3  UNL     1      -0.312   0.721   2.107  1.00  0.00    -0.334 N 
ATOM      8  H3  UNL     1       0.035   1.622   2.436  1.00  0.00     0.168 HD
HETATM    9  C25 UNL     1      -1.661   0.548   1.991  1.00  0.00     0.047 A 
HETATM   10  C26 UNL     1      -2.555   1.552   2.302  1.00  0.00     0.067 A 
HETATM   11  C27 UNL     1      -3.926   1.379   2.181  1.00  0.00     0.078 A 
ENDROOT
BRANCH   6  12
HETATM   12  O4  UNL     1       1.932  -0.029   1.937  1.00  0.00    -0.332 OA
BRANCH  12  13
HETATM   13  C16 UNL     1       2.592   1.113   2.359  1.00  0.00     0.203 C 
BRANCH  13  14
HETATM   14  C17 UNL     1       2.345   2.322   1.523  1.00  0.00     0.194 C 
BRANCH  14  15
HETATM   15  O5  UNL     1       2.681   2.209   0.257  1.00  0.00    -0.387 OA
BRANCH  15  16
HETATM   16  C18 UNL     1       3.839   2.032  -0.329  1.00  0.00     0.198 C 
BRANCH  16  17
HETATM   17  C19 UNL     1       4.683   0.839  -0.043  1.00  0.00     0.298 C 
BRANCH  17  18
HETATM   18  N2  UNL     1       5.888   0.927  -0.915  1.00  0.00     0.090 N 
HETATM   19  C20 UNL     1       5.549   0.743  -2.297  1.00  0.00     0.272 C 
HETATM   20  C21 UNL     1       6.583  -0.062  -3.048  1.00  0.00     0.030 C 
HETATM   21  C22 UNL     1       6.746  -1.465  -2.525  1.00  0.00     0.003 C 
HETATM   22  C23 UNL     1       6.369  -1.487  -1.074  1.00  0.00     0.030 C 
HETATM   23  C24 UNL     1       6.755  -0.149  -0.483  1.00  0.00     0.272 C 
ENDBRANCH  17  18
ENDBRANCH  16  17
ENDBRANCH  15  16
ENDBRANCH  14  15
ENDBRANCH  13  14
ENDBRANCH  12  13
ENDBRANCH   6  12
BRANCH   5  24
HETATM   24  O1  UNL     1       0.997  -2.415   1.063  1.00  0.00    -0.336 OA
BRANCH  24  25
HETATM   25  C13 UNL     1       0.812  -3.697   0.586  1.00  0.00     0.288 C 
BRANCH  25  26
HETATM   26  C14 UNL     1       0.174  -3.824  -0.725  1.00  0.00     0.198 C 
HETATM   27  O2  UNL     1      -0.100  -4.935  -1.254  1.00  0.00    -0.646 OA
HETATM   28  O3  UNL     1      -0.165  -2.705  -1.466  1.00  0.00    -0.646 OA
ENDBRANCH  25  26
ENDBRANCH  24  25
ENDBRANCH   5  24
BRANCH  11  29
HETATM   29  O6  UNL     1      -4.818   2.404   2.500  1.00  0.00    -0.360 OA
ATOM     30  H6  UNL     1      -4.476   3.236   2.805  1.00  0.00     0.217 HD
ENDBRANCH  11  29
BRANCH   1  31
HETATM   31  C7  UNL     1      -5.873  -0.019   1.598  1.00  0.00     0.044 C 
BRANCH  31  32
HETATM   32  C6  UNL     1      -6.486   0.264   0.455  1.00  0.00     0.042 A 
HETATM   33  C2  UNL     1      -7.816   0.128   0.200  1.00  0.00    -0.017 A 
HETATM   34  C1  UNL     1      -8.770  -0.300   0.994  1.00  0.00     0.026 C 
HETATM   35  C3  UNL     1      -8.013   0.542  -1.123  1.00  0.00     0.037 A 
HETATM   36  C4  UNL     1      -6.776   0.911  -1.603  1.00  0.00     0.006 A 
HETATM   37  C5  UNL     1      -6.503   1.419  -2.970  1.00  0.00     0.068 C 
HETATM   38  N1  UNL     1      -5.880   0.733  -0.633  1.00  0.00    -0.359 N 
ATOM     39  H1  UNL     1      -4.882   0.927  -0.712  1.00  0.00     0.166 HD
ENDBRANCH  31  32
ENDBRANCH   1  31
TORSDOF 13
