REMARK  11 active torsions:
REMARK  status: ('A' for Active; 'I' for Inactive)
REMARK    1  A    between atoms: C2_2  and  O1_3 
REMARK    2  A    between atoms: O1_3  and  C3_4 
REMARK    3  A    between atoms: C6_11  and  C7_12 
REMARK       I    between atoms: C7_12  and  N3_14 
REMARK    4  A    between atoms: N3_14  and  C8_16 
REMARK    5  A    between atoms: C15_23  and  C16_24 
REMARK       I    between atoms: C16_24  and  N4_26 
REMARK    6  A    between atoms: N4_26  and  C18_28 
REMARK    7  A    between atoms: C18_28  and  C19_29 
REMARK    8  A    between atoms: C19_29  and  O4_30 
REMARK    9  A    between atoms: C21_32  and  C22_33 
REMARK   10  A    between atoms: C22_33  and  C23_34 
REMARK   11  A    between atoms: C23_34  and  N5_35 
REMARK       I    between atoms: N5_35  and  C24_37 
ROOT
HETATM    1  C8  UNL     1       1.545  -0.641   0.207  1.00  0.00     0.042 A 
HETATM    2  C9  UNL     1       1.502  -1.271   1.403  1.00  0.00     0.032 A 
HETATM    3  C10 UNL     1       0.347  -1.601   2.072  1.00  0.00     0.033 A 
HETATM    4  C11 UNL     1      -0.841  -1.262   1.473  1.00  0.00     0.046 A 
HETATM    5  C12 UNL     1      -0.873  -0.608   0.235  1.00  0.00     0.017 A 
HETATM    6  C13 UNL     1       0.313  -0.296  -0.400  1.00  0.00    -0.022 A 
HETATM    7  C14 UNL     1       0.397   0.386  -1.694  1.00  0.00     0.051 C 
HETATM    8  C15 UNL     1      -2.200  -0.418  -0.083  1.00  0.00     0.068 A 
HETATM    9  C21 UNL     1      -2.969  -0.959   0.966  1.00  0.00     0.029 A 
HETATM   10  N6  UNL     1      -2.116  -1.446   1.865  1.00  0.00    -0.353 N 
HETATM   11  C26 UNL     1      -2.446  -2.078   3.135  1.00  0.00     0.156 C 
ENDROOT
BRANCH   1  12
HETATM   12  N3  UNL     1       2.759  -0.301  -0.487  1.00  0.00    -0.322 N 
HETATM   13  C7  UNL     1       4.069  -0.527  -0.090  1.00  0.00     0.262 C 
HETATM   14  O2  UNL     1       4.318  -1.095   1.000  1.00  0.00    -0.267 OA
ATOM     15  H3  UNL     1       2.641   0.166  -1.386  1.00  0.00     0.169 HD
BRANCH  13  16
HETATM   16  C6  UNL     1       5.241  -0.130  -0.891  1.00  0.00     0.108 A 
HETATM   17  C3  UNL     1       5.318   0.493  -2.110  1.00  0.00     0.175 A 
HETATM   18  N1  UNL     1       6.644   0.646  -2.434  1.00  0.00    -0.279 N 
HETATM   19  N2  UNL     1       7.379   0.144  -1.468  1.00  0.00    -0.302 N 
ATOM     20  H1  UNL     1       7.000   1.079  -3.286  1.00  0.00     0.189 HD
HETATM   21  C4  UNL     1       6.559  -0.334  -0.517  1.00  0.00     0.042 A 
ATOM     22  H2  UNL     1       8.398   0.121  -1.444  1.00  0.00     0.186 HD
HETATM   23  C5  UNL     1       6.983  -0.996   0.768  1.00  0.00     0.071 C 
BRANCH  17  24
HETATM   24  O1  UNL     1       4.254   0.910  -2.905  1.00  0.00    -0.334 OA
BRANCH  24  25
HETATM   25  C2  UNL     1       4.499   1.543  -4.146  1.00  0.00     0.173 C 
HETATM   26  C1  UNL     1       5.285   2.802  -4.007  1.00  0.00     0.034 C 
ENDBRANCH  24  25
ENDBRANCH  17  24
ENDBRANCH  13  16
ENDBRANCH   1  12
BRANCH   8  27
HETATM   27  C16 UNL     1      -2.763   0.243  -1.238  1.00  0.00     0.256 C 
HETATM   28  O3  UNL     1      -2.990  -0.404  -2.320  1.00  0.00    -0.267 OA
HETATM   29  N4  UNL     1      -3.110   1.629  -1.270  1.00  0.00    -0.350 N 
HETATM   30  C17 UNL     1      -3.664   2.233  -2.495  1.00  0.00     0.153 C 
BRANCH  29  31
HETATM   31  C18 UNL     1      -2.989   2.533  -0.156  1.00  0.00     0.151 C 
BRANCH  31  32
HETATM   32  C19 UNL     1      -1.685   3.249  -0.049  1.00  0.00     0.186 C 
BRANCH  32  33
HETATM   33  O4  UNL     1      -1.684   4.112   1.077  1.00  0.00    -0.394 OA
HETATM   34  C20 UNL     1      -0.468   4.767   1.161  1.00  0.00     0.201 C 
ENDBRANCH  32  33
ENDBRANCH  31  32
ENDBRANCH  29  31
ENDBRANCH   8  27
BRANCH   9  35
HETATM   35  C22 UNL     1      -4.447  -0.946   1.067  1.00  0.00     0.078 C 
BRANCH  35  36
HETATM   36  C23 UNL     1      -5.165  -1.879   0.168  1.00  0.00     0.128 C 
BRANCH  36  37
HETATM   37  N5  UNL     1      -4.914  -3.273   0.312  1.00  0.00    -0.361 N 
HETATM   38  C24 UNL     1      -5.184  -4.060   1.445  1.00  0.00     0.213 C 
HETATM   39  C25 UNL     1      -4.867  -5.501   1.456  1.00  0.00     0.117 C 
HETATM   40  O5  UNL     1      -5.700  -3.531   2.453  1.00  0.00    -0.274 OA
ATOM     41  H5  UNL     1      -4.496  -3.749  -0.488  1.00  0.00     0.162 HD
ENDBRANCH  36  37
ENDBRANCH  35  36
ENDBRANCH   9  35
TORSDOF 11
