REMARK  13 active torsions:
REMARK  status: ('A' for Active; 'I' for Inactive)
REMARK    1  A    between atoms: C4_5  and  C5_6 
REMARK    2  A    between atoms: C5_6  and  N2_7 
REMARK    3  A    between atoms: N2_7  and  C6_8 
REMARK       I    between atoms: N2_7  and  C15_20 
REMARK    4  A    between atoms: C6_8  and  C7_9 
REMARK    5  A    between atoms: C7_9  and  C8_10 
REMARK    6  A    between atoms: C8_10  and  C9_11 
REMARK    7  A    between atoms: C9_11  and  N3_12 
REMARK    8  A    between atoms: C13_16  and  C14_17 
REMARK    9  A    between atoms: C15_20  and  C16_22 
REMARK   10  A    between atoms: C16_22  and  C17_23 
REMARK   11  A    between atoms: C17_23  and  N4_24 
REMARK   12  A    between atoms: C18_25  and  O4_26 
REMARK   13  A    between atoms: C21_30  and  O5_31 
ROOT
HETATM    1  N2  UNL     1      -0.530   1.757   0.568  1.00  0.00    -0.351 N 
HETATM    2  C15 UNL     1       0.667   0.964   0.388  1.00  0.00     0.224 C 
HETATM    3  O3  UNL     1       1.004   0.244   1.344  1.00  0.00    -0.273 OA
ENDROOT
BRANCH   1   4
HETATM    4  C5  UNL     1      -0.917   2.680  -0.455  1.00  0.00     0.130 C 
BRANCH   4   5
HETATM    5  C4  UNL     1      -0.416   4.070  -0.334  1.00  0.00     0.007 C 
HETATM    6  C3  UNL     1      -0.843   4.799   0.923  1.00  0.00     0.036 C 
HETATM    7  C2  UNL     1      -0.640   6.297   0.775  1.00  0.00     0.272 C 
HETATM    8  N1  UNL     1       0.335   6.592  -0.260  1.00  0.00     0.084 N 
HETATM    9  C1  UNL     1       0.641   8.007  -0.223  1.00  0.00     0.309 C 
HETATM   10  C27 UNL     1      -0.130   6.209  -1.566  1.00  0.00     0.272 C 
HETATM   11  C26 UNL     1      -0.877   4.907  -1.533  1.00  0.00     0.036 C 
ENDBRANCH   4   5
ENDBRANCH   1   4
BRANCH   1  12
HETATM   12  C6  UNL     1      -1.310   1.538   1.757  1.00  0.00     0.126 C 
BRANCH  12  13
HETATM   13  C7  UNL     1      -2.425   0.562   1.627  1.00  0.00     0.022 C 
BRANCH  13  14
HETATM   14  C8  UNL     1      -2.002  -0.812   1.238  1.00  0.00     0.032 C 
BRANCH  14  15
HETATM   15  C9  UNL     1      -3.205  -1.739   1.115  1.00  0.00     0.273 C 
BRANCH  15  16
HETATM   16  N3  UNL     1      -2.834  -3.081   0.738  1.00  0.00     0.103 N 
HETATM   17  C10 UNL     1      -2.327  -3.164  -0.615  1.00  0.00     0.273 C 
HETATM   18  C11 UNL     1      -3.552  -2.939  -1.502  1.00  0.00     0.033 C 
HETATM   19  C12 UNL     1      -4.648  -3.622  -0.710  1.00  0.00     0.049 C 
HETATM   20  C13 UNL     1      -4.056  -3.858   0.660  1.00  0.00     0.322 C 
BRANCH  20  21
HETATM   21  C14 UNL     1      -3.810  -5.299   0.858  1.00  0.00     0.207 C 
HETATM   22  O1  UNL     1      -2.658  -5.733   1.068  1.00  0.00    -0.646 OA
HETATM   23  O2  UNL     1      -4.867  -6.181   0.812  1.00  0.00    -0.646 OA
ENDBRANCH  20  21
ENDBRANCH  15  16
ENDBRANCH  14  15
ENDBRANCH  13  14
ENDBRANCH  12  13
ENDBRANCH   1  12
BRANCH   2  24
HETATM   24  C16 UNL     1       1.423   1.014  -0.867  1.00  0.00     0.148 C 
BRANCH  24  25
HETATM   25  C17 UNL     1       2.806   0.545  -0.896  1.00  0.00     0.083 C 
BRANCH  25  26
HETATM   26  N4  UNL     1       3.159  -0.768  -0.541  1.00  0.00    -0.286 N 
HETATM   27  C18 UNL     1       3.672  -1.211   0.608  1.00  0.00     0.155 A 
HETATM   28  C19 UNL     1       3.819  -2.587   0.548  1.00  0.00     0.004 A 
HETATM   29  C20 UNL     1       3.379  -3.007  -0.690  1.00  0.00     0.004 A 
HETATM   30  C25 UNL     1       4.316  -3.649   1.466  1.00  0.00     0.044 C 
HETATM   31  C21 UNL     1       2.982  -1.850  -1.327  1.00  0.00     0.155 A 
HETATM   32  C22 UNL     1       3.415  -4.460  -1.053  1.00  0.00     0.044 C 
HETATM   33  C23 UNL     1       4.628  -5.158  -0.522  1.00  0.00     0.005 C 
HETATM   34  C24 UNL     1       5.296  -4.478   0.625  1.00  0.00     0.005 C 
BRANCH  27  35
HETATM   35  O4  UNL     1       4.056  -0.527   1.766  1.00  0.00    -0.345 OA
ATOM     36  H4  UNL     1       4.421  -0.842   2.584  1.00  0.00     0.219 HD
ENDBRANCH  27  35
BRANCH  31  37
HETATM   37  O5  UNL     1       2.470  -1.806  -2.602  1.00  0.00    -0.345 OA
ATOM     38  H5  UNL     1       2.345  -2.568  -3.156  1.00  0.00     0.219 HD
ENDBRANCH  31  37
ENDBRANCH  25  26
ENDBRANCH  24  25
ENDBRANCH   2  24
TORSDOF 13
