REMARK  16 active torsions:
REMARK  status: ('A' for Active; 'I' for Inactive)
REMARK    1  A    between atoms: C2_2  and  C3_3 
REMARK    2  A    between atoms: C3_3  and  N1_4 
REMARK    3  A    between atoms: C3_3  and  C10_17 
REMARK       I    between atoms: N1_4  and  C4_6 
REMARK       I    between atoms: N3_8  and  C5_10 
REMARK    4  A    between atoms: C5_10  and  O2_12 
REMARK    5  A    between atoms: O2_12  and  C6_13 
REMARK    6  A    between atoms: C10_17  and  C11_18 
REMARK    7  A    between atoms: C10_17  and  N6_28 
REMARK       I    between atoms: C11_18  and  N4_20 
REMARK    8  A    between atoms: N4_20  and  C12_22 
REMARK    9  A    between atoms: N6_28  and  C15_29 
REMARK   10  A    between atoms: N6_28  and  C20_34 
REMARK   11  A    between atoms: C15_29  and  C16_30 
REMARK   12  A    between atoms: C16_30  and  C17_31 
REMARK   13  A    between atoms: C17_31  and  C18_32 
REMARK   14  A    between atoms: C20_34  and  C21_35 
REMARK   15  A    between atoms: C21_35  and  O5_37 
REMARK   16  A    between atoms: O5_37  and  C22_38 
ROOT
HETATM    1  C10 UNL     1      -1.296   0.647  -1.118  1.00  0.00     0.107 C 
ENDROOT
BRANCH   1   2
HETATM    2  C3  UNL     1       0.143   0.224  -1.146  1.00  0.00     0.162 C 
BRANCH   2   3
HETATM    3  C2  UNL     1       0.840   1.050  -2.162  1.00  0.00    -0.006 C 
HETATM    4  C1  UNL     1       0.662   0.912  -3.467  1.00  0.00     0.009 C 
ENDBRANCH   2   3
BRANCH   2   5
HETATM    5  N1  UNL     1       0.843   0.415   0.110  1.00  0.00    -0.351 N 
HETATM    6  C4  UNL     1       2.216   0.058   0.139  1.00  0.00     0.193 C 
HETATM    7  N2  UNL     1       3.221   0.915   0.647  1.00  0.00    -0.063 NA
HETATM    8  N3  UNL     1       2.563  -1.093  -0.314  1.00  0.00    -0.277 N 
HETATM    9  C5  UNL     1       3.920  -1.525  -0.319  1.00  0.00     0.367 C 
ATOM     10  H3  UNL     1       1.844  -1.717  -0.681  1.00  0.00     0.173 HD
HETATM   11  O1  UNL     1       4.544  -1.738  -1.373  1.00  0.00    -0.238 OA
ATOM     12  H1  UNL     1       0.371   0.788   0.933  1.00  0.00     0.163 HD
BRANCH   9  13
HETATM   13  O2  UNL     1       4.556  -1.711   0.876  1.00  0.00    -0.294 OA
BRANCH  13  14
HETATM   14  C6  UNL     1       5.872  -2.127   1.051  1.00  0.00     0.061 C 
HETATM   15  C7  UNL     1       6.204  -3.461   0.479  1.00  0.00     0.046 C 
HETATM   16  C8  UNL     1       6.854  -1.098   0.492  1.00  0.00     0.046 C 
HETATM   17  C9  UNL     1       6.132  -2.206   2.561  1.00  0.00     0.046 C 
ENDBRANCH  13  14
ENDBRANCH   9  13
ENDBRANCH   2   5
ENDBRANCH   1   2
BRANCH   1  18
HETATM   18  C11 UNL     1      -1.479   2.058  -0.775  1.00  0.00     0.272 C 
HETATM   19  O3  UNL     1      -0.460   2.837  -0.841  1.00  0.00    -0.266 OA
HETATM   20  N4  UNL     1      -2.701   2.648  -0.376  1.00  0.00    -0.302 N 
ATOM     21  H4  UNL     1      -3.487   2.067  -0.086  1.00  0.00     0.171 HD
BRANCH  20  22
HETATM   22  C12 UNL     1      -2.805   3.955  -0.386  1.00  0.00     0.151 A 
HETATM   23  N5  UNL     1      -3.872   4.675  -0.045  1.00  0.00    -0.346 N 
HETATM   24  C13 UNL     1      -3.792   5.970  -0.114  1.00  0.00     0.097 A 
ATOM     25  H5  UNL     1      -4.732   4.221   0.263  1.00  0.00     0.167 HD
HETATM   26  C14 UNL     1      -2.615   6.526  -0.534  1.00  0.00     0.070 A 
HETATM   27  S1  UNL     1      -1.655   5.141  -0.817  1.00  0.00    -0.064 SA
ENDBRANCH  20  22
ENDBRANCH   1  18
BRANCH   1  28
HETATM   28  N6  UNL     1      -2.258  -0.212  -0.627  1.00  0.00    -0.348 N 
BRANCH  28  29
HETATM   29  C15 UNL     1      -2.277  -0.764   0.642  1.00  0.00     0.064 C 
BRANCH  29  30
HETATM   30  C16 UNL     1      -2.536   0.213   1.744  1.00  0.00     0.044 C 
BRANCH  30  31
HETATM   31  C17 UNL     1      -2.548  -0.496   3.108  1.00  0.00     0.005 C 
BRANCH  31  32
HETATM   32  C18 UNL     1      -2.810   0.530   4.199  1.00  0.00    -0.004 C 
HETATM   33  C19 UNL     1      -2.835  -0.093   5.560  1.00  0.00     0.005 C 
ENDBRANCH  31  32
ENDBRANCH  30  31
ENDBRANCH  29  30
ENDBRANCH  28  29
BRANCH  28  34
HETATM   34  C20 UNL     1      -3.474  -0.336  -1.389  1.00  0.00     0.239 C 
BRANCH  34  35
HETATM   35  C21 UNL     1      -3.317  -1.020  -2.685  1.00  0.00     0.277 C 
HETATM   36  O4  UNL     1      -4.311  -1.124  -3.489  1.00  0.00    -0.263 OA
BRANCH  35  37
HETATM   37  O5  UNL     1      -2.138  -1.587  -3.129  1.00  0.00    -0.321 OA
BRANCH  37  38
HETATM   38  C22 UNL     1      -2.068  -2.229  -4.385  1.00  0.00     0.174 C 
HETATM   39  C23 UNL     1      -3.048  -3.375  -4.379  1.00  0.00     0.034 C 
ENDBRANCH  37  38
ENDBRANCH  35  37
ENDBRANCH  34  35
ENDBRANCH  28  34
ENDBRANCH   1  28
TORSDOF 16
