REMARK  12 active torsions:
REMARK  status: ('A' for Active; 'I' for Inactive)
REMARK    1  A    between atoms: O1_2  and  C2_3 
REMARK    2  A    between atoms: C2_3  and  C3_4 
REMARK    3  A    between atoms: C3_4  and  C4_5 
REMARK    4  A    between atoms: C4_5  and  O2_6 
REMARK    5  A    between atoms: O2_6  and  C5_7 
REMARK    6  A    between atoms: C7_9  and  C8_10 
REMARK    7  A    between atoms: C12_20  and  N4_21 
REMARK    8  A    between atoms: N4_21  and  N5_23 
REMARK       I    between atoms: N5_23  and  C13_25 
REMARK    9  A    between atoms: C13_25  and  C14_27 
REMARK   10  A    between atoms: C14_27  and  C15_28 
REMARK   11  A    between atoms: C15_28  and  N6_29 
REMARK   12  A    between atoms: C25_41  and  O4_42 
ROOT
HETATM    1  C8  UNL     1      -1.578   1.283   0.141  1.00  0.00     0.118 A 
HETATM    2  N1  UNL     1      -1.371   0.098   0.811  1.00  0.00    -0.326 N 
ATOM      3  H1  UNL     1      -2.151  -0.543   0.956  1.00  0.00     0.169 HD
HETATM    4  C9  UNL     1      -0.160  -0.220   1.273  1.00  0.00     0.139 A 
HETATM    5  N2  UNL     1       0.299  -1.311   1.948  1.00  0.00    -0.337 N 
ATOM      6  H2  UNL     1      -0.243  -2.125   2.239  1.00  0.00     0.168 HD
HETATM    7  C10 UNL     1       1.601  -1.100   2.152  1.00  0.00     0.182 A 
HETATM    8  N3  UNL     1       1.978   0.073   1.636  1.00  0.00    -0.346 N 
ATOM      9  H3  UNL     1       2.918   0.468   1.658  1.00  0.00     0.167 HD
HETATM   10  C11 UNL     1       0.886   0.640   1.080  1.00  0.00     0.123 A 
HETATM   11  C12 UNL     1       0.676   1.823   0.409  1.00  0.00     0.152 A 
HETATM   12  N7  UNL     1      -0.578   2.098  -0.042  1.00  0.00    -0.325 N 
ATOM     13  H7  UNL     1      -0.741   2.973  -0.541  1.00  0.00     0.169 HD
ENDROOT
BRANCH  11  14
HETATM   14  N4  UNL     1       1.568   2.681   0.214  1.00  0.00    -0.281 N 
ATOM     15  H4  UNL     1       1.220   3.489  -0.302  1.00  0.00     0.188 HD
BRANCH  14  16
HETATM   16  N5  UNL     1       2.858   2.794   0.516  1.00  0.00    -0.268 N 
HETATM   17  C13 UNL     1       3.931   2.127  -0.213  1.00  0.00     0.237 C 
HETATM   18  O3  UNL     1       3.649   1.393  -1.173  1.00  0.00    -0.272 OA
ATOM     19  H5  UNL     1       3.113   3.384   1.308  1.00  0.00     0.190 HD
BRANCH  17  20
HETATM   20  C14 UNL     1       5.318   2.343   0.202  1.00  0.00     0.124 C 
BRANCH  20  21
HETATM   21  C15 UNL     1       6.396   1.612  -0.460  1.00  0.00     0.137 C 
BRANCH  21  22
HETATM   22  N6  UNL     1       6.470   0.200  -0.365  1.00  0.00    -0.365 N 
HETATM   23  C16 UNL     1       7.096  -0.363   0.720  1.00  0.00     0.097 A 
HETATM   24  C17 UNL     1       7.249  -1.706   0.854  1.00  0.00    -0.046 A 
HETATM   25  C18 UNL     1       7.934  -2.259   2.051  1.00  0.00     0.049 C 
HETATM   26  C19 UNL     1       6.770  -2.547  -0.115  1.00  0.00     0.016 A 
HETATM   27  C20 UNL     1       6.140  -2.004  -1.211  1.00  0.00    -0.046 A 
HETATM   28  C21 UNL     1       5.617  -2.904  -2.259  1.00  0.00     0.049 C 
HETATM   29  C22 UNL     1       6.007  -0.614  -1.304  1.00  0.00     0.097 A 
ENDBRANCH  21  22
ENDBRANCH  20  21
ENDBRANCH  17  20
ENDBRANCH  14  16
ENDBRANCH  11  14
BRANCH   1  30
HETATM   30  C7  UNL     1      -2.955   1.579  -0.329  1.00  0.00     0.011 A 
HETATM   31  C6  UNL     1      -3.968   0.678  -0.084  1.00  0.00     0.054 A 
HETATM   32  C5  UNL     1      -5.298   0.892  -0.484  1.00  0.00     0.102 A 
HETATM   33  C25 UNL     1      -5.536   2.105  -1.164  1.00  0.00     0.101 A 
HETATM   34  C24 UNL     1      -4.549   3.020  -1.423  1.00  0.00     0.040 A 
HETATM   35  C23 UNL     1      -3.252   2.739  -0.995  1.00  0.00     0.018 A 
BRANCH  32  36
HETATM   36  O2  UNL     1      -6.265   0.091  -0.281  1.00  0.00    -0.348 OA
BRANCH  36  37
HETATM   37  C4  UNL     1      -7.254  -0.740  -0.067  1.00  0.00     0.178 C 
BRANCH  37  38
HETATM   38  C3  UNL     1      -7.209  -2.106  -0.645  1.00  0.00     0.053 C 
BRANCH  38  39
HETATM   39  C2  UNL     1      -6.110  -3.023  -0.333  1.00  0.00     0.169 C 
BRANCH  39  40
HETATM   40  O1  UNL     1      -5.822  -3.474   0.885  1.00  0.00    -0.396 OA
HETATM   41  C1  UNL     1      -5.405  -2.676   1.878  1.00  0.00     0.201 C 
ENDBRANCH  39  40
ENDBRANCH  38  39
ENDBRANCH  37  38
ENDBRANCH  36  37
ENDBRANCH  32  36
BRANCH  33  42
HETATM   42  O4  UNL     1      -6.840   2.334  -1.567  1.00  0.00    -0.353 OA
HETATM   43  C26 UNL     1      -7.119   3.540  -2.254  1.00  0.00     0.210 C 
ENDBRANCH  33  42
ENDBRANCH   1  30
TORSDOF 12
