REMARK  12 active torsions:
REMARK  status: ('A' for Active; 'I' for Inactive)
REMARK    1  A    between atoms: C4_7  and  N3_8 
REMARK    2  A    between atoms: N3_8  and  C5_10 
REMARK    3  A    between atoms: C5_10  and  C6_11 
REMARK    4  A    between atoms: C6_11  and  C7_12 
REMARK    5  A    between atoms: C7_12  and  C8_13 
REMARK    6  A    between atoms: N4_16  and  C11_17 
REMARK    7  A    between atoms: C11_17  and  C12_18 
REMARK    8  A    between atoms: C12_18  and  C13_19 
REMARK    9  A    between atoms: C16_22  and  N5_23 
REMARK       I    between atoms: N5_23  and  C17_25 
REMARK   10  A    between atoms: C17_25  and  C18_27 
REMARK   11  A    between atoms: C18_27  and  C19_28 
REMARK   12  A    between atoms: C19_28  and  C20_29 
ROOT
HETATM    1  C8  UNL     1       2.476   0.859   0.881  1.00  0.00    -0.011 C 
HETATM    2  C9  UNL     1       1.793   1.321  -0.355  1.00  0.00     0.035 C 
HETATM    3  C10 UNL     1       0.665   0.416  -0.811  1.00  0.00     0.272 C 
HETATM    4  N4  UNL     1      -0.270   0.133   0.227  1.00  0.00     0.088 N 
HETATM    5  C23 UNL     1       0.357  -0.192   1.489  1.00  0.00     0.272 C 
HETATM    6  C24 UNL     1       1.839  -0.446   1.331  1.00  0.00     0.035 C 
ENDROOT
BRANCH   1   7
HETATM    7  C7  UNL     1       3.967   0.700   0.727  1.00  0.00     0.006 C 
BRANCH   7   8
HETATM    8  C6  UNL     1       4.304  -0.303  -0.319  1.00  0.00     0.020 C 
BRANCH   8   9
HETATM    9  C5  UNL     1       5.811  -0.450  -0.446  1.00  0.00     0.121 C 
BRANCH   9  10
HETATM   10  N3  UNL     1       6.402  -0.887   0.792  1.00  0.00    -0.373 N 
ATOM     11  H3  UNL     1       5.776  -1.025   1.585  1.00  0.00     0.161 HD
BRANCH  10  12
HETATM   12  C4  UNL     1       7.650  -1.117   0.981  1.00  0.00     0.145 A 
HETATM   13  C3  UNL     1       8.633  -0.981   0.026  1.00  0.00     0.107 A 
HETATM   14  N2  UNL     1       8.577  -0.606  -1.252  1.00  0.00    -0.347 N 
HETATM   15  C26 UNL     1       9.974  -1.245   0.289  1.00  0.00     0.083 A 
HETATM   16  C2  UNL     1       9.829  -0.637  -1.759  1.00  0.00     0.183 A 
ATOM     17  H2  UNL     1       7.733  -0.341  -1.760  1.00  0.00     0.167 HD
HETATM   18  N1  UNL     1      10.706  -1.030  -0.817  1.00  0.00    -0.344 N 
HETATM   19  C1  UNL     1      12.153  -1.191  -0.964  1.00  0.00     0.157 C 
HETATM   20  C25 UNL     1      10.306  -1.658   1.566  1.00  0.00     0.139 A 
HETATM   21  N8  UNL     1       9.330  -1.782   2.475  1.00  0.00    -0.308 N 
HETATM   22  N7  UNL     1       8.053  -1.523   2.199  1.00  0.00    -0.284 N 
ATOM     23  H8  UNL     1       9.575  -2.087   3.417  1.00  0.00     0.186 HD
ATOM     24  H7  UNL     1       7.357  -1.636   2.936  1.00  0.00     0.188 HD
ENDBRANCH  10  12
ENDBRANCH   9  10
ENDBRANCH   8   9
ENDBRANCH   7   8
ENDBRANCH   1   7
BRANCH   4  25
HETATM   25  C11 UNL     1      -1.328   1.096   0.406  1.00  0.00     0.272 C 
BRANCH  25  26
HETATM   26  C12 UNL     1      -2.307   1.136  -0.705  1.00  0.00     0.034 C 
BRANCH  26  27
HETATM   27  C13 UNL     1      -3.376   2.143  -0.512  1.00  0.00    -0.013 C 
HETATM   28  C14 UNL     1      -4.362   2.171  -1.662  1.00  0.00     0.007 C 
HETATM   29  C15 UNL     1      -5.076   0.852  -1.688  1.00  0.00     0.025 C 
HETATM   30  C16 UNL     1      -5.776   0.508  -0.417  1.00  0.00     0.084 C 
HETATM   31  C21 UNL     1      -5.427   1.364   0.756  1.00  0.00     0.025 C 
HETATM   32  C22 UNL     1      -4.159   2.099   0.743  1.00  0.00     0.007 C 
BRANCH  30  33
HETATM   33  N5  UNL     1      -7.207   0.515  -0.638  1.00  0.00    -0.356 N 
HETATM   34  C17 UNL     1      -8.056  -0.605  -0.488  1.00  0.00     0.218 C 
HETATM   35  O1  UNL     1      -7.506  -1.683  -0.134  1.00  0.00    -0.274 OA
ATOM     36  H5  UNL     1      -7.635   1.396  -0.924  1.00  0.00     0.162 HD
BRANCH  34  37
HETATM   37  C18 UNL     1      -9.491  -0.504  -0.733  1.00  0.00     0.111 C 
BRANCH  37  38
HETATM   38  C19 UNL     1     -10.282  -1.741  -0.489  1.00  0.00     0.109 C 
BRANCH  38  39
HETATM   39  C20 UNL     1     -10.214  -2.196   0.914  1.00  0.00     0.231 C 
HETATM   40  N6  UNL     1     -10.822  -3.422   1.236  1.00  0.00    -0.062 NA
HETATM   41  O2  UNL     1      -9.620  -1.478   1.765  1.00  0.00    -0.277 OA
ENDBRANCH  38  39
ENDBRANCH  37  38
ENDBRANCH  34  37
ENDBRANCH  30  33
ENDBRANCH  26  27
ENDBRANCH  25  26
ENDBRANCH   4  25
TORSDOF 12
