REMARK  12 active torsions:
REMARK  status: ('A' for Active; 'I' for Inactive)
REMARK    1  A    between atoms: C4_6  and  C5_7 
REMARK       I    between atoms: C5_7  and  N2_9 
REMARK    2  A    between atoms: N2_9  and  C6_11 
REMARK    3  A    between atoms: C6_11  and  C7_12 
REMARK    4  A    between atoms: C7_12  and  N3_13 
REMARK    5  A    between atoms: N3_13  and  C8_15 
REMARK    6  A    between atoms: C8_15  and  C9_17 
REMARK    7  A    between atoms: C11_21  and  N5_22 
REMARK    8  A    between atoms: N6_26  and  C14_27 
REMARK    9  A    between atoms: C14_27  and  C15_28 
REMARK   10  A    between atoms: C15_28  and  C16_29 
REMARK   11  A    between atoms: C16_29  and  C17_30 
REMARK   12  A    between atoms: C17_30  and  C18_31 
ROOT
HETATM    1  C9  UNL     1       1.900   0.253   0.924  1.00  0.00     0.102 A 
HETATM    2  C10 UNL     1       2.156   0.229  -0.453  1.00  0.00     0.139 A 
HETATM    3  N4  UNL     1       1.083  -0.258  -1.092  1.00  0.00    -0.199 N 
ATOM      4  H4  UNL     1       0.994  -0.385  -2.100  1.00  0.00     0.183 HD
HETATM    5  C11 UNL     1       0.132  -0.554  -0.161  1.00  0.00     0.683 A 
HETATM    6  N7  UNL     1       0.654  -0.234   1.045  1.00  0.00    -0.187 N 
ATOM      7  H7  UNL     1       0.164  -0.348   1.933  1.00  0.00     0.184 HD
ENDROOT
BRANCH   1   8
HETATM    8  C8  UNL     1       2.819   0.713   1.956  1.00  0.00     0.125 C 
HETATM    9  S1  UNL     1       2.715   2.246   2.496  1.00  0.00    -0.058 SA
BRANCH   8  10
HETATM   10  N3  UNL     1       3.804  -0.137   2.518  1.00  0.00    -0.378 N 
ATOM     11  H3  UNL     1       3.857  -1.099   2.183  1.00  0.00     0.160 HD
BRANCH  10  12
HETATM   12  C7  UNL     1       4.731   0.279   3.531  1.00  0.00     0.140 C 
BRANCH  12  13
HETATM   13  C6  UNL     1       5.762   1.268   3.067  1.00  0.00     0.142 C 
BRANCH  13  14
HETATM   14  N2  UNL     1       6.530   0.672   2.000  1.00  0.00    -0.354 N 
HETATM   15  C5  UNL     1       7.572   1.365   1.361  1.00  0.00     0.269 C 
HETATM   16  O1  UNL     1       7.813   2.556   1.767  1.00  0.00    -0.266 OA
ATOM     17  H2  UNL     1       6.310  -0.278   1.702  1.00  0.00     0.162 HD
BRANCH  15  18
HETATM   18  C4  UNL     1       8.386   0.828   0.280  1.00  0.00     0.116 A 
HETATM   19  N1  UNL     1       9.366   1.578  -0.296  1.00  0.00    -0.359 N 
HETATM   20  C3  UNL     1      10.119   1.083  -1.294  1.00  0.00     0.113 A 
ATOM     21  H1  UNL     1       9.531   2.529   0.034  1.00  0.00     0.165 HD
HETATM   22  C2  UNL     1       9.942  -0.193  -1.782  1.00  0.00     0.020 A 
HETATM   23  C1  UNL     1      10.777  -0.740  -2.888  1.00  0.00     0.069 C 
HETATM   24  N8  UNL     1       8.978  -0.943  -1.221  1.00  0.00    -0.366 N 
HETATM   25  C24 UNL     1       8.209  -0.444  -0.205  1.00  0.00     0.123 A 
ATOM     26  H8  UNL     1       8.818  -1.893  -1.556  1.00  0.00     0.165 HD
ENDBRANCH  15  18
ENDBRANCH  13  14
ENDBRANCH  12  13
ENDBRANCH  10  12
ENDBRANCH   8  10
ENDBRANCH   1   8
BRANCH   5  27
HETATM   27  N5  UNL     1      -1.142  -1.091  -0.432  1.00  0.00    -0.183 N 
HETATM   28  C12 UNL     1      -1.477  -2.516  -0.497  1.00  0.00     0.246 C 
HETATM   29  C13 UNL     1      -2.927  -2.595  -0.133  1.00  0.00     0.240 C 
HETATM   30  O2  UNL     1      -3.594  -3.634  -0.069  1.00  0.00    -0.271 OA
HETATM   31  N6  UNL     1      -3.339  -1.221   0.114  1.00  0.00    -0.324 N 
HETATM   32  C21 UNL     1      -2.425  -0.429  -0.715  1.00  0.00     0.120 C 
HETATM   33  C22 UNL     1      -2.442   0.992  -0.282  1.00  0.00     0.064 C 
HETATM   34  C23 UNL     1      -2.758  -0.563  -2.157  1.00  0.00     0.064 C 
BRANCH  31  35
HETATM   35  C14 UNL     1      -4.350  -0.869   1.042  1.00  0.00     0.128 C 
BRANCH  35  36
HETATM   36  C15 UNL     1      -5.761  -0.869   0.566  1.00  0.00     0.020 C 
BRANCH  36  37
HETATM   37  C16 UNL     1      -6.095   0.075  -0.536  1.00  0.00     0.002 C 
BRANCH  37  38
HETATM   38  C17 UNL     1      -7.595   0.004  -0.881  1.00  0.00     0.004 C 
BRANCH  38  39
HETATM   39  C18 UNL     1      -8.464   0.361   0.282  1.00  0.00    -0.023 C 
HETATM   40  C19 UNL     1      -8.179   1.773   0.763  1.00  0.00     0.009 C 
HETATM   41  C20 UNL     1      -9.917   0.353  -0.165  1.00  0.00     0.009 C 
ENDBRANCH  38  39
ENDBRANCH  37  38
ENDBRANCH  36  37
ENDBRANCH  35  36
ENDBRANCH  31  35
ENDBRANCH   5  27
TORSDOF 12
