REMARK  14 active torsions:
REMARK  status: ('A' for Active; 'I' for Inactive)
REMARK    1  A    between atoms: O1_2  and  C2_3 
REMARK    2  A    between atoms: C4_5  and  O2_6 
REMARK    3  A    between atoms: O2_6  and  C5_7 
REMARK    4  A    between atoms: C5_7  and  C6_8 
REMARK    5  A    between atoms: C6_8  and  C7_9 
REMARK    6  A    between atoms: C7_9  and  N1_10 
REMARK    7  A    between atoms: N1_10  and  C8_12 
REMARK    8  A    between atoms: C12_18  and  C13_19 
REMARK    9  A    between atoms: N2_23  and  C16_24 
REMARK   10  A    between atoms: C16_24  and  C17_25 
REMARK   11  A    between atoms: C17_25  and  O4_26 
REMARK   12  A    between atoms: C17_25  and  N3_28 
REMARK   13  A    between atoms: N3_28  and  C18_29 
REMARK   14  A    between atoms: C18_29  and  C19_30 
ROOT
HETATM    1  C2  UNL     1       1.917  -1.220  -0.950  1.00  0.00     0.081 A 
HETATM    2  C3  UNL     1       3.256  -1.296  -0.616  1.00  0.00     0.074 A 
HETATM    3  C4  UNL     1       3.837  -0.315   0.138  1.00  0.00     0.071 A 
HETATM    4  C9  UNL     1       3.067   0.742   0.569  1.00  0.00     0.044 A 
HETATM    5  C10 UNL     1       1.700   0.809   0.228  1.00  0.00    -0.046 A 
HETATM    6  C11 UNL     1       0.952   1.963   0.777  1.00  0.00     0.049 C 
HETATM    7  C12 UNL     1       1.112  -0.153  -0.529  1.00  0.00     0.006 A 
ENDROOT
BRANCH   7   8
HETATM    8  C13 UNL     1      -0.237  -0.118  -0.987  1.00  0.00     0.050 C 
HETATM    9  C14 UNL     1      -1.280  -0.798  -0.536  1.00  0.00     0.108 A 
HETATM   10  C15 UNL     1      -2.665  -0.722  -1.098  1.00  0.00     0.279 A 
HETATM   11  N4  UNL     1      -1.376  -1.705   0.533  1.00  0.00    -0.299 N 
HETATM   12  O3  UNL     1      -2.976   0.023  -2.109  1.00  0.00    -0.265 OA
HETATM   13  N2  UNL     1      -3.543  -1.531  -0.419  1.00  0.00    -0.256 N 
HETATM   14  C22 UNL     1      -2.713  -2.158   0.623  1.00  0.00     0.332 A 
HETATM   15  O5  UNL     1      -3.195  -2.976   1.459  1.00  0.00    -0.246 OA
HETATM   16  C23 UNL     1      -0.341  -2.179   1.448  1.00  0.00     0.161 C 
BRANCH  13  17
HETATM   17  C16 UNL     1      -4.918  -1.942  -0.578  1.00  0.00     0.237 C 
BRANCH  17  18
HETATM   18  C17 UNL     1      -5.937  -1.110   0.062  1.00  0.00     0.207 C 
BRANCH  18  19
HETATM   19  O4  UNL     1      -7.072  -1.819   0.104  1.00  0.00    -0.338 OA
ATOM     20  H4  UNL     1      -7.734  -1.279   0.520  1.00  0.00     0.220 HD
ENDBRANCH  18  19
BRANCH  18  21
HETATM   21  N3  UNL     1      -5.867   0.147   0.565  1.00  0.00    -0.400 NA
BRANCH  21  22
HETATM   22  C18 UNL     1      -5.799   1.413   1.072  1.00  0.00     0.161 C 
BRANCH  22  23
HETATM   23  C19 UNL     1      -6.638   2.369   0.253  1.00  0.00     0.030 C 
HETATM   24  C20 UNL     1      -8.064   1.876   0.222  1.00  0.00     0.016 C 
HETATM   25  C21 UNL     1      -6.622   3.750   0.890  1.00  0.00     0.016 C 
ENDBRANCH  22  23
ENDBRANCH  21  22
ENDBRANCH  18  21
ENDBRANCH  17  18
ENDBRANCH  13  17
ENDBRANCH   7   8
BRANCH   1  26
HETATM   26  O1  UNL     1       1.326  -2.215  -1.730  1.00  0.00    -0.355 OA
HETATM   27  C1  UNL     1       1.959  -3.339  -2.254  1.00  0.00     0.210 C 
ENDBRANCH   1  26
BRANCH   3  28
HETATM   28  O2  UNL     1       5.194  -0.383   0.460  1.00  0.00    -0.351 OA
BRANCH  28  29
HETATM   29  C5  UNL     1       6.018  -1.415   0.070  1.00  0.00     0.177 C 
BRANCH  29  30
HETATM   30  C6  UNL     1       7.476  -1.242   0.465  1.00  0.00     0.046 C 
BRANCH  30  31
HETATM   31  C7  UNL     1       8.076   0.007  -0.167  1.00  0.00     0.123 C 
BRANCH  31  32
HETATM   32  N1  UNL     1       7.402   1.187   0.326  1.00  0.00    -0.375 N 
ATOM     33  H1  UNL     1       6.759   1.104   1.114  1.00  0.00     0.161 HD
BRANCH  32  34
HETATM   34  C8  UNL     1       7.620   2.477  -0.273  1.00  0.00     0.145 C 
HETATM   35  S1  UNL     1       8.637   2.608  -1.532  1.00  0.00    -0.052 SA
HETATM   36  S2  UNL     1       6.767   3.886   0.390  1.00  0.00    -0.021 SA
ENDBRANCH  32  34
ENDBRANCH  31  32
ENDBRANCH  30  31
ENDBRANCH  29  30
ENDBRANCH  28  29
ENDBRANCH   3  28
TORSDOF 14
