REMARK  13 active torsions:
REMARK  status: ('A' for Active; 'I' for Inactive)
REMARK    1  A    between atoms: O1_2  and  C2_3 
REMARK    2  A    between atoms: C6_7  and  N1_8 
REMARK    3  A    between atoms: N2_11  and  C9_12 
REMARK    4  A    between atoms: C9_12  and  C10_13 
REMARK    5  A    between atoms: C10_13  and  C11_14 
REMARK    6  A    between atoms: C11_14  and  C12_15 
REMARK    7  A    between atoms: C12_15  and  C13_16 
REMARK    8  A    between atoms: N3_18  and  C15_19 
REMARK    9  A    between atoms: C15_19  and  C16_20 
REMARK   10  A    between atoms: C16_20  and  O2_21 
REMARK   11  A    between atoms: C16_20  and  C17_23 
REMARK   12  A    between atoms: C17_23  and  O3_24 
REMARK   13  A    between atoms: N4_28  and  C20_29 
ROOT
HETATM    1  C10 UNL     1      -0.229   0.512   1.078  1.00  0.00     0.020 C 
ENDROOT
BRANCH   1   2
HETATM    2  C9  UNL     1       0.602  -0.391   0.247  1.00  0.00     0.117 C 
BRANCH   2   3
HETATM    3  N2  UNL     1       1.887  -0.691   0.762  1.00  0.00    -0.409 N 
HETATM    4  C8  UNL     1       2.643  -1.569  -0.072  1.00  0.00     0.136 C 
HETATM    5  C7  UNL     1       4.140  -1.472   0.185  1.00  0.00     0.142 C 
HETATM    6  N1  UNL     1       4.575  -0.083   0.010  1.00  0.00    -0.376 N 
HETATM    7  C25 UNL     1       3.567   0.950   0.270  1.00  0.00     0.142 C 
HETATM    8  C24 UNL     1       2.659   0.323   1.335  1.00  0.00     0.136 C 
BRANCH   6   9
HETATM    9  C6  UNL     1       5.876   0.247  -0.390  1.00  0.00     0.058 A 
HETATM   10  C5  UNL     1       7.041  -0.079   0.267  1.00  0.00     0.019 A 
HETATM   11  C4  UNL     1       7.320  -0.771   1.426  1.00  0.00     0.019 A 
HETATM   12  C27 UNL     1       8.064   0.460  -0.508  1.00  0.00     0.047 A 
HETATM   13  C3  UNL     1       8.650  -0.906   1.783  1.00  0.00     0.038 A 
HETATM   14  C2  UNL     1       9.688  -0.386   1.041  1.00  0.00     0.070 A 
HETATM   15  C28 UNL     1       9.377   0.297  -0.107  1.00  0.00     0.067 A 
HETATM   16  N5  UNL     1       7.552   1.086  -1.585  1.00  0.00    -0.363 N 
HETATM   17  C26 UNL     1       6.219   0.966  -1.529  1.00  0.00     0.118 A 
ATOM     18  H5  UNL     1       8.083   1.565  -2.312  1.00  0.00     0.165 HD
BRANCH  14  19
HETATM   19  O1  UNL     1      11.001  -0.542   1.431  1.00  0.00    -0.356 OA
HETATM   20  C1  UNL     1      12.020   0.014   0.627  1.00  0.00     0.210 C 
ENDBRANCH  14  19
ENDBRANCH   6   9
ENDBRANCH   2   3
ENDBRANCH   1   2
BRANCH   1  21
HETATM   21  C11 UNL     1      -1.604   0.819   0.527  1.00  0.00     0.007 C 
BRANCH  21  22
HETATM   22  C12 UNL     1      -2.426  -0.436   0.392  1.00  0.00     0.054 C 
BRANCH  22  23
HETATM   23  C13 UNL     1      -3.805  -0.238  -0.129  1.00  0.00     0.013 C 
HETATM   24  C14 UNL     1      -4.535   0.721   0.824  1.00  0.00     0.324 C 
HETATM   25  N3  UNL     1      -5.933   0.339   0.836  1.00  0.00     0.097 N 
HETATM   26  C18 UNL     1      -6.306  -0.475  -0.266  1.00  0.00     0.292 C 
HETATM   27  C19 UNL     1      -5.587  -0.135  -1.569  1.00  0.00     0.153 C 
HETATM   28  N4  UNL     1      -4.137  -0.178  -1.443  1.00  0.00    -0.376 N 
BRANCH  25  29
HETATM   29  C15 UNL     1      -6.338  -0.206   2.081  1.00  0.00     0.306 C 
BRANCH  29  30
HETATM   30  C16 UNL     1      -7.766  -0.572   2.196  1.00  0.00     0.170 C 
BRANCH  30  31
HETATM   31  O2  UNL     1      -8.210  -1.552   1.331  1.00  0.00    -0.392 OA
ATOM     32  H2  UNL     1      -9.127  -1.787   1.405  1.00  0.00     0.210 HD
ENDBRANCH  30  31
BRANCH  30  33
HETATM   33  C17 UNL     1      -8.684   0.644   2.085  1.00  0.00     0.197 C 
BRANCH  33  34
HETATM   34  O3  UNL     1      -8.283   1.670   2.938  1.00  0.00    -0.398 OA
ATOM     35  H3  UNL     1      -8.854   2.426   2.869  1.00  0.00     0.209 HD
ENDBRANCH  33  34
ENDBRANCH  30  33
ENDBRANCH  29  30
ENDBRANCH  25  29
BRANCH  28  36
HETATM   36  C20 UNL     1      -3.440   0.190  -2.561  1.00  0.00     0.021 C 
HETATM   37  C21 UNL     1      -4.315  -0.297  -3.762  1.00  0.00     0.037 C 
HETATM   38  C22 UNL     1      -3.310   1.667  -2.864  1.00  0.00     0.037 C 
HETATM   39  C23 UNL     1      -2.105  -0.451  -2.841  1.00  0.00     0.037 C 
ENDBRANCH  28  36
ENDBRANCH  22  23
ENDBRANCH  21  22
ENDBRANCH   1  21
TORSDOF 13
