REMARK  12 active torsions:
REMARK  status: ('A' for Active; 'I' for Inactive)
REMARK    1  A    between atoms: C2_2  and  N1_3 
REMARK    2  A    between atoms: N1_3  and  C4_5 
REMARK    3  A    between atoms: C4_5  and  C5_6 
REMARK    4  A    between atoms: C5_6  and  C6_7 
REMARK    5  A    between atoms: C6_7  and  N2_8 
REMARK    6  A    between atoms: N2_8  and  S1_10 
REMARK    7  A    between atoms: S1_10  and  C7_13 
REMARK    8  A    between atoms: C12_18  and  N3_19 
REMARK       I    between atoms: N3_19  and  C13_21 
REMARK    9  A    between atoms: C13_21  and  C14_23 
REMARK   10  A    between atoms: C14_23  and  C15_24 
REMARK   11  A    between atoms: C15_24  and  C16_25 
REMARK       I    between atoms: C16_25  and  N4_27 
REMARK   12  A    between atoms: N4_27  and  C17_29 
ROOT
HETATM    1  C7  UNL     1       1.553  -1.145   0.842  1.00  0.00     0.087 A 
HETATM    2  C8  UNL     1       1.983  -0.550   1.960  1.00  0.00     0.026 A 
HETATM    3  C9  UNL     1       1.106  -0.413   3.048  1.00  0.00     0.011 A 
HETATM    4  C10 UNL     1      -0.181  -0.910   2.904  1.00  0.00    -0.035 A 
HETATM    5  C11 UNL     1      -1.080  -0.736   4.092  1.00  0.00     0.050 C 
HETATM    6  C12 UNL     1      -0.578  -1.506   1.752  1.00  0.00     0.048 A 
HETATM    7  C22 UNL     1       0.310  -1.622   0.707  1.00  0.00    -0.011 A 
HETATM    8  C23 UNL     1      -0.074  -2.279  -0.592  1.00  0.00     0.052 C 
ENDROOT
BRANCH   6   9
HETATM    9  N3  UNL     1      -1.884  -2.013   1.613  1.00  0.00    -0.326 N 
HETATM   10  C13 UNL     1      -2.917  -1.247   1.056  1.00  0.00     0.222 C 
HETATM   11  O3  UNL     1      -2.794  -0.078   0.630  1.00  0.00    -0.273 OA
ATOM     12  H3  UNL     1      -2.084  -2.963   1.926  1.00  0.00     0.169 HD
BRANCH  10  13
HETATM   13  C14 UNL     1      -4.279  -1.854   0.951  1.00  0.00     0.112 C 
BRANCH  13  14
HETATM   14  C15 UNL     1      -5.273  -0.962   0.258  1.00  0.00     0.112 C 
BRANCH  14  15
HETATM   15  C16 UNL     1      -6.581  -1.651   0.223  1.00  0.00     0.224 C 
HETATM   16  O4  UNL     1      -6.677  -2.719   0.933  1.00  0.00    -0.273 OA
HETATM   17  N4  UNL     1      -7.713  -1.257  -0.499  1.00  0.00    -0.307 N 
ATOM     18  H4  UNL     1      -8.157  -1.900  -1.154  1.00  0.00     0.171 HD
BRANCH  17  19
HETATM   19  C17 UNL     1      -8.196  -0.049  -0.322  1.00  0.00     0.151 A 
HETATM   20  N5  UNL     1      -9.270   0.465  -0.941  1.00  0.00    -0.339 N 
HETATM   21  C18 UNL     1      -9.631   1.679  -0.669  1.00  0.00     0.020 A 
ATOM     22  H5  UNL     1      -9.794  -0.092  -1.616  1.00  0.00     0.168 HD
HETATM   23  C19 UNL     1     -10.833   2.362  -1.314  1.00  0.00     0.069 C 
HETATM   24  C20 UNL     1      -8.885   2.380   0.248  1.00  0.00     0.004 A 
HETATM   25  C21 UNL     1      -9.100   3.797   0.724  1.00  0.00     0.058 C 
HETATM   26  S2  UNL     1      -7.691   1.240   0.676  1.00  0.00    -0.057 SA
ENDBRANCH  17  19
ENDBRANCH  14  15
ENDBRANCH  13  14
ENDBRANCH  10  13
ENDBRANCH   6   9
BRANCH   1  27
HETATM   27  S1  UNL     1       2.927  -1.381  -0.690  1.00  0.00     0.259 S 
HETATM   28  O1  UNL     1       2.143   0.694  -0.923  1.00  0.00    -0.201 OA
HETATM   29  O2  UNL     1       2.175  -1.251  -2.326  1.00  0.00    -0.201 OA
BRANCH  27  30
HETATM   30  N2  UNL     1       4.414  -0.197  -0.292  1.00  0.00    -0.315 N 
ATOM     31  H2  UNL     1       4.442   0.455   0.492  1.00  0.00     0.172 HD
BRANCH  30  32
HETATM   32  C6  UNL     1       5.469  -0.365  -1.253  1.00  0.00     0.134 C 
BRANCH  32  33
HETATM   33  C5  UNL     1       6.627   0.527  -0.928  1.00  0.00     0.050 C 
BRANCH  33  34
HETATM   34  C4  UNL     1       7.695   0.313  -1.982  1.00  0.00     0.273 C 
BRANCH  34  35
HETATM   35  N1  UNL     1       8.820   1.150  -1.681  1.00  0.00     0.083 N 
HETATM   36  C3  UNL     1       8.487   2.557  -1.643  1.00  0.00     0.309 C 
BRANCH  35  37
HETATM   37  C2  UNL     1       9.520   0.737  -0.480  1.00  0.00     0.267 C 
HETATM   38  C1  UNL     1       9.878  -0.720  -0.501  1.00  0.00     0.037 C 
ENDBRANCH  35  37
ENDBRANCH  34  35
ENDBRANCH  33  34
ENDBRANCH  32  33
ENDBRANCH  30  32
ENDBRANCH  27  30
ENDBRANCH   1  27
TORSDOF 12
