REMARK  12 active torsions:
REMARK  status: ('A' for Active; 'I' for Inactive)
REMARK    1  A    between atoms: C1_2  and  C2_4 
REMARK    2  A    between atoms: C2_4  and  C3_5 
REMARK    3  A    between atoms: C3_5  and  C4_6 
REMARK       I    between atoms: C4_6  and  N2_8 
REMARK    4  A    between atoms: C11_15  and  N3_16 
REMARK    5  A    between atoms: N3_16  and  C12_18 
REMARK    6  A    between atoms: C14_20  and  N4_21 
REMARK    7  A    between atoms: N4_21  and  C15_23 
REMARK    8  A    between atoms: C15_23  and  C16_24 
REMARK    9  A    between atoms: C16_24  and  C17_25 
REMARK   10  A    between atoms: C17_25  and  C18_26 
REMARK   11  A    between atoms: C18_26  and  C19_27 
REMARK   12  A    between atoms: C19_27  and  N5_28 
ROOT
HETATM    1  C12 UNL     1       0.003   1.888  -1.160  1.00  0.00     0.125 A 
HETATM    2  C13 UNL     1       1.230   1.262  -0.961  1.00  0.00     0.099 A 
HETATM    3  C14 UNL     1       2.318   1.627  -1.708  1.00  0.00     0.120 A 
HETATM    4  N6  UNL     1       2.245   2.599  -2.658  1.00  0.00    -0.271 N 
ATOM      5  H6  UNL     1       3.056   2.871  -3.214  1.00  0.00     0.190 HD
HETATM    6  N7  UNL     1       1.069   3.169  -2.819  1.00  0.00    -0.240 N 
ATOM      7  H7  UNL     1       0.978   3.902  -3.523  1.00  0.00     0.208 HD
HETATM    8  N8  UNL     1      -0.020   2.833  -2.101  1.00  0.00    -0.271 N 
ATOM      9  H8  UNL     1      -0.897   3.321  -2.284  1.00  0.00     0.190 HD
ENDROOT
BRANCH   1  10
HETATM   10  N3  UNL     1      -1.130   1.499  -0.420  1.00  0.00    -0.341 N 
ATOM     11  H3  UNL     1      -0.980   0.742   0.248  1.00  0.00     0.167 HD
BRANCH  10  12
HETATM   12  C11 UNL     1      -2.441   2.010  -0.474  1.00  0.00     0.035 A 
HETATM   13  C10 UNL     1      -2.801   3.333  -0.557  1.00  0.00     0.030 A 
HETATM   14  C9  UNL     1      -4.123   3.769  -0.636  1.00  0.00     0.012 A 
HETATM   15  C8  UNL     1      -5.150   2.855  -0.632  1.00  0.00    -0.031 A 
HETATM   16  C7  UNL     1      -6.574   3.202  -0.712  1.00  0.00     0.042 C 
HETATM   17  C25 UNL     1      -4.813   1.517  -0.548  1.00  0.00     0.045 A 
HETATM   18  C6  UNL     1      -7.402   2.255  -1.502  1.00  0.00     0.025 C 
HETATM   19  C5  UNL     1      -7.033   0.815  -1.412  1.00  0.00     0.132 C 
HETATM   20  N2  UNL     1      -5.875   0.566  -0.550  1.00  0.00    -0.317 N 
HETATM   21  C4  UNL     1      -5.781  -0.564   0.275  1.00  0.00     0.224 C 
HETATM   22  O1  UNL     1      -4.852  -0.751   1.062  1.00  0.00    -0.273 OA
HETATM   23  C24 UNL     1      -3.506   1.092  -0.471  1.00  0.00     0.059 A 
BRANCH  21  24
HETATM   24  C3  UNL     1      -6.855  -1.584   0.194  1.00  0.00     0.110 C 
BRANCH  24  25
HETATM   25  C2  UNL     1      -6.570  -2.758   1.108  1.00  0.00     0.076 C 
BRANCH  25  26
HETATM   26  C1  UNL     1      -7.639  -3.784   1.030  1.00  0.00     0.091 C 
HETATM   27  N1  UNL     1      -7.519  -4.943   1.819  1.00  0.00    -0.095 NA
HETATM   28  S1  UNL     1      -8.945  -3.620   0.067  1.00  0.00    -0.069 SA
ENDBRANCH  25  26
ENDBRANCH  24  25
ENDBRANCH  21  24
ENDBRANCH  10  12
ENDBRANCH   1  10
BRANCH   3  29
HETATM   29  N4  UNL     1       3.465   1.064  -1.537  1.00  0.00    -0.375 N 
ATOM     30  H4  UNL     1       4.233   1.384  -2.127  1.00  0.00     0.161 HD
BRANCH  29  31
HETATM   31  C15 UNL     1       3.755   0.028  -0.591  1.00  0.00     0.121 C 
BRANCH  31  32
HETATM   32  C16 UNL     1       4.036   0.595   0.787  1.00  0.00     0.020 C 
BRANCH  32  33
HETATM   33  C17 UNL     1       4.339  -0.476   1.786  1.00  0.00     0.003 C 
BRANCH  33  34
HETATM   34  C18 UNL     1       5.536  -1.301   1.450  1.00  0.00     0.020 C 
BRANCH  34  35
HETATM   35  C19 UNL     1       6.797  -0.466   1.363  1.00  0.00     0.125 C 
BRANCH  35  36
HETATM   36  N5  UNL     1       7.961  -1.232   1.045  1.00  0.00    -0.352 N 
HETATM   37  C20 UNL     1       8.462  -1.502  -0.305  1.00  0.00     0.126 C 
HETATM   38  C21 UNL     1       9.967  -1.645  -0.085  1.00  0.00     0.029 C 
HETATM   39  C22 UNL     1      10.138  -2.107   1.331  1.00  0.00     0.104 C 
HETATM   40  C23 UNL     1       8.821  -1.854   1.994  1.00  0.00     0.219 C 
HETATM   41  O2  UNL     1       8.591  -2.167   3.187  1.00  0.00    -0.273 OA
ENDBRANCH  35  36
ENDBRANCH  34  35
ENDBRANCH  33  34
ENDBRANCH  32  33
ENDBRANCH  31  32
ENDBRANCH  29  31
ENDBRANCH   3  29
TORSDOF 12
