REMARK  14 active torsions:
REMARK  status: ('A' for Active; 'I' for Inactive)
REMARK    1  A    between atoms: N1_2  and  C2_4 
REMARK    2  A    between atoms: C2_4  and  C3_5 
REMARK    3  A    between atoms: C5_8  and  C6_9 
REMARK    4  A    between atoms: C6_9  and  N2_10 
REMARK    5  A    between atoms: N2_10  and  C7_12 
REMARK    6  A    between atoms: C7_12  and  C8_13 
REMARK    7  A    between atoms: C7_12  and  N5_33 
REMARK    8  A    between atoms: C8_13  and  C9_14 
REMARK    9  A    between atoms: C9_14  and  C10_15 
REMARK   10  A    between atoms: C10_15  and  C11_16 
REMARK       I    between atoms: C11_16  and  N3_18 
REMARK   11  A    between atoms: N3_18  and  C12_20 
REMARK   12  A    between atoms: C12_20  and  C13_21 
REMARK   13  A    between atoms: C14_22  and  N4_23 
REMARK   14  A    between atoms: N5_33  and  C21_34 
ROOT
HETATM    1  C8  UNL     1      -1.830   0.165  -1.515  1.00  0.00     0.092 C 
ENDROOT
BRANCH   1   2
HETATM    2  C7  UNL     1      -2.094  -0.707  -0.313  1.00  0.00     0.145 C 
BRANCH   2   3
HETATM    3  N2  UNL     1      -2.107  -2.113  -0.600  1.00  0.00    -0.364 N 
ATOM      4  H2  UNL     1      -1.427  -2.717  -0.137  1.00  0.00     0.162 HD
BRANCH   3   5
HETATM    5  C6  UNL     1      -3.049  -2.701  -1.521  1.00  0.00     0.168 C 
BRANCH   5   6
HETATM    6  C5  UNL     1      -4.445  -2.431  -1.013  1.00  0.00     0.001 A 
HETATM    7  S1  UNL     1      -5.415  -3.375   0.018  1.00  0.00    -0.104 SA
HETATM    8  C4  UNL     1      -6.797  -2.381   0.085  1.00  0.00     0.058 A 
HETATM    9  C3  UNL     1      -6.456  -1.314  -0.718  1.00  0.00    -0.033 A 
HETATM   10  C25 UNL     1      -5.243  -1.349  -1.279  1.00  0.00     0.025 A 
BRANCH   9  11
HETATM   11  C2  UNL     1      -7.451  -0.178  -0.923  1.00  0.00     0.152 C 
BRANCH  11  12
HETATM   12  N1  UNL     1      -6.864   0.886  -1.670  1.00  0.00    -0.422 N 
HETATM   13  C1  UNL     1      -7.699   2.004  -1.920  1.00  0.00     0.140 C 
ATOM     14  H1  UNL     1      -5.901   0.845  -2.004  1.00  0.00     0.153 HD
ENDBRANCH  11  12
ENDBRANCH   9  11
ENDBRANCH   5   6
ENDBRANCH   3   5
ENDBRANCH   2   3
BRANCH   2  15
HETATM   15  N5  UNL     1      -2.268  -0.274   0.767  1.00  0.00    -0.425 NA
BRANCH  15  16
HETATM   16  C21 UNL     1      -2.455   0.319   1.956  1.00  0.00     0.084 C 
HETATM   17  C22 UNL     1      -3.955   0.337   2.321  1.00  0.00     0.053 C 
HETATM   18  C23 UNL     1      -2.017   1.796   1.872  1.00  0.00     0.053 C 
HETATM   19  C24 UNL     1      -1.741  -0.312   3.151  1.00  0.00     0.053 C 
ENDBRANCH  15  16
ENDBRANCH   2  15
ENDBRANCH   1   2
BRANCH   1  20
HETATM   20  C9  UNL     1      -0.407  -0.091  -2.034  1.00  0.00     0.018 C 
BRANCH  20  21
HETATM   21  C10 UNL     1       0.502   0.280  -0.876  1.00  0.00     0.103 C 
BRANCH  21  22
HETATM   22  C11 UNL     1       1.927   0.103  -1.196  1.00  0.00     0.217 C 
HETATM   23  O1  UNL     1       2.289  -0.345  -2.311  1.00  0.00    -0.274 OA
HETATM   24  N3  UNL     1       2.905   0.450  -0.219  1.00  0.00    -0.357 N 
ATOM     25  H3  UNL     1       2.625   0.816   0.691  1.00  0.00     0.162 HD
BRANCH  24  26
HETATM   26  C12 UNL     1       4.309   0.272  -0.546  1.00  0.00     0.167 C 
BRANCH  26  27
HETATM   27  C13 UNL     1       5.144   0.726   0.602  1.00  0.00     0.045 A 
HETATM   28  C14 UNL     1       6.500   0.751   0.808  1.00  0.00     0.103 A 
HETATM   29  C19 UNL     1       6.272   1.321   2.067  1.00  0.00     0.249 A 
HETATM   30  O3  UNL     1       7.004   1.699   3.001  1.00  0.00    -0.282 OA
HETATM   31  C20 UNL     1       4.921   1.286   1.840  1.00  0.00     0.234 A 
HETATM   32  O4  UNL     1       3.904   1.621   2.483  1.00  0.00    -0.283 OA
BRANCH  28  33
HETATM   33  N4  UNL     1       7.693   0.374   0.121  1.00  0.00    -0.314 N 
HETATM   34  C15 UNL     1       8.958   0.148   0.797  1.00  0.00     0.133 C 
HETATM   35  C16 UNL     1       9.959  -0.042  -0.278  1.00  0.00     0.029 C 
HETATM   36  C17 UNL     1       9.138  -0.637  -1.421  1.00  0.00     0.105 C 
HETATM   37  C18 UNL     1       7.864   0.156  -1.258  1.00  0.00     0.224 C 
HETATM   38  O2  UNL     1       7.155   0.513  -2.205  1.00  0.00    -0.273 OA
ENDBRANCH  28  33
ENDBRANCH  26  27
ENDBRANCH  24  26
ENDBRANCH  21  22
ENDBRANCH  20  21
ENDBRANCH   1  20
TORSDOF 14
