REMARK  12 active torsions:
REMARK  status: ('A' for Active; 'I' for Inactive)
REMARK    1  A    between atoms: C2_2  and  C3_3 
REMARK       I    between atoms: C3_3  and  N1_5 
REMARK    2  A    between atoms: N1_5  and  C4_7 
REMARK    3  A    between atoms: C4_7  and  C5_8 
REMARK    4  A    between atoms: C5_8  and  N2_9 
REMARK    5  A    between atoms: N2_9  and  C6_11 
REMARK    6  A    between atoms: C6_11  and  C7_12 
REMARK    7  A    between atoms: C7_12  and  N3_15 
REMARK    8  A    between atoms: C14_22  and  N5_23 
REMARK    9  A    between atoms: C19_30  and  N7_31 
REMARK   10  A    between atoms: N7_31  and  C20_33 
REMARK   11  A    between atoms: C20_33  and  C21_34 
REMARK   12  A    between atoms: C24_37  and  O2_38 
ROOT
HETATM    1  N3  UNL     1      -1.146   0.205  -0.545  1.00  0.00    -0.353 N 
HETATM    2  C10 UNL     1      -0.634   1.549  -0.851  1.00  0.00     0.130 C 
HETATM    3  C11 UNL     1       0.457   1.688   0.240  1.00  0.00     0.066 C 
HETATM    4  C12 UNL     1       1.026   0.320   0.228  1.00  0.00     0.032 A 
HETATM    5  C13 UNL     1       0.057  -0.543  -0.253  1.00  0.00     0.130 A 
HETATM    6  N4  UNL     1       0.387  -1.835  -0.361  1.00  0.00    -0.176 N 
ATOM      7  H4  UNL     1      -0.320  -2.480  -0.715  1.00  0.00     0.186 HD
HETATM    8  C14 UNL     1       1.598  -2.343  -0.031  1.00  0.00     0.683 A 
HETATM    9  N6  UNL     1       2.519  -1.492   0.433  1.00  0.00    -0.176 N 
ATOM     10  H6  UNL     1       3.439  -1.849   0.690  1.00  0.00     0.186 HD
HETATM   11  C19 UNL     1       2.267  -0.180   0.570  1.00  0.00     0.127 A 
ENDROOT
BRANCH   1  12
HETATM   12  C7  UNL     1      -2.492  -0.310  -0.574  1.00  0.00     0.058 C 
HETATM   13  C8  UNL     1      -2.730  -1.390   0.460  1.00  0.00     0.044 C 
HETATM   14  C9  UNL     1      -2.707  -0.913  -1.943  1.00  0.00     0.044 C 
BRANCH  12  15
HETATM   15  C6  UNL     1      -3.437   0.805  -0.276  1.00  0.00     0.086 C 
BRANCH  15  16
HETATM   16  N2  UNL     1      -4.805   0.615  -0.325  1.00  0.00    -0.398 N 
ATOM     17  H2  UNL     1      -5.307   1.084  -1.079  1.00  0.00     0.158 HD
BRANCH  16  18
HETATM   18  C5  UNL     1      -5.562  -0.147   0.546  1.00  0.00     0.138 C 
BRANCH  18  19
HETATM   19  C4  UNL     1      -7.041  -0.008   0.153  1.00  0.00     0.142 C 
BRANCH  19  20
HETATM   20  N1  UNL     1      -7.453   1.380   0.232  1.00  0.00    -0.360 N 
HETATM   21  C3  UNL     1      -8.808   1.736  -0.096  1.00  0.00     0.217 C 
HETATM   22  O1  UNL     1      -9.640   0.860  -0.450  1.00  0.00    -0.274 OA
ATOM     23  H1  UNL     1      -6.788   2.098   0.518  1.00  0.00     0.162 HD
BRANCH  21  24
HETATM   24  C2  UNL     1      -9.259   3.145  -0.026  1.00  0.00     0.098 C 
HETATM   25  C1  UNL     1     -10.714   3.250  -0.406  1.00  0.00     0.014 C 
ENDBRANCH  21  24
ENDBRANCH  19  20
ENDBRANCH  18  19
ENDBRANCH  16  18
ENDBRANCH  15  16
ENDBRANCH  12  15
ENDBRANCH   1  12
BRANCH  11  26
HETATM   26  N7  UNL     1       3.146   0.645   1.015  1.00  0.00    -0.371 N 
ATOM     27  H7  UNL     1       2.911   1.634   1.103  1.00  0.00     0.161 HD
BRANCH  26  28
HETATM   28  C20 UNL     1       4.469   0.185   1.393  1.00  0.00     0.160 C 
BRANCH  28  29
HETATM   29  C21 UNL     1       5.438   1.239   0.970  1.00  0.00    -0.034 A 
HETATM   30  C22 UNL     1       5.029   2.395   0.342  1.00  0.00     0.012 A 
HETATM   31  C23 UNL     1       5.913   3.373  -0.053  1.00  0.00     0.037 A 
HETATM   32  C24 UNL     1       7.267   3.199   0.185  1.00  0.00     0.068 A 
HETATM   33  C26 UNL     1       7.694   2.048   0.813  1.00  0.00     0.044 A 
HETATM   34  C27 UNL     1       6.780   1.089   1.195  1.00  0.00    -0.051 A 
HETATM   35  C28 UNL     1       7.246  -0.142   1.867  1.00  0.00     0.049 C 
BRANCH  32  36
HETATM   36  O2  UNL     1       8.200   4.148  -0.189  1.00  0.00    -0.356 OA
HETATM   37  C25 UNL     1       9.555   3.928   0.072  1.00  0.00     0.210 C 
ENDBRANCH  32  36
ENDBRANCH  28  29
ENDBRANCH  26  28
ENDBRANCH  11  26
BRANCH   8  38
HETATM   38  N5  UNL     1       1.864  -3.735  -0.177  1.00  0.00    -0.217 N 
HETATM   39  C15 UNL     1       3.137  -4.346   0.147  1.00  0.00     0.141 C 
HETATM   40  C16 UNL     1       3.346  -5.218  -1.097  1.00  0.00     0.022 C 
HETATM   41  C17 UNL     1       1.946  -5.826  -1.240  1.00  0.00     0.022 C 
HETATM   42  C18 UNL     1       1.015  -4.787  -0.641  1.00  0.00     0.141 C 
ENDBRANCH   8  38
TORSDOF 12
