REMARK  13 active torsions:
REMARK  status: ('A' for Active; 'I' for Inactive)
REMARK    1  A    between atoms: C2_2  and  C3_3 
REMARK    2  A    between atoms: C3_3  and  C4_4 
REMARK    3  A    between atoms: C4_4  and  C5_5 
REMARK    4  A    between atoms: C5_5  and  C6_6 
REMARK    5  A    between atoms: N1_9  and  C9_10 
REMARK    6  A    between atoms: C9_10  and  C10_11 
REMARK    7  A    between atoms: C10_11  and  N2_12 
REMARK    8  A    between atoms: C17_24  and  N5_25 
REMARK    9  A    between atoms: N5_25  and  C18_27 
REMARK   10  A    between atoms: C18_27  and  C19_28 
REMARK   11  A    between atoms: C19_28  and  C20_29 
REMARK   12  A    between atoms: C20_29  and  C21_30 
REMARK   13  A    between atoms: C21_30  and  N6_31 
ROOT
HETATM    1  N2  UNL     1       0.057   0.005  -0.546  1.00  0.00    -0.321 N 
HETATM    2  C11 UNL     1       1.084  -0.801  -0.305  1.00  0.00     0.102 A 
HETATM    3  C12 UNL     1       2.422  -0.449  -0.348  1.00  0.00    -0.034 A 
HETATM    4  C13 UNL     1       3.368  -1.527  -0.041  1.00  0.00     0.050 C 
HETATM    5  C14 UNL     1       2.761   0.881  -0.676  1.00  0.00     0.011 A 
HETATM    6  C15 UNL     1       1.684   1.694  -0.920  1.00  0.00     0.087 A 
HETATM    7  S1  UNL     1       2.388   3.204  -1.284  1.00  0.00    -0.064 SA
HETATM    8  C16 UNL     1       4.024   2.788  -1.123  1.00  0.00     0.104 A 
HETATM    9  N3  UNL     1       5.299   3.278  -1.209  1.00  0.00    -0.291 N 
ATOM     10  H3  UNL     1       5.573   4.232  -1.446  1.00  0.00     0.187 HD
HETATM   11  N4  UNL     1       6.088   2.290  -0.930  1.00  0.00    -0.284 N 
ATOM     12  H4  UNL     1       7.106   2.347  -0.912  1.00  0.00     0.188 HD
HETATM   13  C17 UNL     1       5.366   1.158  -0.662  1.00  0.00     0.130 A 
HETATM   14  C22 UNL     1       3.998   1.460  -0.784  1.00  0.00     0.056 A 
HETATM   15  C23 UNL     1       0.345   1.272  -0.858  1.00  0.00     0.265 A 
HETATM   16  O1  UNL     1      -0.528   2.137  -1.108  1.00  0.00    -0.266 OA
ENDROOT
BRANCH   1  17
HETATM   17  C10 UNL     1      -1.323  -0.413  -0.493  1.00  0.00     0.152 C 
BRANCH  17  18
HETATM   18  C9  UNL     1      -1.899  -0.229   0.896  1.00  0.00     0.152 C 
BRANCH  18  19
HETATM   19  N1  UNL     1      -3.283  -0.649   0.948  1.00  0.00    -0.322 N 
HETATM   20  C7  UNL     1      -4.349   0.139   0.717  1.00  0.00     0.033 A 
HETATM   21  C6  UNL     1      -5.473  -0.646   0.860  1.00  0.00     0.036 A 
HETATM   22  C8  UNL     1      -4.321   1.599   0.369  1.00  0.00     0.070 C 
HETATM   23  N8  UNL     1      -5.101  -1.896   1.174  1.00  0.00    -0.327 N 
HETATM   24  C24 UNL     1      -3.736  -1.885   1.226  1.00  0.00     0.197 A 
HETATM   25  C25 UNL     1      -5.915  -3.076   1.422  1.00  0.00     0.159 C 
HETATM   26  N7  UNL     1      -2.922  -3.015   1.530  1.00  0.00    -0.063 NA
BRANCH  21  27
HETATM   27  C5  UNL     1      -6.855  -0.180   0.695  1.00  0.00     0.059 C 
BRANCH  27  28
HETATM   28  C4  UNL     1      -7.250   0.020  -0.739  1.00  0.00     0.006 C 
BRANCH  28  29
HETATM   29  C3  UNL     1      -7.165  -1.195  -1.597  1.00  0.00     0.000 C 
BRANCH  29  30
HETATM   30  C2  UNL     1      -7.611  -0.759  -3.002  1.00  0.00    -0.005 C 
HETATM   31  C1  UNL     1      -6.699   0.327  -3.506  1.00  0.00     0.005 C 
ENDBRANCH  29  30
ENDBRANCH  28  29
ENDBRANCH  27  28
ENDBRANCH  21  27
ENDBRANCH  18  19
ENDBRANCH  17  18
ENDBRANCH   1  17
BRANCH  13  32
HETATM   32  N5  UNL     1       5.993   0.095  -0.374  1.00  0.00    -0.374 N 
ATOM     33  H5  UNL     1       5.432  -0.734  -0.180  1.00  0.00     0.161 HD
BRANCH  32  34
HETATM   34  C18 UNL     1       7.418  -0.052  -0.295  1.00  0.00     0.121 C 
BRANCH  34  35
HETATM   35  C19 UNL     1       7.912   0.551   0.984  1.00  0.00     0.021 C 
BRANCH  35  36
HETATM   36  C20 UNL     1       9.413   0.434   1.133  1.00  0.00     0.029 C 
BRANCH  36  37
HETATM   37  C21 UNL     1      10.164   1.110   0.027  1.00  0.00     0.229 C 
BRANCH  37  38
HETATM   38  N6  UNL     1       9.830   2.519   0.008  1.00  0.00    -0.079 N 
ATOM     39  H63 UNL     1       8.824   2.676  -0.057  1.00  0.00     0.274 HD
ATOM     40  H62 UNL     1       9.989   2.965   0.911  1.00  0.00     0.274 HD
ATOM     41  H61 UNL     1      10.341   2.979  -0.745  1.00  0.00     0.274 HD
ENDBRANCH  37  38
ENDBRANCH  36  37
ENDBRANCH  35  36
ENDBRANCH  34  35
ENDBRANCH  32  34
ENDBRANCH  13  32
TORSDOF 13
