REMARK  15 active torsions:
REMARK  status: ('A' for Active; 'I' for Inactive)
REMARK    1  A    between atoms: C2_2  and  O1_3 
REMARK    2  A    between atoms: O1_3  and  C3_4 
REMARK    3  A    between atoms: C3_4  and  C4_5 
REMARK    4  A    between atoms: C4_5  and  N1_6 
REMARK    5  A    between atoms: C4_5  and  C10_15 
REMARK       I    between atoms: N1_6  and  C5_8 
REMARK    6  A    between atoms: C5_8  and  O3_10 
REMARK    7  A    between atoms: O3_10  and  C6_11 
REMARK       I    between atoms: C10_15  and  N2_17 
REMARK    8  A    between atoms: C13_20  and  O5_21 
REMARK    9  A    between atoms: O5_21  and  C14_22 
REMARK   10  A    between atoms: C16_24  and  C17_25 
REMARK       I    between atoms: C17_25  and  N3_27 
REMARK   11  A    between atoms: N3_27  and  C18_29 
REMARK   12  A    between atoms: C18_29  and  C19_30 
REMARK   13  A    between atoms: C19_30  and  C20_31 
REMARK   14  A    between atoms: C20_31  and  C21_32 
REMARK       I    between atoms: C21_32  and  N4_34 
REMARK   15  A    between atoms: N4_34  and  C22_36 
ROOT
HETATM    1  C10 UNL     1      -2.077  -0.578  -0.877  1.00  0.00     0.245 C 
HETATM    2  O4  UNL     1      -1.628   0.053  -1.875  1.00  0.00    -0.271 OA
HETATM    3  N2  UNL     1      -1.684  -1.942  -0.728  1.00  0.00    -0.334 N 
HETATM    4  C11 UNL     1      -2.018  -2.902   0.264  1.00  0.00     0.129 C 
HETATM    5  C12 UNL     1      -2.171  -4.185  -0.504  1.00  0.00     0.054 C 
HETATM    6  C13 UNL     1      -0.863  -4.087  -1.369  1.00  0.00     0.155 C 
HETATM    7  C16 UNL     1      -0.779  -2.626  -1.657  1.00  0.00     0.208 C 
ENDROOT
BRANCH   1   8
HETATM    8  C4  UNL     1      -2.946   0.169   0.003  1.00  0.00     0.202 C 
BRANCH   8   9
HETATM    9  C3  UNL     1      -2.550   0.278   1.440  1.00  0.00     0.202 C 
BRANCH   9  10
HETATM   10  O1  UNL     1      -1.353   0.991   1.596  1.00  0.00    -0.389 OA
BRANCH  10  11
HETATM   11  C2  UNL     1      -1.086   1.027   2.980  1.00  0.00     0.163 C 
HETATM   12  C1  UNL     1       0.175   1.771   3.286  1.00  0.00     0.033 C 
ENDBRANCH  10  11
ENDBRANCH   9  10
ENDBRANCH   8   9
BRANCH   8  13
HETATM   13  N1  UNL     1      -3.116   1.520  -0.492  1.00  0.00    -0.321 N 
HETATM   14  C5  UNL     1      -4.376   2.006  -0.927  1.00  0.00     0.362 C 
HETATM   15  O2  UNL     1      -5.371   1.231  -0.880  1.00  0.00    -0.238 OA
ATOM     16  H1  UNL     1      -2.307   2.140  -0.529  1.00  0.00     0.165 HD
BRANCH  14  17
HETATM   17  O3  UNL     1      -4.561   3.273  -1.395  1.00  0.00    -0.294 OA
BRANCH  17  18
HETATM   18  C6  UNL     1      -5.787   3.814  -1.843  1.00  0.00     0.061 C 
HETATM   19  C7  UNL     1      -6.767   3.753  -0.693  1.00  0.00     0.046 C 
HETATM   20  C8  UNL     1      -5.617   5.273  -2.238  1.00  0.00     0.046 C 
HETATM   21  C9  UNL     1      -6.370   3.097  -3.017  1.00  0.00     0.046 C 
ENDBRANCH  17  18
ENDBRANCH  14  17
ENDBRANCH   8  13
ENDBRANCH   1   8
BRANCH   7  22
HETATM   22  C17 UNL     1       0.591  -2.068  -1.555  1.00  0.00     0.243 C 
HETATM   23  O6  UNL     1       1.424  -2.398  -2.430  1.00  0.00    -0.271 OA
HETATM   24  N3  UNL     1       1.021  -1.196  -0.548  1.00  0.00    -0.359 N 
ATOM     25  H3  UNL     1       0.346  -0.929   0.168  1.00  0.00     0.162 HD
BRANCH  24  26
HETATM   26  C18 UNL     1       2.355  -0.648  -0.452  1.00  0.00     0.123 C 
BRANCH  26  27
HETATM   27  C19 UNL     1       3.442  -1.655  -0.305  1.00  0.00     0.029 C 
BRANCH  27  28
HETATM   28  C20 UNL     1       4.767  -0.948  -0.211  1.00  0.00     0.104 C 
BRANCH  28  29
HETATM   29  C21 UNL     1       4.925  -0.072   0.944  1.00  0.00     0.218 C 
HETATM   30  O7  UNL     1       4.079  -0.015   1.864  1.00  0.00    -0.274 OA
HETATM   31  N4  UNL     1       6.066   0.788   1.105  1.00  0.00    -0.353 N 
ATOM     32  H4  UNL     1       6.786   0.783   0.382  1.00  0.00     0.163 HD
BRANCH  31  33
HETATM   33  C22 UNL     1       6.237   1.653   2.237  1.00  0.00     0.022 C 
HETATM   34  C23 UNL     1       6.281   0.863   3.516  1.00  0.00     0.037 C 
HETATM   35  C24 UNL     1       5.064   2.632   2.336  1.00  0.00     0.037 C 
HETATM   36  C25 UNL     1       7.508   2.446   2.089  1.00  0.00     0.037 C 
ENDBRANCH  31  33
ENDBRANCH  28  29
ENDBRANCH  27  28
ENDBRANCH  26  27
ENDBRANCH  24  26
ENDBRANCH   7  22
BRANCH   6  37
HETATM   37  O5  UNL     1      -1.083  -4.800  -2.531  1.00  0.00    -0.384 OA
BRANCH  37  38
HETATM   38  C14 UNL     1      -0.436  -5.991  -2.653  1.00  0.00     0.163 C 
HETATM   39  C15 UNL     1       1.044  -5.930  -2.597  1.00  0.00     0.033 C 
ENDBRANCH  37  38
ENDBRANCH   6  37
TORSDOF 15
