REMARK  13 active torsions:
REMARK  status: ('A' for Active; 'I' for Inactive)
REMARK    1  A    between atoms: C1_2  and  N1_3 
REMARK    2  A    between atoms: C2_5  and  C3_6 
REMARK    3  A    between atoms: C2_5  and  N6_28 
REMARK    4  A    between atoms: C3_6  and  S1_7 
REMARK    5  A    between atoms: S1_7  and  C4_8 
REMARK       I    between atoms: N4_14  and  C6_16 
REMARK       I    between atoms: C6_16  and  N5_18 
REMARK    6  A    between atoms: N5_18  and  C7_20 
REMARK    7  A    between atoms: C7_20  and  C8_21 
REMARK    8  A    between atoms: N6_28  and  C13_30 
REMARK    9  A    between atoms: C13_30  and  C14_31 
REMARK   10  A    between atoms: C14_31  and  C15_32 
REMARK   11  A    between atoms: C15_32  and  O4_33 
REMARK   12  A    between atoms: O4_33  and  C16_34 
REMARK   13  A    between atoms: C16_34  and  C17_35 
ROOT
HETATM    1  C4  UNL     1       2.049  -1.111  -3.322  1.00  0.00     0.130 A 
HETATM    2  N2  UNL     1       2.178  -0.788  -2.046  1.00  0.00    -0.286 N 
ATOM      3  H2  UNL     1       1.359  -0.507  -1.507  1.00  0.00     0.188 HD
HETATM    4  N3  UNL     1       3.323  -0.827  -1.487  1.00  0.00    -0.278 N 
ATOM      5  H3  UNL     1       3.434  -0.581  -0.503  1.00  0.00     0.189 HD
HETATM    6  C5  UNL     1       4.375  -1.199  -2.223  1.00  0.00     0.169 A 
HETATM    7  N4  UNL     1       5.632  -1.309  -1.878  1.00  0.00    -0.288 N 
ATOM      8  H4  UNL     1       6.328  -1.608  -2.561  1.00  0.00     0.172 HD
HETATM    9  C6  UNL     1       6.014  -1.014  -0.569  1.00  0.00     0.322 C 
HETATM   10  O2  UNL     1       6.200  -1.972   0.221  1.00  0.00    -0.247 OA
HETATM   11  N5  UNL     1       6.193   0.313  -0.121  1.00  0.00    -0.342 N 
ATOM     12  H5  UNL     1       6.025   1.055  -0.800  1.00  0.00     0.164 HD
HETATM   13  S2  UNL     1       3.660  -1.490  -3.742  1.00  0.00    -0.026 SA
ENDROOT
BRANCH   1  14
HETATM   14  S1  UNL     1       0.553  -1.136  -4.337  1.00  0.00    -0.096 SA
BRANCH  14  15
HETATM   15  C3  UNL     1      -0.824  -0.637  -3.254  1.00  0.00     0.157 C 
BRANCH  15  16
HETATM   16  C2  UNL     1      -1.035  -1.697  -2.251  1.00  0.00     0.088 C 
HETATM   17  N1  UNL     1      -0.242  -2.757  -2.256  1.00  0.00    -0.324 N 
ATOM     18  H1  UNL     1       0.501  -2.823  -2.952  1.00  0.00     0.169 HD
BRANCH  17  19
HETATM   19  C1  UNL     1      -0.404  -3.798  -1.317  1.00  0.00     0.354 C 
HETATM   20  O1  UNL     1      -0.617  -4.963  -1.706  1.00  0.00    -0.283 OA
ENDBRANCH  17  19
BRANCH  16  21
HETATM   21  N6  UNL     1      -2.044  -1.665  -1.275  1.00  0.00    -0.379 N 
ATOM     22  H6  UNL     1      -1.800  -2.063  -0.368  1.00  0.00     0.160 HD
BRANCH  21  23
HETATM   23  C13 UNL     1      -3.383  -1.140  -1.393  1.00  0.00     0.123 C 
BRANCH  23  24
HETATM   24  C14 UNL     1      -3.491   0.329  -1.454  1.00  0.00     0.046 C 
BRANCH  24  25
HETATM   25  C15 UNL     1      -4.833   0.945  -1.557  1.00  0.00     0.169 C 
BRANCH  25  26
HETATM   26  O4  UNL     1      -5.692   0.835  -0.581  1.00  0.00    -0.391 OA
BRANCH  26  27
HETATM   27  C16 UNL     1      -6.205  -0.253  -0.019  1.00  0.00     0.172 C 
BRANCH  27  28
HETATM   28  C17 UNL     1      -7.316   0.120   1.018  1.00  0.00     0.009 C 
HETATM   29  C18 UNL     1      -6.708   0.974   2.083  1.00  0.00     0.007 C 
HETATM   30  C19 UNL     1      -7.752   1.435   3.048  1.00  0.00     0.000 C 
HETATM   31  C20 UNL     1      -9.163   1.290   2.560  1.00  0.00     0.000 C 
HETATM   32  C21 UNL     1      -9.319   1.638   1.091  1.00  0.00     0.000 C 
HETATM   33  C22 UNL     1      -8.291   0.957   0.240  1.00  0.00     0.007 C 
ENDBRANCH  27  28
ENDBRANCH  26  27
ENDBRANCH  25  26
ENDBRANCH  24  25
ENDBRANCH  23  24
ENDBRANCH  21  23
ENDBRANCH  16  21
ENDBRANCH  15  16
ENDBRANCH  14  15
ENDBRANCH   1  14
BRANCH  11  34
HETATM   34  C7  UNL     1       6.589   0.720   1.199  1.00  0.00     0.129 C 
BRANCH  34  35
HETATM   35  C8  UNL     1       7.940   0.180   1.533  1.00  0.00     0.007 C 
HETATM   36  C9  UNL     1       8.957   0.709   0.513  1.00  0.00     0.032 C 
HETATM   37  C10 UNL     1      10.292   0.108   0.880  1.00  0.00     0.168 C 
HETATM   38  O3  UNL     1      10.730   0.460   2.143  1.00  0.00    -0.391 OA
HETATM   39  C11 UNL     1       9.815   1.257   2.823  1.00  0.00     0.168 C 
HETATM   40  C12 UNL     1       8.437   0.667   2.884  1.00  0.00     0.032 C 
ENDBRANCH  34  35
ENDBRANCH  11  34
TORSDOF 13
