REMARK  12 active torsions:
REMARK  status: ('A' for Active; 'I' for Inactive)
REMARK    1  A    between atoms: O1_2  and  C2_3 
REMARK    2  A    between atoms: C5_8  and  C6_9 
REMARK    3  A    between atoms: C6_9  and  N2_11 
REMARK    4  A    between atoms: N2_11  and  C7_13 
REMARK    5  A    between atoms: C7_13  and  C8_14 
REMARK    6  A    between atoms: C8_14  and  C9_15 
REMARK    7  A    between atoms: C9_15  and  C10_16 
REMARK    8  A    between atoms: C10_16  and  C11_17 
REMARK    9  A    between atoms: C11_17  and  C12_18 
REMARK   10  A    between atoms: C12_18  and  S2_19 
REMARK   11  A    between atoms: S2_19  and  N3_22 
REMARK   12  A    between atoms: C19_31  and  C20_32 
ROOT
HETATM    1  C2  UNL     1       6.479   1.024  -0.998  1.00  0.00     0.084 A 
HETATM    2  C3  UNL     1       5.235   1.047  -1.554  1.00  0.00     0.069 A 
HETATM    3  C4  UNL     1       4.188   0.334  -0.971  1.00  0.00     0.063 A 
HETATM    4  N1  UNL     1       2.891   0.187  -1.305  1.00  0.00    -0.338 N 
ATOM      5  H1  UNL     1       2.444   0.619  -2.114  1.00  0.00     0.167 HD
HETATM    6  C5  UNL     1       2.265  -0.619  -0.411  1.00  0.00     0.144 A 
HETATM    7  N4  UNL     1       3.197  -0.977   0.495  1.00  0.00    -0.338 N 
ATOM      8  H4  UNL     1       3.034  -1.584   1.298  1.00  0.00     0.167 HD
HETATM    9  C17 UNL     1       4.374  -0.410   0.177  1.00  0.00     0.061 A 
HETATM   10  C18 UNL     1       5.640  -0.423   0.726  1.00  0.00     0.050 A 
HETATM   11  C19 UNL     1       6.685   0.286   0.148  1.00  0.00     0.043 A 
ENDROOT
BRANCH   6  12
HETATM   12  C6  UNL     1       0.860  -0.990  -0.466  1.00  0.00     0.141 C 
HETATM   13  S1  UNL     1       0.171  -1.637   0.857  1.00  0.00    -0.057 SA
BRANCH  12  14
HETATM   14  N2  UNL     1       0.106  -0.811  -1.642  1.00  0.00    -0.378 N 
ATOM     15  H2  UNL     1       0.571  -0.420  -2.461  1.00  0.00     0.160 HD
BRANCH  14  16
HETATM   16  C7  UNL     1      -1.306  -1.157  -1.746  1.00  0.00     0.121 C 
BRANCH  16  17
HETATM   17  C8  UNL     1      -2.166  -0.242  -0.934  1.00  0.00     0.020 C 
BRANCH  17  18
HETATM   18  C9  UNL     1      -3.643  -0.638  -1.120  1.00  0.00     0.005 C 
BRANCH  18  19
HETATM   19  C10 UNL     1      -3.941  -2.006  -0.676  1.00  0.00     0.028 C 
BRANCH  19  20
HETATM   20  C11 UNL     1      -5.273  -2.556  -0.777  1.00  0.00    -0.014 C 
BRANCH  20  21
HETATM   21  C12 UNL     1      -6.500  -2.209  -0.116  1.00  0.00     0.122 C 
BRANCH  21  22
HETATM   22  S2  UNL     1      -7.297  -0.682  -0.214  1.00  0.00     0.233 S 
HETATM   23  O2  UNL     1      -7.545  -0.342  -1.699  1.00  0.00    -0.207 OA
HETATM   24  O3  UNL     1      -8.719  -0.790   0.343  1.00  0.00    -0.207 OA
BRANCH  22  25
HETATM   25  N3  UNL     1      -6.530   0.677   0.448  1.00  0.00    -0.207 NA
HETATM   26  C13 UNL     1      -6.307   0.565   1.874  1.00  0.00     0.107 C 
HETATM   27  C14 UNL     1      -7.505   1.156   2.551  1.00  0.00     0.017 C 
HETATM   28  C15 UNL     1      -8.120   2.056   1.534  1.00  0.00     0.017 C 
HETATM   29  C16 UNL     1      -7.387   1.828   0.258  1.00  0.00     0.107 C 
ENDBRANCH  22  25
ENDBRANCH  21  22
ENDBRANCH  20  21
ENDBRANCH  19  20
ENDBRANCH  18  19
ENDBRANCH  17  18
ENDBRANCH  16  17
ENDBRANCH  14  16
ENDBRANCH  12  14
ENDBRANCH   6  12
BRANCH   1  30
HETATM   30  O1  UNL     1       7.572   1.713  -1.529  1.00  0.00    -0.355 OA
HETATM   31  C1  UNL     1       7.328   2.468  -2.713  1.00  0.00     0.210 C 
ENDBRANCH   1  30
BRANCH  11  32
HETATM   32  C20 UNL     1       8.030   0.251   0.757  1.00  0.00     0.110 C 
HETATM   33  N5  UNL     1       9.077   0.804   0.266  1.00  0.00    -0.374 N 
HETATM   34  C21 UNL     1      10.256   0.610   1.070  1.00  0.00     0.141 C 
ATOM     35  H5  UNL     1       9.075   1.330  -0.608  1.00  0.00     0.161 HD
HETATM   36  C22 UNL     1       9.729   0.110   2.371  1.00  0.00     0.141 C 
HETATM   37  N6  UNL     1       8.406  -0.381   1.968  1.00  0.00    -0.374 N 
ATOM     38  H6  UNL     1       7.848  -1.066   2.477  1.00  0.00     0.161 HD
ENDBRANCH  11  32
TORSDOF 12
