REMARK  15 active torsions:
REMARK  status: ('A' for Active; 'I' for Inactive)
REMARK    1  A    between atoms: C2_2  and  C3_3 
REMARK    2  A    between atoms: C3_3  and  C4_4 
REMARK    3  A    between atoms: C4_4  and  C5_5 
REMARK    4  A    between atoms: C5_5  and  C6_6 
REMARK    5  A    between atoms: C6_6  and  O1_7 
REMARK    6  A    between atoms: C6_6  and  C16_24 
REMARK    7  A    between atoms: O1_7  and  C7_8 
REMARK    8  A    between atoms: C7_8  and  C9_10 
REMARK       I    between atoms: C9_10  and  N1_12 
REMARK    9  A    between atoms: C10_13  and  O3_14 
REMARK   10  A    between atoms: C13_19  and  C14_20 
REMARK   11  A    between atoms: C14_20  and  C15_21 
REMARK   12  A    between atoms: C16_24  and  O7_25 
REMARK   13  A    between atoms: C16_24  and  C21_30 
REMARK   14  A    between atoms: O7_25  and  C17_26 
REMARK       I    between atoms: C21_30  and  N2_32 
REMARK   15  A    between atoms: N2_32  and  C22_34 
ROOT
HETATM    1  C6  UNL     1      -0.387   0.126   0.163  1.00  0.00     0.160 C 
ENDROOT
BRANCH   1   2
HETATM    2  C5  UNL     1      -0.587   1.173   1.245  1.00  0.00     0.035 C 
BRANCH   2   3
HETATM    3  C4  UNL     1      -1.142   2.455   0.704  1.00  0.00     0.002 C 
BRANCH   3   4
HETATM    4  C3  UNL     1      -1.333   3.508   1.777  1.00  0.00    -0.000 C 
BRANCH   4   5
HETATM    5  C2  UNL     1      -1.904   4.725   1.041  1.00  0.00    -0.005 C 
HETATM    6  C1  UNL     1      -2.163   5.879   1.950  1.00  0.00     0.005 C 
ENDBRANCH   4   5
ENDBRANCH   3   4
ENDBRANCH   2   3
ENDBRANCH   1   2
BRANCH   1   7
HETATM    7  O1  UNL     1       0.515   0.711  -0.727  1.00  0.00    -0.368 OA
BRANCH   7   8
HETATM    8  C7  UNL     1       1.766   0.107  -0.692  1.00  0.00     0.210 C 
HETATM    9  C8  UNL     1       2.033  -0.404  -2.089  1.00  0.00     0.050 C 
BRANCH   8  10
HETATM   10  C9  UNL     1       2.855   1.059  -0.381  1.00  0.00     0.251 C 
HETATM   11  O2  UNL     1       2.463   2.258  -0.154  1.00  0.00    -0.270 OA
HETATM   12  N1  UNL     1       4.238   0.727  -0.326  1.00  0.00    -0.311 N 
HETATM   13  C10 UNL     1       5.210   1.794   0.010  1.00  0.00     0.230 C 
HETATM   14  C13 UNL     1       4.944  -0.490  -0.555  1.00  0.00     0.169 C 
HETATM   15  C11 UNL     1       6.527   1.135   0.210  1.00  0.00     0.134 C 
HETATM   16  C12 UNL     1       6.389  -0.108  -0.563  1.00  0.00     0.154 C 
HETATM   17  O4  UNL     1       7.293  -0.711  -1.108  1.00  0.00    -0.296 OA
BRANCH  13  18
HETATM   18  O3  UNL     1       4.768   2.551   1.071  1.00  0.00    -0.376 OA
ATOM     19  H3  UNL     1       5.391   3.235   1.286  1.00  0.00     0.212 HD
ENDBRANCH  13  18
BRANCH  14  20
HETATM   20  C14 UNL     1       4.788  -1.565   0.467  1.00  0.00     0.146 C 
BRANCH  20  21
HETATM   21  C15 UNL     1       5.216  -1.224   1.821  1.00  0.00     0.174 C 
HETATM   22  O5  UNL     1       4.510  -0.487   2.540  1.00  0.00    -0.648 OA
HETATM   23  O6  UNL     1       6.404  -1.711   2.325  1.00  0.00    -0.648 OA
ENDBRANCH  20  21
ENDBRANCH  14  20
ENDBRANCH   8  10
ENDBRANCH   7   8
ENDBRANCH   1   7
BRANCH   1  24
HETATM   24  C16 UNL     1      -1.682  -0.280  -0.475  1.00  0.00     0.243 C 
BRANCH  24  25
HETATM   25  O7  UNL     1      -1.462  -1.149  -1.560  1.00  0.00    -0.364 OA
BRANCH  25  26
HETATM   26  C17 UNL     1      -2.108  -0.746  -2.697  1.00  0.00     0.051 C 
HETATM   27  C18 UNL     1      -1.779   0.609  -3.220  1.00  0.00     0.045 C 
HETATM   28  C19 UNL     1      -3.629  -0.899  -2.582  1.00  0.00     0.045 C 
HETATM   29  C20 UNL     1      -1.708  -1.747  -3.793  1.00  0.00     0.045 C 
ENDBRANCH  25  26
ENDBRANCH  24  25
BRANCH  24  30
HETATM   30  C21 UNL     1      -2.546  -1.039   0.514  1.00  0.00     0.249 C 
HETATM   31  O8  UNL     1      -3.033  -0.492   1.532  1.00  0.00    -0.271 OA
HETATM   32  N2  UNL     1      -2.839  -2.405   0.330  1.00  0.00    -0.351 N 
ATOM     33  H2  UNL     1      -2.454  -2.877  -0.488  1.00  0.00     0.163 HD
BRANCH  32  34
HETATM   34  C22 UNL     1      -3.658  -3.171   1.242  1.00  0.00     0.022 C 
HETATM   35  C23 UNL     1      -3.078  -3.210   2.634  1.00  0.00     0.037 C 
HETATM   36  C24 UNL     1      -3.806  -4.599   0.765  1.00  0.00     0.037 C 
HETATM   37  C25 UNL     1      -5.069  -2.602   1.321  1.00  0.00     0.037 C 
ENDBRANCH  32  34
ENDBRANCH  24  30
ENDBRANCH   1  24
TORSDOF 15
