REMARK  11 active torsions:
REMARK  status: ('A' for Active; 'I' for Inactive)
REMARK    1  A    between atoms: C2_2  and  C3_3 
REMARK    2  A    between atoms: C3_3  and  C4_4 
REMARK    3  A    between atoms: C4_4  and  N1_5 
REMARK    4  A    between atoms: C6_8  and  N3_9 
REMARK    5  A    between atoms: N3_9  and  C7_10 
REMARK       I    between atoms: N3_9  and  C17_23 
REMARK    6  A    between atoms: C7_10  and  C8_11 
REMARK    7  A    between atoms: C8_11  and  C9_12 
REMARK    8  A    between atoms: C9_12  and  C10_13 
REMARK       I    between atoms: C10_13  and  N4_15 
REMARK    9  A    between atoms: N4_15  and  C11_17 
REMARK   10  A    between atoms: C11_17  and  C12_18 
REMARK   11  A    between atoms: C17_23  and  C18_25 
ROOT
HETATM    1  C18 UNL     1      -2.307  -3.085   0.642  1.00  0.00     0.096 C 
HETATM    2  C19 UNL     1      -2.795  -3.191  -0.770  1.00  0.00     0.015 C 
HETATM    3  C20 UNL     1      -3.560  -4.462  -1.064  1.00  0.00     0.001 C 
HETATM    4  C21 UNL     1      -4.100  -5.140   0.152  1.00  0.00     0.001 C 
HETATM    5  C22 UNL     1      -3.083  -5.376   1.217  1.00  0.00     0.020 C 
HETATM    6  C23 UNL     1      -1.886  -4.469   1.106  1.00  0.00     0.106 C 
HETATM    7  C24 UNL     1      -0.958  -5.055   0.139  1.00  0.00     0.065 C 
HETATM    8  N5  UNL     1      -0.194  -5.527  -0.624  1.00  0.00    -0.197 NA
ENDROOT
BRANCH   1   9
HETATM    9  C17 UNL     1      -1.135  -2.191   0.711  1.00  0.00     0.230 C 
HETATM   10  N3  UNL     1      -1.131  -0.789   0.736  1.00  0.00    -0.310 N 
HETATM   11  O2  UNL     1       0.008  -2.787   0.746  1.00  0.00    -0.273 OA
BRANCH  10  12
HETATM   12  C6  UNL     1      -2.324  -0.042   0.793  1.00  0.00     0.147 A 
HETATM   13  C5  UNL     1      -2.848   0.616  -0.318  1.00  0.00     0.155 A 
HETATM   14  N1  UNL     1      -3.979   1.337  -0.241  1.00  0.00    -0.285 N 
HETATM   15  N2  UNL     1      -2.180   0.522  -1.545  1.00  0.00    -0.080 NA
HETATM   16  C26 UNL     1      -4.659   1.463   0.900  1.00  0.00     0.330 A 
HETATM   17  N6  UNL     1      -4.189   0.845   1.996  1.00  0.00    -0.273 N 
HETATM   18  O4  UNL     1      -5.735   2.151   0.970  1.00  0.00    -0.246 OA
HETATM   19  C25 UNL     1      -3.062   0.114   1.963  1.00  0.00     0.279 A 
ATOM     20  H6  UNL     1      -4.700   0.933   2.874  1.00  0.00     0.173 HD
HETATM   21  O3  UNL     1      -2.642  -0.457   3.015  1.00  0.00    -0.265 OA
BRANCH  14  22
HETATM   22  C4  UNL     1      -4.472   1.991  -1.412  1.00  0.00     0.135 C 
BRANCH  22  23
HETATM   23  C3  UNL     1      -3.921   3.392  -1.574  1.00  0.00     0.020 C 
BRANCH  23  24
HETATM   24  C2  UNL     1      -4.492   4.014  -2.833  1.00  0.00    -0.003 C 
HETATM   25  C1  UNL     1      -3.957   5.413  -3.020  1.00  0.00     0.005 C 
ENDBRANCH  23  24
ENDBRANCH  22  23
ENDBRANCH  14  22
ENDBRANCH  10  12
BRANCH  10  26
HETATM   26  C7  UNL     1       0.135  -0.071   0.696  1.00  0.00     0.133 C 
BRANCH  26  27
HETATM   27  C8  UNL     1       0.701   0.191   2.063  1.00  0.00     0.029 C 
BRANCH  27  28
HETATM   28  C9  UNL     1       1.984   0.952   1.923  1.00  0.00     0.104 C 
BRANCH  28  29
HETATM   29  C10 UNL     1       3.074   0.289   1.223  1.00  0.00     0.217 C 
HETATM   30  O1  UNL     1       3.069  -0.923   0.849  1.00  0.00    -0.274 OA
HETATM   31  N4  UNL     1       4.238   1.047   0.929  1.00  0.00    -0.361 N 
ATOM     32  H4  UNL     1       4.303   2.027   1.205  1.00  0.00     0.162 HD
BRANCH  31  33
HETATM   33  C11 UNL     1       5.331   0.405   0.231  1.00  0.00     0.127 C 
BRANCH  33  34
HETATM   34  C12 UNL     1       6.471   1.346  -0.002  1.00  0.00     0.003 C 
HETATM   35  C13 UNL     1       7.072   1.919   1.240  1.00  0.00     0.006 C 
HETATM   36  C14 UNL     1       8.579   1.858   1.063  1.00  0.00     0.000 C 
HETATM   37  C15 UNL     1       8.805   1.395  -0.377  1.00  0.00     0.000 C 
HETATM   38  C16 UNL     1       7.602   0.540  -0.627  1.00  0.00     0.006 C 
ENDBRANCH  33  34
ENDBRANCH  31  33
ENDBRANCH  28  29
ENDBRANCH  27  28
ENDBRANCH  26  27
ENDBRANCH  10  26
ENDBRANCH   1   9
TORSDOF 11
