REMARK  11 active torsions:
REMARK  status: ('A' for Active; 'I' for Inactive)
REMARK    1  A    between atoms: O1_2  and  C2_3 
REMARK    2  A    between atoms: C11_14  and  O4_15 
REMARK    3  A    between atoms: O4_15  and  C12_16 
REMARK    4  A    between atoms: C12_16  and  C13_17 
REMARK       I    between atoms: C13_17  and  N1_19 
REMARK    5  A    between atoms: N1_19  and  C14_21 
REMARK    6  A    between atoms: C14_21  and  C15_22 
REMARK    7  A    between atoms: C14_21  and  C21_30 
REMARK    8  A    between atoms: C15_22  and  C16_23 
REMARK    9  A    between atoms: C16_23  and  C17_24 
REMARK   10  A    between atoms: C17_24  and  C18_25 
REMARK   11  A    between atoms: C18_25  and  N2_26 
REMARK       I    between atoms: N2_26  and  C19_27 
ROOT
HETATM    1  C2  UNL     1      -2.415  -1.781  -0.350  1.00  0.00     0.200 C 
HETATM    2  O2  UNL     1      -3.381  -1.018  -1.100  1.00  0.00    -0.321 OA
HETATM    3  C3  UNL     1      -4.590  -1.032  -0.430  1.00  0.00     0.269 C 
HETATM    4  O3  UNL     1      -5.126   0.238  -0.574  1.00  0.00    -0.355 OA
HETATM    5  C4  UNL     1      -5.608   0.864   0.540  1.00  0.00     0.124 C 
HETATM    6  C5  UNL     1      -6.949   0.314   1.008  1.00  0.00     0.040 C 
HETATM    7  C6  UNL     1      -4.612   1.038   1.667  1.00  0.00     0.015 C 
HETATM    8  C7  UNL     1      -4.084   2.453   1.736  1.00  0.00     0.013 C 
HETATM    9  C8  UNL     1      -3.424   0.172   1.188  1.00  0.00     0.001 C 
HETATM   10  C9  UNL     1      -2.219   0.266   2.017  1.00  0.00     0.008 C 
HETATM   11  C10 UNL     1      -1.072  -0.359   1.326  1.00  0.00     0.038 C 
HETATM   12  C11 UNL     1      -1.230  -0.885  -0.064  1.00  0.00     0.185 C 
HETATM   13  C22 UNL     1      -4.077  -1.139   1.001  1.00  0.00     0.059 C 
HETATM   14  C23 UNL     1      -3.167  -2.326   0.776  1.00  0.00     0.020 C 
HETATM   15  C24 UNL     1      -4.131  -3.414   0.215  1.00  0.00     0.021 C 
HETATM   16  C25 UNL     1      -2.538  -2.919   1.939  1.00  0.00     0.021 C 
ENDROOT
BRANCH  12  17
HETATM   17  O4  UNL     1      -1.175   0.056  -0.954  1.00  0.00    -0.371 OA
BRANCH  17  18
HETATM   18  C12 UNL     1      -0.884   0.778  -1.893  1.00  0.00     0.271 C 
BRANCH  18  19
HETATM   19  C13 UNL     1       0.499   1.385  -2.022  1.00  0.00     0.242 C 
HETATM   20  O5  UNL     1       0.694   2.217  -2.982  1.00  0.00    -0.271 OA
HETATM   21  N1  UNL     1       1.543   1.084  -1.163  1.00  0.00    -0.345 N 
ATOM     22  H1  UNL     1       1.443   0.428  -0.388  1.00  0.00     0.163 HD
BRANCH  21  23
HETATM   23  C14 UNL     1       2.861   1.811  -1.463  1.00  0.00     0.185 C 
BRANCH  23  24
HETATM   24  C15 UNL     1       3.342   2.156  -0.135  1.00  0.00     0.037 C 
BRANCH  24  25
HETATM   25  C16 UNL     1       4.548   2.957   0.045  1.00  0.00     0.008 C 
BRANCH  25  26
HETATM   26  C17 UNL     1       5.829   2.427  -0.438  1.00  0.00     0.060 C 
BRANCH  26  27
HETATM   27  C18 UNL     1       6.243   1.129   0.236  1.00  0.00     0.159 C 
BRANCH  27  28
HETATM   28  N2  UNL     1       7.385   0.615  -0.342  1.00  0.00    -0.388 NA
HETATM   29  C19 UNL     1       8.519   0.129  -0.905  1.00  0.00     0.286 C 
HETATM   30  C20 UNL     1       8.465  -1.248  -1.555  1.00  0.00     0.135 C 
HETATM   31  O6  UNL     1       9.645   0.691  -0.965  1.00  0.00    -0.258 OA
ENDBRANCH  27  28
ENDBRANCH  26  27
ENDBRANCH  25  26
ENDBRANCH  24  25
ENDBRANCH  23  24
BRANCH  23  32
HETATM   32  C21 UNL     1       3.572   0.800  -2.293  1.00  0.00     0.196 C 
HETATM   33  O7  UNL     1       3.101  -0.421  -2.267  1.00  0.00    -0.646 OA
HETATM   34  O8  UNL     1       4.626   1.009  -3.071  1.00  0.00    -0.646 OA
ENDBRANCH  23  32
ENDBRANCH  21  23
ENDBRANCH  18  19
ENDBRANCH  17  18
ENDBRANCH  12  17
BRANCH   1  35
HETATM   35  O1  UNL     1      -2.058  -2.698  -1.310  1.00  0.00    -0.357 OA
HETATM   36  C1  UNL     1      -1.179  -3.657  -1.098  1.00  0.00     0.205 C 
ENDBRANCH   1  35
TORSDOF 11
