REMARK  12 active torsions:
REMARK  status: ('A' for Active; 'I' for Inactive)
REMARK    1  A    between atoms: C2_2  and  C3_3 
REMARK    2  A    between atoms: C2_2  and  C13_17 
REMARK    3  A    between atoms: C3_3  and  N1_4 
REMARK    4  A    between atoms: N1_4  and  C4_6 
REMARK    5  A    between atoms: C4_6  and  C5_7 
REMARK    6  A    between atoms: C5_7  and  N2_8 
REMARK    7  A    between atoms: N2_8  and  C6_10 
REMARK    8  A    between atoms: C13_17  and  N3_18 
REMARK    9  A    between atoms: C15_20  and  O1_21 
REMARK   10  A    between atoms: C15_20  and  C17_23 
REMARK   11  A    between atoms: N5_33  and  C25_34 
REMARK   12  A    between atoms: C28_37  and  O2_38 
ROOT
HETATM    1  N3  UNL     1      -1.977  -0.247  -0.035  1.00  0.00    -0.298 N 
HETATM    2  C14 UNL     1      -2.092   1.101   0.303  1.00  0.00     0.127 C 
HETATM    3  C15 UNL     1      -3.339   1.828  -0.252  1.00  0.00     0.130 C 
HETATM    4  C22 UNL     1      -4.508   1.005   0.086  1.00  0.00     0.066 C 
HETATM    5  C23 UNL     1      -5.851   1.462  -0.414  1.00  0.00     0.019 C 
HETATM    6  C24 UNL     1      -4.343  -0.389  -0.423  1.00  0.00     0.091 C 
HETATM    7  N5  UNL     1      -3.095  -0.948  -0.238  1.00  0.00    -0.300 N 
ENDROOT
BRANCH   1   8
HETATM    8  C13 UNL     1      -0.854  -0.583  -0.842  1.00  0.00     0.183 C 
BRANCH   8   9
HETATM    9  C2  UNL     1       0.452  -0.471  -0.118  1.00  0.00    -0.052 C 
HETATM   10  C1  UNL     1       0.489  -0.202   1.155  1.00  0.00     0.017 C 
BRANCH   9  11
HETATM   11  C3  UNL     1       1.661  -0.593  -0.930  1.00  0.00     0.149 C 
BRANCH  11  12
HETATM   12  N1  UNL     1       2.941  -0.291  -0.408  1.00  0.00    -0.413 N 
ATOM     13  H1  UNL     1       3.632  -1.022  -0.236  1.00  0.00     0.153 HD
BRANCH  12  14
HETATM   14  C4  UNL     1       3.224   1.082  -0.132  1.00  0.00     0.158 C 
BRANCH  14  15
HETATM   15  C5  UNL     1       4.631   1.525  -0.176  1.00  0.00     0.075 C 
BRANCH  15  16
HETATM   16  N2  UNL     1       5.624   0.937   0.617  1.00  0.00    -0.396 N 
ATOM     17  H2  UNL     1       6.023   1.438   1.411  1.00  0.00     0.159 HD
BRANCH  16  18
HETATM   18  C6  UNL     1       6.064  -0.381   0.288  1.00  0.00     0.085 C 
HETATM   19  C7  UNL     1       6.648  -0.482  -1.131  1.00  0.00     0.030 C 
HETATM   20  C8  UNL     1       7.761  -1.306  -0.560  1.00  0.00    -0.006 C 
HETATM   21  C9  UNL     1       9.150  -0.869  -0.984  1.00  0.00     0.005 C 
HETATM   22  C12 UNL     1       7.506  -0.624   0.768  1.00  0.00     0.012 C 
HETATM   23  C10 UNL     1       9.287   0.533  -0.419  1.00  0.00     0.001 C 
HETATM   24  C11 UNL     1       8.353   0.632   0.758  1.00  0.00     0.007 C 
ENDBRANCH  16  18
ENDBRANCH  15  16
ENDBRANCH  14  15
ENDBRANCH  12  14
ENDBRANCH  11  12
ENDBRANCH   9  11
ENDBRANCH   8   9
ENDBRANCH   1   8
BRANCH   7  25
HETATM   25  C25 UNL     1      -3.084  -2.349   0.107  1.00  0.00     0.107 C 
HETATM   26  C26 UNL     1      -3.652  -2.539   1.468  1.00  0.00     0.030 C 
HETATM   27  C27 UNL     1      -4.503  -3.749   1.655  1.00  0.00     0.034 C 
HETATM   28  C28 UNL     1      -4.212  -4.906   0.764  1.00  0.00     0.118 C 
HETATM   29  C29 UNL     1      -3.829  -4.556  -0.642  1.00  0.00     0.034 C 
HETATM   30  C30 UNL     1      -4.071  -3.083  -0.853  1.00  0.00     0.030 C 
BRANCH  28  31
HETATM   31  O2  UNL     1      -5.394  -5.684   0.739  1.00  0.00    -0.396 OA
ATOM     32  H2  UNL     1      -5.208  -6.422   0.171  1.00  0.00     0.210 HD
ENDBRANCH  28  31
ENDBRANCH   7  25
BRANCH   3  33
HETATM   33  O1  UNL     1      -3.104   1.980  -1.568  1.00  0.00    -0.374 OA
HETATM   34  C16 UNL     1      -3.860   2.739  -2.380  1.00  0.00     0.203 C 
ENDBRANCH   3  33
BRANCH   3  35
HETATM   35  C17 UNL     1      -3.291   3.148   0.441  1.00  0.00    -0.003 A 
HETATM   36  C18 UNL     1      -4.204   3.501   1.388  1.00  0.00     0.013 A 
HETATM   37  C19 UNL     1      -4.102   4.736   2.005  1.00  0.00     0.018 A 
HETATM   38  C20 UNL     1      -3.082   5.583   1.651  1.00  0.00     0.087 A 
HETATM   39  N4  UNL     1      -2.196   5.191   0.699  1.00  0.00    -0.375 N 
HETATM   40  C21 UNL     1      -2.288   3.997   0.096  1.00  0.00     0.098 A 
ATOM     41  H4  UNL     1      -1.440   5.823   0.435  1.00  0.00     0.164 HD
ENDBRANCH   3  35
TORSDOF 12
