REMARK  10 active torsions:
REMARK  status: ('A' for Active; 'I' for Inactive)
REMARK    1  A    between atoms: C2_2  and  C3_3 
REMARK    2  A    between atoms: C3_3  and  C4_4 
REMARK    3  A    between atoms: C4_4  and  N1_5 
REMARK    4  A    between atoms: C4_4  and  C16_22 
REMARK       I    between atoms: N1_5  and  C5_7 
REMARK    5  A    between atoms: C5_7  and  C6_9 
REMARK    6  A    between atoms: C6_9  and  C7_10 
REMARK    7  A    between atoms: C6_9  and  N2_17 
REMARK    8  A    between atoms: C7_10  and  C8_11 
REMARK       I    between atoms: N2_17  and  C14_19 
REMARK       I    between atoms: C16_22  and  N3_24 
REMARK    9  A    between atoms: C19_28  and  C20_29 
REMARK       I    between atoms: C20_29  and  N4_31 
REMARK   10  A    between atoms: N4_31  and  C21_33 
ROOT
HETATM    1  C4  UNL     1       0.608  -1.439   1.005  1.00  0.00     0.176 C 
ENDROOT
BRANCH   1   2
HETATM    2  C3  UNL     1       0.802  -2.839   0.420  1.00  0.00     0.034 C 
BRANCH   2   3
HETATM    3  C2  UNL     1      -0.253  -3.808   0.869  1.00  0.00    -0.002 C 
HETATM    4  C1  UNL     1      -0.194  -3.949   2.409  1.00  0.00     0.005 C 
ENDBRANCH   2   3
ENDBRANCH   1   2
BRANCH   1   5
HETATM    5  N1  UNL     1      -0.641  -0.829   0.572  1.00  0.00    -0.346 N 
HETATM    6  C5  UNL     1      -1.366  -1.051  -0.590  1.00  0.00     0.241 C 
HETATM    7  O1  UNL     1      -1.021  -1.836  -1.481  1.00  0.00    -0.271 OA
ATOM      8  H1  UNL     1      -1.039  -0.142   1.213  1.00  0.00     0.163 HD
BRANCH   6   9
HETATM    9  C6  UNL     1      -2.668  -0.303  -0.822  1.00  0.00     0.177 C 
BRANCH   9  10
HETATM   10  C7  UNL     1      -3.585  -0.642   0.266  1.00  0.00     0.039 C 
BRANCH  10  11
HETATM   11  C8  UNL     1      -4.944  -0.041   0.335  1.00  0.00    -0.012 C 
HETATM   12  C9  UNL     1      -5.891  -0.283  -0.765  1.00  0.00     0.005 C 
HETATM   13  C10 UNL     1      -6.398   1.015  -1.426  1.00  0.00     0.000 C 
HETATM   14  C11 UNL     1      -7.116   1.705  -0.283  1.00  0.00     0.000 C 
HETATM   15  C12 UNL     1      -6.040   2.234   0.628  1.00  0.00     0.000 C 
HETATM   16  C13 UNL     1      -4.831   1.414   0.751  1.00  0.00     0.005 C 
ENDBRANCH  10  11
ENDBRANCH   9  10
BRANCH   9  17
HETATM   17  N2  UNL     1      -3.145  -0.772  -2.105  1.00  0.00    -0.348 N 
HETATM   18  C14 UNL     1      -3.171   0.017  -3.283  1.00  0.00     0.214 C 
HETATM   19  C15 UNL     1      -3.684  -0.567  -4.557  1.00  0.00     0.117 C 
HETATM   20  O2  UNL     1      -2.773   1.202  -3.296  1.00  0.00    -0.274 OA
ATOM     21  H2  UNL     1      -3.484  -1.732  -2.166  1.00  0.00     0.163 HD
ENDBRANCH   9  17
ENDBRANCH   6   9
ENDBRANCH   1   5
BRANCH   1  22
HETATM   22  C16 UNL     1       1.763  -0.613   0.721  1.00  0.00     0.244 C 
HETATM   23  O3  UNL     1       1.566   0.391  -0.053  1.00  0.00    -0.271 OA
HETATM   24  N3  UNL     1       3.105  -0.771   1.199  1.00  0.00    -0.327 N 
HETATM   25  C17 UNL     1       3.505  -1.814   2.122  1.00  0.00     0.200 C 
HETATM   26  C19 UNL     1       4.201   0.076   0.816  1.00  0.00     0.189 C 
HETATM   27  S1  UNL     1       4.705  -0.919   3.151  1.00  0.00    -0.147 SA
HETATM   28  C18 UNL     1       4.965   0.502   2.051  1.00  0.00     0.110 C 
BRANCH  26  29
HETATM   29  C20 UNL     1       5.060  -0.499  -0.234  1.00  0.00     0.247 C 
HETATM   30  O4  UNL     1       4.921  -1.747  -0.427  1.00  0.00    -0.271 OA
HETATM   31  N4  UNL     1       5.995   0.166  -1.028  1.00  0.00    -0.310 N 
ATOM     32  H4  UNL     1       6.535  -0.396  -1.686  1.00  0.00     0.170 HD
BRANCH  31  33
HETATM   33  C21 UNL     1       6.256   1.562  -0.994  1.00  0.00     0.124 A 
HETATM   34  C22 UNL     1       7.221   2.203  -1.785  1.00  0.00     0.139 A 
HETATM   35  N5  UNL     1       7.217   3.515  -1.543  1.00  0.00    -0.354 N 
HETATM   36  C23 UNL     1       8.046   4.552  -2.135  1.00  0.00     0.156 C 
HETATM   37  C24 UNL     1       6.264   3.718  -0.610  1.00  0.00     0.183 A 
HETATM   38  N6  UNL     1       5.695   2.547  -0.288  1.00  0.00    -0.337 N 
ATOM     39  H6  UNL     1       4.946   2.427   0.394  1.00  0.00     0.168 HD
ENDBRANCH  31  33
ENDBRANCH  26  29
ENDBRANCH   1  22
TORSDOF 10
