REMARK  12 active torsions:
REMARK  status: ('A' for Active; 'I' for Inactive)
REMARK    1  A    between atoms: N1_6  and  C6_8 
REMARK    2  A    between atoms: C6_8  and  C7_9 
REMARK    3  A    between atoms: C7_9  and  C8_10 
REMARK    4  A    between atoms: C8_10  and  C9_11 
REMARK    5  A    between atoms: C9_11  and  C10_12 
REMARK    6  A    between atoms: C10_12  and  O1_13 
REMARK    7  A    between atoms: O1_13  and  N2_14 
REMARK    8  A    between atoms: C12_19  and  C13_20 
REMARK    9  A    between atoms: C13_20  and  C14_21 
REMARK   10  A    between atoms: C14_21  and  C15_22 
REMARK   11  A    between atoms: C15_22  and  C16_23 
REMARK   12  A    between atoms: C16_23  and  N4_24 
ROOT
HETATM    1  N2  UNL     1       4.265  -0.450  -0.280  1.00  0.00    -0.211 N 
HETATM    2  C11 UNL     1       4.830   0.801   0.165  1.00  0.00     0.196 C 
HETATM    3  S1  UNL     1       4.138   2.278   0.218  1.00  0.00    -0.039 SA
HETATM    4  N3  UNL     1       6.190   0.487   0.584  1.00  0.00    -0.355 N 
ATOM      5  H3  UNL     1       6.755   0.946   1.299  1.00  0.00     0.162 HD
HETATM    6  C12 UNL     1       6.541  -0.622  -0.252  1.00  0.00     0.146 C 
HETATM    7  C17 UNL     1       5.290  -1.489  -0.070  1.00  0.00     0.250 C 
HETATM    8  C18 UNL     1       5.214  -1.994   1.298  1.00  0.00     0.089 C 
HETATM    9  N5  UNL     1       5.154  -2.379   2.377  1.00  0.00    -0.195 NA
ENDROOT
BRANCH   1  10
HETATM   10  O1  UNL     1       3.021  -0.591  -0.789  1.00  0.00    -0.274 OA
BRANCH  10  11
HETATM   11  C10 UNL     1       2.342  -1.534  -0.022  1.00  0.00     0.201 C 
BRANCH  11  12
HETATM   12  C9  UNL     1       0.937  -1.748  -0.532  1.00  0.00     0.029 C 
BRANCH  12  13
HETATM   13  C8  UNL     1       0.111  -0.500  -0.508  1.00  0.00     0.004 C 
BRANCH  13  14
HETATM   14  C7  UNL     1      -0.051   0.092   0.857  1.00  0.00     0.020 C 
BRANCH  14  15
HETATM   15  C6  UNL     1      -0.906   1.341   0.713  1.00  0.00     0.121 C 
BRANCH  15  16
HETATM   16  N1  UNL     1      -2.205   1.062   0.168  1.00  0.00    -0.376 N 
HETATM   17  C5  UNL     1      -3.205   0.723   0.909  1.00  0.00     0.114 A 
HETATM   18  C4  UNL     1      -4.432   0.467   0.326  1.00  0.00     0.035 A 
HETATM   19  N6  UNL     1      -3.068   0.618   2.226  1.00  0.00    -0.338 N 
HETATM   20  C3  UNL     1      -4.621   0.564  -1.047  1.00  0.00     0.025 A 
HETATM   21  C20 UNL     1      -5.502   0.105   1.108  1.00  0.00     0.055 A 
HETATM   22  C2  UNL     1      -5.834   0.314  -1.653  1.00  0.00    -0.054 A 
HETATM   23  C1  UNL     1      -6.046   0.415  -3.121  1.00  0.00     0.049 C 
HETATM   24  C22 UNL     1      -6.912  -0.052  -0.852  1.00  0.00    -0.040 A 
HETATM   25  C21 UNL     1      -6.734  -0.151   0.512  1.00  0.00     0.004 A 
HETATM   26  C23 UNL     1      -8.232  -0.328  -1.478  1.00  0.00     0.070 C 
HETATM   27  C26 UNL     1      -7.836  -0.537   1.443  1.00  0.00     0.313 C 
HETATM   28  N8  UNL     1      -9.130  -0.381   0.801  1.00  0.00     0.088 N 
HETATM   29  C24 UNL     1      -9.075  -1.072  -0.467  1.00  0.00     0.277 C 
HETATM   30  C25 UNL     1      -9.469   1.012   0.668  1.00  0.00     0.310 C 
HETATM   31  N7  UNL     1      -5.335   0.006   2.441  1.00  0.00    -0.351 N 
HETATM   32  C19 UNL     1      -4.139   0.259   2.985  1.00  0.00     0.182 A 
ATOM     33  H7  UNL     1      -6.120  -0.262   3.035  1.00  0.00     0.166 HD
ATOM     34  H6  UNL     1      -2.167   0.805   2.665  1.00  0.00     0.168 HD
ATOM     35  H1  UNL     1      -2.342   1.134  -0.840  1.00  0.00     0.161 HD
ENDBRANCH  15  16
ENDBRANCH  14  15
ENDBRANCH  13  14
ENDBRANCH  12  13
ENDBRANCH  11  12
ENDBRANCH  10  11
ENDBRANCH   1  10
BRANCH   6  36
HETATM   36  C13 UNL     1       7.786  -1.327  -0.081  1.00  0.00     0.001 C 
BRANCH  36  37
HETATM   37  C14 UNL     1       9.083  -0.733  -0.318  1.00  0.00    -0.004 C 
BRANCH  37  38
HETATM   38  C15 UNL     1       9.709   0.437   0.253  1.00  0.00    -0.000 C 
BRANCH  38  39
HETATM   39  C16 UNL     1       9.284   1.816  -0.013  1.00  0.00     0.257 C 
BRANCH  39  40
HETATM   40  N4  UNL     1      10.149   2.785   0.722  1.00  0.00    -0.076 N 
ATOM     41  H43 UNL     1      10.177   2.584   1.722  1.00  0.00     0.274 HD
ATOM     42  H42 UNL     1      11.137   2.646   0.510  1.00  0.00     0.274 HD
ATOM     43  H41 UNL     1       9.854   3.744   0.537  1.00  0.00     0.274 HD
ENDBRANCH  39  40
ENDBRANCH  38  39
ENDBRANCH  37  38
ENDBRANCH  36  37
ENDBRANCH   6  36
TORSDOF 12
