REMARK  15 active torsions:
REMARK  status: ('A' for Active; 'I' for Inactive)
REMARK    1  A    between atoms: C2_2  and  O1_3 
REMARK    2  A    between atoms: O1_3  and  C3_4 
REMARK    3  A    between atoms: C3_4  and  C18_29 
REMARK       I    between atoms: N1_5  and  C4_7 
REMARK    4  A    between atoms: C4_7  and  C5_9 
REMARK    5  A    between atoms: C11_15  and  C12_16 
REMARK    6  A    between atoms: C12_16  and  C13_17 
REMARK       I    between atoms: C13_17  and  N2_19 
REMARK    7  A    between atoms: N2_19  and  C14_21 
REMARK    8  A    between atoms: C14_21  and  O4_22 
REMARK    9  A    between atoms: C14_21  and  C15_24 
REMARK   10  A    between atoms: C18_29  and  C19_31 
REMARK   11  A    between atoms: C19_31  and  C20_32 
REMARK   12  A    between atoms: C20_32  and  C21_33 
REMARK   13  A    between atoms: C21_33  and  N4_34 
REMARK   14  A    between atoms: N4_34  and  C22_35 
REMARK   15  A    between atoms: N4_34  and  C24_37 
ROOT
HETATM    1  C5  UNL     1       2.050  -0.839  -0.703  1.00  0.00     0.050 C 
HETATM    2  C6  UNL     1       1.156  -1.969  -1.292  1.00  0.00     0.024 C 
HETATM    3  C7  UNL     1       1.937  -2.281  -2.549  1.00  0.00    -0.012 C 
HETATM    4  C8  UNL     1       1.766  -1.105  -3.480  1.00  0.00     0.009 C 
HETATM    5  C9  UNL     1       2.279   0.153  -2.811  1.00  0.00    -0.012 C 
HETATM    6  C10 UNL     1       3.690  -0.045  -2.294  1.00  0.00     0.016 C 
HETATM    7  C11 UNL     1       3.411  -1.078  -1.178  1.00  0.00    -0.015 C 
HETATM    8  C16 UNL     1       3.335  -2.397  -1.991  1.00  0.00     0.016 C 
HETATM    9  C17 UNL     1       1.552   0.386  -1.506  1.00  0.00     0.024 C 
ENDROOT
BRANCH   1  10
HETATM   10  C4  UNL     1       1.775  -0.685   0.718  1.00  0.00     0.233 C 
HETATM   11  N1  UNL     1       0.904   0.303   1.170  1.00  0.00    -0.309 N 
HETATM   12  C3  UNL     1      -0.324   0.312   1.442  1.00  0.00     0.135 C 
ATOM     13  H1  UNL     1       1.356   1.207   1.309  1.00  0.00     0.170 HD
HETATM   14  O2  UNL     1       2.321  -1.447   1.548  1.00  0.00    -0.272 OA
BRANCH  12  15
HETATM   15  O1  UNL     1      -0.830   1.566   1.882  1.00  0.00    -0.338 OA
BRANCH  15  16
HETATM   16  C2  UNL     1       0.091   2.421   2.578  1.00  0.00     0.172 C 
HETATM   17  C1  UNL     1      -0.717   3.670   2.918  1.00  0.00     0.034 C 
ENDBRANCH  15  16
ENDBRANCH  12  15
BRANCH  12  18
HETATM   18  C18 UNL     1      -1.303  -0.785   1.370  1.00  0.00     0.133 C 
HETATM   19  S1  UNL     1      -2.178  -1.025   2.960  1.00  0.00    -0.084 SA
BRANCH  18  20
HETATM   20  C19 UNL     1      -2.402  -0.368   0.353  1.00  0.00     0.029 C 
BRANCH  20  21
HETATM   21  C20 UNL     1      -3.415  -1.452   0.251  1.00  0.00     0.046 C 
BRANCH  21  22
HETATM   22  C21 UNL     1      -4.492  -1.274  -0.758  1.00  0.00     0.063 C 
BRANCH  22  23
HETATM   23  N4  UNL     1      -5.344  -0.166  -0.739  1.00  0.00    -0.375 N 
BRANCH  23  24
HETATM   24  C22 UNL     1      -4.860   1.078  -1.171  1.00  0.00     0.058 C 
HETATM   25  C23 UNL     1      -5.900   2.192  -1.069  1.00  0.00     0.055 C 
ENDBRANCH  23  24
BRANCH  23  26
HETATM   26  C24 UNL     1      -6.669  -0.439  -1.208  1.00  0.00     0.122 C 
HETATM   27  C25 UNL     1      -7.412  -1.349  -0.246  1.00  0.00     0.027 C 
ENDBRANCH  23  26
ENDBRANCH  22  23
ENDBRANCH  21  22
ENDBRANCH  20  21
ENDBRANCH  18  20
ENDBRANCH  12  18
ENDBRANCH   1  10
BRANCH   7  28
HETATM   28  C12 UNL     1       4.535  -1.205  -0.256  1.00  0.00     0.113 C 
BRANCH  28  29
HETATM   29  C13 UNL     1       4.892  -0.061   0.610  1.00  0.00     0.224 C 
HETATM   30  O3  UNL     1       4.300   1.009   0.484  1.00  0.00    -0.273 OA
HETATM   31  N2  UNL     1       5.908  -0.257   1.553  1.00  0.00    -0.303 N 
ATOM     32  H2  UNL     1       6.319  -1.190   1.556  1.00  0.00     0.171 HD
BRANCH  31  33
HETATM   33  C14 UNL     1       6.443   0.623   2.486  1.00  0.00     0.209 C 
BRANCH  33  34
HETATM   34  O4  UNL     1       7.406   0.143   3.251  1.00  0.00    -0.342 OA
ATOM     35  H4  UNL     1       7.772   0.745   3.889  1.00  0.00     0.219 HD
ENDBRANCH  33  34
BRANCH  33  36
HETATM   36  C15 UNL     1       6.136   1.988   2.781  1.00  0.00     0.305 C 
HETATM   37  N3  UNL     1       6.864   2.699   3.834  1.00  0.00    -0.054 NA
HETATM   38  O5  UNL     1       5.277   2.708   2.231  1.00  0.00    -0.267 OA
ENDBRANCH  33  36
ENDBRANCH  31  33
ENDBRANCH  28  29
ENDBRANCH   7  28
TORSDOF 15
