REMARK  0 active torsions:
REMARK  status: ('A' for Active; 'I' for Inactive)
ROOT
HETATM    1  C1  UNL     1       4.285   0.917   0.330  1.00  0.00     0.018 C 
HETATM    2  C2  UNL     1       3.132   0.559   0.244  1.00  0.00    -0.078 C 
HETATM    3  C3  UNL     1       1.762   0.137   0.120  1.00  0.00     0.017 A 
HETATM    4  C4  UNL     1       1.432  -1.195  -0.037  1.00  0.00     0.021 A 
HETATM    5  C5  UNL     1       0.120  -1.613  -0.157  1.00  0.00     0.014 A 
HETATM    6  C6  UNL     1      -0.922  -0.708  -0.124  1.00  0.00    -0.023 A 
HETATM    7  C7  UNL     1      -2.245  -1.061  -0.238  1.00  0.00     0.029 A 
HETATM    8  C8  UNL     1      -3.279  -0.142  -0.204  1.00  0.00     0.088 A 
HETATM    9  N1  UNL     1      -2.944   1.150  -0.051  1.00  0.00    -0.374 N 
ATOM     10  H1  UNL     1      -3.679   1.857  -0.021  1.00  0.00     0.164 HD
HETATM   11  C9  UNL     1      -1.641   1.535   0.065  1.00  0.00     0.100 A 
HETATM   12  C10 UNL     1      -0.609   0.622   0.032  1.00  0.00    -0.009 A 
HETATM   13  C11 UNL     1       0.713   1.038   0.152  1.00  0.00     0.034 A 
ENDROOT
TORSDOF 0
