REMARK  0 active torsions:
REMARK  status: ('A' for Active; 'I' for Inactive)
ROOT
HETATM    1  C1  UNL     1      -3.430  -0.133   0.547  1.00  0.00     0.023 C 
HETATM    2  C2  UNL     1      -2.173  -0.114   0.142  1.00  0.00    -0.046 C 
HETATM    3  C3  UNL     1      -1.421  -1.363   0.176  1.00  0.00     0.011 C 
HETATM    4  C4  UNL     1      -0.091  -1.545   0.107  1.00  0.00     0.013 C 
HETATM    5  C5  UNL     1       0.981  -0.564  -0.020  1.00  0.00    -0.023 A 
HETATM    6  C6  UNL     1       2.249  -1.078   0.143  1.00  0.00     0.029 A 
HETATM    7  C7  UNL     1       3.384  -0.305   0.057  1.00  0.00     0.088 A 
HETATM    8  N1  UNL     1       3.234   1.020  -0.199  1.00  0.00    -0.374 N 
ATOM      9  H1  UNL     1       4.057   1.618  -0.268  1.00  0.00     0.164 HD
HETATM   10  C8  UNL     1       2.009   1.551  -0.363  1.00  0.00     0.099 A 
HETATM   11  C9  UNL     1       0.868   0.789  -0.280  1.00  0.00    -0.011 A 
HETATM   12  C10 UNL     1      -0.365   1.546  -0.486  1.00  0.00     0.014 C 
HETATM   13  C11 UNL     1      -1.638   1.169  -0.310  1.00  0.00     0.011 C 
ENDROOT
TORSDOF 0
