REMARK  0 active torsions:
REMARK  status: ('A' for Active; 'I' for Inactive)
ROOT
HETATM    1  N1  UNL     1      -4.651  -1.325  -0.141  1.00  0.00    -0.192 NA
HETATM    2  C1  UNL     1      -3.483  -1.373  -0.115  1.00  0.00     0.088 C 
HETATM    3  C2  UNL     1      -2.049  -1.419  -0.084  1.00  0.00     0.105 C 
HETATM    4  C3  UNL     1      -1.300  -0.332  -0.038  1.00  0.00    -0.015 A 
HETATM    5  C4  UNL     1      -1.745   1.055  -0.010  1.00  0.00     0.014 A 
HETATM    6  C5  UNL     1      -0.682   1.859   0.036  1.00  0.00     0.013 A 
HETATM    7  C6  UNL     1       0.556   1.068   0.042  1.00  0.00    -0.025 A 
HETATM    8  C7  UNL     1       1.885   1.435   0.081  1.00  0.00     0.012 A 
HETATM    9  C8  UNL     1       2.823   0.431   0.075  1.00  0.00     0.001 A 
HETATM   10  C9  UNL     1       2.434  -0.908   0.029  1.00  0.00     0.001 A 
HETATM   11  C10 UNL     1       1.123  -1.264  -0.010  1.00  0.00     0.013 A 
HETATM   12  C11 UNL     1       0.156  -0.261  -0.004  1.00  0.00    -0.015 A 
ENDROOT
TORSDOF 0
