REMARK  15 active torsions:
REMARK  status: ('A' for Active; 'I' for Inactive)
REMARK    1  A    between atoms: N1_1  and  N2_4 
REMARK    2  A    between atoms: C1_6  and  N3_7 
REMARK    3  A    between atoms: C1_6  and  C5_17 
REMARK    4  A    between atoms: N3_7  and  C2_9 
REMARK    5  A    between atoms: C2_9  and  C3_10 
REMARK    6  A    between atoms: C3_10  and  S1_11 
REMARK    7  A    between atoms: S1_11  and  N4_12 
REMARK    8  A    between atoms: C5_17  and  C6_18 
REMARK    9  A    between atoms: C5_17  and  N10_28 
REMARK   10  A    between atoms: C6_18  and  S2_19 
REMARK   11  A    between atoms: S2_19  and  S3_20 
REMARK   12  A    between atoms: S3_20  and  C7_21 
REMARK   13  A    between atoms: C7_21  and  C8_22 
REMARK   14  A    between atoms: C8_22  and  N7_23 
REMARK   15  A    between atoms: N10_28  and  C10_30 
REMARK       I    between atoms: N12_37  and  C14_38 
ROOT
HETATM    1  C5  UNL     1      -0.538   0.154   0.265  1.00  0.00     0.162 C 
ENDROOT
BRANCH   1   2
HETATM    2  C1  UNL     1       0.645   0.577  -0.615  1.00  0.00     0.115 C 
HETATM    3  N2  UNL     1       0.351   1.059  -1.749  1.00  0.00    -0.294 N 
ATOM      4  H2  UNL     1      -0.647   1.109  -1.956  1.00  0.00     0.187 HD
BRANCH   3   5
HETATM    5  N1  UNL     1       1.173   1.521  -2.733  1.00  0.00    -0.344 N 
ATOM      6  H12 UNL     1       2.166   1.463  -2.507  1.00  0.00     0.176 HD
ATOM      7  H11 UNL     1       0.936   1.909  -3.646  1.00  0.00     0.176 HD
ENDBRANCH   3   5
BRANCH   2   8
HETATM    8  N3  UNL     1       1.929   0.386  -0.060  1.00  0.00    -0.376 N 
ATOM      9  H3  UNL     1       2.111  -0.462   0.476  1.00  0.00     0.160 HD
BRANCH   8  10
HETATM   10  C2  UNL     1       2.973   1.328  -0.220  1.00  0.00     0.133 C 
BRANCH  10  11
HETATM   11  C3  UNL     1       2.740   2.649   0.486  1.00  0.00     0.117 C 
BRANCH  11  12
HETATM   12  S1  UNL     1       4.182   3.702   0.163  1.00  0.00    -0.052 SA
BRANCH  12  13
HETATM   13  N4  UNL     1       5.592   2.997   0.951  1.00  0.00    -0.307 N 
HETATM   14  C4  UNL     1       6.535   2.374   0.303  1.00  0.00     0.206 C 
HETATM   15  N5  UNL     1       7.592   1.872   1.102  1.00  0.00    -0.066 NA
HETATM   16  N6  UNL     1       6.482   2.222  -1.101  1.00  0.00    -0.066 NA
ATOM     17  H4  UNL     1       5.674   3.081   1.964  1.00  0.00     0.176 HD
ENDBRANCH  12  13
ENDBRANCH  11  12
ENDBRANCH  10  11
ENDBRANCH   8  10
ENDBRANCH   2   8
ENDBRANCH   1   2
BRANCH   1  18
HETATM   18  C6  UNL     1      -0.549   1.074   1.454  1.00  0.00     0.119 C 
BRANCH  18  19
HETATM   19  S2  UNL     1      -1.843   0.736   2.605  1.00  0.00    -0.095 SA
BRANCH  19  20
HETATM   20  S3  UNL     1      -3.777   1.172   2.109  1.00  0.00    -0.096 SA
BRANCH  20  21
HETATM   21  C7  UNL     1      -4.795  -0.061   1.375  1.00  0.00     0.105 C 
BRANCH  21  22
HETATM   22  C8  UNL     1      -4.383  -0.432  -0.018  1.00  0.00     0.133 C 
BRANCH  22  23
HETATM   23  N7  UNL     1      -4.383   0.686  -0.919  1.00  0.00    -0.366 N 
HETATM   24  C9  UNL     1      -5.347   1.016  -1.684  1.00  0.00     0.196 C 
HETATM   25  N8  UNL     1      -6.580   0.316  -1.758  1.00  0.00    -0.067 NA
HETATM   26  N9  UNL     1      -5.133   2.178  -2.511  1.00  0.00    -0.067 NA
ATOM     27  H7  UNL     1      -3.543   1.263  -0.949  1.00  0.00     0.161 HD
ENDBRANCH  22  23
ENDBRANCH  21  22
ENDBRANCH  20  21
ENDBRANCH  19  20
ENDBRANCH  18  19
ENDBRANCH   1  18
BRANCH   1  28
HETATM   28  N10 UNL     1      -0.245  -1.164   0.733  1.00  0.00    -0.362 N 
ATOM     29  H10 UNL     1       0.135  -1.215   1.678  1.00  0.00     0.162 HD
BRANCH  28  30
HETATM   30  C10 UNL     1      -0.388  -2.276   0.148  1.00  0.00     0.128 A 
HETATM   31  C11 UNL     1      -0.891  -2.350  -1.124  1.00  0.00     0.056 A 
HETATM   32  C12 UNL     1      -1.041  -3.563  -1.786  1.00  0.00     0.079 A 
HETATM   33  C13 UNL     1      -0.663  -4.703  -1.111  1.00  0.00     0.260 A 
HETATM   34  O1  UNL     1      -0.789  -5.820  -1.689  1.00  0.00    -0.267 OA
HETATM   35  N11 UNL     1      -0.177  -4.605   0.126  1.00  0.00    -0.254 N 
HETATM   36  N12 UNL     1      -0.041  -3.419   0.745  1.00  0.00    -0.189 N 
ATOM     37  H11 UNL     1       0.100  -5.455   0.618  1.00  0.00     0.191 HD
HETATM   38  C14 UNL     1       0.486  -3.401   2.052  1.00  0.00     0.355 C 
HETATM   39  N13 UNL     1       0.664  -2.198   2.778  1.00  0.00    -0.038 NA
HETATM   40  O2  UNL     1       0.816  -4.513   2.604  1.00  0.00    -0.249 OA
ENDBRANCH  28  30
ENDBRANCH   1  28
TORSDOF 15
