REMARK  16 active torsions:
REMARK  status: ('A' for Active; 'I' for Inactive)
REMARK    1  A    between atoms: N1_1  and  C1_4 
REMARK    2  A    between atoms: C6_16  and  C7_17 
REMARK    3  A    between atoms: C7_17  and  O2_18 
REMARK    4  A    between atoms: C7_17  and  N5_20 
REMARK    5  A    between atoms: N5_20  and  C8_22 
REMARK    6  A    between atoms: C8_22  and  C9_23 
REMARK    7  A    between atoms: C9_23  and  C10_24 
REMARK    8  A    between atoms: C10_24  and  N6_25 
REMARK    9  A    between atoms: N6_25  and  C11_27 
REMARK   10  A    between atoms: C11_27  and  C12_28 
REMARK   11  A    between atoms: C12_28  and  O3_29 
REMARK   12  A    between atoms: O3_29  and  C13_30 
REMARK   13  A    between atoms: C13_30  and  C14_31 
REMARK   14  A    between atoms: C14_31  and  O4_32 
REMARK   15  A    between atoms: O4_32  and  S1_33 
REMARK   16  A    between atoms: S1_33  and  N7_34 
REMARK       I    between atoms: N8_41  and  C16_42 
ROOT
HETATM    1  C1  UNL     1      -8.377  -0.971   1.499  1.00  0.00     0.680 A 
HETATM    2  N2  UNL     1      -7.537  -0.064   0.975  1.00  0.00    -0.174 N 
ATOM      3  H2  UNL     1      -7.689   0.933   1.128  1.00  0.00     0.186 HD
HETATM    4  C2  UNL     1      -6.496  -0.491   0.248  1.00  0.00     0.166 A 
HETATM    5  C3  UNL     1      -6.245  -1.848   0.014  1.00  0.00     0.147 A 
HETATM    6  C4  UNL     1      -7.117  -2.757   0.559  1.00  0.00     0.290 A 
HETATM    7  O1  UNL     1      -6.899  -3.971   0.351  1.00  0.00    -0.265 OA
HETATM    8  N3  UNL     1      -8.148  -2.281   1.279  1.00  0.00    -0.154 N 
ATOM      9  H3  UNL     1      -8.798  -2.954   1.685  1.00  0.00     0.187 HD
HETATM   10  N4  UNL     1      -5.157  -2.431  -0.699  1.00  0.00    -0.357 N 
ATOM     11  H4  UNL     1      -5.323  -3.346  -1.118  1.00  0.00     0.165 HD
HETATM   12  C5  UNL     1      -3.864  -1.869  -0.886  1.00  0.00     0.110 C 
HETATM   13  C6  UNL     1      -3.454  -0.584  -0.772  1.00  0.00     0.098 C 
HETATM   14  C15 UNL     1      -4.258   0.572  -0.411  1.00  0.00     0.273 C 
HETATM   15  O7  UNL     1      -3.745   1.675  -0.194  1.00  0.00    -0.266 OA
HETATM   16  N8  UNL     1      -5.701   0.577  -0.265  1.00  0.00    -0.214 N 
HETATM   17  C16 UNL     1      -6.403   1.707  -0.712  1.00  0.00     0.343 C 
HETATM   18  N9  UNL     1      -5.672   2.835  -1.149  1.00  0.00    -0.039 NA
HETATM   19  O8  UNL     1      -7.634   1.786  -0.754  1.00  0.00    -0.250 OA
ENDROOT
BRANCH  13  20
HETATM   20  C7  UNL     1      -2.054  -0.388  -1.037  1.00  0.00     0.153 C 
BRANCH  20  21
HETATM   21  O2  UNL     1      -1.410  -1.483  -1.330  1.00  0.00    -0.346 OA
ATOM     22  H2  UNL     1      -0.485  -1.354  -1.505  1.00  0.00     0.219 HD
ENDBRANCH  20  21
BRANCH  20  23
HETATM   23  N5  UNL     1      -1.284   0.792  -1.028  1.00  0.00    -0.370 N 
ATOM     24  H5  UNL     1      -1.730   1.686  -0.822  1.00  0.00     0.161 HD
BRANCH  23  25
HETATM   25  C8  UNL     1       0.157   0.746  -1.313  1.00  0.00     0.123 C 
BRANCH  25  26
HETATM   26  C9  UNL     1       0.920  -0.039  -0.300  1.00  0.00     0.039 C 
BRANCH  26  27
HETATM   27  C10 UNL     1       2.400  -0.109  -0.696  1.00  0.00     0.115 C 
BRANCH  27  28
HETATM   28  N6  UNL     1       3.109  -0.872   0.294  1.00  0.00    -0.419 N 
ATOM     29  H6  UNL     1       3.460  -1.812   0.109  1.00  0.00     0.153 HD
BRANCH  28  30
HETATM   30  C11 UNL     1       3.289  -0.225   1.556  1.00  0.00     0.140 C 
BRANCH  30  31
HETATM   31  C12 UNL     1       4.321   0.908   1.446  1.00  0.00     0.186 C 
BRANCH  31  32
HETATM   32  O3  UNL     1       5.525   0.396   1.039  1.00  0.00    -0.387 OA
BRANCH  32  33
HETATM   33  C13 UNL     1       6.582   1.253   0.927  1.00  0.00     0.195 C 
BRANCH  33  34
HETATM   34  C14 UNL     1       7.789   0.428   0.444  1.00  0.00     0.218 C 
BRANCH  34  35
HETATM   35  O4  UNL     1       8.925   1.178   0.309  1.00  0.00    -0.258 OA
BRANCH  35  36
HETATM   36  S1  UNL     1      10.143   0.122  -0.204  1.00  0.00     0.355 S 
HETATM   37  O5  UNL     1      11.404   0.942  -0.351  1.00  0.00    -0.176 OA
HETATM   38  O6  UNL     1      10.333  -0.971   0.819  1.00  0.00    -0.176 OA
BRANCH  36  39
HETATM   39  N7  UNL     1       9.780  -0.635  -1.686  1.00  0.00    -0.306 N 
ATOM     40  H72 UNL     1       8.915  -0.460  -2.198  1.00  0.00     0.171 HD
ATOM     41  H71 UNL     1      10.514  -1.272  -1.995  1.00  0.00     0.171 HD
ENDBRANCH  36  39
ENDBRANCH  35  36
ENDBRANCH  34  35
ENDBRANCH  33  34
ENDBRANCH  32  33
ENDBRANCH  31  32
ENDBRANCH  30  31
ENDBRANCH  28  30
ENDBRANCH  27  28
ENDBRANCH  26  27
ENDBRANCH  25  26
ENDBRANCH  23  25
ENDBRANCH  20  23
ENDBRANCH  13  20
BRANCH   1  42
HETATM   42  N1  UNL     1      -9.371  -0.551   2.193  1.00  0.00    -0.234 N 
ATOM     43  H12 UNL     1      -9.544   0.440   2.359  1.00  0.00     0.174 HD
ATOM     44  H11 UNL     1     -10.009  -1.240   2.591  1.00  0.00     0.174 HD
ENDBRANCH   1  42
TORSDOF 16
