REMARK  15 active torsions:
REMARK  status: ('A' for Active; 'I' for Inactive)
REMARK    1  A    between atoms: N1_1  and  C1_5 
REMARK    2  A    between atoms: C1_5  and  C2_6 
REMARK       I    between atoms: C2_6  and  N2_8 
REMARK    3  A    between atoms: N2_8  and  C3_10 
REMARK    4  A    between atoms: C3_10  and  C4_11 
REMARK    5  A    between atoms: C4_11  and  O2_12 
REMARK    6  A    between atoms: O2_12  and  C5_13 
REMARK    7  A    between atoms: C5_13  and  C6_14 
REMARK    8  A    between atoms: C6_14  and  N3_15 
REMARK       I    between atoms: N3_15  and  C7_17 
REMARK    9  A    between atoms: C7_17  and  C8_19 
REMARK   10  A    between atoms: C8_19  and  O4_20 
REMARK   11  A    between atoms: O4_20  and  C9_21 
REMARK   12  A    between atoms: C12_24  and  S1_25 
REMARK   13  A    between atoms: S1_25  and  N4_28 
REMARK   14  A    between atoms: N4_28  and  C13_30 
REMARK   15  A    between atoms: C14_33  and  O7_34 
ROOT
HETATM    1  C9  UNL     1      -1.143  -0.036   0.457  1.00  0.00     0.069 A 
HETATM    2  C10 UNL     1      -1.719   1.204   0.637  1.00  0.00     0.038 A 
HETATM    3  C11 UNL     1      -3.033   1.310   1.036  1.00  0.00     0.028 A 
HETATM    4  C12 UNL     1      -3.770   0.163   1.255  1.00  0.00     0.080 A 
HETATM    5  C17 UNL     1      -3.183  -1.067   1.071  1.00  0.00     0.028 A 
HETATM    6  C18 UNL     1      -1.874  -1.162   0.673  1.00  0.00     0.038 A 
ENDROOT
BRANCH   1   7
HETATM    7  O4  UNL     1       0.203  -0.111   0.048  1.00  0.00    -0.342 OA
BRANCH   7   8
HETATM    8  C8  UNL     1       0.930   1.062  -0.167  1.00  0.00     0.278 C 
BRANCH   8   9
HETATM    9  C7  UNL     1       2.346   0.738  -0.599  1.00  0.00     0.241 C 
HETATM   10  N3  UNL     1       2.717  -0.577  -0.718  1.00  0.00    -0.357 N 
ATOM     11  H3  UNL     1       1.974  -1.241  -0.499  1.00  0.00     0.162 HD
HETATM   12  O3  UNL     1       3.042   1.735  -0.805  1.00  0.00    -0.271 OA
BRANCH  10  13
HETATM   13  C6  UNL     1       3.940  -1.181  -1.088  1.00  0.00     0.148 C 
BRANCH  13  14
HETATM   14  C5  UNL     1       5.142  -0.938  -0.273  1.00  0.00     0.187 C 
BRANCH  14  15
HETATM   15  O2  UNL     1       5.674   0.293  -0.135  1.00  0.00    -0.388 OA
BRANCH  15  16
HETATM   16  C4  UNL     1       6.254   0.800  -1.308  1.00  0.00     0.187 C 
BRANCH  16  17
HETATM   17  C3  UNL     1       7.381  -0.081  -1.802  1.00  0.00     0.148 C 
BRANCH  17  18
HETATM   18  N2  UNL     1       8.438  -0.203  -0.828  1.00  0.00    -0.358 N 
HETATM   19  C2  UNL     1       9.564  -0.989  -1.128  1.00  0.00     0.243 C 
HETATM   20  O1  UNL     1       9.654  -1.578  -2.225  1.00  0.00    -0.272 OA
ATOM     21  H2  UNL     1       8.369   0.276   0.070  1.00  0.00     0.162 HD
BRANCH  19  22
HETATM   22  C1  UNL     1      10.654  -1.124  -0.143  1.00  0.00     0.331 C 
BRANCH  22  23
HETATM   23  N1  UNL     1      10.370  -0.371   1.064  1.00  0.00    -0.071 N 
ATOM     24  H13 UNL     1      10.172   0.608   0.857  1.00  0.00     0.274 HD
ATOM     25  H12 UNL     1       9.469  -0.632   1.465  1.00  0.00     0.274 HD
ATOM     26  H11 UNL     1      11.124  -0.464   1.745  1.00  0.00     0.274 HD
ENDBRANCH  22  23
ENDBRANCH  19  22
ENDBRANCH  17  18
ENDBRANCH  16  17
ENDBRANCH  15  16
ENDBRANCH  14  15
ENDBRANCH  13  14
ENDBRANCH  10  13
ENDBRANCH   8   9
ENDBRANCH   7   8
ENDBRANCH   1   7
BRANCH   4  27
HETATM   27  S1  UNL     1      -5.425   0.278   1.757  1.00  0.00     0.276 S 
HETATM   28  O5  UNL     1      -5.564   1.543   2.590  1.00  0.00    -0.200 OA
HETATM   29  O6  UNL     1      -5.802  -0.871   2.676  1.00  0.00    -0.200 OA
BRANCH  27  30
HETATM   30  N4  UNL     1      -6.444   0.322   0.372  1.00  0.00    -0.112 N 
ATOM     31  H4  UNL     1      -6.018   0.244  -0.551  1.00  0.00     0.197 HD
BRANCH  30  32
HETATM   32  C13 UNL     1      -7.734   0.451   0.453  1.00  0.00     0.697 A 
HETATM   33  N5  UNL     1      -8.481   0.479  -0.675  1.00  0.00    -0.168 N 
HETATM   34  C14 UNL     1      -9.818   0.610  -0.665  1.00  0.00     0.185 A 
ATOM     35  H5  UNL     1      -8.007   0.397  -1.574  1.00  0.00     0.186 HD
HETATM   36  C15 UNL     1     -10.493   0.725   0.536  1.00  0.00     0.165 A 
HETATM   37  N6  UNL     1     -11.914   0.865   0.569  1.00  0.00    -0.092 NA
HETATM   38  C16 UNL     1      -9.740   0.698   1.690  1.00  0.00     0.288 A 
HETATM   39  O8  UNL     1     -10.303   0.797   2.789  1.00  0.00    -0.265 OA
HETATM   40  N7  UNL     1      -8.390   0.563   1.621  1.00  0.00    -0.153 N 
ATOM     41  H7  UNL     1      -7.854   0.546   2.488  1.00  0.00     0.187 HD
BRANCH  34  42
HETATM   42  O7  UNL     1     -10.564   0.635  -1.845  1.00  0.00    -0.344 OA
ATOM     43  H7  UNL     1     -11.509   0.728  -1.838  1.00  0.00     0.219 HD
ENDBRANCH  34  42
ENDBRANCH  30  32
ENDBRANCH  27  30
ENDBRANCH   4  27
TORSDOF 15
