REMARK  15 active torsions:
REMARK  status: ('A' for Active; 'I' for Inactive)
REMARK    1  A    between atoms: N1_1  and  C1_4 
REMARK    2  A    between atoms: C7_15  and  C8_16 
REMARK    3  A    between atoms: C8_16  and  N4_17 
REMARK    4  A    between atoms: N4_17  and  C9_20 
REMARK    5  A    between atoms: C9_20  and  C10_21 
REMARK    6  A    between atoms: C10_21  and  N5_22 
REMARK    7  A    between atoms: C15_35  and  C16_36 
REMARK    8  A    between atoms: C16_36  and  C17_37 
REMARK       I    between atoms: C17_37  and  N9_39 
REMARK    9  A    between atoms: N9_39  and  C18_40 
REMARK   10  A    between atoms: C18_40  and  C19_41 
REMARK   11  A    between atoms: C19_41  and  N10_42 
REMARK   12  A    between atoms: N10_42  and  C20_43 
REMARK   13  A    between atoms: N10_42  and  C21_45 
REMARK   14  A    between atoms: C21_45  and  C22_46 
REMARK   15  A    between atoms: C22_46  and  O4_47 
ROOT
HETATM    1  C1  UNL     1       1.547  -1.096   2.872  1.00  0.00     0.679 A 
HETATM    2  N2  UNL     1       0.237  -1.044   3.009  1.00  0.00    -0.156 N 
ATOM      3  H2  UNL     1      -0.235  -1.636   3.692  1.00  0.00     0.187 HD
HETATM    4  C2  UNL     1      -0.480  -0.187   2.224  1.00  0.00     0.274 A 
HETATM    5  O1  UNL     1      -1.715  -0.145   2.387  1.00  0.00    -0.267 OA
HETATM    6  C3  UNL     1       0.147   0.592   1.319  1.00  0.00     0.084 A 
HETATM    7  C4  UNL     1       1.573   0.521   1.199  1.00  0.00     0.079 A 
HETATM    8  N3  UNL     1       2.223  -0.340   1.989  1.00  0.00    -0.190 N 
ATOM      9  H3  UNL     1       3.237  -0.424   1.921  1.00  0.00     0.184 HD
HETATM   10  C5  UNL     1       2.520   0.998   0.396  1.00  0.00     0.020 A 
HETATM   11  C6  UNL     1       3.699   0.555   0.894  1.00  0.00     0.025 A 
HETATM   12  C7  UNL     1       4.870   0.741   0.186  1.00  0.00    -0.032 A 
HETATM   13  C11 UNL     1       4.841   1.397  -1.049  1.00  0.00     0.011 A 
HETATM   14  C12 UNL     1       3.636   1.843  -1.526  1.00  0.00     0.031 A 
HETATM   15  C13 UNL     1       2.468   1.666  -0.837  1.00  0.00     0.047 A 
HETATM   16  N6  UNL     1       1.564   2.290  -1.487  1.00  0.00    -0.330 N 
ATOM     17  H6  UNL     1       1.894   2.656  -2.380  1.00  0.00     0.168 HD
HETATM   18  C14 UNL     1       0.218   2.580  -1.239  1.00  0.00     0.193 C 
HETATM   19  N7  UNL     1      -0.236   3.625  -2.085  1.00  0.00    -0.063 NA
HETATM   20  N8  UNL     1      -0.675   2.159  -0.434  1.00  0.00    -0.333 N 
ATOM     21  H8  UNL     1      -1.553   2.652  -0.595  1.00  0.00     0.168 HD
HETATM   22  C15 UNL     1      -0.833   1.192   0.645  1.00  0.00     0.039 C 
ENDROOT
BRANCH  22  23
HETATM   23  C16 UNL     1      -2.167   0.797   0.960  1.00  0.00     0.177 C 
BRANCH  23  24
HETATM   24  C17 UNL     1      -2.845   0.786  -0.471  1.00  0.00     0.296 C 
HETATM   25  O2  UNL     1      -2.204   0.912  -1.501  1.00  0.00    -0.257 OA
HETATM   26  N9  UNL     1      -4.230   0.619  -0.511  1.00  0.00    -0.386 NA
BRANCH  26  27
HETATM   27  C18 UNL     1      -5.573   0.457  -0.549  1.00  0.00     0.178 C 
BRANCH  27  28
HETATM   28  C19 UNL     1      -6.130  -0.741  -1.345  1.00  0.00     0.184 C 
BRANCH  28  29
HETATM   29  N10 UNL     1      -7.583  -0.724  -1.251  1.00  0.00    -0.352 N 
BRANCH  29  30
HETATM   30  C20 UNL     1      -8.254   0.039  -2.251  1.00  0.00     0.351 C 
HETATM   31  O3  UNL     1      -7.663   0.667  -3.162  1.00  0.00    -0.284 OA
ENDBRANCH  29  30
BRANCH  29  32
HETATM   32  C21 UNL     1      -8.361  -1.388  -0.254  1.00  0.00     0.151 C 
BRANCH  32  33
HETATM   33  C22 UNL     1      -8.799  -2.776  -0.625  1.00  0.00     0.183 C 
BRANCH  33  34
HETATM   34  O4  UNL     1      -7.745  -3.645  -0.882  1.00  0.00    -0.399 OA
ATOM     35  H4  UNL     1      -8.022  -4.523  -1.117  1.00  0.00     0.209 HD
ENDBRANCH  33  34
ENDBRANCH  32  33
ENDBRANCH  29  32
ENDBRANCH  28  29
ENDBRANCH  27  28
ENDBRANCH  26  27
ENDBRANCH  23  24
ENDBRANCH  22  23
BRANCH   1  36
HETATM   36  N1  UNL     1       2.267  -1.906   3.606  1.00  0.00    -0.234 N 
ATOM     37  H12 UNL     1       1.754  -2.479   4.276  1.00  0.00     0.174 HD
ATOM     38  H11 UNL     1       3.281  -1.946   3.500  1.00  0.00     0.174 HD
ENDBRANCH   1  36
BRANCH  12  39
HETATM   39  C8  UNL     1       6.164   0.263   0.739  1.00  0.00     0.270 C 
BRANCH  39  40
HETATM   40  N4  UNL     1       6.657  -0.903   0.083  1.00  0.00    -0.070 N 
ATOM     41  H42 UNL     1       5.954  -1.642   0.074  1.00  0.00     0.277 HD
ATOM     42  H41 UNL     1       6.746  -0.748  -0.921  1.00  0.00     0.277 HD
BRANCH  40  43
HETATM   43  C9  UNL     1       7.882  -1.369   0.639  1.00  0.00     0.260 C 
BRANCH  43  44
HETATM   44  C10 UNL     1       8.998  -0.392   0.358  1.00  0.00     0.257 C 
BRANCH  44  45
HETATM   45  N5  UNL     1       9.242  -0.166  -1.033  1.00  0.00    -0.078 N 
ATOM     46  H53 UNL     1       9.411  -1.049  -1.514  1.00  0.00     0.274 HD
ATOM     47  H52 UNL     1       8.385   0.126  -1.503  1.00  0.00     0.274 HD
ATOM     48  H51 UNL     1       9.996   0.494  -1.223  1.00  0.00     0.274 HD
ENDBRANCH  44  45
ENDBRANCH  43  44
ENDBRANCH  40  43
ENDBRANCH  39  40
ENDBRANCH  12  39
TORSDOF 15
