REMARK  7 active torsions:
REMARK  status: ('A' for Active; 'I' for Inactive)
REMARK    1  A    between atoms: O1_2  and  C2_3 
REMARK    2  A    between atoms: C2_3  and  O2_4 
REMARK    3  A    between atoms: O2_4  and  C3_5 
REMARK    4  A    between atoms: C9_12  and  C10_13 
REMARK    5  A    between atoms: C10_13  and  O3_14 
REMARK    6  A    between atoms: C13_21  and  O4_22 
REMARK    7  A    between atoms: C16_25  and  O5_26 
ROOT
HETATM    1  C3  UNL     1      -0.632   0.917  -0.013  1.00  0.00     0.162 C 
HETATM    2  C4  UNL     1       0.477   1.430  -0.932  1.00  0.00     0.044 C 
HETATM    3  C5  UNL     1       1.840   1.306  -0.377  1.00  0.00     0.020 C 
HETATM    4  C6  UNL     1       2.021   1.750   1.049  1.00  0.00     0.023 C 
HETATM    5  C7  UNL     1       3.533   1.503   1.194  1.00  0.00     0.061 C 
HETATM    6  S1  UNL     1       4.077   1.622   2.891  1.00  0.00    -0.092 SA
HETATM    7  C8  UNL     1       3.586   0.067   0.664  1.00  0.00     0.049 C 
HETATM    8  C9  UNL     1       2.489  -0.011  -0.388  1.00  0.00     0.056 C 
HETATM    9  N1  UNL     1       1.677  -1.149  -0.105  1.00  0.00    -0.375 N 
ATOM     10  H1  UNL     1       2.212  -1.922   0.291  1.00  0.00     0.160 HD
HETATM   11  C11 UNL     1       0.311  -1.456  -0.244  1.00  0.00     0.082 A 
HETATM   12  C12 UNL     1       0.049  -2.795  -0.439  1.00  0.00     0.176 A 
HETATM   13  F1  UNL     1       1.098  -3.653  -0.454  1.00  0.00    -0.201 F 
HETATM   14  C13 UNL     1      -1.239  -3.250  -0.611  1.00  0.00     0.111 A 
HETATM   15  C15 UNL     1      -2.252  -2.326  -0.583  1.00  0.00     0.077 A 
HETATM   16  C16 UNL     1      -2.012  -0.961  -0.386  1.00  0.00     0.082 A 
HETATM   17  C18 UNL     1      -0.735  -0.514  -0.215  1.00  0.00     0.034 A 
ENDROOT
BRANCH   1  18
HETATM   18  O2  UNL     1      -1.760   1.628  -0.344  1.00  0.00    -0.357 OA
BRANCH  18  19
HETATM   19  C2  UNL     1      -2.169   2.513   0.677  1.00  0.00     0.337 C 
BRANCH  19  20
HETATM   20  O1  UNL     1      -1.172   3.451   0.960  1.00  0.00    -0.372 OA
HETATM   21  C1  UNL     1      -1.574   4.322   1.965  1.00  0.00     0.204 C 
ENDBRANCH  19  20
ENDBRANCH  18  19
ENDBRANCH   1  18
BRANCH  16  22
HETATM   22  O5  UNL     1      -3.094  -0.110  -0.375  1.00  0.00    -0.355 OA
HETATM   23  C17 UNL     1      -4.418  -0.579  -0.553  1.00  0.00     0.210 C 
ENDBRANCH  16  22
BRANCH   8  24
HETATM   24  C10 UNL     1       3.121  -0.228  -1.750  1.00  0.00     0.195 C 
BRANCH  24  25
HETATM   25  O3  UNL     1       3.880  -1.388  -1.668  1.00  0.00    -0.398 OA
ATOM     26  H3  UNL     1       4.276  -1.524  -2.521  1.00  0.00     0.209 HD
ENDBRANCH  24  25
ENDBRANCH   8  24
BRANCH  14  27
HETATM   27  O4  UNL     1      -1.504  -4.619  -0.810  1.00  0.00    -0.353 OA
HETATM   28  C14 UNL     1      -2.849  -5.019  -0.981  1.00  0.00     0.210 C 
ENDBRANCH  14  27
TORSDOF 7
