REMARK  8 active torsions:
REMARK  status: ('A' for Active; 'I' for Inactive)
REMARK    1  A    between atoms: C2_3  and  C4_8 
REMARK    2  A    between atoms: C6_10  and  C7_11 
REMARK    3  A    between atoms: C7_11  and  C8_12 
REMARK    4  A    between atoms: C8_12  and  C9_13 
REMARK    5  A    between atoms: C9_13  and  C10_14 
REMARK    6  A    between atoms: C10_14  and  N4_15 
REMARK    7  A    between atoms: N5_19  and  C11_20 
REMARK    8  A    between atoms: C11_20  and  C12_21 
ROOT
HETATM    1  C1  UNL     1      -2.081  -3.449   3.787  1.00  0.00     0.231 C 
HETATM    2  N1  UNL     1      -1.803  -3.052   2.733  1.00  0.00    -0.413 NA
HETATM    3  C2  UNL     1      -1.496  -2.573   1.485  1.00  0.00     0.185 C 
HETATM    4  N2  UNL     1      -1.739  -3.292   0.445  1.00  0.00    -0.270 N 
ATOM      5  H2  UNL     1      -1.501  -2.915  -0.473  1.00  0.00     0.180 HD
HETATM    6  C3  UNL     1      -2.307  -4.550   0.513  1.00  0.00     0.184 C 
HETATM    7  N3  UNL     1      -2.795  -5.588   0.580  1.00  0.00    -0.172 NA
ENDROOT
BRANCH   3   8
HETATM    8  C4  UNL     1      -0.879  -1.204   1.379  1.00  0.00     0.162 C 
HETATM    9  C5  UNL     1      -0.650  -0.934  -0.064  1.00  0.00     0.058 C 
HETATM   10  C6  UNL     1       0.120   0.377  -0.324  1.00  0.00     0.087 C 
HETATM   11  N5  UNL     1      -0.915   1.437  -0.454  1.00  0.00    -0.279 NA
HETATM   12  C13 UNL     1      -1.376   1.735   0.898  1.00  0.00     0.115 C 
HETATM   13  C14 UNL     1      -2.358   0.730   1.392  1.00  0.00     0.129 C 
HETATM   14  N7  UNL     1      -1.719  -0.323   2.096  1.00  0.00    -0.408 N 
ATOM     15  H7  UNL     1      -1.863  -0.442   3.099  1.00  0.00     0.154 HD
BRANCH  10  16
HETATM   16  C7  UNL     1       0.872   0.294  -1.569  1.00  0.00    -0.011 C 
BRANCH  16  17
HETATM   17  C8  UNL     1       1.891  -0.729  -1.825  1.00  0.00    -0.027 C 
BRANCH  17  18
HETATM   18  C9  UNL     1       3.118  -0.825  -1.035  1.00  0.00     0.054 C 
BRANCH  18  19
HETATM   19  C10 UNL     1       2.925  -1.120   0.418  1.00  0.00     0.233 C 
BRANCH  19  20
HETATM   20  N4  UNL     1       4.313  -1.245   0.979  1.00  0.00    -0.079 N 
ATOM     21  H43 UNL     1       4.895  -1.928   0.493  1.00  0.00     0.274 HD
ATOM     22  H42 UNL     1       4.906  -0.435   0.798  1.00  0.00     0.274 HD
ATOM     23  H41 UNL     1       4.181  -1.446   1.970  1.00  0.00     0.274 HD
ENDBRANCH  19  20
ENDBRANCH  18  19
ENDBRANCH  17  18
ENDBRANCH  16  17
ENDBRANCH  10  16
BRANCH  11  24
HETATM   24  C11 UNL     1      -0.549   2.539  -1.236  1.00  0.00     0.131 C 
BRANCH  24  25
HETATM   25  C12 UNL     1      -1.656   3.500  -1.450  1.00  0.00     0.265 C 
HETATM   26  N6  UNL     1      -1.481   4.702  -2.190  1.00  0.00    -0.057 NA
HETATM   27  O1  UNL     1      -2.781   3.270  -0.978  1.00  0.00    -0.271 OA
ENDBRANCH  24  25
ENDBRANCH  11  24
ENDBRANCH   3   8
TORSDOF 8
