REMARK  9 active torsions:
REMARK  status: ('A' for Active; 'I' for Inactive)
REMARK    1  A    between atoms: C2_2  and  C3_3 
REMARK    2  A    between atoms: C3_3  and  C4_4 
REMARK    3  A    between atoms: C4_4  and  N1_5 
REMARK    4  A    between atoms: N1_5  and  C5_7 
REMARK    5  A    between atoms: C7_14  and  N5_15 
REMARK    6  A    between atoms: N5_15  and  C8_17 
REMARK    7  A    between atoms: C8_17  and  C9_18 
REMARK    8  A    between atoms: C9_18  and  C10_19 
REMARK    9  A    between atoms: C10_19  and  N6_20 
ROOT
HETATM    1  C5  UNL     1       2.655  -0.175   0.058  1.00  0.00     0.695 A 
HETATM    2  N2  UNL     1       2.154  -1.358  -0.332  1.00  0.00    -0.162 N 
ATOM      3  H2  UNL     1       2.716  -2.204  -0.239  1.00  0.00     0.187 HD
HETATM    4  C6  UNL     1       0.894  -1.432  -0.852  1.00  0.00     0.221 A 
HETATM    5  N3  UNL     1       0.383  -2.695  -1.259  1.00  0.00    -0.062 NA
HETATM    6  N4  UNL     1       0.168  -0.302  -0.965  1.00  0.00    -0.162 N 
ATOM      7  H4  UNL     1      -0.774  -0.355  -1.353  1.00  0.00     0.187 HD
HETATM    8  C7  UNL     1       0.648   0.889  -0.582  1.00  0.00     0.695 A 
HETATM    9  N7  UNL     1       1.906   0.930  -0.068  1.00  0.00    -0.022 N 
ATOM     10  H7  UNL     1       2.291   1.826   0.230  1.00  0.00     0.203 HD
ENDROOT
BRANCH   8  11
HETATM   11  N5  UNL     1       0.007   1.996  -0.664  1.00  0.00    -0.225 N 
ATOM     12  H5  UNL     1       0.427   2.873  -0.355  1.00  0.00     0.177 HD
BRANCH  11  13
HETATM   13  C8  UNL     1      -1.332   1.960  -1.209  1.00  0.00     0.140 C 
BRANCH  13  14
HETATM   14  C9  UNL     1      -2.342   1.516  -0.140  1.00  0.00     0.050 C 
BRANCH  14  15
HETATM   15  C10 UNL     1      -3.680   1.510  -0.791  1.00  0.00     0.274 C 
BRANCH  15  16
HETATM   16  N6  UNL     1      -4.764   1.118   0.063  1.00  0.00     0.092 N 
HETATM   17  C11 UNL     1      -6.040   1.145  -0.636  1.00  0.00     0.298 C 
HETATM   18  C12 UNL     1      -7.028   0.421   0.263  1.00  0.00     0.198 C 
HETATM   19  O1  UNL     1      -6.768  -0.936   0.161  1.00  0.00    -0.388 OA
HETATM   20  C13 UNL     1      -5.416  -1.238   0.194  1.00  0.00     0.198 C 
HETATM   21  C14 UNL     1      -4.596  -0.098   0.776  1.00  0.00     0.298 C 
ENDBRANCH  15  16
ENDBRANCH  14  15
ENDBRANCH  13  14
ENDBRANCH  11  13
ENDBRANCH   8  11
BRANCH   1  22
HETATM   22  N1  UNL     1       3.844  -0.107   0.549  1.00  0.00    -0.225 N 
ATOM     23  H1  UNL     1       4.225   0.792   0.845  1.00  0.00     0.177 HD
BRANCH  22  24
HETATM   24  C4  UNL     1       4.641  -1.316   0.679  1.00  0.00     0.138 C 
BRANCH  24  25
HETATM   25  C3  UNL     1       6.036  -0.992   1.175  1.00  0.00     0.020 C 
BRANCH  25  26
HETATM   26  C2  UNL     1       6.650  -0.057   0.134  1.00  0.00    -0.003 C 
HETATM   27  C1  UNL     1       8.065   0.341   0.525  1.00  0.00     0.005 C 
ENDBRANCH  25  26
ENDBRANCH  24  25
ENDBRANCH  22  24
ENDBRANCH   1  22
TORSDOF 9
