REMARK  13 active torsions:
REMARK  status: ('A' for Active; 'I' for Inactive)
REMARK    1  A    between atoms: O1_2  and  C2_3 
REMARK    2  A    between atoms: C2_3  and  C3_4 
REMARK    3  A    between atoms: C3_4  and  N1_5 
REMARK       I    between atoms: N1_5  and  C4_7 
REMARK    4  A    between atoms: C4_7  and  C5_9 
REMARK    5  A    between atoms: C5_9  and  C6_10 
REMARK    6  A    between atoms: C6_10  and  C7_11 
REMARK    7  A    between atoms: C12_18  and  O3_19 
REMARK    8  A    between atoms: C13_21  and  C14_22 
REMARK    9  A    between atoms: C14_22  and  C15_23 
REMARK   10  A    between atoms: C19_34  and  C20_35 
REMARK   11  A    between atoms: C20_35  and  C21_36 
REMARK   12  A    between atoms: C21_36  and  C22_37 
REMARK   13  A    between atoms: C22_37  and  N6_38 
ROOT
HETATM    1  C7  UNL     1       0.773  -1.146   1.138  1.00  0.00     0.077 C 
HETATM    2  C8  UNL     1       0.517  -2.646   1.379  1.00  0.00     0.025 C 
HETATM    3  C9  UNL     1       0.194  -3.308   0.048  1.00  0.00     0.004 C 
HETATM    4  C10 UNL     1      -1.033  -4.186   0.150  1.00  0.00     0.020 C 
HETATM    5  C11 UNL     1      -2.142  -3.696  -0.755  1.00  0.00     0.121 C 
HETATM    6  N2  UNL     1      -3.420  -3.631  -0.091  1.00  0.00    -0.369 N 
ATOM      7  H2  UNL     1      -4.008  -4.456  -0.214  1.00  0.00     0.161 HD
HETATM    8  C12 UNL     1      -3.979  -2.631   0.686  1.00  0.00     0.159 C 
HETATM    9  C13 UNL     1      -4.184  -1.194   0.438  1.00  0.00     0.068 C 
HETATM   10  N5  UNL     1      -3.502  -0.333   1.396  1.00  0.00    -0.325 N 
ATOM     11  H5  UNL     1      -4.099   0.202   2.027  1.00  0.00     0.169 HD
HETATM   12  C18 UNL     1      -2.119  -0.156   1.549  1.00  0.00     0.244 C 
HETATM   13  O4  UNL     1      -1.630  -0.394   2.713  1.00  0.00    -0.271 OA
HETATM   14  C19 UNL     1      -1.130   0.274   0.543  1.00  0.00     0.170 C 
HETATM   15  N9  UNL     1      -0.142  -0.678   0.197  1.00  0.00    -0.405 N 
ATOM     16  H9  UNL     1      -0.099  -1.029  -0.760  1.00  0.00     0.154 HD
ENDROOT
BRANCH   1  17
HETATM   17  C6  UNL     1       2.221  -1.112   0.692  1.00  0.00     0.034 C 
BRANCH  17  18
HETATM   18  C5  UNL     1       2.762   0.230   0.380  1.00  0.00     0.105 C 
BRANCH  18  19
HETATM   19  C4  UNL     1       4.195   0.037  -0.036  1.00  0.00     0.217 C 
HETATM   20  N1  UNL     1       4.933   1.176  -0.413  1.00  0.00    -0.359 N 
ATOM     21  H1  UNL     1       4.470   2.085  -0.396  1.00  0.00     0.162 HD
HETATM   22  O2  UNL     1       4.727  -1.090  -0.052  1.00  0.00    -0.274 OA
BRANCH  20  23
HETATM   23  C3  UNL     1       6.316   1.114  -0.822  1.00  0.00     0.148 C 
BRANCH  23  24
HETATM   24  C2  UNL     1       7.170   0.630   0.306  1.00  0.00     0.186 C 
BRANCH  24  25
HETATM   25  O1  UNL     1       8.491   0.579  -0.082  1.00  0.00    -0.394 OA
HETATM   26  C1  UNL     1       8.778  -0.268  -1.125  1.00  0.00     0.201 C 
ENDBRANCH  24  25
ENDBRANCH  23  24
ENDBRANCH  20  23
ENDBRANCH  18  19
ENDBRANCH  17  18
ENDBRANCH   1  17
BRANCH  14  27
HETATM   27  C20 UNL     1      -0.508   1.610   1.012  1.00  0.00     0.036 C 
BRANCH  27  28
HETATM   28  C21 UNL     1      -1.654   2.594   1.125  1.00  0.00     0.022 C 
BRANCH  28  29
HETATM   29  C22 UNL     1      -1.183   3.951   1.577  1.00  0.00     0.122 C 
BRANCH  29  30
HETATM   30  N6  UNL     1      -0.229   4.547   0.682  1.00  0.00    -0.367 N 
HETATM   31  C23 UNL     1      -0.125   5.805   0.501  1.00  0.00     0.196 C 
HETATM   32  N7  UNL     1      -0.975   6.699   1.199  1.00  0.00    -0.067 NA
HETATM   33  N8  UNL     1       0.838   6.323  -0.396  1.00  0.00    -0.067 NA
ATOM     34  H6  UNL     1       0.398   3.931   0.164  1.00  0.00     0.161 HD
ENDBRANCH  29  30
ENDBRANCH  28  29
ENDBRANCH  27  28
ENDBRANCH  14  27
BRANCH   9  35
HETATM   35  C14 UNL     1      -4.165  -0.711  -0.960  1.00  0.00     0.120 C 
BRANCH  35  36
HETATM   36  C15 UNL     1      -5.252  -1.330  -1.760  1.00  0.00     0.031 A 
HETATM   37  C16 UNL     1      -5.297  -2.423  -2.568  1.00  0.00     0.114 A 
HETATM   38  N3  UNL     1      -6.535  -2.557  -3.037  1.00  0.00    -0.360 N 
HETATM   39  C17 UNL     1      -7.273  -1.555  -2.531  1.00  0.00     0.180 A 
ATOM     40  H3  UNL     1      -6.864  -3.288  -3.667  1.00  0.00     0.166 HD
HETATM   41  N4  UNL     1      -6.501  -0.801  -1.752  1.00  0.00    -0.354 N 
ATOM     42  H4  UNL     1      -6.797   0.029  -1.239  1.00  0.00     0.166 HD
ENDBRANCH  35  36
ENDBRANCH   9  35
BRANCH   8  43
HETATM   43  O3  UNL     1      -4.414  -2.995   1.858  1.00  0.00    -0.345 OA
ATOM     44  H3  UNL     1      -4.798  -2.309   2.391  1.00  0.00     0.219 HD
ENDBRANCH   8  43
TORSDOF 13
