REMARK  3 active torsions:
REMARK  status: ('A' for Active; 'I' for Inactive)
REMARK    1  A    between atoms: C2_2  and  C5_5 
REMARK    2  A    between atoms: C6_8  and  C7_9 
REMARK    3  A    between atoms: C7_9  and  O3_10 
ROOT
HETATM    1  C5  UNL     1      -0.115  -0.041  -0.664  1.00  0.00     0.307 C 
HETATM    2  O1  UNL     1       0.476  -1.270  -0.873  1.00  0.00    -0.204 OA
HETATM    3  O2  UNL     1       1.780  -1.073  -0.894  1.00  0.00    -0.203 OA
HETATM    4  C6  UNL     1       1.991   0.286  -0.739  1.00  0.00     0.323 C 
HETATM    5  O4  UNL     1       0.892   0.634   0.050  1.00  0.00    -0.323 OA
ENDROOT
BRANCH   1   6
HETATM    6  C2  UNL     1      -1.398  -0.099   0.096  1.00  0.00     0.002 C 
HETATM    7  C1  UNL     1      -1.196  -0.697   1.451  1.00  0.00     0.019 C 
HETATM    8  C3  UNL     1      -2.385  -0.919  -0.683  1.00  0.00     0.019 C 
HETATM    9  C4  UNL     1      -1.953   1.319   0.168  1.00  0.00     0.019 C 
ENDBRANCH   1   6
BRANCH   4  10
HETATM   10  C7  UNL     1       3.302   0.619  -0.096  1.00  0.00     0.227 C 
BRANCH  10  11
HETATM   11  O3  UNL     1       3.340   0.040   1.154  1.00  0.00    -0.396 OA
ATOM     12  H3  UNL     1       4.172   0.251   1.562  1.00  0.00     0.209 HD
ENDBRANCH  10  11
ENDBRANCH   4  10
TORSDOF 3
