REMARK  2 active torsions:
REMARK  status: ('A' for Active; 'I' for Inactive)
REMARK    1  A    between atoms: C4_5  and  C5_6 
REMARK    2  A    between atoms: C5_6  and  O2_9 
ROOT
HETATM    1  C1  UNL     1       3.223   0.830   0.403  1.00  0.00     0.045 C 
HETATM    2  C2  UNL     1       2.238  -0.013  -0.365  1.00  0.00     0.180 C 
HETATM    3  C3  UNL     1       1.599  -1.068   0.541  1.00  0.00     0.205 C 
HETATM    4  O1  UNL     1       0.291  -0.610   0.832  1.00  0.00    -0.353 OA
HETATM    5  C4  UNL     1      -0.434  -0.729  -0.333  1.00  0.00     0.330 C 
HETATM    6  O3  UNL     1       0.280  -0.089  -1.346  1.00  0.00    -0.204 OA
HETATM    7  O4  UNL     1       1.180   0.740  -0.875  1.00  0.00    -0.231 OA
ENDROOT
BRANCH   5   8
HETATM    8  C5  UNL     1      -1.797  -0.124  -0.277  1.00  0.00     0.103 C 
HETATM    9  C6  UNL     1      -1.723   1.370  -0.061  1.00  0.00     0.051 C 
HETATM   10  C7  UNL     1      -2.687  -0.707   0.770  1.00  0.00     0.051 C 
BRANCH   8  11
HETATM   11  O2  UNL     1      -2.401  -0.326  -1.525  1.00  0.00    -0.386 OA
ATOM     12  H2  UNL     1      -3.269   0.059  -1.489  1.00  0.00     0.210 HD
ENDBRANCH   8  11
ENDBRANCH   5   8
TORSDOF 2
