REMARK  2 active torsions:
REMARK  status: ('A' for Active; 'I' for Inactive)
REMARK    1  A    between atoms: C2_2  and  N1_3 
REMARK    2  A    between atoms: N2_9  and  O1_11 
ROOT
HETATM    1  N1  UNL     1       0.047  -0.230   0.265  1.00  0.00    -0.368 N 
HETATM    2  C3  UNL     1      -0.882  -1.085  -0.423  1.00  0.00     0.134 C 
HETATM    3  C4  UNL     1      -2.210  -0.553  -0.743  1.00  0.00     0.094 C 
HETATM    4  S1  UNL     1      -2.848   0.685   0.396  1.00  0.00    -0.160 SA
HETATM    5  C5  UNL     1      -1.598   1.071   1.640  1.00  0.00     0.151 C 
HETATM    6  C6  UNL     1      -0.268   0.983   0.920  1.00  0.00     0.108 C 
HETATM    7  N2  UNL     1       0.494   2.016   0.938  1.00  0.00    -0.256 N 
ATOM      8  H2  UNL     1       0.174   2.843   1.442  1.00  0.00     0.195 HD
ENDROOT
BRANCH   1   9
HETATM    9  C2  UNL     1       1.427  -0.676   0.272  1.00  0.00     0.119 C 
HETATM   10  C1  UNL     1       2.083  -0.639  -1.076  1.00  0.00     0.026 C 
ENDBRANCH   1   9
BRANCH   7  11
HETATM   11  O1  UNL     1       1.705   2.066   0.321  1.00  0.00    -0.288 OA
ATOM     12  H1  UNL     1       2.269   2.830   0.334  1.00  0.00     0.244 HD
ENDBRANCH   7  11
TORSDOF 2
