REMARK  4 active torsions:
REMARK  status: ('A' for Active; 'I' for Inactive)
REMARK    1  A    between atoms: C2_2  and  O1_3 
REMARK    2  A    between atoms: O1_3  and  C3_4 
REMARK       I    between atoms: C3_4  and  N1_6 
REMARK    3  A    between atoms: N1_6  and  C4_8 
REMARK    4  A    between atoms: C4_8  and  O3_10 
ROOT
HETATM    1  C3  UNL     1      -0.374  -0.377   0.087  1.00  0.00     0.367 C 
HETATM    2  O2  UNL     1      -0.440  -1.600   0.365  1.00  0.00    -0.238 OA
HETATM    3  N1  UNL     1       0.824   0.303  -0.247  1.00  0.00    -0.273 N 
ATOM      4  H1  UNL     1       0.814   1.300  -0.462  1.00  0.00     0.174 HD
ENDROOT
BRANCH   3   5
HETATM    5  C4  UNL     1       2.039  -0.432  -0.276  1.00  0.00     0.218 C 
HETATM    6  S1  UNL     1       2.088  -2.034   0.067  1.00  0.00    -0.033 SA
BRANCH   5   7
HETATM    7  O3  UNL     1       3.196   0.260  -0.607  1.00  0.00    -0.332 OA
HETATM    8  C5  UNL     1       4.313   0.110   0.265  1.00  0.00     0.212 C 
ENDBRANCH   5   7
ENDBRANCH   3   5
BRANCH   1   9
HETATM    9  O1  UNL     1      -1.551   0.352   0.111  1.00  0.00    -0.304 OA
BRANCH   9  10
HETATM   10  C2  UNL     1      -2.782  -0.289   0.443  1.00  0.00     0.176 C 
HETATM   11  C1  UNL     1      -3.849   0.792   0.373  1.00  0.00     0.034 C 
ENDBRANCH   9  10
ENDBRANCH   1   9
TORSDOF 4
