REMARK  4 active torsions:
REMARK  status: ('A' for Active; 'I' for Inactive)
REMARK    1  A    between atoms: C2_2  and  N1_5 
REMARK    2  A    between atoms: C5_7  and  O1_8 
REMARK    3  A    between atoms: C5_7  and  O2_10 
REMARK    4  A    between atoms: O2_10  and  C6_11 
ROOT
HETATM    1  C6  UNL     1       2.998  -0.414   0.007  1.00  0.00     0.303 C 
HETATM    2  C7  UNL     1       4.443  -0.209  -0.120  1.00  0.00     0.085 C 
HETATM    3  N2  UNL     1       5.592  -0.065  -0.227  1.00  0.00    -0.195 NA
ENDROOT
BRANCH   1   4
HETATM    4  O2  UNL     1       2.373   0.831  -0.088  1.00  0.00    -0.303 OA
BRANCH   4   5
HETATM    5  C5  UNL     1       0.975   0.919   0.002  1.00  0.00     0.259 C 
HETATM    6  N1  UNL     1       0.329  -0.175  -0.187  1.00  0.00    -0.342 N 
ATOM      7  H1  UNL     1       0.850  -1.029  -0.387  1.00  0.00     0.164 HD
BRANCH   6   8
HETATM    8  C2  UNL     1      -1.118  -0.233  -0.124  1.00  0.00     0.023 C 
HETATM    9  C1  UNL     1      -1.628  -1.643  -0.327  1.00  0.00     0.037 C 
HETATM   10  C3  UNL     1      -1.771   0.636  -1.177  1.00  0.00     0.037 C 
HETATM   11  C4  UNL     1      -1.640   0.233   1.221  1.00  0.00     0.037 C 
ENDBRANCH   6   8
BRANCH   5  12
HETATM   12  O1  UNL     1       0.364   2.136   0.282  1.00  0.00    -0.327 OA
ATOM     13  H1  UNL     1       0.842   2.945   0.422  1.00  0.00     0.221 HD
ENDBRANCH   5  12
ENDBRANCH   4   5
ENDBRANCH   1   4
TORSDOF 4
