REMARK  2 active torsions:
REMARK  status: ('A' for Active; 'I' for Inactive)
REMARK    1  A    between atoms: C2_2  and  C3_3 
REMARK    2  A    between atoms: N3_13  and  O1_14 
ROOT
HETATM    1  C3  UNL     1       0.686   0.306   0.099  1.00  0.00     0.156 C 
HETATM    2  C4  UNL     1       0.845   1.152   1.285  1.00  0.00     0.089 C 
HETATM    3  N1  UNL     1       0.983   1.814   2.245  1.00  0.00    -0.195 NA
HETATM    4  C5  UNL     1      -0.582   0.606  -0.678  1.00  0.00     0.245 C 
HETATM    5  N2  UNL     1      -1.563   1.389  -0.025  1.00  0.00    -0.066 N 
ATOM      6  H21 UNL     1      -1.654   2.326  -0.417  1.00  0.00     0.277 HD
ATOM      7  H22 UNL     1      -1.291   1.668   0.918  1.00  0.00     0.277 HD
HETATM    8  C6  UNL     1      -2.805   0.632  -0.061  1.00  0.00     0.234 C 
HETATM    9  C7  UNL     1      -2.329  -0.781   0.275  1.00  0.00     0.051 C 
HETATM   10  C8  UNL     1      -1.016  -0.833  -0.459  1.00  0.00     0.123 C 
HETATM   11  N3  UNL     1       0.137  -0.955   0.430  1.00  0.00    -0.167 NA
ENDROOT
BRANCH   1  12
HETATM   12  C2  UNL     1       1.875   0.392  -0.785  1.00  0.00     0.041 C 
HETATM   13  C1  UNL     1       3.171  -0.024  -0.195  1.00  0.00     0.008 C 
ENDBRANCH   1  12
BRANCH  11  14
HETATM   14  O1  UNL     1       0.822  -2.063   0.143  1.00  0.00    -0.311 OA
ATOM     15  H1  UNL     1       0.453  -2.910   0.365  1.00  0.00     0.237 HD
ENDBRANCH  11  14
TORSDOF 2
