REMARK  5 active torsions:
REMARK  status: ('A' for Active; 'I' for Inactive)
REMARK    1  A    between atoms: C6_7  and  N1_8 
REMARK    2  A    between atoms: N2_10  and  C7_12 
REMARK    3  A    between atoms: C9_14  and  C10_15 
REMARK    4  A    between atoms: C10_15  and  N3_16 
REMARK    5  A    between atoms: C16_25  and  N5_26 
ROOT
HETATM    1  C1  UNL     1       8.369  -1.910  -0.867  1.00  0.00     0.050 C 
HETATM    2  C2  UNL     1       7.427  -0.815  -0.610  1.00  0.00    -0.039 A 
HETATM    3  C3  UNL     1       6.069  -1.059  -0.561  1.00  0.00     0.026 A 
HETATM    4  C4  UNL     1       5.145  -0.058  -0.321  1.00  0.00     0.044 A 
HETATM    5  C5  UNL     1       3.784  -0.333  -0.277  1.00  0.00     0.216 A 
HETATM    6  O1  UNL     1       3.345  -1.477  -0.449  1.00  0.00    -0.285 OA
HETATM    7  C6  UNL     1       2.889   0.689  -0.036  1.00  0.00     0.145 A 
HETATM    8  C16 UNL     1       3.412   1.951   0.151  1.00  0.00     0.152 A 
HETATM    9  N7  UNL     1       4.747   2.197   0.104  1.00  0.00    -0.339 N 
ATOM     10  H7  UNL     1       5.082   3.149   0.250  1.00  0.00     0.167 HD
HETATM   11  C17 UNL     1       5.639   1.217  -0.130  1.00  0.00     0.049 A 
HETATM   12  C18 UNL     1       6.994   1.498  -0.172  1.00  0.00     0.054 A 
HETATM   13  C19 UNL     1       7.889   0.471  -0.414  1.00  0.00     0.042 A 
HETATM   14 CL1  UNL     1       9.623   0.742  -0.484  1.00  0.00    -0.084 Cl
ENDROOT
BRANCH   7  15
HETATM   15  N1  UNL     1       1.480   0.510   0.028  1.00  0.00    -0.292 N 
HETATM   16  N2  UNL     1       0.910  -0.587  -0.237  1.00  0.00    -0.283 N 
ATOM     17  H2  UNL     1       1.456  -1.403  -0.513  1.00  0.00     0.188 HD
ATOM     18  H1  UNL     1       0.901   1.305   0.301  1.00  0.00     0.187 HD
BRANCH  16  19
HETATM   19  C7  UNL     1      -0.509  -0.661  -0.142  1.00  0.00     0.142 A 
HETATM   20  C8  UNL     1      -1.334  -0.162   0.855  1.00  0.00     0.088 A 
HETATM   21  C9  UNL     1      -2.646  -0.466   0.533  1.00  0.00     0.108 A 
HETATM   22  O2  UNL     1      -2.574  -1.113  -0.604  1.00  0.00    -0.239 OA
HETATM   23  N4  UNL     1      -1.369  -1.241  -1.015  1.00  0.00    -0.243 N 
ATOM     24  H4  UNL     1      -1.094  -1.712  -1.877  1.00  0.00     0.196 HD
BRANCH  21  25
HETATM   25  C10 UNL     1      -3.874  -0.120   1.328  1.00  0.00     0.339 C 
BRANCH  25  26
HETATM   26  N3  UNL     1      -5.028  -0.618   0.643  1.00  0.00     0.094 N 
HETATM   27  C11 UNL     1      -5.184  -0.068  -0.668  1.00  0.00     0.273 C 
HETATM   28  C12 UNL     1      -6.649   0.241  -0.985  1.00  0.00     0.030 C 
HETATM   29  C13 UNL     1      -7.445  -0.992  -0.563  1.00  0.00     0.003 C 
HETATM   30  C14 UNL     1      -7.434  -1.018   0.957  1.00  0.00     0.030 C 
HETATM   31  C15 UNL     1      -6.186  -0.373   1.486  1.00  0.00     0.273 C 
ENDBRANCH  25  26
ENDBRANCH  21  25
ENDBRANCH  16  19
ENDBRANCH   7  15
BRANCH   8  32
HETATM   32  N5  UNL     1       2.533   3.030   0.401  1.00  0.00    -0.290 N 
HETATM   33  N6  UNL     1       1.459   3.215  -0.239  1.00  0.00    -0.344 N 
ATOM     34  H62 UNL     1       1.229   2.542  -0.970  1.00  0.00     0.176 HD
ATOM     35  H61 UNL     1       0.825   3.993  -0.059  1.00  0.00     0.176 HD
ATOM     36  H5  UNL     1       2.778   3.693   1.136  1.00  0.00     0.188 HD
ENDBRANCH   8  32
TORSDOF 5
