REMARK  5 active torsions:
REMARK  status: ('A' for Active; 'I' for Inactive)
REMARK    1  A    between atoms: C7_8  and  N2_9 
REMARK    2  A    between atoms: N2_9  and  N3_10 
REMARK    3  A    between atoms: C8_11  and  C9_12 
REMARK    4  A    between atoms: C9_12  and  S1_13 
REMARK    5  A    between atoms: S1_13  and  C10_14 
ROOT
HETATM    1  N1  UNL     1      -3.788   2.479   2.329  1.00  0.00    -0.196 NA
HETATM    2  C1  UNL     1      -3.609   2.079   1.260  1.00  0.00     0.071 C 
HETATM    3  C2  UNL     1      -3.396   1.561  -0.090  1.00  0.00     0.154 C 
HETATM    4  C3  UNL     1      -4.660   1.738  -0.887  1.00  0.00     0.026 C 
HETATM    5  C4  UNL     1      -5.807   1.185  -0.059  1.00  0.00     0.002 C 
HETATM    6  C5  UNL     1      -5.563  -0.273   0.270  1.00  0.00     0.007 C 
HETATM    7  C6  UNL     1      -4.283  -0.813  -0.334  1.00  0.00     0.072 C 
HETATM    8  C7  UNL     1      -3.123   0.078   0.000  1.00  0.00     0.105 C 
ENDROOT
BRANCH   8   9
HETATM    9  N2  UNL     1      -2.043  -0.311   0.340  1.00  0.00    -0.322 NA
BRANCH   9  10
HETATM   10  N3  UNL     1      -0.887  -0.745   0.704  1.00  0.00    -0.148 N 
HETATM   11  C8  UNL     1       0.347  -0.250   0.374  1.00  0.00     0.143 A 
HETATM   12  N5  UNL     1       1.311  -0.937   1.019  1.00  0.00    -0.284 N 
HETATM   13  N6  UNL     1       0.743  -1.848   1.739  1.00  0.00    -0.272 N 
ATOM     14  H5  UNL     1       2.314  -0.767   0.951  1.00  0.00     0.188 HD
HETATM   15  C17 UNL     1      -0.569  -1.773   1.585  1.00  0.00     0.225 A 
ATOM     16  H6  UNL     1       1.230  -2.519   2.333  1.00  0.00     0.189 HD
HETATM   17  S2  UNL     1      -1.660  -2.762   2.334  1.00  0.00    -0.036 SA
BRANCH  11  18
HETATM   18  C9  UNL     1       0.578   0.834  -0.630  1.00  0.00     0.164 C 
BRANCH  18  19
HETATM   19  S1  UNL     1       1.545   0.116  -2.011  1.00  0.00    -0.079 SA
BRANCH  19  20
HETATM   20  C10 UNL     1       3.242  -0.131  -1.417  1.00  0.00     0.188 A 
HETATM   21  N4  UNL     1       4.292  -0.672  -2.046  1.00  0.00    -0.329 N 
HETATM   22  C11 UNL     1       5.386  -0.659  -1.244  1.00  0.00     0.069 A 
ATOM     23  H4  UNL     1       4.272  -1.043  -2.996  1.00  0.00     0.168 HD
HETATM   24  C12 UNL     1       6.702  -1.055  -1.334  1.00  0.00     0.035 A 
HETATM   25  C16 UNL     1       4.945  -0.068  -0.055  1.00  0.00     0.108 A 
HETATM   26  C13 UNL     1       7.633  -0.910  -0.331  1.00  0.00     0.044 A 
HETATM   27  C14 UNL     1       7.164  -0.314   0.852  1.00  0.00     0.119 A 
HETATM   28  F1  UNL     1       8.065  -0.162   1.862  1.00  0.00    -0.206 F 
HETATM   29  C15 UNL     1       5.854   0.089   0.967  1.00  0.00     0.082 A 
HETATM   30  O1  UNL     1       3.687   0.210  -0.235  1.00  0.00    -0.285 OA
ENDBRANCH  19  20
ENDBRANCH  18  19
ENDBRANCH  11  18
ENDBRANCH   9  10
ENDBRANCH   8   9
TORSDOF 5
