REMARK  6 active torsions:
REMARK  status: ('A' for Active; 'I' for Inactive)
REMARK    1  A    between atoms: C2_2  and  C3_3 
REMARK    2  A    between atoms: C8_15  and  C9_16 
REMARK    3  A    between atoms: C9_16  and  C10_17 
REMARK    4  A    between atoms: C10_17  and  C11_18 
REMARK    5  A    between atoms: C11_18  and  C12_19 
REMARK    6  A    between atoms: C14_25  and  C15_26 
ROOT
HETATM    1  C3  UNL     1      -4.040  -1.074  -0.375  1.00  0.00     0.173 C 
HETATM    2  N1  UNL     1      -3.421  -0.966  -1.646  1.00  0.00    -0.385 N 
ATOM      3  H1  UNL     1      -3.922  -0.369  -2.304  1.00  0.00     0.159 HD
HETATM    4  C4  UNL     1      -2.371  -1.470  -2.109  1.00  0.00     0.101 C 
HETATM    5  C5  UNL     1      -1.509  -2.348  -1.346  1.00  0.00     0.105 C 
HETATM    6  N2  UNL     1      -1.060  -2.119  -0.200  1.00  0.00    -0.361 N 
ATOM      7  H2  UNL     1      -1.535  -2.447   0.641  1.00  0.00     0.166 HD
HETATM    8  C6  UNL     1       0.005  -1.465  -0.145  1.00  0.00     0.183 C 
HETATM    9  N3  UNL     1       0.462  -1.178   0.981  1.00  0.00    -0.321 N 
ATOM     10  H3  UNL     1       0.169  -1.775   1.755  1.00  0.00     0.169 HD
HETATM   11  C7  UNL     1       1.334  -0.125   1.300  1.00  0.00     0.245 C 
HETATM   12  O1  UNL     1       1.373   0.380   2.455  1.00  0.00    -0.271 OA
HETATM   13  C8  UNL     1       2.272   0.463   0.291  1.00  0.00     0.177 C 
HETATM   14  N4  UNL     1       2.429   1.892   0.471  1.00  0.00    -0.346 N 
ATOM     15  H4  UNL     1       3.336   2.305   0.256  1.00  0.00     0.163 HD
HETATM   16  C13 UNL     1       1.396   2.752   0.929  1.00  0.00     0.241 C 
HETATM   17  O2  UNL     1       1.678   3.671   1.741  1.00  0.00    -0.271 OA
HETATM   18  C14 UNL     1      -0.028   2.647   0.515  1.00  0.00     0.176 C 
HETATM   19  N5  UNL     1      -0.941   2.926   1.586  1.00  0.00    -0.346 N 
ATOM     20  H5  UNL     1      -0.625   3.525   2.349  1.00  0.00     0.163 HD
HETATM   21  C17 UNL     1      -2.263   2.410   1.637  1.00  0.00     0.236 C 
HETATM   22  O3  UNL     1      -3.154   2.968   2.364  1.00  0.00    -0.272 OA
HETATM   23  C18 UNL     1      -2.683   1.228   0.874  1.00  0.00     0.225 C 
HETATM   24  N6  UNL     1      -4.089   1.320   0.507  1.00  0.00    -0.351 N 
ATOM     25  H6  UNL     1      -4.605   2.177   0.707  1.00  0.00     0.163 HD
HETATM   26  C19 UNL     1      -4.755   0.235  -0.126  1.00  0.00     0.240 C 
HETATM   27  O4  UNL     1      -5.954   0.406  -0.466  1.00  0.00    -0.271 OA
ENDROOT
BRANCH  13  28
HETATM   28  C9  UNL     1       3.627  -0.179   0.528  1.00  0.00     0.035 C 
BRANCH  28  29
HETATM   29  C10 UNL     1       3.602  -1.660   0.369  1.00  0.00     0.003 C 
BRANCH  29  30
HETATM   30  C11 UNL     1       4.991  -2.198   0.628  1.00  0.00     0.011 C 
BRANCH  30  31
HETATM   31  C12 UNL     1       6.016  -1.632  -0.332  1.00  0.00     0.086 C 
HETATM   32  S1  UNL     1       7.642  -2.361   0.083  1.00  0.00    -0.098 SA
ENDBRANCH  30  31
ENDBRANCH  29  30
ENDBRANCH  28  29
ENDBRANCH  13  28
BRANCH  18  33
HETATM   33  C15 UNL     1      -0.288   3.700  -0.566  1.00  0.00     0.030 C 
HETATM   34  C16 UNL     1       0.588   3.495  -1.769  1.00  0.00     0.007 C 
ENDBRANCH  18  33
BRANCH   1  35
HETATM   35  C2  UNL     1      -5.149  -2.118  -0.346  1.00  0.00     0.030 C 
HETATM   36  C1  UNL     1      -4.668  -3.489  -0.681  1.00  0.00     0.007 C 
ENDBRANCH   1  35
TORSDOF 6
