REMARK  6 active torsions:
REMARK  status: ('A' for Active; 'I' for Inactive)
REMARK    1  A    between atoms: C4_4  and  N1_5 
REMARK    2  A    between atoms: N1_5  and  C5_7 
REMARK    3  A    between atoms: C5_7  and  C6_8 
REMARK    4  A    between atoms: C6_8  and  N2_9 
REMARK    5  A    between atoms: C16_31  and  C17_32 
REMARK    6  A    between atoms: C17_32  and  C18_33 
ROOT
HETATM    1  C6  UNL     1      -0.763  -0.766  -0.699  1.00  0.00     0.158 C 
ENDROOT
BRANCH   1   2
HETATM    2  C5  UNL     1       0.149  -1.153   0.473  1.00  0.00     0.141 C 
BRANCH   2   3
HETATM    3  N1  UNL     1       1.387  -1.601  -0.069  1.00  0.00    -0.375 N 
ATOM      4  H1  UNL     1       1.317  -2.240  -0.861  1.00  0.00     0.161 HD
BRANCH   3   5
HETATM    5  C4  UNL     1       2.562  -1.312   0.300  1.00  0.00     0.101 A 
HETATM    6  C3  UNL     1       3.610  -1.900  -0.417  1.00  0.00     0.055 A 
HETATM    7  C2  UNL     1       4.929  -1.653  -0.099  1.00  0.00    -0.050 A 
HETATM    8  C1  UNL     1       5.990  -2.296  -0.867  1.00  0.00     0.049 C 
HETATM    9  C16 UNL     1       5.212  -0.819   0.935  1.00  0.00    -0.031 A 
HETATM   10  C15 UNL     1       4.131  -0.253   1.627  1.00  0.00     0.097 A 
HETATM   11  N6  UNL     1       2.854  -0.499   1.311  1.00  0.00    -0.352 N 
ATOM     12  H6  UNL     1       2.104  -0.062   1.846  1.00  0.00     0.166 HD
BRANCH   9  13
HETATM   13  C17 UNL     1       6.551  -0.444   1.385  1.00  0.00     0.099 C 
BRANCH  13  14
HETATM   14  C18 UNL     1       7.137   0.586   0.512  1.00  0.00     0.029 A 
HETATM   15  C19 UNL     1       8.044   0.426  -0.502  1.00  0.00     0.114 A 
HETATM   16  N7  UNL     1       8.271   1.674  -1.016  1.00  0.00    -0.360 N 
HETATM   17  C20 UNL     1       7.536   2.562  -0.349  1.00  0.00     0.180 A 
ATOM     18  H7  UNL     1       8.903   1.890  -1.787  1.00  0.00     0.166 HD
HETATM   19  N8  UNL     1       6.848   1.890   0.581  1.00  0.00    -0.354 N 
ATOM     20  H8  UNL     1       6.198   2.311   1.245  1.00  0.00     0.166 HD
ENDBRANCH  13  14
ENDBRANCH   9  13
ENDBRANCH   3   5
ENDBRANCH   2   3
ENDBRANCH   1   2
BRANCH   1  21
HETATM   21  N2  UNL     1      -2.040  -0.295  -0.207  1.00  0.00    -0.250 N 
HETATM   22  C7  UNL     1      -3.150  -1.155   0.021  1.00  0.00     0.329 C 
HETATM   23  O1  UNL     1      -3.053  -2.406  -0.209  1.00  0.00    -0.247 OA
HETATM   24  N3  UNL     1      -4.392  -0.676   0.504  1.00  0.00    -0.301 N 
HETATM   25  C8  UNL     1      -4.716   0.732   0.239  1.00  0.00     0.259 C 
ATOM     26  H3  UNL     1      -5.034  -1.283   1.014  1.00  0.00     0.167 HD
HETATM   27  N4  UNL     1      -3.554   1.514   0.574  1.00  0.00    -0.301 N 
HETATM   28  C10 UNL     1      -5.127   0.891  -1.162  1.00  0.00     0.276 C 
HETATM   29  C14 UNL     1      -5.909   1.151   0.994  1.00  0.00     0.212 C 
HETATM   30  C9  UNL     1      -2.284   1.098   0.093  1.00  0.00     0.329 C 
ATOM     31  H4  UNL     1      -3.642   2.353   1.147  1.00  0.00     0.167 HD
HETATM   32  O2  UNL     1      -1.369   1.943  -0.073  1.00  0.00    -0.247 OA
HETATM   33  O3  UNL     1      -4.367   0.939  -2.148  1.00  0.00    -0.268 OA
HETATM   34  N5  UNL     1      -6.539   0.982  -1.218  1.00  0.00    -0.341 N 
HETATM   35  C11 UNL     1      -7.096   0.938   0.128  1.00  0.00     0.091 C 
ATOM     36  H5  UNL     1      -7.086   1.066  -2.075  1.00  0.00     0.163 HD
HETATM   37  C12 UNL     1      -8.112   2.049   0.296  1.00  0.00     0.046 C 
HETATM   38  C13 UNL     1      -7.763  -0.401   0.386  1.00  0.00     0.046 C 
HETATM   39  O4  UNL     1      -5.918   1.592   2.123  1.00  0.00    -0.290 OA
ENDBRANCH   1  21
TORSDOF 6
