REMARK  6 active torsions:
REMARK  status: ('A' for Active; 'I' for Inactive)
REMARK    1  A    between atoms: C10_15  and  C11_16 
REMARK    2  A    between atoms: C11_16  and  N3_17 
REMARK    3  A    between atoms: C16_25  and  C17_26 
REMARK    4  A    between atoms: C17_26  and  C18_27 
REMARK    5  A    between atoms: C18_27  and  C19_28 
REMARK    6  A    between atoms: C19_28  and  N5_29 
ROOT
HETATM    1  C1  UNL     1       0.680  -3.815  -2.384  1.00  0.00     0.050 C 
HETATM    2  C2  UNL     1       0.062  -2.651  -1.610  1.00  0.00     0.273 C 
HETATM    3  N1  UNL     1       0.235  -2.956  -0.221  1.00  0.00    -0.063 N 
ATOM      4  H11 UNL     1       0.031  -2.169   0.394  1.00  0.00     0.278 HD
ATOM      5  H12 UNL     1       1.211  -3.077   0.048  1.00  0.00     0.278 HD
HETATM    6  C3  UNL     1      -0.597  -4.140   0.051  1.00  0.00     0.233 C 
HETATM    7  C4  UNL     1      -1.499  -3.894   1.240  1.00  0.00     0.027 C 
HETATM    8  C5  UNL     1      -2.882  -3.472   0.778  1.00  0.00     0.002 C 
HETATM    9  C6  UNL     1      -3.381  -2.416   1.714  1.00  0.00     0.000 C 
HETATM   10  C7  UNL     1      -4.408  -1.587   0.978  1.00  0.00     0.002 C 
HETATM   11  C8  UNL     1      -3.818  -0.201   0.816  1.00  0.00     0.020 C 
HETATM   12  C9  UNL     1      -2.830  -0.232  -0.323  1.00  0.00     0.121 C 
HETATM   13  N2  UNL     1      -2.452   1.043  -0.805  1.00  0.00    -0.378 N 
ATOM     14  H2  UNL     1      -2.981   1.388  -1.606  1.00  0.00     0.160 HD
HETATM   15  C10 UNL     1      -1.521   1.831  -0.363  1.00  0.00     0.106 C 
HETATM   16  N4  UNL     1      -0.678   1.548   0.741  1.00  0.00    -0.314 N 
ATOM     17  H4  UNL     1      -0.672   2.246   1.485  1.00  0.00     0.170 HD
HETATM   18  C15 UNL     1       0.158   0.421   0.945  1.00  0.00     0.245 C 
HETATM   19  O1  UNL     1      -0.071  -0.230   2.027  1.00  0.00    -0.271 OA
HETATM   20  C16 UNL     1       1.236  -0.039   0.036  1.00  0.00     0.177 C 
HETATM   21  N8  UNL     1       0.798  -0.193  -1.334  1.00  0.00    -0.346 N 
ATOM     22  H8  UNL     1       0.539   0.662  -1.827  1.00  0.00     0.163 HD
HETATM   23  C21 UNL     1       0.690  -1.395  -2.063  1.00  0.00     0.248 C 
HETATM   24  O2  UNL     1       1.183  -1.407  -3.233  1.00  0.00    -0.271 OA
ENDROOT
BRANCH  20  25
HETATM   25  C17 UNL     1       2.397   0.979   0.053  1.00  0.00     0.036 C 
BRANCH  25  26
HETATM   26  C18 UNL     1       3.496   0.542  -0.841  1.00  0.00     0.022 C 
BRANCH  26  27
HETATM   27  C19 UNL     1       4.093  -0.796  -0.434  1.00  0.00     0.122 C 
BRANCH  27  28
HETATM   28  N5  UNL     1       4.643  -0.711   0.925  1.00  0.00    -0.367 N 
HETATM   29  C20 UNL     1       5.852  -0.286   1.106  1.00  0.00     0.196 C 
HETATM   30  N6  UNL     1       6.698   0.110   0.053  1.00  0.00    -0.067 NA
HETATM   31  N7  UNL     1       6.328  -0.226   2.444  1.00  0.00    -0.067 NA
ATOM     32  H5  UNL     1       4.073  -0.986   1.725  1.00  0.00     0.161 HD
ENDBRANCH  27  28
ENDBRANCH  26  27
ENDBRANCH  25  26
ENDBRANCH  20  25
BRANCH  15  33
HETATM   33  C11 UNL     1      -1.368   3.126  -1.097  1.00  0.00     0.311 C 
BRANCH  33  34
HETATM   34  N3  UNL     1      -1.608   4.293  -0.282  1.00  0.00    -0.072 N 
HETATM   35  C12 UNL     1      -0.444   4.747   0.445  1.00  0.00     0.272 C 
HETATM   36  C13 UNL     1      -1.935   5.366  -1.241  1.00  0.00     0.272 C 
HETATM   37  C14 UNL     1      -2.762   4.157   0.569  1.00  0.00     0.272 C 
ENDBRANCH  33  34
ENDBRANCH  15  33
TORSDOF 6
