REMARK  8 active torsions:
REMARK  status: ('A' for Active; 'I' for Inactive)
REMARK    1  A    between atoms: C5_7  and  C6_8 
REMARK    2  A    between atoms: C7_9  and  O1_10 
REMARK    3  A    between atoms: C8_12  and  O2_13 
REMARK    4  A    between atoms: N2_15  and  C9_16 
REMARK    5  A    between atoms: C15_22  and  O3_23 
REMARK    6  A    between atoms: C16_27  and  C17_28 
REMARK    7  A    between atoms: C17_28  and  C18_29 
REMARK    8  A    between atoms: C18_29  and  C19_30 
ROOT
HETATM    1  C6  UNL     1       0.167   0.088   0.138  1.00  0.00     0.081 A 
HETATM    2  C7  UNL     1      -0.241  -0.374   1.369  1.00  0.00     0.134 A 
HETATM    3  C8  UNL     1      -1.616  -0.499   1.384  1.00  0.00     0.179 A 
HETATM    4  N2  UNL     1      -2.039  -0.116   0.173  1.00  0.00    -0.300 N 
HETATM    5  C15 UNL     1      -0.989   0.240  -0.590  1.00  0.00     0.160 A 
ENDROOT
BRANCH   1   6
HETATM    6  C5  UNL     1       1.549   0.335  -0.225  1.00  0.00     0.072 A 
HETATM    7  C3  UNL     1       2.066   1.612   0.014  1.00  0.00     0.033 A 
HETATM    8  N1  UNL     1       3.333   1.825  -0.322  1.00  0.00    -0.360 N 
HETATM    9  C4  UNL     1       1.196   2.637   0.617  1.00  0.00     0.070 C 
HETATM   10  C2  UNL     1       4.147   0.904  -0.873  1.00  0.00     0.028 A 
ATOM     11  H1  UNL     1       3.718   2.754  -0.150  1.00  0.00     0.165 HD
HETATM   12  C1  UNL     1       5.573   1.238  -1.222  1.00  0.00     0.070 C 
HETATM   13  C16 UNL     1       3.631  -0.348  -1.105  1.00  0.00     0.032 A 
HETATM   14  N3  UNL     1       2.351  -0.597  -0.775  1.00  0.00    -0.356 N 
ATOM     15  H3  UNL     1       1.973  -1.528  -0.948  1.00  0.00     0.166 HD
BRANCH  13  16
HETATM   16  C17 UNL     1       4.500  -1.387  -1.710  1.00  0.00     0.060 C 
BRANCH  16  17
HETATM   17  C18 UNL     1       5.478  -1.956  -0.718  1.00  0.00     0.021 C 
BRANCH  17  18
HETATM   18  C19 UNL     1       4.737  -2.592   0.440  1.00  0.00     0.115 C 
HETATM   19 CL1  UNL     1       5.830  -3.279   1.638  1.00  0.00    -0.130 Cl
ENDBRANCH  17  18
ENDBRANCH  16  17
ENDBRANCH  13  16
ENDBRANCH   1   6
BRANCH   2  20
HETATM   20  O1  UNL     1       0.559  -0.682   2.461  1.00  0.00    -0.356 OA
ATOM     21  H1  UNL     1       0.277  -1.001   3.310  1.00  0.00     0.218 HD
ENDBRANCH   2  20
BRANCH   5  22
HETATM   22  O3  UNL     1      -1.057   0.697  -1.926  1.00  0.00    -0.345 OA
ATOM     23  H3  UNL     1      -1.856   0.802  -2.429  1.00  0.00     0.219 HD
ENDBRANCH   5  22
BRANCH   3  24
HETATM   24  O2  UNL     1      -2.392  -0.946   2.478  1.00  0.00    -0.344 OA
ATOM     25  H2  UNL     1      -3.338  -1.032   2.488  1.00  0.00     0.219 HD
ENDBRANCH   3  24
BRANCH   4  26
HETATM   26  C9  UNL     1      -3.419  -0.078  -0.281  1.00  0.00     0.094 C 
HETATM   27  C10 UNL     1      -3.850   1.362  -0.453  1.00  0.00     0.026 C 
HETATM   28  C11 UNL     1      -5.319   1.551  -0.148  1.00  0.00     0.002 C 
HETATM   29  C12 UNL     1      -6.094   0.410  -0.772  1.00  0.00     0.000 C 
HETATM   30  C13 UNL     1      -5.729  -0.851  -0.066  1.00  0.00     0.002 C 
HETATM   31  C14 UNL     1      -4.374  -0.739   0.647  1.00  0.00     0.026 C 
ENDBRANCH   4  26
TORSDOF 8
