REMARK  7 active torsions:
REMARK  status: ('A' for Active; 'I' for Inactive)
REMARK    1  A    between atoms: C2_2  and  C3_3 
REMARK    2  A    between atoms: C3_3  and  N1_4 
REMARK    3  A    between atoms: C4_5  and  N2_6 
REMARK    4  A    between atoms: C5_8  and  C6_9 
REMARK    5  A    between atoms: C8_11  and  O1_12 
REMARK    6  A    between atoms: C9_14  and  O2_15 
REMARK    7  A    between atoms: N3_17  and  C10_18 
ROOT
HETATM    1  C6  UNL     1      -0.476  -0.352   0.380  1.00  0.00     0.050 A 
HETATM    2  C7  UNL     1      -0.946  -1.384  -0.379  1.00  0.00     0.059 A 
HETATM    3  C8  UNL     1      -2.203  -1.307  -0.887  1.00  0.00     0.118 A 
HETATM    4  C9  UNL     1      -2.977  -0.180  -0.620  1.00  0.00     0.179 A 
HETATM    5  N3  UNL     1      -2.534   0.839   0.120  1.00  0.00    -0.288 N 
HETATM    6  C13 UNL     1      -1.298   0.755   0.615  1.00  0.00     0.261 A 
HETATM    7  O3  UNL     1      -0.824   1.657   1.306  1.00  0.00    -0.267 OA
ENDROOT
BRANCH   1   8
HETATM    8  C5  UNL     1       0.872  -0.401   0.943  1.00  0.00     0.106 C 
HETATM    9  N2  UNL     1       1.607  -1.417   0.720  1.00  0.00    -0.351 N 
ATOM     10  H2  UNL     1       1.252  -2.187   0.153  1.00  0.00     0.166 HD
BRANCH   9  11
HETATM   11  C4  UNL     1       2.964  -1.482   1.278  1.00  0.00     0.115 A 
HETATM   12  N1  UNL     1       4.062  -1.622   0.563  1.00  0.00    -0.314 N 
HETATM   13  C15 UNL     1       5.229  -1.667   1.195  1.00  0.00     0.146 A 
HETATM   14  S1  UNL     1       4.798  -1.512   2.834  1.00  0.00    -0.068 SA
HETATM   15  S2  UNL     1       6.737  -1.836   0.515  1.00  0.00    -0.052 SA
HETATM   16  C14 UNL     1       3.110  -1.393   2.639  1.00  0.00     0.101 A 
BRANCH  12  17
HETATM   17  C3  UNL     1       3.999  -1.724  -0.924  1.00  0.00     0.158 C 
BRANCH  17  18
HETATM   18  C2  UNL     1       4.094  -0.366  -1.518  1.00  0.00    -0.017 C 
HETATM   19  C1  UNL     1       3.109   0.078  -2.263  1.00  0.00     0.008 C 
ENDBRANCH  17  18
ENDBRANCH  12  17
ENDBRANCH   9  11
ENDBRANCH   1   8
BRANCH   3  20
HETATM   20  O1  UNL     1      -2.681  -2.360  -1.660  1.00  0.00    -0.357 OA
ATOM     21  H1  UNL     1      -3.560  -2.306  -2.015  1.00  0.00     0.218 HD
ENDBRANCH   3  20
BRANCH   5  22
HETATM   22  C10 UNL     1      -3.352   1.961   0.365  1.00  0.00     0.087 C 
HETATM   23  C11 UNL     1      -4.220   1.839   1.601  1.00  0.00     0.032 C 
HETATM   24  C12 UNL     1      -2.646   3.277   0.447  1.00  0.00     0.032 C 
ENDBRANCH   5  22
BRANCH   4  25
HETATM   25  O2  UNL     1      -4.233  -0.154  -1.155  1.00  0.00    -0.344 OA
ATOM     26  H2  UNL     1      -4.761   0.615  -0.973  1.00  0.00     0.219 HD
ENDBRANCH   4  25
TORSDOF 7
