REMARK  8 active torsions:
REMARK  status: ('A' for Active; 'I' for Inactive)
REMARK    1  A    between atoms: O1_2  and  C2_3 
REMARK    2  A    between atoms: C4_5  and  C5_6 
REMARK    3  A    between atoms: C11_13  and  O3_14 
REMARK    4  A    between atoms: C15_20  and  O5_21 
REMARK    5  A    between atoms: C17_23  and  O6_24 
REMARK    6  A    between atoms: O6_24  and  S1_25 
REMARK    7  A    between atoms: S1_25  and  O9_28 
REMARK    8  A    between atoms: O9_28  and  C18_29 
ROOT
HETATM    1  C2  UNL     1       1.119   0.497   0.775  1.00  0.00     0.106 A 
HETATM    2  C3  UNL     1      -0.162   0.808   0.344  1.00  0.00     0.051 A 
HETATM    3  C4  UNL     1      -0.622   0.564  -0.925  1.00  0.00    -0.028 A 
HETATM    4  C14 UNL     1       0.304  -0.034  -1.788  1.00  0.00     0.051 A 
HETATM    5  C15 UNL     1       1.570  -0.358  -1.415  1.00  0.00     0.106 A 
HETATM    6  C17 UNL     1       1.992  -0.092  -0.116  1.00  0.00     0.158 A 
ENDROOT
BRANCH   3   7
HETATM    7  C5  UNL     1      -1.950   0.843  -1.418  1.00  0.00     0.053 C 
HETATM    8  C6  UNL     1      -3.087   0.470  -0.898  1.00  0.00     0.128 A 
HETATM    9  O2  UNL     1      -4.331   0.800  -1.453  1.00  0.00    -0.306 OA
HETATM   10  C13 UNL     1      -3.391  -0.318   0.281  1.00  0.00     0.221 A 
HETATM   11  C7  UNL     1      -5.347   0.273  -0.700  1.00  0.00     0.093 A 
HETATM   12  C8  UNL     1      -6.719   0.381  -0.924  1.00  0.00     0.038 A 
HETATM   13  C12 UNL     1      -4.848  -0.422   0.375  1.00  0.00     0.084 A 
HETATM   14  C9  UNL     1      -7.554  -0.236  -0.027  1.00  0.00     0.006 A 
HETATM   15  C10 UNL     1      -7.106  -0.942   1.062  1.00  0.00     0.038 A 
HETATM   16  C11 UNL     1      -5.723  -1.036   1.267  1.00  0.00     0.082 A 
HETATM   17  O4  UNL     1      -2.605  -0.837   1.098  1.00  0.00    -0.284 OA
BRANCH  16  18
HETATM   18  O3  UNL     1      -5.241  -1.740   2.355  1.00  0.00    -0.360 OA
ATOM     19  H3  UNL     1      -4.303  -1.804   2.494  1.00  0.00     0.217 HD
ENDBRANCH  16  18
ENDBRANCH   3   7
BRANCH   1  20
HETATM   20  O1  UNL     1       1.530   0.770   2.084  1.00  0.00    -0.353 OA
HETATM   21  C1  UNL     1       0.598   1.375   2.960  1.00  0.00     0.210 C 
ENDBRANCH   1  20
BRANCH   5  22
HETATM   22  O5  UNL     1       2.474  -0.942  -2.260  1.00  0.00    -0.353 OA
HETATM   23  C16 UNL     1       2.179  -1.270  -3.610  1.00  0.00     0.210 C 
ENDBRANCH   5  22
BRANCH   6  24
HETATM   24  O6  UNL     1       3.281  -0.404   0.318  1.00  0.00    -0.205 OA
BRANCH  24  25
HETATM   25  S1  UNL     1       4.567   0.679   0.190  1.00  0.00     0.414 S 
HETATM   26  O7  UNL     1       4.687   1.577   1.388  1.00  0.00    -0.168 OA
HETATM   27  O8  UNL     1       4.320   1.550  -1.012  1.00  0.00    -0.168 OA
BRANCH  25  28
HETATM   28  O9  UNL     1       6.001  -0.209  -0.001  1.00  0.00    -0.175 OA
BRANCH  28  29
HETATM   29  C18 UNL     1       6.918  -0.284   1.021  1.00  0.00     0.272 C 
HETATM   30  C19 UNL     1       8.154  -1.069   0.809  1.00  0.00     0.127 C 
HETATM   31  O10 UNL     1       6.748   0.283   2.115  1.00  0.00    -0.265 OA
ENDBRANCH  28  29
ENDBRANCH  25  28
ENDBRANCH  24  25
ENDBRANCH   6  24
TORSDOF 8
