REMARK  7 active torsions:
REMARK  status: ('A' for Active; 'I' for Inactive)
REMARK    1  A    between atoms: O1_2  and  C2_3 
REMARK    2  A    between atoms: C4_5  and  C5_6 
REMARK    3  A    between atoms: C8_10  and  N1_11 
REMARK    4  A    between atoms: N2_17  and  C10_18 
REMARK    5  A    between atoms: C15_23  and  N3_24 
REMARK    6  A    between atoms: C16_27  and  N4_28 
REMARK    7  A    between atoms: C18_32  and  O8_33 
ROOT
HETATM    1  C5  UNL     1       0.231   1.347  -0.579  1.00  0.00     0.136 C 
HETATM    2  C6  UNL     1       0.049   1.303  -2.156  1.00  0.00     0.111 C 
HETATM    3  C7  UNL     1       0.916   2.446  -2.603  1.00  0.00     0.168 C 
HETATM    4  O2  UNL     1       0.401   3.333  -3.247  1.00  0.00    -0.295 OA
HETATM    5  C8  UNL     1       2.342   2.391  -2.213  1.00  0.00     0.343 C 
HETATM    6  C9  UNL     1       2.590   1.420  -1.130  1.00  0.00     0.263 C 
HETATM    7  O3  UNL     1       3.773   1.241  -0.768  1.00  0.00    -0.270 OA
HETATM    8  N2  UNL     1       1.519   0.672  -0.476  1.00  0.00    -0.304 N 
ENDROOT
BRANCH   1   9
HETATM    9  C4  UNL     1      -0.931   0.739   0.010  1.00  0.00     0.001 A 
HETATM   10  C3  UNL     1      -1.535  -0.359  -0.595  1.00  0.00     0.051 A 
HETATM   11  C2  UNL     1      -2.579  -1.070  -0.044  1.00  0.00     0.102 A 
HETATM   12  C18 UNL     1      -3.069  -0.675   1.187  1.00  0.00     0.103 A 
HETATM   13  C17 UNL     1      -2.513   0.407   1.830  1.00  0.00     0.076 A 
HETATM   14  C16 UNL     1      -1.445   1.107   1.226  1.00  0.00     0.114 A 
BRANCH  11  15
HETATM   15  O1  UNL     1      -3.161  -2.161  -0.662  1.00  0.00    -0.353 OA
HETATM   16  C1  UNL     1      -2.638  -2.556  -1.919  1.00  0.00     0.210 C 
ENDBRANCH  11  15
BRANCH  12  17
HETATM   17  O8  UNL     1      -4.118  -1.395   1.730  1.00  0.00    -0.353 OA
HETATM   18  C19 UNL     1      -4.761  -1.159   2.942  1.00  0.00     0.210 C 
ENDBRANCH  12  17
BRANCH  14  19
HETATM   19  N4  UNL     1      -1.097   2.304   1.923  1.00  0.00    -0.115 N 
HETATM   20  O6  UNL     1      -2.024   2.884   2.613  1.00  0.00    -0.532 OA
HETATM   21  O7  UNL     1       0.077   2.934   1.946  1.00  0.00    -0.532 OA
ENDBRANCH  14  19
ENDBRANCH   1   9
BRANCH   8  22
HETATM   22  C10 UNL     1       1.875  -0.576   0.046  1.00  0.00     0.071 A 
HETATM   23  C11 UNL     1       1.520  -1.751  -0.647  1.00  0.00     0.032 A 
HETATM   24  C12 UNL     1       1.852  -3.015  -0.236  1.00  0.00     0.002 A 
HETATM   25  C13 UNL     1       2.574  -3.200   0.914  1.00  0.00     0.003 A 
HETATM   26  C14 UNL     1       2.939  -2.091   1.611  1.00  0.00     0.038 A 
HETATM   27  C15 UNL     1       2.592  -0.779   1.182  1.00  0.00     0.129 A 
BRANCH  27  28
HETATM   28  N3  UNL     1       3.129   0.239   2.010  1.00  0.00    -0.113 N 
HETATM   29  O4  UNL     1       2.581   1.272   2.265  1.00  0.00    -0.532 OA
HETATM   30  O5  UNL     1       4.383   0.039   2.619  1.00  0.00    -0.532 OA
ENDBRANCH  27  28
ENDBRANCH   8  22
BRANCH   5  31
HETATM   31  N1  UNL     1       2.879   3.684  -1.795  1.00  0.00    -0.059 N 
ATOM     32  H13 UNL     1       2.728   4.389  -2.517  1.00  0.00     0.275 HD
ATOM     33  H12 UNL     1       2.314   4.085  -1.046  1.00  0.00     0.275 HD
ATOM     34  H11 UNL     1       3.862   3.646  -1.526  1.00  0.00     0.275 HD
ENDBRANCH   5  31
TORSDOF 7
