REMARK  8 active torsions:
REMARK  status: ('A' for Active; 'I' for Inactive)
REMARK    1  A    between atoms: O1_2  and  C2_3 
REMARK    2  A    between atoms: C5_6  and  O2_7 
REMARK    3  A    between atoms: O2_7  and  C6_8 
REMARK    4  A    between atoms: C9_12  and  C10_13 
REMARK    5  A    between atoms: C10_13  and  C11_14 
REMARK    6  A    between atoms: C14_17  and  O3_18 
REMARK    7  A    between atoms: C15_20  and  O4_21 
REMARK    8  A    between atoms: C18_24  and  O5_25 
ROOT
HETATM    1  C6  UNL     1       2.176  -1.853  -0.151  1.00  0.00     0.154 A 
HETATM    2  C7  UNL     1       1.895  -0.511  -0.305  1.00  0.00     0.094 A 
HETATM    3  C8  UNL     1       0.565  -0.070  -0.375  1.00  0.00     0.092 A 
HETATM    4  S1  UNL     1      -0.146   1.469  -0.557  1.00  0.00    -0.067 SA
HETATM    5  C9  UNL     1      -1.783   0.997  -0.530  1.00  0.00     0.059 A 
HETATM    6  C18 UNL     1      -1.688  -0.362  -0.377  1.00  0.00     0.169 A 
HETATM    7  N1  UNL     1      -0.481  -0.883  -0.300  1.00  0.00    -0.236 N 
HETATM    8  C19 UNL     1      -0.176  -2.215  -0.147  1.00  0.00     0.335 A 
HETATM    9  O6  UNL     1      -1.072  -3.093  -0.064  1.00  0.00    -0.246 OA
HETATM   10  N2  UNL     1       1.073  -2.634  -0.081  1.00  0.00    -0.288 N 
ATOM     11  H2  UNL     1       1.221  -3.637   0.033  1.00  0.00     0.172 HD
ENDROOT
BRANCH   5  12
HETATM   12  C10 UNL     1      -2.898   1.744  -0.631  1.00  0.00     0.034 C 
BRANCH  12  13
HETATM   13  C11 UNL     1      -4.222   1.199  -0.591  1.00  0.00    -0.032 A 
HETATM   14  C12 UNL     1      -4.787   0.830  -1.807  1.00  0.00     0.014 A 
HETATM   15  C13 UNL     1      -6.056   0.299  -1.849  1.00  0.00     0.040 A 
HETATM   16  C14 UNL     1      -6.820   0.108  -0.719  1.00  0.00     0.099 A 
HETATM   17  C15 UNL     1      -6.225   0.488   0.473  1.00  0.00     0.102 A 
HETATM   18  C17 UNL     1      -4.961   1.019   0.544  1.00  0.00     0.051 A 
BRANCH  16  19
HETATM   19  O3  UNL     1      -8.105  -0.430  -0.775  1.00  0.00    -0.358 OA
ATOM     20  H3  UNL     1      -8.632  -0.562   0.004  1.00  0.00     0.217 HD
ENDBRANCH  16  19
BRANCH  17  21
HETATM   21  O4  UNL     1      -6.963   0.311   1.631  1.00  0.00    -0.353 OA
HETATM   22  C16 UNL     1      -6.449   0.665   2.901  1.00  0.00     0.210 C 
ENDBRANCH  17  21
ENDBRANCH  12  13
ENDBRANCH   5  12
BRANCH   6  23
HETATM   23  O5  UNL     1      -2.806  -1.032  -0.320  1.00  0.00    -0.345 OA
ATOM     24  H5  UNL     1      -2.740  -1.974  -0.214  1.00  0.00     0.219 HD
ENDBRANCH   6  23
BRANCH   1  25
HETATM   25  O2  UNL     1       3.439  -2.387  -0.072  1.00  0.00    -0.294 OA
BRANCH  25  26
HETATM   26  C5  UNL     1       4.564  -1.579  -0.144  1.00  0.00     0.078 A 
HETATM   27  C4  UNL     1       5.103  -1.045   1.018  1.00  0.00     0.040 A 
HETATM   28  C3  UNL     1       6.230  -0.236   0.939  1.00  0.00     0.039 A 
HETATM   29  C2  UNL     1       6.795   0.025  -0.279  1.00  0.00     0.068 A 
HETATM   30  C21 UNL     1       6.269  -0.499  -1.433  1.00  0.00     0.039 A 
HETATM   31  C20 UNL     1       5.138  -1.311  -1.356  1.00  0.00     0.040 A 
BRANCH  29  32
HETATM   32  O1  UNL     1       7.922   0.838  -0.323  1.00  0.00    -0.356 OA
HETATM   33  C1  UNL     1       8.504   1.400   0.818  1.00  0.00     0.210 C 
ENDBRANCH  29  32
ENDBRANCH  25  26
ENDBRANCH   1  25
TORSDOF 8
