REMARK  5 active torsions:
REMARK  status: ('A' for Active; 'I' for Inactive)
REMARK    1  A    between atoms: N1_2  and  C2_4 
REMARK    2  A    between atoms: C2_4  and  C3_6 
REMARK    3  A    between atoms: C3_6  and  S2_7 
REMARK    4  A    between atoms: S2_7  and  C4_8 
REMARK    5  A    between atoms: C5_11  and  N3_12 
ROOT
HETATM    1  C4  UNL     1       0.622  -1.322  -1.208  1.00  0.00     0.147 A 
HETATM    2  N2  UNL     1      -0.415  -2.155  -1.075  1.00  0.00    -0.323 N 
ATOM      3  H2  UNL     1      -0.275  -3.121  -1.370  1.00  0.00     0.169 HD
HETATM    4  C5  UNL     1      -1.621  -1.835  -0.589  1.00  0.00     0.114 A 
HETATM    5  C6  UNL     1      -1.873  -0.514  -0.165  1.00  0.00     0.048 A 
HETATM    6  C7  UNL     1      -3.006  -0.003   0.346  1.00  0.00    -0.033 A 
HETATM    7  C8  UNL     1      -4.285  -0.796   0.570  1.00  0.00     0.050 C 
HETATM    8  C9  UNL     1      -2.999   1.323   0.684  1.00  0.00    -0.012 A 
HETATM    9  C10 UNL     1      -4.073   2.178   1.263  1.00  0.00     0.057 C 
HETATM   10  S3  UNL     1      -1.424   1.822   0.284  1.00  0.00    -0.076 SA
HETATM   11  C11 UNL     1      -0.808   0.328  -0.306  1.00  0.00     0.091 A 
HETATM   12  N4  UNL     1       0.402  -0.062  -0.811  1.00  0.00    -0.330 N 
ATOM     13  H4  UNL     1       1.154   0.623  -0.887  1.00  0.00     0.168 HD
ENDROOT
BRANCH   1  14
HETATM   14  S2  UNL     1       2.197  -1.857  -1.865  1.00  0.00    -0.087 SA
BRANCH  14  15
HETATM   15  C3  UNL     1       3.417  -0.558  -1.865  1.00  0.00     0.151 C 
BRANCH  15  16
HETATM   16  C2  UNL     1       3.784  -0.225  -0.474  1.00  0.00     0.082 C 
HETATM   17  S1  UNL     1       3.186  -1.102   0.756  1.00  0.00    -0.065 SA
BRANCH  16  18
HETATM   18  N1  UNL     1       4.662   0.849  -0.228  1.00  0.00    -0.388 N 
HETATM   19  C1  UNL     1       5.019   1.174   1.133  1.00  0.00     0.147 C 
ATOM     20  H1  UNL     1       5.042   1.392  -1.004  1.00  0.00     0.159 HD
ENDBRANCH  16  18
ENDBRANCH  15  16
ENDBRANCH  14  15
ENDBRANCH   1  14
BRANCH   4  21
HETATM   21  N3  UNL     1      -2.533  -2.754  -0.519  1.00  0.00    -0.385 N 
ATOM     22  H32 UNL     1      -2.351  -3.710  -0.826  1.00  0.00     0.157 HD
ATOM     23  H31 UNL     1      -3.452  -2.510  -0.149  1.00  0.00     0.157 HD
ENDBRANCH   4  21
TORSDOF 5
