REMARK  15 active torsions:
REMARK  status: ('A' for Active; 'I' for Inactive)
REMARK    1  A    between atoms: C10_10  and  O1_11 
REMARK    2  A    between atoms: C14_16  and  C15_17 
REMARK    3  A    between atoms: C15_17  and  C16_18 
REMARK    4  A    between atoms: C16_18  and  C17_19 
REMARK    5  A    between atoms: C19_21  and  O2_22 
REMARK    6  A    between atoms: O2_22  and  C20_23 
REMARK    7  A    between atoms: C20_23  and  C21_24 
REMARK    8  A    between atoms: C21_24  and  C22_25 
REMARK    9  A    between atoms: C21_24  and  C28_34 
REMARK   10  A    between atoms: C22_25  and  C23_26 
REMARK   11  A    between atoms: C23_26  and  C24_27 
REMARK   12  A    between atoms: C26_30  and  O4_31 
REMARK   13  A    between atoms: C28_34  and  O5_35 
REMARK   14  A    between atoms: O5_35  and  C29_36 
REMARK   15  A    between atoms: C32_40  and  O7_41 
ROOT
HETATM    1  C17 UNL     1      -0.041   1.351  -0.262  1.00  0.00     0.065 C 
HETATM    2  C18 UNL     1       0.968   0.283  -0.165  1.00  0.00     0.049 C 
HETATM    3  C19 UNL     1       2.314   0.593  -0.549  1.00  0.00     0.125 C 
HETATM    4  C31 UNL     1       2.542   1.795  -1.436  1.00  0.00     0.064 C 
HETATM    5  C32 UNL     1       1.570   2.901  -1.318  1.00  0.00     0.125 C 
HETATM    6  C33 UNL     1       0.671   2.755  -0.150  1.00  0.00     0.025 C 
HETATM    7  C34 UNL     1       1.284   2.794   1.212  1.00  0.00     0.014 C 
ENDROOT
BRANCH   1   8
HETATM    8  C16 UNL     1      -1.260   1.348  -0.158  1.00  0.00    -0.150 C 
BRANCH   8   9
HETATM    9  C15 UNL     1      -2.690   1.437  -0.057  1.00  0.00     0.059 C 
BRANCH   9  10
HETATM   10  C14 UNL     1      -3.510   0.432   0.347  1.00  0.00    -0.037 C 
HETATM   11  C2  UNL     1      -2.958  -0.840   0.755  1.00  0.00    -0.060 C 
HETATM   12  C1  UNL     1      -2.024  -0.869   1.717  1.00  0.00     0.019 C 
HETATM   13  C3  UNL     1      -3.545  -2.078   0.220  1.00  0.00     0.039 C 
HETATM   14  C4  UNL     1      -4.552  -1.581  -0.843  1.00  0.00     0.011 C 
HETATM   15  C5  UNL     1      -5.577  -0.781  -0.019  1.00  0.00     0.009 C 
HETATM   16  C6  UNL     1      -4.990   0.580   0.287  1.00  0.00    -0.011 C 
HETATM   17  C11 UNL     1      -6.942  -0.729  -0.606  1.00  0.00    -0.017 C 
HETATM   18  C7  UNL     1      -5.459   1.032   1.649  1.00  0.00     0.021 C 
HETATM   19  C8  UNL     1      -5.308   1.609  -0.729  1.00  0.00     0.017 C 
HETATM   20  C9  UNL     1      -6.730   1.643  -1.224  1.00  0.00     0.033 C 
HETATM   21  C10 UNL     1      -7.103   0.296  -1.719  1.00  0.00     0.126 C 
HETATM   22  C12 UNL     1      -8.052  -0.510   0.402  1.00  0.00     0.018 C 
HETATM   23  C13 UNL     1      -7.294  -2.101  -1.239  1.00  0.00     0.018 C 
BRANCH  21  24
HETATM   24  O1  UNL     1      -6.200  -0.066  -2.713  1.00  0.00    -0.395 OA
ATOM     25  H1  UNL     1      -6.439  -0.929  -3.030  1.00  0.00     0.210 HD
ENDBRANCH  21  24
ENDBRANCH   9  10
ENDBRANCH   8   9
ENDBRANCH   1   8
BRANCH   3  26
HETATM   26  O2  UNL     1       3.061  -0.462  -1.174  1.00  0.00    -0.385 OA
BRANCH  26  27
HETATM   27  C20 UNL     1       4.263  -0.557  -0.375  1.00  0.00     0.175 C 
BRANCH  27  28
HETATM   28  C21 UNL     1       4.053  -1.485   0.726  1.00  0.00     0.044 C 
BRANCH  28  29
HETATM   29  C22 UNL     1       5.197  -1.470   1.776  1.00  0.00     0.094 C 
BRANCH  29  30
HETATM   30  C23 UNL     1       6.132  -0.750   1.733  1.00  0.00    -0.146 C 
BRANCH  30  31
HETATM   31  C24 UNL     1       7.355   0.080   1.825  1.00  0.00     0.011 A 
HETATM   32  C25 UNL     1       7.788   0.776   0.626  1.00  0.00     0.224 A 
HETATM   33  O3  UNL     1       8.785   1.484   0.991  1.00  0.00    -0.326 OA
HETATM   34  C26 UNL     1       9.086   1.379   2.209  1.00  0.00     0.179 A 
HETATM   35  C27 UNL     1       8.177   0.470   2.773  1.00  0.00     0.081 A 
BRANCH  34  36
HETATM   36  O4  UNL     1      10.098   1.983   2.938  1.00  0.00    -0.341 OA
ATOM     37  H4  UNL     1      10.325   1.904   3.857  1.00  0.00     0.220 HD
ENDBRANCH  34  36
ENDBRANCH  30  31
ENDBRANCH  29  30
ENDBRANCH  28  29
BRANCH  28  38
HETATM   38  C28 UNL     1       4.334  -2.943   0.119  1.00  0.00     0.186 C 
BRANCH  38  39
HETATM   39  O5  UNL     1       5.663  -2.825  -0.305  1.00  0.00    -0.321 OA
BRANCH  39  40
HETATM   40  C29 UNL     1       6.487  -3.691  -0.944  1.00  0.00     0.254 C 
HETATM   41  C30 UNL     1       7.916  -3.296  -1.257  1.00  0.00     0.126 C 
HETATM   42  O6  UNL     1       6.062  -4.808  -1.254  1.00  0.00    -0.266 OA
ENDBRANCH  39  40
ENDBRANCH  38  39
ENDBRANCH  28  38
ENDBRANCH  27  28
ENDBRANCH  26  27
ENDBRANCH   3  26
BRANCH   5  43
HETATM   43  O7  UNL     1       0.852   3.104  -2.459  1.00  0.00    -0.395 OA
ATOM     44  H7  UNL     1       0.227   3.815  -2.383  1.00  0.00     0.210 HD
ENDBRANCH   5  43
TORSDOF 15
