REMARK  12 active torsions:
REMARK  status: ('A' for Active; 'I' for Inactive)
REMARK    1  A    between atoms: C6_6  and  O1_7 
REMARK    2  A    between atoms: C9_12  and  C10_13 
REMARK    3  A    between atoms: C10_13  and  O3_14 
REMARK    4  A    between atoms: C10_13  and  C11_16 
REMARK    5  A    between atoms: C11_16  and  C12_17 
REMARK    6  A    between atoms: C12_17  and  C13_18 
REMARK    7  A    between atoms: C13_18  and  O4_19 
REMARK    8  A    between atoms: C13_18  and  C14_21 
REMARK    9  A    between atoms: C20_27  and  C21_28 
REMARK   10  A    between atoms: C21_28  and  O5_29 
REMARK   11  A    between atoms: O5_29  and  C22_30 
REMARK   12  A    between atoms: C22_30  and  C23_32 
ROOT
HETATM    1  C13 UNL     1      -0.073  -0.473  -0.635  1.00  0.00     0.123 C 
ENDROOT
BRANCH   1   2
HETATM    2  C12 UNL     1      -1.341   0.034  -1.201  1.00  0.00     0.034 C 
BRANCH   2   3
HETATM    3  C11 UNL     1      -2.445  -0.887  -1.508  1.00  0.00     0.037 C 
BRANCH   3   4
HETATM    4  C10 UNL     1      -3.104  -1.666  -0.425  1.00  0.00     0.148 C 
BRANCH   4   5
HETATM    5  C9  UNL     1      -3.689  -0.745   0.587  1.00  0.00     0.165 C 
HETATM    6  O2  UNL     1      -4.453   0.219  -0.129  1.00  0.00    -0.339 OA
HETATM    7  C5  UNL     1      -5.840   0.253  -0.088  1.00  0.00     0.109 A 
HETATM    8  C4  UNL     1      -6.420  -0.073   1.120  1.00  0.00    -0.021 A 
HETATM    9  C6  UNL     1      -6.585   0.600  -1.214  1.00  0.00     0.106 A 
HETATM   10  C3  UNL     1      -7.793  -0.054   1.214  1.00  0.00     0.017 A 
HETATM   11  C34 UNL     1      -5.528  -0.426   2.252  1.00  0.00     0.053 C 
HETATM   12  C2  UNL     1      -8.537   0.289   0.103  1.00  0.00    -0.053 A 
HETATM   13  C1  UNL     1     -10.022   0.316   0.181  1.00  0.00     0.049 C 
HETATM   14  C7  UNL     1      -7.963   0.615  -1.105  1.00  0.00    -0.020 A 
HETATM   15  C8  UNL     1      -8.809   0.983  -2.292  1.00  0.00     0.052 C 
HETATM   16  C31 UNL     1      -4.421  -1.350   1.720  1.00  0.00    -0.015 C 
HETATM   17  C32 UNL     1      -5.068  -2.674   1.485  1.00  0.00     0.018 C 
HETATM   18  C33 UNL     1      -3.477  -1.533   2.919  1.00  0.00     0.018 C 
BRANCH   9  19
HETATM   19  O1  UNL     1      -5.947   0.920  -2.407  1.00  0.00    -0.357 OA
ATOM     20  H1  UNL     1      -6.455   1.156  -3.174  1.00  0.00     0.217 HD
ENDBRANCH   9  19
ENDBRANCH   4   5
BRANCH   4  21
HETATM   21  O3  UNL     1      -2.336  -2.696   0.021  1.00  0.00    -0.393 OA
ATOM     22  H3  UNL     1      -1.963  -3.284  -0.625  1.00  0.00     0.210 HD
ENDBRANCH   4  21
ENDBRANCH   3   4
ENDBRANCH   2   3
ENDBRANCH   1   2
BRANCH   1  23
HETATM   23  O4  UNL     1      -0.233  -1.079   0.575  1.00  0.00    -0.395 OA
ATOM     24  H4  UNL     1       0.582  -1.405   0.939  1.00  0.00     0.210 HD
ENDBRANCH   1  23
BRANCH   1  25
HETATM   25  C14 UNL     1       0.850   0.744  -0.388  1.00  0.00     0.023 C 
HETATM   26  C15 UNL     1       1.139   1.504  -1.641  1.00  0.00     0.009 C 
HETATM   27  C16 UNL     1       2.602   1.933  -1.588  1.00  0.00     0.015 C 
HETATM   28  C17 UNL     1       3.028   1.571  -0.202  1.00  0.00    -0.013 C 
HETATM   29  C18 UNL     1       2.632   2.633   0.765  1.00  0.00     0.021 C 
HETATM   30  C19 UNL     1       4.507   1.339  -0.062  1.00  0.00    -0.072 C 
HETATM   31  C29 UNL     1       2.248   0.280   0.006  1.00  0.00    -0.027 C 
HETATM   32  C20 UNL     1       5.286   2.246   0.502  1.00  0.00     0.003 C 
HETATM   33  C26 UNL     1       5.063   0.087  -0.581  1.00  0.00     0.034 C 
HETATM   34  C27 UNL     1       4.126  -0.776  -1.329  1.00  0.00     0.005 C 
HETATM   35  C28 UNL     1       2.688  -0.712  -1.007  1.00  0.00     0.011 C 
HETATM   36  C30 UNL     1       2.321  -0.207   1.414  1.00  0.00     0.016 C 
BRANCH  32  37
HETATM   37  C21 UNL     1       6.727   2.232   0.744  1.00  0.00     0.206 C 
BRANCH  37  38
HETATM   38  O5  UNL     1       7.331   1.069   0.302  1.00  0.00    -0.317 OA
BRANCH  38  39
HETATM   39  C22 UNL     1       8.684   0.843   0.430  1.00  0.00     0.262 C 
HETATM   40  O6  UNL     1       9.383   1.737   0.972  1.00  0.00    -0.265 OA
BRANCH  39  41
HETATM   41  C23 UNL     1       9.234  -0.439  -0.077  1.00  0.00     0.077 C 
HETATM   42  C24 UNL     1      10.721  -0.428   0.192  1.00  0.00     0.020 C 
HETATM   43  C25 UNL     1       8.552  -1.633   0.557  1.00  0.00     0.020 C 
ENDBRANCH  39  41
ENDBRANCH  38  39
ENDBRANCH  37  38
ENDBRANCH  32  37
ENDBRANCH   1  25
TORSDOF 12
