REMARK  9 active torsions:
REMARK  status: ('A' for Active; 'I' for Inactive)
REMARK    1  A    between atoms: O1_2  and  C2_3 
REMARK    2  A    between atoms: C2_3  and  C3_5 
REMARK    3  A    between atoms: C3_5  and  N1_6 
REMARK    4  A    between atoms: C3_5  and  C4_10 
REMARK    5  A    between atoms: C5_13  and  C6_14 
REMARK       I    between atoms: C6_14  and  N3_16 
REMARK    6  A    between atoms: N3_16  and  N4_18 
REMARK    7  A    between atoms: C7_21  and  N5_22 
REMARK    8  A    between atoms: N5_22  and  N6_24 
REMARK    9  A    between atoms: C8_29  and  N8_30 
ROOT
HETATM    1  C4  UNL     1       0.766   0.169  -0.424  1.00  0.00     0.094 A 
HETATM    2  N2  UNL     1      -0.477   0.740  -0.409  1.00  0.00    -0.347 N 
ATOM      3  H2  UNL     1      -0.544   1.749  -0.546  1.00  0.00     0.166 HD
HETATM    4  C5  UNL     1      -1.618   0.046  -0.224  1.00  0.00     0.148 A 
HETATM    5  C7  UNL     1      -1.566  -1.313  -0.038  1.00  0.00     0.154 A 
HETATM    6  N7  UNL     1      -0.367  -1.886  -0.050  1.00  0.00    -0.324 N 
ATOM      7  H7  UNL     1      -0.311  -2.895   0.087  1.00  0.00     0.169 HD
HETATM    8  C8  UNL     1       0.799  -1.187  -0.238  1.00  0.00     0.126 A 
ENDROOT
BRANCH   1   9
HETATM    9  C3  UNL     1       1.975   1.023  -0.631  1.00  0.00     0.335 C 
BRANCH   9  10
HETATM   10  C2  UNL     1       3.093   0.783   0.268  1.00  0.00     0.295 C 
HETATM   11  O2  UNL     1       3.143   1.389   1.365  1.00  0.00    -0.262 OA
BRANCH  10  12
HETATM   12  O1  UNL     1       4.109  -0.084  -0.045  1.00  0.00    -0.325 OA
HETATM   13  C1  UNL     1       5.221  -0.335   0.809  1.00  0.00     0.213 C 
ENDBRANCH  10  12
ENDBRANCH   9  10
BRANCH   9  14
HETATM   14  N1  UNL     1       1.449   2.405  -0.372  1.00  0.00    -0.060 N 
ATOM     15  H13 UNL     1       1.205   2.555   0.607  1.00  0.00     0.275 HD
ATOM     16  H12 UNL     1       2.172   3.120  -0.445  1.00  0.00     0.275 HD
ATOM     17  H11 UNL     1       0.665   2.573  -1.002  1.00  0.00     0.275 HD
ENDBRANCH   9  14
ENDBRANCH   1   9
BRANCH   8  18
HETATM   18  N8  UNL     1       1.909  -1.828  -0.245  1.00  0.00    -0.384 N 
ATOM     19  H82 UNL     1       2.776  -1.308  -0.385  1.00  0.00     0.157 HD
ATOM     20  H81 UNL     1       1.934  -2.838  -0.106  1.00  0.00     0.157 HD
ENDBRANCH   8  18
BRANCH   4  21
HETATM   21  C6  UNL     1      -2.921   0.704  -0.224  1.00  0.00     0.290 C 
HETATM   22  O3  UNL     1      -3.943  -0.043  -0.045  1.00  0.00    -0.264 OA
HETATM   23  N3  UNL     1      -3.098   2.079  -0.404  1.00  0.00    -0.271 N 
ATOM     24  H3  UNL     1      -2.283   2.676  -0.544  1.00  0.00     0.189 HD
BRANCH  23  25
HETATM   25  N4  UNL     1      -4.363   2.645  -0.395  1.00  0.00    -0.342 N 
ATOM     26  H42 UNL     1      -5.168   2.034  -0.253  1.00  0.00     0.176 HD
ATOM     27  H41 UNL     1      -4.492   3.648  -0.526  1.00  0.00     0.176 HD
ENDBRANCH  23  25
ENDBRANCH   4  21
BRANCH   5  28
HETATM   28  N5  UNL     1      -2.714  -2.135   0.181  1.00  0.00    -0.290 N 
ATOM     29  H5  UNL     1      -3.233  -2.465  -0.632  1.00  0.00     0.188 HD
BRANCH  28  30
HETATM   30  N6  UNL     1      -3.161  -2.509   1.443  1.00  0.00    -0.344 N 
ATOM     31  H62 UNL     1      -2.630  -2.170   2.245  1.00  0.00     0.176 HD
ATOM     32  H61 UNL     1      -3.981  -3.096   1.599  1.00  0.00     0.176 HD
ENDBRANCH  28  30
ENDBRANCH   5  28
TORSDOF 9
