REMARK  8 active torsions:
REMARK  status: ('A' for Active; 'I' for Inactive)
REMARK    1  A    between atoms: N1_1  and  C1_4 
REMARK    2  A    between atoms: C2_7  and  N3_8 
REMARK    3  A    between atoms: N3_8  and  N4_10 
REMARK    4  A    between atoms: N4_10  and  C3_11 
REMARK    5  A    between atoms: C3_11  and  N5_12 
REMARK    6  A    between atoms: C3_11  and  C4_16 
REMARK    7  A    between atoms: C4_16  and  N6_17 
REMARK    8  A    between atoms: C6_23  and  O1_24 
ROOT
HETATM    1  N4  UNL     1       0.246  -0.123  -1.144  1.00  0.00    -0.105 NA
ENDROOT
BRANCH   1   2
HETATM    2  N3  UNL     1      -0.938  -0.854  -0.993  1.00  0.00    -0.287 N 
ATOM      3  H3  UNL     1      -0.979  -1.805  -1.360  1.00  0.00     0.184 HD
BRANCH   2   4
HETATM    4  C2  UNL     1      -2.085  -0.319  -0.346  1.00  0.00     0.137 A 
HETATM    5  N2  UNL     1      -3.226  -1.014  -0.197  1.00  0.00    -0.176 N 
HETATM    6  C1  UNL     1      -4.310  -0.507   0.414  1.00  0.00     0.680 A 
ATOM      7  H2  UNL     1      -3.271  -1.965  -0.563  1.00  0.00     0.186 HD
HETATM    8  N9  UNL     1      -4.281   0.741   0.905  1.00  0.00    -0.156 N 
HETATM    9  C8  UNL     1      -3.174   1.512   0.800  1.00  0.00     0.263 A 
ATOM     10  H9  UNL     1      -5.110   1.116   1.367  1.00  0.00     0.187 HD
HETATM   11  C7  UNL     1      -2.071   0.961   0.163  1.00  0.00     0.124 A 
HETATM   12  O2  UNL     1      -3.134   2.693   1.259  1.00  0.00    -0.268 OA
BRANCH   6  13
HETATM   13  N1  UNL     1      -5.395  -1.186   0.549  1.00  0.00    -0.234 N 
ATOM     14  H12 UNL     1      -5.417  -2.135   0.176  1.00  0.00     0.174 HD
ATOM     15  H11 UNL     1      -6.218  -0.801   1.013  1.00  0.00     0.174 HD
ENDBRANCH   6  13
ENDBRANCH   2   4
ENDBRANCH   1   2
BRANCH   1  16
HETATM   16  C3  UNL     1       1.351  -1.010  -0.928  1.00  0.00     0.315 C 
BRANCH  16  17
HETATM   17  N5  UNL     1       1.308  -1.574   0.384  1.00  0.00    -0.058 N 
ATOM     18  H53 UNL     1       1.260  -0.851   1.102  1.00  0.00     0.276 HD
ATOM     19  H52 UNL     1       0.416  -2.034   0.566  1.00  0.00     0.276 HD
ATOM     20  H51 UNL     1       2.094  -2.205   0.538  1.00  0.00     0.276 HD
ENDBRANCH  16  17
BRANCH  16  21
HETATM   21  C4  UNL     1       2.684  -0.390  -1.265  1.00  0.00     0.204 C 
BRANCH  21  22
HETATM   22  N6  UNL     1       2.993   0.774  -0.508  1.00  0.00    -0.252 N 
HETATM   23  N7  UNL     1       2.693   2.017  -0.834  1.00  0.00    -0.239 N 
HETATM   24  N8  UNL     1       3.122   2.867   0.085  1.00  0.00    -0.293 N 
ATOM     25  H7  UNL     1       2.196   2.287  -1.683  1.00  0.00     0.208 HD
HETATM   26  C5  UNL     1       3.721   2.126   1.036  1.00  0.00     0.166 A 
ATOM     27  H8  UNL     1       3.019   3.882   0.075  1.00  0.00     0.187 HD
HETATM   28  C6  UNL     1       3.643   0.797   0.666  1.00  0.00     0.175 A 
BRANCH  28  29
HETATM   29  O1  UNL     1       4.165  -0.237   1.428  1.00  0.00    -0.344 OA
ATOM     30  H1  UNL     1       4.625  -0.221   2.259  1.00  0.00     0.219 HD
ENDBRANCH  28  29
ENDBRANCH  21  22
ENDBRANCH  16  21
ENDBRANCH   1  16
TORSDOF 8
