REMARK  7 active torsions:
REMARK  status: ('A' for Active; 'I' for Inactive)
REMARK    1  A    between atoms: N1_1  and  C1_4 
REMARK    2  A    between atoms: N4_14  and  C6_15 
REMARK    3  A    between atoms: C6_15  and  N5_16 
REMARK       I    between atoms: N5_16  and  C7_18 
REMARK    4  A    between atoms: C7_18  and  C8_20 
REMARK    5  A    between atoms: C8_20  and  N6_21 
REMARK    6  A    between atoms: C8_20  and  N7_25 
REMARK    7  A    between atoms: N7_25  and  N8_26 
ROOT
HETATM    1  C1  UNL     1       4.144  -0.731   1.058  1.00  0.00     0.680 A 
HETATM    2  N2  UNL     1       3.627  -1.169  -0.103  1.00  0.00    -0.154 N 
ATOM      3  H2  UNL     1       4.071  -1.962  -0.565  1.00  0.00     0.187 HD
HETATM    4  C2  UNL     1       2.547  -0.607  -0.685  1.00  0.00     0.290 A 
HETATM    5  O1  UNL     1       2.069  -1.021  -1.766  1.00  0.00    -0.265 OA
HETATM    6  C3  UNL     1       1.957   0.466  -0.051  1.00  0.00     0.155 A 
HETATM    7  C4  UNL     1       2.509   0.904   1.150  1.00  0.00     0.155 A 
HETATM    8  N3  UNL     1       1.743   1.940   1.532  1.00  0.00    -0.336 N 
ATOM      9  H3  UNL     1       1.883   2.489   2.380  1.00  0.00     0.168 HD
HETATM   10  C5  UNL     1       0.755   2.150   0.623  1.00  0.00     0.191 A 
HETATM   11  N4  UNL     1       0.886   1.240  -0.356  1.00  0.00    -0.296 N 
HETATM   12  N9  UNL     1       3.590   0.312   1.697  1.00  0.00    -0.174 N 
ATOM     13  H9  UNL     1       3.979   0.649   2.578  1.00  0.00     0.186 HD
ENDROOT
BRANCH  11  14
HETATM   14  C6  UNL     1       0.104   1.069  -1.539  1.00  0.00     0.192 C 
BRANCH  14  15
HETATM   15  N5  UNL     1      -0.962   0.124  -1.426  1.00  0.00    -0.320 N 
HETATM   16  C7  UNL     1      -2.059   0.193  -0.538  1.00  0.00     0.270 C 
HETATM   17  O2  UNL     1      -2.176   1.139   0.251  1.00  0.00    -0.269 OA
ATOM     18  H5  UNL     1      -0.928  -0.682  -2.050  1.00  0.00     0.169 HD
BRANCH  16  19
HETATM   19  C8  UNL     1      -3.097  -0.868  -0.531  1.00  0.00     0.386 C 
BRANCH  19  20
HETATM   20  N6  UNL     1      -3.653  -0.931  -1.862  1.00  0.00    -0.051 N 
ATOM     21  H63 UNL     1      -4.004  -0.032  -2.191  1.00  0.00     0.276 HD
ATOM     22  H62 UNL     1      -2.946  -1.069  -2.584  1.00  0.00     0.276 HD
ATOM     23  H61 UNL     1      -4.366  -1.660  -1.857  1.00  0.00     0.276 HD
ENDBRANCH  19  20
BRANCH  19  24
HETATM   24  N7  UNL     1      -4.089  -0.542   0.467  1.00  0.00    -0.105 NA
BRANCH  24  25
HETATM   25  N8  UNL     1      -3.498  -0.464   1.718  1.00  0.00    -0.346 N 
ATOM     26  H82 UNL     1      -2.505  -0.617   1.892  1.00  0.00     0.172 HD
ATOM     27  H81 UNL     1      -4.199  -0.234   2.423  1.00  0.00     0.172 HD
ENDBRANCH  24  25
ENDBRANCH  19  24
ENDBRANCH  16  19
ENDBRANCH  14  15
ENDBRANCH  11  14
BRANCH   1  28
HETATM   28  N1  UNL     1       5.189  -1.338   1.542  1.00  0.00    -0.234 N 
ATOM     29  H12 UNL     1       5.610  -2.130   1.057  1.00  0.00     0.174 HD
ATOM     30  H11 UNL     1       5.581  -1.006   2.423  1.00  0.00     0.174 HD
ENDBRANCH   1  28
TORSDOF 7
