REMARK  7 active torsions:
REMARK  status: ('A' for Active; 'I' for Inactive)
REMARK    1  A    between atoms: N1_1  and  C1_4 
REMARK    2  A    between atoms: N5_15  and  N6_16 
REMARK    3  A    between atoms: N6_16  and  C5_18 
REMARK    4  A    between atoms: C5_18  and  C6_19 
REMARK    5  A    between atoms: C6_19  and  O1_20 
REMARK    6  A    between atoms: C6_19  and  C7_22 
REMARK       I    between atoms: C7_22  and  N7_24 
REMARK    7  A    between atoms: N7_24  and  N8_26 
ROOT
HETATM    1  C1  UNL     1      -4.078  -0.658   0.532  1.00  0.00     0.679 A 
HETATM    2  N2  UNL     1      -4.582   0.245  -0.326  1.00  0.00    -0.175 N 
ATOM      3  H2  UNL     1      -5.591   0.284  -0.468  1.00  0.00     0.186 HD
HETATM    4  C2  UNL     1      -3.790   1.105  -1.008  1.00  0.00     0.145 A 
HETATM    5  N3  UNL     1      -4.270   1.966  -1.825  1.00  0.00    -0.383 N 
ATOM      6  H31 UNL     1      -3.673   2.614  -2.339  1.00  0.00     0.157 HD
ATOM      7  H32 UNL     1      -5.280   2.003  -1.966  1.00  0.00     0.157 HD
HETATM    8  C3  UNL     1      -2.418   1.055  -0.817  1.00  0.00     0.124 A 
HETATM    9  N4  UNL     1      -1.376   1.741  -1.317  1.00  0.00    -0.345 N 
ATOM     10  H4  UNL     1      -1.427   2.499  -1.997  1.00  0.00     0.167 HD
HETATM   11  C4  UNL     1      -0.252   1.248  -0.759  1.00  0.00     0.209 A 
HETATM   12  N5  UNL     1      -0.544   0.258   0.092  1.00  0.00    -0.237 N 
HETATM   13  C8  UNL     1      -1.906   0.128   0.062  1.00  0.00     0.173 A 
HETATM   14  N9  UNL     1      -2.762  -0.694   0.703  1.00  0.00    -0.173 N 
ATOM     15  H9  UNL     1      -2.378  -1.379   1.353  1.00  0.00     0.186 HD
ENDROOT
BRANCH  12  16
HETATM   16  N6  UNL     1       0.250  -0.554   0.885  1.00  0.00    -0.324 N 
ATOM     17  H6  UNL     1      -0.202  -1.235   1.495  1.00  0.00     0.180 HD
BRANCH  16  18
HETATM   18  C5  UNL     1       1.671  -0.476   0.883  1.00  0.00     0.181 C 
BRANCH  18  19
HETATM   19  C6  UNL     1       2.339  -0.936  -0.378  1.00  0.00     0.230 C 
BRANCH  19  20
HETATM   20  O1  UNL     1       2.054  -2.274  -0.664  1.00  0.00    -0.384 OA
ATOM     21  H1  UNL     1       2.477  -2.565  -1.463  1.00  0.00     0.210 HD
ENDBRANCH  19  20
BRANCH  19  22
HETATM   22  C7  UNL     1       3.798  -0.778  -0.213  1.00  0.00     0.266 C 
HETATM   23  O2  UNL     1       4.542  -1.768  -0.338  1.00  0.00    -0.269 OA
HETATM   24  N7  UNL     1       4.353   0.481   0.082  1.00  0.00    -0.274 N 
ATOM     25  H7  UNL     1       3.753   1.299   0.185  1.00  0.00     0.189 HD
BRANCH  24  26
HETATM   26  N8  UNL     1       5.735   0.595   0.231  1.00  0.00    -0.343 N 
ATOM     27  H82 UNL     1       6.321  -0.233   0.124  1.00  0.00     0.176 HD
ATOM     28  H81 UNL     1       6.137   1.508   0.445  1.00  0.00     0.176 HD
ENDBRANCH  24  26
ENDBRANCH  19  22
ENDBRANCH  18  19
ENDBRANCH  16  18
ENDBRANCH  12  16
BRANCH   1  29
HETATM   29  N1  UNL     1      -4.896  -1.462   1.160  1.00  0.00    -0.234 N 
ATOM     30  H12 UNL     1      -5.907  -1.434   1.029  1.00  0.00     0.174 HD
ATOM     31  H11 UNL     1      -4.513  -2.147   1.811  1.00  0.00     0.174 HD
ENDBRANCH   1  29
TORSDOF 7
