REMARK  2 active torsions:
REMARK  status: ('A' for Active; 'I' for Inactive)
REMARK    1  A    between atoms: O1_1  and  C1_3 
REMARK    2  A    between atoms: C8_10  and  O2_11 
ROOT
HETATM    1  C1  UNL     1      -0.912   1.291  -0.050  1.00  0.00     0.151 C 
HETATM    2  C2  UNL     1      -0.898   0.107  -0.996  1.00  0.00     0.017 C 
HETATM    3  C3  UNL     1      -1.278  -1.119  -0.189  1.00  0.00     0.007 C 
HETATM    4  C4  UNL     1      -0.106  -1.836   0.388  1.00  0.00     0.001 C 
HETATM    5  C5  UNL     1       1.020  -0.963   0.818  1.00  0.00     0.007 C 
HETATM    6  C6  UNL     1       1.250   0.225  -0.094  1.00  0.00     0.017 C 
HETATM    7  C7  UNL     1       0.550  -0.096  -1.400  1.00  0.00     0.014 C 
HETATM    8  C8  UNL     1       0.473   1.388   0.517  1.00  0.00     0.151 C 
ENDROOT
BRANCH   1   9
HETATM    9  O1  UNL     1      -1.887   1.177   0.930  1.00  0.00    -0.393 OA
ATOM     10  H1  UNL     1      -1.896   1.919   1.523  1.00  0.00     0.210 HD
ENDBRANCH   1   9
BRANCH   8  11
HETATM   11  O2  UNL     1       1.047   2.612   0.218  1.00  0.00    -0.393 OA
ATOM     12  H2  UNL     1       1.924   2.673   0.577  1.00  0.00     0.210 HD
ENDBRANCH   8  11
TORSDOF 2
