REMARK  6 active torsions:
REMARK  status: ('A' for Active; 'I' for Inactive)
REMARK    1  A    between atoms: C2_2  and  O1_3 
REMARK    2  A    between atoms: O1_3  and  C3_4 
REMARK       I    between atoms: C3_4  and  N1_6 
REMARK    3  A    between atoms: N1_6  and  C4_8 
REMARK    4  A    between atoms: C7_12  and  C8_13 
REMARK    5  A    between atoms: C8_13  and  O4_15 
REMARK    6  A    between atoms: O4_15  and  C9_16 
ROOT
HETATM    1  C4  UNL     1       0.655  -0.345   1.119  1.00  0.00     0.095 A 
HETATM    2  S1  UNL     1       0.092  -1.802   1.941  1.00  0.00    -0.073 SA
HETATM    3  C5  UNL     1      -1.450  -1.907   1.268  1.00  0.00     0.026 A 
HETATM    4  C6  UNL     1      -1.514  -0.817   0.423  1.00  0.00    -0.021 A 
HETATM    5  C7  UNL     1      -0.418  -0.020   0.368  1.00  0.00     0.080 A 
HETATM    6  C11 UNL     1      -2.844  -0.809  -0.267  1.00  0.00     0.077 C 
HETATM    7  C12 UNL     1      -2.924  -2.204  -0.928  1.00  0.00     0.316 C 
HETATM    8  N2  UNL     1      -3.182  -3.175   0.108  1.00  0.00     0.014 N 
HETATM    9  C13 UNL     1      -2.542  -4.429  -0.312  1.00  0.00     0.356 C 
HETATM   10  O5  UNL     1      -4.512  -3.411   0.173  1.00  0.00    -0.065 OA
HETATM   11  C14 UNL     1      -2.649  -2.825   1.376  1.00  0.00     0.358 C 
ENDROOT
BRANCH   1  12
HETATM   12  N1  UNL     1       1.948   0.144   1.397  1.00  0.00    -0.296 N 
HETATM   13  C3  UNL     1       2.881   0.776   0.599  1.00  0.00     0.365 C 
HETATM   14  O2  UNL     1       2.769   1.010  -0.599  1.00  0.00    -0.238 OA
ATOM     15  H1  UNL     1       2.248   0.006   2.362  1.00  0.00     0.171 HD
BRANCH  13  16
HETATM   16  O1  UNL     1       4.094   1.212   1.176  1.00  0.00    -0.304 OA
BRANCH  16  17
HETATM   17  C2  UNL     1       5.051   1.857   0.376  1.00  0.00     0.176 C 
HETATM   18  C1  UNL     1       5.543   1.020  -0.759  1.00  0.00     0.034 C 
ENDBRANCH  16  17
ENDBRANCH  13  16
ENDBRANCH   1  12
BRANCH   5  19
HETATM   19  C8  UNL     1      -0.537   1.314  -0.271  1.00  0.00     0.296 C 
HETATM   20  O3  UNL     1      -1.516   1.586  -1.047  1.00  0.00    -0.259 OA
BRANCH  19  21
HETATM   21  O4  UNL     1       0.336   2.332  -0.084  1.00  0.00    -0.318 OA
BRANCH  21  22
HETATM   22  C9  UNL     1       0.198   3.603  -0.687  1.00  0.00     0.174 C 
HETATM   23  C10 UNL     1      -1.118   4.201  -0.236  1.00  0.00     0.034 C 
ENDBRANCH  21  22
ENDBRANCH  19  21
ENDBRANCH   5  19
TORSDOF 6
