REMARK  4 active torsions:
REMARK  status: ('A' for Active; 'I' for Inactive)
REMARK    1  A    between atoms: C5_8  and  C6_9 
REMARK       I    between atoms: C6_9  and  N2_11 
REMARK    2  A    between atoms: N2_11  and  C7_13 
REMARK    3  A    between atoms: C7_13  and  C8_14 
REMARK    4  A    between atoms: C8_14  and  N3_15 
ROOT
HETATM    1  C8  UNL     1      -0.995  -0.401  -0.140  1.00  0.00     0.044 C 
HETATM    2  C14 UNL     1      -0.847  -0.840  -1.568  1.00  0.00     0.032 C 
HETATM    3  C15 UNL     1      -1.721  -1.979  -1.955  1.00  0.00     0.002 C 
HETATM    4  C16 UNL     1      -1.950  -3.013  -0.913  1.00  0.00     0.000 C 
HETATM    5  C17 UNL     1      -2.099  -2.472   0.491  1.00  0.00     0.002 C 
HETATM    6  C18 UNL     1      -0.873  -1.604   0.739  1.00  0.00     0.032 C 
ENDROOT
BRANCH   1   7
HETATM    7  C7  UNL     1       0.132   0.548   0.178  1.00  0.00     0.153 C 
BRANCH   7   8
HETATM    8  N2  UNL     1       1.451  -0.075   0.023  1.00  0.00    -0.354 N 
HETATM    9  C6  UNL     1       2.584   0.718   0.287  1.00  0.00     0.256 C 
HETATM   10  O2  UNL     1       2.407   1.951   0.656  1.00  0.00    -0.268 OA
ATOM     11  H2  UNL     1       1.544  -1.049  -0.266  1.00  0.00     0.162 HD
BRANCH   9  12
HETATM   12  C5  UNL     1       3.951   0.300   0.192  1.00  0.00     0.087 A 
HETATM   13  C2  UNL     1       5.053   1.102   0.567  1.00  0.00     0.047 A 
HETATM   14  C1  UNL     1       5.009   2.472   1.120  1.00  0.00     0.071 C 
HETATM   15  N1  UNL     1       6.116   0.332   0.303  1.00  0.00    -0.265 N 
HETATM   16  O1  UNL     1       5.767  -0.798  -0.170  1.00  0.00    -0.242 OA
ATOM     17  H1  UNL     1       7.083   0.615   0.461  1.00  0.00     0.194 HD
HETATM   18  C3  UNL     1       4.438  -0.896  -0.270  1.00  0.00     0.090 A 
HETATM   19  C4  UNL     1       3.749  -2.104  -0.792  1.00  0.00     0.080 C 
ENDBRANCH   9  12
ENDBRANCH   7   8
ENDBRANCH   1   7
BRANCH   1  20
HETATM   20  N3  UNL     1      -2.277   0.250   0.035  1.00  0.00    -0.395 N 
HETATM   21  C9  UNL     1      -2.551   0.685   1.362  1.00  0.00     0.118 C 
HETATM   22  C10 UNL     1      -2.468   2.213   1.494  1.00  0.00     0.027 C 
HETATM   23  C11 UNL     1      -3.705   2.745   0.774  1.00  0.00     0.081 C 
HETATM   24  C12 UNL     1      -3.811   1.964  -0.491  1.00  0.00     0.144 C 
HETATM   25  O3  UNL     1      -4.876   2.009  -1.076  1.00  0.00    -0.296 OA
HETATM   26  C13 UNL     1      -2.636   1.176  -0.981  1.00  0.00     0.196 C 
ENDBRANCH   1  20
TORSDOF 4
