REMARK  5 active torsions:
REMARK  status: ('A' for Active; 'I' for Inactive)
REMARK    1  A    between atoms: O1_2  and  C2_3 
REMARK    2  A    between atoms: C2_3  and  C3_5 
REMARK    3  A    between atoms: C4_6  and  N1_7 
REMARK       I    between atoms: N1_7  and  C5_9 
REMARK    4  A    between atoms: C5_9  and  C6_11 
REMARK    5  A    between atoms: C6_11  and  C7_12 
ROOT
HETATM    1  C7  UNL     1       4.062  -0.181  -0.294  1.00  0.00     0.033 C 
HETATM    2  C8  UNL     1       4.235  -1.574   0.061  1.00  0.00     0.096 C 
HETATM    3  N2  UNL     1       4.383  -2.682   0.360  1.00  0.00    -0.192 NA
HETATM    4  C9  UNL     1       4.836   0.742   0.267  1.00  0.00    -0.070 C 
HETATM    5  C10 UNL     1       4.648   2.165  -0.106  1.00  0.00     0.044 C 
HETATM    6  C11 UNL     1       5.871   0.338   1.252  1.00  0.00     0.044 C 
ENDROOT
BRANCH   1   7
HETATM    7  C6  UNL     1       3.024   0.198  -1.279  1.00  0.00     0.153 C 
BRANCH   7   8
HETATM    8  C5  UNL     1       1.656  -0.223  -0.777  1.00  0.00     0.227 C 
HETATM    9  N1  UNL     1       0.537   0.038  -1.547  1.00  0.00    -0.320 N 
ATOM     10  H1  UNL     1       0.740   0.478  -2.444  1.00  0.00     0.169 HD
HETATM   11  O3  UNL     1       1.655  -0.787   0.323  1.00  0.00    -0.273 OA
BRANCH   9  12
HETATM   12  C4  UNL     1      -0.856  -0.199  -1.311  1.00  0.00     0.094 A 
HETATM   13  C3  UNL     1      -1.668  -0.326  -0.246  1.00  0.00     0.080 A 
HETATM   14  C13 UNL     1      -2.923  -0.846  -0.438  1.00  0.00    -0.026 A 
HETATM   15  C12 UNL     1      -3.243  -1.186  -1.735  1.00  0.00    -0.008 A 
HETATM   16  C14 UNL     1      -4.066  -1.145   0.529  1.00  0.00     0.041 C 
HETATM   17  S1  UNL     1      -1.877  -0.805  -2.619  1.00  0.00    -0.075 SA
HETATM   18  C17 UNL     1      -4.589  -1.760  -2.077  1.00  0.00     0.047 C 
HETATM   19  C16 UNL     1      -5.690  -1.145  -1.282  1.00  0.00     0.005 C 
HETATM   20  C15 UNL     1      -5.242  -0.394  -0.053  1.00  0.00     0.005 C 
BRANCH  13  21
HETATM   21  C2  UNL     1      -1.323   0.351   1.061  1.00  0.00     0.296 C 
HETATM   22  O2  UNL     1      -2.024   0.186   2.081  1.00  0.00    -0.259 OA
BRANCH  21  23
HETATM   23  O1  UNL     1      -0.248   1.190   1.214  1.00  0.00    -0.322 OA
HETATM   24  C1  UNL     1       0.099   1.846   2.392  1.00  0.00     0.213 C 
ENDBRANCH  21  23
ENDBRANCH  13  21
ENDBRANCH   9  12
ENDBRANCH   7   8
ENDBRANCH   1   7
TORSDOF 5
