REMARK  7 active torsions:
REMARK  status: ('A' for Active; 'I' for Inactive)
REMARK    1  A    between atoms: C2_2  and  O2_4 
REMARK    2  A    between atoms: O2_4  and  C3_5 
REMARK    3  A    between atoms: C3_5  and  C4_6 
REMARK    4  A    between atoms: C4_6  and  C5_7 
REMARK    5  A    between atoms: C5_7  and  C6_8 
REMARK    6  A    between atoms: C17_21  and  C18_22 
REMARK    7  A    between atoms: C18_22  and  O5_23 
ROOT
HETATM    1  C6  UNL     1       0.243  -0.354  -1.102  1.00  0.00    -0.014 C 
HETATM    2  C7  UNL     1      -0.534  -1.322  -1.937  1.00  0.00     0.005 C 
HETATM    3  C8  UNL     1      -1.775  -1.920  -1.465  1.00  0.00     0.005 C 
HETATM    4  C9  UNL     1      -3.036  -1.106  -1.409  1.00  0.00    -0.009 C 
HETATM    5  C10 UNL     1      -3.880  -1.476  -0.214  1.00  0.00     0.031 C 
HETATM    6  C11 UNL     1      -3.200  -1.636   1.057  1.00  0.00    -0.028 C 
HETATM    7  C12 UNL     1      -2.499  -0.841   1.819  1.00  0.00     0.005 C 
HETATM    8  C13 UNL     1      -2.092   0.545   1.737  1.00  0.00     0.193 C 
HETATM    9  O3  UNL     1      -3.132   1.472   1.488  1.00  0.00    -0.230 OA
HETATM   10  O4  UNL     1      -3.734   1.127   0.418  1.00  0.00    -0.235 OA
HETATM   11  C14 UNL     1      -2.960   1.355  -0.683  1.00  0.00     0.161 C 
HETATM   12  C15 UNL     1      -2.954   0.331  -1.737  1.00  0.00     0.040 C 
HETATM   13  C16 UNL     1      -1.561   1.809  -0.232  1.00  0.00     0.050 C 
HETATM   14  C17 UNL     1      -0.964   0.881   0.781  1.00  0.00     0.016 C 
HETATM   15  C19 UNL     1      -0.150  -0.252   0.316  1.00  0.00     0.019 C 
ENDROOT
BRANCH   1  16
HETATM   16  C5  UNL     1       1.712  -0.713  -1.242  1.00  0.00     0.007 C 
BRANCH  16  17
HETATM   17  C4  UNL     1       2.667   0.155  -0.511  1.00  0.00     0.027 C 
BRANCH  17  18
HETATM   18  C3  UNL     1       4.062  -0.406  -0.829  1.00  0.00     0.178 C 
BRANCH  18  19
HETATM   19  O2  UNL     1       5.095   0.296  -0.221  1.00  0.00    -0.322 OA
BRANCH  19  20
HETATM   20  C2  UNL     1       5.320   0.476   1.121  1.00  0.00     0.254 C 
HETATM   21  C1  UNL     1       6.459   1.252   1.674  1.00  0.00     0.126 C 
HETATM   22  O1  UNL     1       4.515  -0.045   1.931  1.00  0.00    -0.266 OA
ENDBRANCH  19  20
ENDBRANCH  18  19
ENDBRANCH  17  18
ENDBRANCH  16  17
ENDBRANCH   1  16
BRANCH  14  23
HETATM   23  C18 UNL     1      -0.022   1.804   1.602  1.00  0.00     0.176 C 
BRANCH  23  24
HETATM   24  O5  UNL     1       0.385   1.041   2.692  1.00  0.00    -0.400 OA
ATOM     25  H5  UNL     1       0.961   1.605   3.194  1.00  0.00     0.209 HD
ENDBRANCH  23  24
ENDBRANCH  14  23
TORSDOF 7
