REMARK  4 active torsions:
REMARK  status: ('A' for Active; 'I' for Inactive)
REMARK    1  A    between atoms: S1_2  and  C2_3 
REMARK    2  A    between atoms: C3_4  and  N1_5 
REMARK    3  A    between atoms: N1_5  and  C4_7 
REMARK    4  A    between atoms: C4_7  and  C6_9 
REMARK       I    between atoms: C6_9  and  N2_11 
ROOT
HETATM    1  N1  UNL     1      -0.499   1.621   0.596  1.00  0.00    -0.370 N 
ATOM      2  H1  UNL     1      -0.835   2.576   0.471  1.00  0.00     0.161 HD
ENDROOT
BRANCH   1   3
HETATM    3  C3  UNL     1      -1.430   0.528   0.514  1.00  0.00     0.088 A 
HETATM    4  C2  UNL     1      -2.782   0.577   0.278  1.00  0.00     0.040 A 
HETATM    5  C13 UNL     1      -3.442  -0.585   0.249  1.00  0.00    -0.030 A 
HETATM    6  C11 UNL     1      -2.722  -1.730   0.458  1.00  0.00    -0.012 A 
HETATM    7  C14 UNL     1      -4.935  -0.727  -0.001  1.00  0.00     0.050 C 
HETATM    8  S3  UNL     1      -1.142  -1.150   0.687  1.00  0.00    -0.076 SA
HETATM    9  C12 UNL     1      -3.171  -3.165   0.486  1.00  0.00     0.057 C 
BRANCH   4  10
HETATM   10  S1  UNL     1      -3.623   2.179   0.015  1.00  0.00    -0.131 SA
HETATM   11  C1  UNL     1      -3.620   2.621  -1.723  1.00  0.00     0.095 C 
ENDBRANCH   4  10
ENDBRANCH   1   3
BRANCH   1  12
HETATM   12  C4  UNL     1       0.913   1.388   0.854  1.00  0.00     0.170 C 
HETATM   13  C5  UNL     1       1.109   0.682   2.169  1.00  0.00     0.042 C 
BRANCH  12  14
HETATM   14  C6  UNL     1       1.552   0.694  -0.303  1.00  0.00     0.242 C 
HETATM   15  O1  UNL     1       0.811   0.317  -1.287  1.00  0.00    -0.271 OA
HETATM   16  N2  UNL     1       2.927   0.407  -0.429  1.00  0.00    -0.349 N 
HETATM   17  C7  UNL     1       3.350  -0.277  -1.661  1.00  0.00     0.136 C 
HETATM   18  C10 UNL     1       3.932   0.755   0.517  1.00  0.00     0.136 C 
HETATM   19  C8  UNL     1       3.991  -1.597  -1.440  1.00  0.00     0.093 C 
HETATM   20  S2  UNL     1       5.159  -1.566  -0.046  1.00  0.00    -0.166 SA
HETATM   21  C9  UNL     1       4.446  -0.449   1.234  1.00  0.00     0.093 C 
ENDBRANCH  12  14
ENDBRANCH   1  12
TORSDOF 4
