REMARK  3 active torsions:
REMARK  status: ('A' for Active; 'I' for Inactive)
REMARK    1  A    between atoms: C2_5  and  N2_6 
REMARK    2  A    between atoms: N2_6  and  N3_8 
REMARK    3  A    between atoms: C11_21  and  C12_22 
ROOT
HETATM    1  S1  UNL     1       4.077  -1.805  -2.130  1.00  0.00    -0.059 SA
HETATM    2  C1  UNL     1       2.930  -1.251  -1.116  1.00  0.00     0.126 A 
HETATM    3  N1  UNL     1       1.797  -1.940  -0.923  1.00  0.00    -0.180 N 
ATOM      4  H1  UNL     1       1.657  -2.822  -1.416  1.00  0.00     0.185 HD
HETATM    5  C2  UNL     1       0.838  -1.488  -0.089  1.00  0.00     0.699 A 
HETATM    6  N4  UNL     1       1.037  -0.331   0.548  1.00  0.00    -0.179 N 
ATOM      7  H4  UNL     1       0.319   0.021   1.182  1.00  0.00     0.185 HD
HETATM    8  C10 UNL     1       2.191   0.395   0.366  1.00  0.00     0.129 A 
HETATM    9 CL1  UNL     1       2.314   1.897   1.233  1.00  0.00    -0.063 Cl
HETATM   10  C11 UNL     1       3.174  -0.033  -0.464  1.00  0.00     0.024 A 
ENDROOT
BRANCH   5  11
HETATM   11  N2  UNL     1      -0.266  -2.179   0.082  1.00  0.00    -0.132 N 
ATOM     12  H2  UNL     1      -0.417  -3.061  -0.408  1.00  0.00     0.205 HD
BRANCH  11  13
HETATM   13  N3  UNL     1      -1.220  -1.670   0.951  1.00  0.00    -0.295 N 
HETATM   14  C3  UNL     1      -2.360  -1.233   0.605  1.00  0.00     0.004 C 
HETATM   15  C4  UNL     1      -3.202  -0.740   1.720  1.00  0.00     0.054 C 
HETATM   16  C9  UNL     1      -2.648  -1.292  -0.824  1.00  0.00     0.054 C 
HETATM   17  C5  UNL     1      -3.118   0.779   1.737  1.00  0.00     0.006 C 
HETATM   18  C6  UNL     1      -3.918   1.305   0.581  1.00  0.00     0.000 C 
HETATM   19  C7  UNL     1      -3.037   1.196  -0.660  1.00  0.00     0.000 C 
HETATM   20  C8  UNL     1      -3.383  -0.090  -1.364  1.00  0.00     0.006 C 
ATOM     21  H3  UNL     1      -0.987  -1.645   1.944  1.00  0.00     0.186 HD
ENDBRANCH  11  13
ENDBRANCH   5  11
BRANCH  10  22
HETATM   22  C12 UNL     1       4.414   0.700  -0.724  1.00  0.00     0.025 A 
HETATM   23  C13 UNL     1       4.982   1.762   0.089  1.00  0.00     0.010 A 
HETATM   24  C14 UNL     1       5.719   0.400  -0.144  1.00  0.00     0.010 A 
ENDBRANCH  10  22
TORSDOF 3
