REMARK  4 active torsions:
REMARK  status: ('A' for Active; 'I' for Inactive)
REMARK    1  A    between atoms: O1_1  and  C1_3 
REMARK    2  A    between atoms: C3_5  and  O2_6 
REMARK    3  A    between atoms: C4_8  and  C5_9 
REMARK    4  A    between atoms: N1_10  and  C6_12 
ROOT
HETATM    1  C1  UNL     1       4.577   0.506   0.300  1.00  0.00     0.085 A 
HETATM    2  C2  UNL     1       4.333  -0.845   0.301  1.00  0.00     0.075 A 
HETATM    3  C3  UNL     1       3.070  -1.375   0.072  1.00  0.00     0.080 A 
HETATM    4  C4  UNL     1       2.021  -0.524  -0.166  1.00  0.00     0.013 A 
HETATM    5  C13 UNL     1       2.297   0.849  -0.161  1.00  0.00     0.037 A 
HETATM    6  C14 UNL     1       3.544   1.365   0.065  1.00  0.00     0.045 A 
HETATM    7 BR1  UNL     1       3.833   3.251   0.054  1.00  0.00    -0.048 Br
ENDROOT
BRANCH   4   8
HETATM    8  C5  UNL     1       0.658  -0.979  -0.418  1.00  0.00     0.097 C 
HETATM    9  N1  UNL     1      -0.246  -0.100  -0.628  1.00  0.00    -0.393 N 
ATOM     10  H1  UNL     1       0.050   0.876  -0.605  1.00  0.00     0.159 HD
BRANCH   9  11
HETATM   11  C6  UNL     1      -1.622  -0.344  -0.891  1.00  0.00     0.089 C 
HETATM   12  C7  UNL     1      -2.366  -0.883   0.344  1.00  0.00     0.009 C 
HETATM   13  C8  UNL     1      -3.790  -0.589  -0.038  1.00  0.00     0.007 C 
HETATM   14  C12 UNL     1      -1.930   0.143   1.347  1.00  0.00     0.007 C 
HETATM   15  C9  UNL     1      -3.752   0.620  -0.977  1.00  0.00     0.007 C 
HETATM   16  C10 UNL     1      -2.319   1.026  -0.883  1.00  0.00     0.009 C 
HETATM   17  C11 UNL     1      -2.057   1.437   0.561  1.00  0.00     0.007 C 
ENDBRANCH   9  11
ENDBRANCH   4   8
BRANCH   3  18
HETATM   18  O2  UNL     1       2.864  -2.735   0.081  1.00  0.00    -0.360 OA
ATOM     19  H2  UNL     1       2.000  -3.098  -0.076  1.00  0.00     0.217 HD
ENDBRANCH   3  18
BRANCH   1  20
HETATM   20  O1  UNL     1       5.839   1.036   0.530  1.00  0.00    -0.359 OA
ATOM     21  H1  UNL     1       6.008   1.971   0.529  1.00  0.00     0.217 HD
ENDBRANCH   1  20
TORSDOF 4
