REMARK  3 active torsions:
REMARK  status: ('A' for Active; 'I' for Inactive)
REMARK    1  A    between atoms: N1_1  and  C1_4 
REMARK    2  A    between atoms: C2_7  and  C3_8 
REMARK    3  A    between atoms: C10_18  and  C11_20 
ROOT
HETATM    1  C1  UNL     1      -1.367  -3.022   1.185  1.00  0.00     0.676 A 
HETATM    2  N2  UNL     1      -2.384  -2.256   0.796  1.00  0.00    -0.190 N 
ATOM      3  H2  UNL     1      -3.296  -2.695   0.671  1.00  0.00     0.184 HD
HETATM    4  C2  UNL     1      -2.274  -0.899   0.552  1.00  0.00     0.074 A 
HETATM    5  C7  UNL     1      -1.061  -0.371   0.734  1.00  0.00    -0.006 A 
HETATM    6  C8  UNL     1       0.047  -1.164   1.145  1.00  0.00     0.038 A 
HETATM    7  N3  UNL     1      -0.137  -2.442   1.355  1.00  0.00    -0.195 N 
ATOM      8  H3  UNL     1       0.651  -3.018   1.651  1.00  0.00     0.184 HD
HETATM    9  C9  UNL     1       1.311  -0.434   1.263  1.00  0.00     0.102 C 
HETATM   10  C10 UNL     1       1.508   0.306  -0.046  1.00  0.00     0.112 C 
HETATM   11  F1  UNL     1       1.428  -0.637  -1.051  1.00  0.00    -0.242 F 
HETATM   12  C15 UNL     1       0.449   1.346  -0.202  1.00  0.00     0.049 C 
HETATM   13  C16 UNL     1      -0.779   1.076   0.642  1.00  0.00     0.046 C 
ENDROOT
BRANCH   4  14
HETATM   14  C3  UNL     1      -3.459  -0.249   0.005  1.00  0.00     0.032 A 
HETATM   15  C4  UNL     1      -3.662   0.796  -0.840  1.00  0.00     0.021 A 
HETATM   16  C5  UNL     1      -4.931   1.084  -1.210  1.00  0.00     0.008 A 
HETATM   17  C6  UNL     1      -5.926   0.301  -0.710  1.00  0.00     0.050 A 
HETATM   18  S1  UNL     1      -5.093  -0.811   0.257  1.00  0.00    -0.100 SA
ENDBRANCH   4  14
BRANCH   1  19
HETATM   19  N1  UNL     1      -1.503  -4.284   1.404  1.00  0.00    -0.234 N 
ATOM     20  H12 UNL     1      -2.418  -4.716   1.277  1.00  0.00     0.174 HD
ATOM     21  H11 UNL     1      -0.724  -4.871   1.702  1.00  0.00     0.174 HD
ENDBRANCH   1  19
BRANCH  10  22
HETATM   22  C11 UNL     1       2.886   0.918  -0.006  1.00  0.00     0.026 C 
HETATM   23  C12 UNL     1       3.289   1.700  -1.211  1.00  0.00     0.008 C 
HETATM   24  C13 UNL     1       4.540   0.864  -1.343  1.00  0.00     0.001 C 
HETATM   25  C14 UNL     1       3.936  -0.116  -0.354  1.00  0.00     0.008 C 
ENDBRANCH  10  22
TORSDOF 3
