REMARK  4 active torsions:
REMARK  status: ('A' for Active; 'I' for Inactive)
REMARK    1  A    between atoms: O1_2  and  C2_3 
REMARK    2  A    between atoms: C3_4  and  O2_5 
REMARK    3  A    between atoms: C5_8  and  C6_9 
REMARK    4  A    between atoms: C6_9  and  O3_10 
ROOT
HETATM    1  C2  UNL     1       2.897   0.100  -0.687  1.00  0.00     0.118 A 
HETATM    2  C3  UNL     1       2.529  -1.118  -0.117  1.00  0.00     0.101 A 
HETATM    3  C4  UNL     1       1.196  -1.325   0.129  1.00  0.00     0.049 A 
HETATM    4  C5  UNL     1       0.194  -0.418  -0.144  1.00  0.00    -0.020 A 
HETATM    5  C12 UNL     1       0.563   0.787  -0.707  1.00  0.00     0.032 A 
HETATM    6  C13 UNL     1       1.918   1.021  -0.969  1.00  0.00     0.047 A 
HETATM    7 BR1  UNL     1       2.422   2.679  -1.734  1.00  0.00    -0.048 Br
ENDROOT
BRANCH   4   8
HETATM    8  C6  UNL     1      -1.237  -0.733   0.149  1.00  0.00     0.085 C 
HETATM    9  C7  UNL     1      -1.692   0.017   1.359  1.00  0.00     0.043 C 
HETATM   10  C8  UNL     1      -3.205   0.131   1.258  1.00  0.00     0.003 C 
HETATM   11  C9  UNL     1      -3.431   1.178   0.179  1.00  0.00     0.000 C 
HETATM   12  C10 UNL     1      -2.977   0.615  -1.111  1.00  0.00     0.003 C 
HETATM   13  C11 UNL     1      -2.106  -0.574  -1.043  1.00  0.00     0.043 C 
BRANCH   8  14
HETATM   14  O3  UNL     1      -1.258  -2.105   0.502  1.00  0.00    -0.385 OA
ATOM     15  H3  UNL     1      -2.168  -2.305   0.688  1.00  0.00     0.211 HD
ENDBRANCH   8  14
ENDBRANCH   4   8
BRANCH   2  16
HETATM   16  O2  UNL     1       3.491  -2.081   0.190  1.00  0.00    -0.358 OA
ATOM     17  H2  UNL     1       3.240  -2.911   0.578  1.00  0.00     0.217 HD
ENDBRANCH   2  16
BRANCH   1  18
HETATM   18  O1  UNL     1       4.226   0.312  -0.930  1.00  0.00    -0.352 OA
HETATM   19  C1  UNL     1       5.162   0.888  -0.051  1.00  0.00     0.210 C 
ENDBRANCH   1  18
TORSDOF 4
