REMARK  16 active torsions:
REMARK  status: ('A' for Active; 'I' for Inactive)
REMARK    1  A    between atoms: O1_2  and  C2_3 
REMARK    2  A    between atoms: C2_3  and  C3_4 
REMARK    3  A    between atoms: C3_4  and  O2_5 
REMARK    4  A    between atoms: O2_5  and  C4_6 
REMARK    5  A    between atoms: C6_8  and  C7_9 
REMARK       I    between atoms: C7_9  and  N1_11 
REMARK    6  A    between atoms: N1_11  and  C8_13 
REMARK    7  A    between atoms: C8_13  and  O4_14 
REMARK    8  A    between atoms: C8_13  and  C9_16 
REMARK    9  A    between atoms: C9_16  and  N2_17 
REMARK       I    between atoms: N2_17  and  C10_19 
REMARK   10  A    between atoms: C10_19  and  C11_21 
REMARK   11  A    between atoms: C11_21  and  N3_22 
REMARK   12  A    between atoms: C11_21  and  C17_31 
REMARK       I    between atoms: N3_22  and  C12_24 
REMARK   13  A    between atoms: C12_24  and  O7_26 
REMARK   14  A    between atoms: O7_26  and  C13_27 
REMARK   15  A    between atoms: C24_38  and  O8_39 
REMARK   16  A    between atoms: C27_42  and  O9_43 
ROOT
HETATM    1  C9  UNL     1      -0.578  -0.456  -0.122  1.00  0.00     0.098 C 
HETATM    2  C20 UNL     1      -0.242   0.630  -1.089  1.00  0.00     0.040 C 
HETATM    3  C21 UNL     1       0.232   0.053  -2.375  1.00  0.00     0.003 C 
HETATM    4  C22 UNL     1       0.190  -1.430  -2.240  1.00  0.00     0.003 C 
HETATM    5  C23 UNL     1      -0.179  -1.726  -0.818  1.00  0.00     0.040 C 
ENDROOT
BRANCH   1   6
HETATM    6  C8  UNL     1       0.041  -0.281   1.189  1.00  0.00     0.147 C 
BRANCH   6   7
HETATM    7  N1  UNL     1       1.312  -0.192   1.717  1.00  0.00    -0.305 N 
HETATM    8  C7  UNL     1       2.571  -0.268   1.181  1.00  0.00     0.260 C 
HETATM    9  O3  UNL     1       2.740  -0.509  -0.062  1.00  0.00    -0.267 OA
ATOM     10  H1  UNL     1       1.316  -0.036   2.725  1.00  0.00     0.171 HD
BRANCH   8  11
HETATM   11  C6  UNL     1       3.851  -0.088   1.896  1.00  0.00     0.068 A 
HETATM   12  C5  UNL     1       5.027  -0.292   1.171  1.00  0.00     0.059 A 
HETATM   13  C4  UNL     1       6.276  -0.191   1.719  1.00  0.00     0.103 A 
HETATM   14  C27 UNL     1       6.333   0.136   3.068  1.00  0.00     0.104 A 
HETATM   15  C26 UNL     1       5.206   0.340   3.802  1.00  0.00     0.077 A 
HETATM   16  C24 UNL     1       3.938   0.230   3.221  1.00  0.00     0.086 A 
BRANCH  13  17
HETATM   17  O2  UNL     1       7.454  -0.389   1.032  1.00  0.00    -0.346 OA
BRANCH  17  18
HETATM   18  C3  UNL     1       7.504  -0.727  -0.335  1.00  0.00     0.201 C 
BRANCH  18  19
HETATM   19  C2  UNL     1       8.960  -0.872  -0.728  1.00  0.00     0.193 C 
BRANCH  19  20
HETATM   20  O1  UNL     1       9.668   0.304  -0.526  1.00  0.00    -0.394 OA
HETATM   21  C1  UNL     1       9.169   1.368  -1.272  1.00  0.00     0.201 C 
ENDBRANCH  19  20
ENDBRANCH  18  19
ENDBRANCH  17  18
ENDBRANCH  13  17
BRANCH  14  22
HETATM   22  O9  UNL     1       7.572   0.260   3.693  1.00  0.00    -0.353 OA
HETATM   23  C28 UNL     1       7.619   0.597   5.050  1.00  0.00     0.210 C 
ENDBRANCH  14  22
BRANCH  16  24
HETATM   24  O8  UNL     1       2.827   0.452   4.015  1.00  0.00    -0.355 OA
HETATM   25  C25 UNL     1       2.971   0.778   5.373  1.00  0.00     0.210 C 
ENDBRANCH  16  24
ENDBRANCH   8  11
ENDBRANCH   6   7
BRANCH   6  26
HETATM   26  O4  UNL     1      -0.874  -0.170   2.169  1.00  0.00    -0.347 OA
ATOM     27  H4  UNL     1      -1.749  -0.231   1.805  1.00  0.00     0.219 HD
ENDBRANCH   6  26
ENDBRANCH   1   6
BRANCH   1  28
HETATM   28  N2  UNL     1      -2.053  -0.483   0.091  1.00  0.00    -0.342 N 
HETATM   29  C10 UNL     1      -3.036  -0.552  -0.882  1.00  0.00     0.241 C 
HETATM   30  O5  UNL     1      -2.768  -0.585  -2.106  1.00  0.00    -0.271 OA
ATOM     31  H2  UNL     1      -2.373  -0.447   1.059  1.00  0.00     0.163 HD
BRANCH  29  32
HETATM   32  C11 UNL     1      -4.500  -0.590  -0.562  1.00  0.00     0.182 C 
BRANCH  32  33
HETATM   33  N3  UNL     1      -5.277  -0.469  -1.787  1.00  0.00    -0.323 N 
HETATM   34  C12 UNL     1      -6.208   0.585  -1.917  1.00  0.00     0.362 C 
HETATM   35  O6  UNL     1      -6.355   1.398  -0.967  1.00  0.00    -0.238 OA
ATOM     36  H3  UNL     1      -5.150  -1.140  -2.545  1.00  0.00     0.165 HD
BRANCH  34  37
HETATM   37  O7  UNL     1      -6.985   0.782  -3.049  1.00  0.00    -0.294 OA
BRANCH  37  38
HETATM   38  C13 UNL     1      -7.915   1.861  -3.140  1.00  0.00     0.061 C 
HETATM   39  C14 UNL     1      -8.961   1.801  -2.076  1.00  0.00     0.046 C 
HETATM   40  C15 UNL     1      -8.561   1.850  -4.489  1.00  0.00     0.046 C 
HETATM   41  C16 UNL     1      -7.144   3.171  -2.977  1.00  0.00     0.046 C 
ENDBRANCH  37  38
ENDBRANCH  34  37
ENDBRANCH  32  33
BRANCH  32  42
HETATM   42  C17 UNL     1      -4.892  -1.928   0.018  1.00  0.00     0.009 C 
HETATM   43  C18 UNL     1      -4.593  -3.043  -0.959  1.00  0.00     0.012 C 
HETATM   44  C19 UNL     1      -4.321  -2.248   1.350  1.00  0.00     0.012 C 
ENDBRANCH  32  42
ENDBRANCH  29  32
ENDBRANCH   1  28
TORSDOF 16
