REMARK  16 active torsions:
REMARK  status: ('A' for Active; 'I' for Inactive)
REMARK    1  A    between atoms: O1_2  and  C2_3 
REMARK    2  A    between atoms: C5_6  and  C6_7 
REMARK    3  A    between atoms: C6_7  and  C7_8 
REMARK    4  A    between atoms: C7_8  and  O2_9 
REMARK    5  A    between atoms: N1_11  and  O3_13 
REMARK    6  A    between atoms: N2_17  and  C10_18 
REMARK    7  A    between atoms: C10_18  and  O4_19 
REMARK    8  A    between atoms: C11_21  and  N3_22 
REMARK    9  A    between atoms: N4_25  and  C14_26 
REMARK   10  A    between atoms: C14_26  and  C15_27 
REMARK   11  A    between atoms: C15_27  and  C16_28 
REMARK   12  A    between atoms: C16_28  and  C17_29 
REMARK   13  A    between atoms: C17_29  and  C18_30 
REMARK   14  A    between atoms: C18_30  and  C19_31 
REMARK   15  A    between atoms: C19_31  and  C20_32 
REMARK   16  A    between atoms: C20_32  and  N5_33 
ROOT
HETATM    1  C10 UNL     1      -2.727   1.847   0.716  1.00  0.00     0.149 C 
HETATM    2  C11 UNL     1      -1.295   2.029   0.620  1.00  0.00     0.115 C 
ENDROOT
BRANCH   1   3
HETATM    3  N2  UNL     1      -3.612   1.156  -0.106  1.00  0.00    -0.352 N 
HETATM    4  C9  UNL     1      -5.031   1.089   0.374  1.00  0.00     0.129 C 
HETATM    5  C2  UNL     1      -5.984   1.437  -0.699  1.00  0.00     0.141 C 
HETATM    6  C8  UNL     1      -5.253  -0.176   1.121  1.00  0.00     0.033 C 
HETATM    7  C3  UNL     1      -7.381   1.003  -0.331  1.00  0.00     0.049 C 
HETATM    8  C30 UNL     1      -5.651   0.779  -2.000  1.00  0.00     0.168 C 
HETATM    9  C4  UNL     1      -7.386  -0.486  -0.149  1.00  0.00     0.008 C 
HETATM   10  C5  UNL     1      -6.603  -0.766   1.112  1.00  0.00    -0.005 C 
HETATM   11  C28 UNL     1      -4.297   0.459  -2.405  1.00  0.00     0.072 C 
HETATM   12  O6  UNL     1      -6.572   0.511  -2.740  1.00  0.00    -0.294 OA
HETATM   13  C27 UNL     1      -3.235   0.581  -1.345  1.00  0.00     0.137 C 
HETATM   14  C29 UNL     1      -4.219  -0.909  -3.099  1.00  0.00     0.020 C 
BRANCH   5  15
HETATM   15  O1  UNL     1      -6.033   2.806  -1.018  1.00  0.00    -0.375 OA
HETATM   16  C1  UNL     1      -6.497   3.631  -0.048  1.00  0.00     0.203 C 
ENDBRANCH   5  15
BRANCH  10  17
HETATM   17  C6  UNL     1      -6.587  -2.249   1.437  1.00  0.00     0.090 C 
BRANCH  17  18
HETATM   18  C7  UNL     1      -7.959  -2.766   1.640  1.00  0.00     0.135 C 
HETATM   19  N1  UNL     1      -8.380  -3.700   0.860  1.00  0.00    -0.251 N 
ATOM     20  H1  UNL     1      -7.761  -4.052   0.130  1.00  0.00     0.196 HD
BRANCH  18  21
HETATM   21  O2  UNL     1      -8.823  -2.305   2.621  1.00  0.00    -0.348 OA
ATOM     22  H2  UNL     1      -9.704  -2.637   2.751  1.00  0.00     0.219 HD
ENDBRANCH  18  21
BRANCH  19  23
HETATM   23  O3  UNL     1      -9.646  -4.239   0.983  1.00  0.00    -0.288 OA
ATOM     24  H3  UNL     1      -9.957  -4.928   0.408  1.00  0.00     0.244 HD
ENDBRANCH  19  23
ENDBRANCH  17  18
ENDBRANCH  10  17
ENDBRANCH   1   3
BRANCH   1  25
HETATM   25  O4  UNL     1      -3.254   2.457   1.780  1.00  0.00    -0.345 OA
ATOM     26  H4  UNL     1      -2.650   2.929   2.341  1.00  0.00     0.219 HD
ENDBRANCH   1  25
BRANCH   2  27
HETATM   27  N3  UNL     1      -0.517   1.380  -0.362  1.00  0.00    -0.286 NA
HETATM   28  C12 UNL     1       0.795   2.055  -0.394  1.00  0.00     0.125 C 
HETATM   29  C13 UNL     1       1.854   1.092  -0.863  1.00  0.00     0.287 C 
HETATM   30  N4  UNL     1       2.204   0.155   0.204  1.00  0.00     0.090 N 
HETATM   31  C25 UNL     1       0.971  -0.008   0.990  1.00  0.00     0.287 C 
HETATM   32  C26 UNL     1      -0.177  -0.002   0.035  1.00  0.00     0.125 C 
BRANCH  30  33
HETATM   33  C14 UNL     1       3.137   0.820   1.125  1.00  0.00     0.272 C 
BRANCH  33  34
HETATM   34  C15 UNL     1       3.521  -0.184   2.178  1.00  0.00     0.030 C 
BRANCH  34  35
HETATM   35  C16 UNL     1       4.188  -1.402   1.603  1.00  0.00     0.002 C 
BRANCH  35  36
HETATM   36  C17 UNL     1       5.439  -0.930   0.877  1.00  0.00     0.000 C 
BRANCH  36  37
HETATM   37  C18 UNL     1       6.202  -2.108   0.268  1.00  0.00     0.002 C 
BRANCH  37  38
HETATM   38  C19 UNL     1       7.410  -1.558  -0.445  1.00  0.00     0.020 C 
BRANCH  38  39
HETATM   39  C20 UNL     1       8.339  -0.804   0.475  1.00  0.00     0.125 C 
BRANCH  39  40
HETATM   40  N5  UNL     1       9.452  -0.324  -0.358  1.00  0.00    -0.352 N 
HETATM   41  C21 UNL     1      10.650  -1.062  -0.584  1.00  0.00     0.126 C 
HETATM   42  C22 UNL     1      11.416  -0.337  -1.639  1.00  0.00     0.029 C 
HETATM   43  C23 UNL     1      10.928   1.101  -1.526  1.00  0.00     0.104 C 
HETATM   44  C24 UNL     1       9.527   0.906  -1.050  1.00  0.00     0.219 C 
HETATM   45  O5  UNL     1       8.573   1.701  -1.234  1.00  0.00    -0.273 OA
ENDBRANCH  39  40
ENDBRANCH  38  39
ENDBRANCH  37  38
ENDBRANCH  36  37
ENDBRANCH  35  36
ENDBRANCH  34  35
ENDBRANCH  33  34
ENDBRANCH  30  33
ENDBRANCH   2  27
TORSDOF 16
