REMARK  17 active torsions:
REMARK  status: ('A' for Active; 'I' for Inactive)
REMARK    1  A    between atoms: C3_3  and  O1_5 
REMARK    2  A    between atoms: O1_5  and  C5_6 
REMARK       I    between atoms: C5_6  and  N1_8 
REMARK    3  A    between atoms: C8_12  and  O3_13 
REMARK    4  A    between atoms: C8_12  and  C9_15 
REMARK    5  A    between atoms: C9_15  and  C10_16 
REMARK    6  A    between atoms: C10_16  and  C11_17 
REMARK    7  A    between atoms: C11_17  and  C13_19 
REMARK    8  A    between atoms: C11_17  and  C16_24 
REMARK    9  A    between atoms: C13_19  and  C14_20 
REMARK   10  A    between atoms: C14_20  and  O5_22 
REMARK   11  A    between atoms: C20_28  and  C21_29 
REMARK   12  A    between atoms: C21_29  and  C22_30 
REMARK   13  A    between atoms: C22_30  and  N3_31 
REMARK       I    between atoms: C23_33  and  N5_35 
REMARK   14  A    between atoms: N5_35  and  C24_37 
REMARK   15  A    between atoms: C24_37  and  C25_38 
REMARK   16  A    between atoms: C25_38  and  C26_39 
REMARK   17  A    between atoms: C26_39  and  C27_40 
ROOT
HETATM    1  C1  UNL     1      -4.131   4.901   3.417  1.00  0.00     0.015 C 
HETATM    2  C2  UNL     1      -4.671   5.101   2.365  1.00  0.00    -0.085 C 
HETATM    3  C3  UNL     1      -5.350   5.358   1.089  1.00  0.00     0.207 C 
HETATM    4  C4  UNL     1      -5.328   6.839   0.764  1.00  0.00     0.054 C 
ENDROOT
BRANCH   3   5
HETATM    5  O1  UNL     1      -4.623   4.690   0.082  1.00  0.00    -0.285 OA
BRANCH   5   6
HETATM    6  C5  UNL     1      -5.182   3.741  -0.754  1.00  0.00     0.388 C 
HETATM    7  O2  UNL     1      -6.391   3.475  -0.592  1.00  0.00    -0.236 OA
HETATM    8  N1  UNL     1      -4.437   3.077  -1.767  1.00  0.00    -0.189 N 
HETATM    9  C6  UNL     1      -5.075   2.102  -2.617  1.00  0.00     0.183 C 
HETATM   10  O7  UNL     1      -3.103   3.350  -1.962  1.00  0.00    -0.174 OA
HETATM   11  C7  UNL     1      -4.123   1.131  -3.253  1.00  0.00     0.159 C 
HETATM   12  N2  UNL     1      -2.848   1.037  -2.438  1.00  0.00    -0.270 N 
HETATM   13  C8  UNL     1      -2.506  -0.204  -2.021  1.00  0.00     0.156 C 
HETATM   14  C29 UNL     1      -2.223   2.308  -2.320  1.00  0.00     0.391 C 
HETATM   15  O6  UNL     1      -1.014   2.456  -2.524  1.00  0.00    -0.236 OA
BRANCH  13  16
HETATM   16  O3  UNL     1      -3.275  -1.151  -2.557  1.00  0.00    -0.345 OA
ATOM     17  H3  UNL     1      -3.035  -2.022  -2.264  1.00  0.00     0.219 HD
ENDBRANCH  13  16
BRANCH  13  18
HETATM   18  C9  UNL     1      -1.476  -0.785  -1.095  1.00  0.00     0.008 C 
HETATM   19  C20 UNL     1      -0.790   0.212  -0.339  1.00  0.00    -0.010 C 
BRANCH  18  20
HETATM   20  C10 UNL     1      -1.482  -2.041  -1.019  1.00  0.00    -0.001 C 
BRANCH  20  21
HETATM   21  C11 UNL     1      -0.915  -3.268  -0.458  1.00  0.00    -0.010 C 
HETATM   22  C12 UNL     1      -1.406  -4.335  -1.575  1.00  0.00     0.021 C 
BRANCH  21  23
HETATM   23  C13 UNL     1       0.542  -3.253  -0.780  1.00  0.00     0.125 C 
BRANCH  23  24
HETATM   24  C14 UNL     1       1.421  -4.323  -0.371  1.00  0.00     0.259 C 
HETATM   25  O4  UNL     1       2.021  -4.260   0.721  1.00  0.00    -0.265 OA
BRANCH  24  26
HETATM   26  O5  UNL     1       1.656  -5.449  -1.129  1.00  0.00    -0.326 OA
HETATM   27  C15 UNL     1       2.537  -6.439  -0.641  1.00  0.00     0.213 C 
ENDBRANCH  24  26
ENDBRANCH  23  24
ENDBRANCH  21  23
BRANCH  21  28
HETATM   28  C16 UNL     1      -1.473  -3.838   0.740  1.00  0.00    -0.040 C 
HETATM   29  C17 UNL     1      -0.891  -5.111   1.310  1.00  0.00     0.015 C 
HETATM   30  C18 UNL     1      -2.944  -4.327   0.403  1.00  0.00     0.015 C 
HETATM   31  C19 UNL     1      -1.765  -3.009   1.959  1.00  0.00     0.015 C 
ENDBRANCH  21  28
ENDBRANCH  20  21
ENDBRANCH  18  20
BRANCH  19  32
HETATM   32  C21 UNL     1       0.010   0.018   0.879  1.00  0.00     0.048 C 
BRANCH  32  33
HETATM   33  C22 UNL     1       0.596   1.394   1.319  1.00  0.00     0.126 C 
BRANCH  33  34
HETATM   34  N3  UNL     1       1.446   1.932   0.295  1.00  0.00    -0.364 N 
HETATM   35  C23 UNL     1       2.667   1.650   0.123  1.00  0.00     0.183 C 
HETATM   36  N4  UNL     1       3.389   2.258  -0.931  1.00  0.00    -0.064 NA
HETATM   37  N5  UNL     1       3.326   0.732   0.968  1.00  0.00    -0.365 N 
ATOM     38  H5  UNL     1       2.786   0.306   1.721  1.00  0.00     0.162 HD
ATOM     39  H3  UNL     1       1.028   2.601  -0.351  1.00  0.00     0.162 HD
BRANCH  37  40
HETATM   40  C24 UNL     1       4.715   0.355   0.837  1.00  0.00     0.122 C 
BRANCH  40  41
HETATM   41  C25 UNL     1       5.674   1.464   1.163  1.00  0.00     0.020 C 
BRANCH  41  42
HETATM   42  C26 UNL     1       7.092   0.962   0.999  1.00  0.00     0.001 C 
BRANCH  42  43
HETATM   43  C27 UNL     1       8.054   2.103   1.336  1.00  0.00    -0.004 C 
HETATM   44  C28 UNL     1       7.827   3.277   0.413  1.00  0.00     0.005 C 
ENDBRANCH  42  43
ENDBRANCH  41  42
ENDBRANCH  40  41
ENDBRANCH  37  40
ENDBRANCH  33  34
ENDBRANCH  32  33
ENDBRANCH  19  32
ENDBRANCH  13  18
ENDBRANCH   5   6
ENDBRANCH   3   5
TORSDOF 17
