REMARK  14 active torsions:
REMARK  status: ('A' for Active; 'I' for Inactive)
REMARK    1  A    between atoms: C3_3  and  C4_4 
REMARK    2  A    between atoms: N1_6  and  S1_8 
REMARK    3  A    between atoms: S1_8  and  C6_11 
REMARK    4  A    between atoms: C6_11  and  C7_12 
REMARK    5  A    between atoms: C7_12  and  O3_13 
REMARK    6  A    between atoms: O3_13  and  C8_14 
REMARK    7  A    between atoms: C8_14  and  C9_15 
REMARK    8  A    between atoms: C9_15  and  N2_16 
REMARK    9  A    between atoms: C11_23  and  C12_24 
REMARK   10  A    between atoms: C12_24  and  C13_25 
REMARK   11  A    between atoms: C13_25  and  C14_26 
REMARK   12  A    between atoms: C14_26  and  C15_27 
REMARK   13  A    between atoms: C15_27  and  C16_28 
REMARK       I    between atoms: N7_34  and  C18_36 
REMARK   14  A    between atoms: C18_36  and  C19_38 
ROOT
HETATM    1  C1  UNL     1      12.452  -3.330  -0.859  1.00  0.00     0.112 C 
HETATM    2  C2  UNL     1      11.082  -3.083  -0.406  1.00  0.00    -0.104 C 
HETATM    3  C3  UNL     1       9.948  -2.859  -0.013  1.00  0.00    -0.053 C 
ENDROOT
BRANCH   3   4
HETATM    4  C4  UNL     1       8.616  -2.626   0.436  1.00  0.00     0.069 C 
HETATM    5  C5  UNL     1       7.622  -3.752   0.441  1.00  0.00     0.079 C 
HETATM    6  N1  UNL     1       8.164  -1.500   0.861  1.00  0.00    -0.281 N 
ATOM      7  H1  UNL     1       7.194  -1.421   1.165  1.00  0.00     0.179 HD
BRANCH   6   8
HETATM    8  S1  UNL     1       9.193  -0.134   0.916  1.00  0.00     0.233 S 
HETATM    9  O1  UNL     1      10.586  -0.567   1.271  1.00  0.00    -0.206 OA
HETATM   10  O2  UNL     1       8.730   0.808   2.013  1.00  0.00    -0.206 OA
BRANCH   8  11
HETATM   11  C6  UNL     1       9.226   0.775  -0.602  1.00  0.00     0.189 C 
BRANCH  11  12
HETATM   12  C7  UNL     1       7.832   1.287  -0.932  1.00  0.00     0.184 C 
BRANCH  12  13
HETATM   13  O3  UNL     1       7.368   2.110   0.087  1.00  0.00    -0.385 OA
BRANCH  13  14
HETATM   14  C8  UNL     1       6.119   2.599  -0.267  1.00  0.00     0.212 C 
BRANCH  14  15
HETATM   15  C9  UNL     1       5.537   3.475   0.817  1.00  0.00     0.089 C 
BRANCH  15  16
HETATM   16  N2  UNL     1       4.274   4.018   0.526  1.00  0.00    -0.347 N 
HETATM   17  C10 UNL     1       3.128   3.436   0.436  1.00  0.00     0.164 A 
HETATM   18  N3  UNL     1       2.762   2.163   0.584  1.00  0.00    -0.279 N 
HETATM   19  S3  UNL     1       1.597   4.166   0.063  1.00  0.00    -0.038 SA
HETATM   20  N4  UNL     1       1.543   1.843   0.433  1.00  0.00    -0.296 N 
ATOM     21  H3  UNL     1       3.455   1.452   0.817  1.00  0.00     0.189 HD
HETATM   22  C11 UNL     1       0.639   2.756   0.133  1.00  0.00     0.069 A 
ATOM     23  H4  UNL     1       1.259   0.870   0.545  1.00  0.00     0.187 HD
ATOM     24  H2  UNL     1       4.263   5.025   0.361  1.00  0.00     0.167 HD
BRANCH  22  25
HETATM   25  C12 UNL     1      -0.841   2.576  -0.098  1.00  0.00     0.066 C 
BRANCH  25  26
HETATM   26  C13 UNL     1      -1.148   1.112   0.006  1.00  0.00     0.007 C 
BRANCH  26  27
HETATM   27  C14 UNL     1      -2.617   0.815  -0.209  1.00  0.00     0.007 C 
BRANCH  27  28
HETATM   28  C15 UNL     1      -3.028   1.313  -1.594  1.00  0.00     0.066 C 
BRANCH  28  29
HETATM   29  C16 UNL     1      -4.482   0.975  -1.757  1.00  0.00     0.069 A 
HETATM   30  N5  UNL     1      -5.294   1.240  -2.771  1.00  0.00    -0.296 N 
HETATM   31  N6  UNL     1      -6.501   0.868  -2.742  1.00  0.00    -0.279 N 
ATOM     32  H5  UNL     1      -4.941   1.749  -3.582  1.00  0.00     0.187 HD
HETATM   33  C17 UNL     1      -6.947   0.200  -1.673  1.00  0.00     0.167 A 
ATOM     34  H6  UNL     1      -7.125   1.074  -3.522  1.00  0.00     0.189 HD
HETATM   35  N7  UNL     1      -8.161  -0.262  -1.463  1.00  0.00    -0.306 N 
HETATM   36  S2  UNL     1      -5.540   0.132  -0.701  1.00  0.00    -0.038 SA
HETATM   37  C18 UNL     1      -8.389  -0.940  -0.250  1.00  0.00     0.227 C 
ATOM     38  H7  UNL     1      -8.905  -0.135  -2.149  1.00  0.00     0.171 HD
HETATM   39  O4  UNL     1      -7.721  -0.653   0.758  1.00  0.00    -0.273 OA
BRANCH  37  40
HETATM   40  C19 UNL     1      -9.420  -1.992  -0.173  1.00  0.00     0.078 C 
HETATM   41  C20 UNL     1     -10.784  -1.366  -0.353  1.00  0.00     0.014 C 
HETATM   42  C21 UNL     1     -10.949  -0.324   0.731  1.00  0.00     0.001 C 
HETATM   43  C22 UNL     1     -10.947  -1.020   2.046  1.00  0.00     0.000 C 
HETATM   44  C23 UNL     1      -9.762  -1.878   2.312  1.00  0.00     0.001 C 
HETATM   45  C24 UNL     1      -9.338  -2.691   1.140  1.00  0.00     0.014 C 
ENDBRANCH  37  40
ENDBRANCH  28  29
ENDBRANCH  27  28
ENDBRANCH  26  27
ENDBRANCH  25  26
ENDBRANCH  22  25
ENDBRANCH  15  16
ENDBRANCH  14  15
ENDBRANCH  13  14
ENDBRANCH  12  13
ENDBRANCH  11  12
ENDBRANCH   8  11
ENDBRANCH   6   8
ENDBRANCH   3   4
TORSDOF 14
