REMARK  16 active torsions:
REMARK  status: ('A' for Active; 'I' for Inactive)
REMARK    1  A    between atoms: C2_2  and  C3_3 
REMARK    2  A    between atoms: C3_3  and  C4_4 
REMARK    3  A    between atoms: C4_4  and  C5_5 
REMARK    4  A    between atoms: C5_5  and  C6_6 
REMARK    5  A    between atoms: C6_6  and  C7_7 
REMARK    6  A    between atoms: C7_7  and  O1_8 
REMARK    7  A    between atoms: O1_8  and  C8_9 
REMARK       I    between atoms: C8_9  and  N1_11 
REMARK    8  A    between atoms: C9_13  and  C10_14 
REMARK    9  A    between atoms: C9_13  and  C25_46 
REMARK       I    between atoms: C10_14  and  N2_16 
REMARK   10  A    between atoms: C13_22  and  C14_23 
REMARK   11  A    between atoms: C14_23  and  C15_24 
REMARK   12  A    between atoms: C15_24  and  C16_25 
REMARK   13  A    between atoms: C16_25  and  C17_26 
REMARK   14  A    between atoms: C17_26  and  C18_27 
REMARK   15  A    between atoms: C19_32  and  N6_33 
REMARK       I    between atoms: N6_33  and  C20_35 
REMARK   16  A    between atoms: C20_35  and  C21_37 
ROOT
HETATM    1  C10 UNL     1      -4.082  -2.361  -1.463  1.00  0.00     0.270 C 
HETATM    2  O3  UNL     1      -4.696  -1.420  -1.990  1.00  0.00    -0.266 OA
HETATM    3  N2  UNL     1      -2.974  -2.881  -2.220  1.00  0.00    -0.306 N 
ATOM      4  H2  UNL     1      -3.094  -3.654  -2.875  1.00  0.00     0.170 HD
HETATM    5  C11 UNL     1      -1.831  -2.332  -2.037  1.00  0.00     0.138 A 
HETATM    6  C12 UNL     1      -0.736  -2.792  -2.737  1.00  0.00     0.139 A 
HETATM    7  N3  UNL     1       0.444  -2.221  -2.544  1.00  0.00    -0.351 N 
ATOM      8  H3  UNL     1       1.256  -2.560  -3.060  1.00  0.00     0.166 HD
HETATM    9  C13 UNL     1       0.586  -1.211  -1.687  1.00  0.00     0.095 A 
HETATM   10  N7  UNL     1      -0.463  -0.753  -1.001  1.00  0.00    -0.287 N 
ATOM     11  H7  UNL     1      -0.355   0.020  -0.344  1.00  0.00     0.188 HD
HETATM   12  N8  UNL     1      -1.639  -1.314  -1.185  1.00  0.00    -0.283 N 
ATOM     13  H8  UNL     1      -2.437  -0.960  -0.658  1.00  0.00     0.188 HD
ENDROOT
BRANCH   1  14
HETATM   14  C9  UNL     1      -4.362  -2.977  -0.187  1.00  0.00     0.085 C 
HETATM   15  N1  UNL     1      -5.324  -2.578   0.535  1.00  0.00    -0.301 N 
HETATM   16  C8  UNL     1      -6.155  -1.491   0.078  1.00  0.00     0.365 C 
ATOM     17  H1  UNL     1      -5.510  -3.023   1.434  1.00  0.00     0.171 HD
HETATM   18  O2  UNL     1      -5.859  -0.309   0.384  1.00  0.00    -0.238 OA
BRANCH  16  19
HETATM   19  O1  UNL     1      -7.230  -1.748  -0.662  1.00  0.00    -0.304 OA
BRANCH  19  20
HETATM   20  C7  UNL     1      -8.226  -1.081  -1.242  1.00  0.00     0.180 C 
BRANCH  20  21
HETATM   21  C6  UNL     1      -9.247  -0.411  -0.432  1.00  0.00     0.027 C 
BRANCH  21  22
HETATM   22  C5  UNL     1      -8.947   0.729   0.451  1.00  0.00     0.002 C 
BRANCH  22  23
HETATM   23  C4  UNL     1      -8.431   1.954  -0.272  1.00  0.00     0.000 C 
BRANCH  23  24
HETATM   24  C3  UNL     1      -8.188   3.074   0.688  1.00  0.00    -0.000 C 
BRANCH  24  25
HETATM   25  C2  UNL     1      -7.175   2.763   1.759  1.00  0.00    -0.005 C 
HETATM   26  C1  UNL     1      -6.994   3.963   2.676  1.00  0.00     0.005 C 
ENDBRANCH  24  25
ENDBRANCH  23  24
ENDBRANCH  22  23
ENDBRANCH  21  22
ENDBRANCH  20  21
ENDBRANCH  19  20
ENDBRANCH  16  19
BRANCH  14  27
HETATM   27  C25 UNL     1      -3.530  -4.107   0.334  1.00  0.00     0.033 C 
HETATM   28  C26 UNL     1      -4.079  -4.518   1.674  1.00  0.00     0.016 C 
HETATM   29  C27 UNL     1      -3.528  -5.285  -0.604  1.00  0.00     0.016 C 
ENDBRANCH  14  27
ENDBRANCH   1  14
BRANCH   9  30
HETATM   30  C14 UNL     1       1.917  -0.565  -1.465  1.00  0.00     0.078 C 
BRANCH  30  31
HETATM   31  C15 UNL     1       2.661  -1.254  -0.334  1.00  0.00     0.008 C 
BRANCH  31  32
HETATM   32  C16 UNL     1       3.978  -0.555  -0.179  1.00  0.00     0.007 C 
BRANCH  32  33
HETATM   33  C17 UNL     1       4.824  -1.143   0.930  1.00  0.00     0.066 C 
BRANCH  33  34
HETATM   34  C18 UNL     1       6.096  -0.342   0.950  1.00  0.00     0.069 A 
HETATM   35  N4  UNL     1       6.383   0.764   1.620  1.00  0.00    -0.296 N 
HETATM   36  N5  UNL     1       7.524   1.303   1.512  1.00  0.00    -0.279 N 
ATOM     37  H4  UNL     1       5.680   1.185   2.227  1.00  0.00     0.187 HD
HETATM   38  C19 UNL     1       8.435   0.744   0.715  1.00  0.00     0.167 A 
ATOM     39  H5  UNL     1       7.743   2.155   2.029  1.00  0.00     0.189 HD
HETATM   40  S1  UNL     1       7.576  -0.611   0.113  1.00  0.00    -0.038 SA
BRANCH  38  41
HETATM   41  N6  UNL     1       9.654   1.093   0.435  1.00  0.00    -0.305 N 
HETATM   42  C20 UNL     1      10.315   2.218   0.954  1.00  0.00     0.231 C 
HETATM   43  O4  UNL     1      10.195   2.615   2.131  1.00  0.00    -0.272 OA
ATOM     44  H6  UNL     1      10.173   0.502  -0.214  1.00  0.00     0.171 HD
BRANCH  42  45
HETATM   45  C21 UNL     1      11.213   2.974   0.036  1.00  0.00     0.030 C 
HETATM   46  C22 UNL     1      11.775   4.150   0.791  1.00  0.00     0.025 C 
HETATM   47  C23 UNL     1      12.356   2.067  -0.392  1.00  0.00     0.025 C 
HETATM   48  C24 UNL     1      10.491   3.414  -1.211  1.00  0.00     0.025 C 
ENDBRANCH  42  45
ENDBRANCH  38  41
ENDBRANCH  33  34
ENDBRANCH  32  33
ENDBRANCH  31  32
ENDBRANCH  30  31
ENDBRANCH   9  30
TORSDOF 16
