REMARK  16 active torsions:
REMARK  status: ('A' for Active; 'I' for Inactive)
REMARK    1  A    between atoms: O1_2  and  C2_3 
REMARK    2  A    between atoms: C2_3  and  C3_5 
REMARK    3  A    between atoms: C6_10  and  S1_11 
REMARK    4  A    between atoms: S1_11  and  C7_12 
REMARK    5  A    between atoms: C7_12  and  C8_13 
REMARK    6  A    between atoms: C8_13  and  N2_15 
REMARK    7  A    between atoms: N2_15  and  C9_17 
REMARK    8  A    between atoms: C9_17  and  C10_18 
REMARK    9  A    between atoms: C10_18  and  C11_19 
REMARK   10  A    between atoms: C11_19  and  N3_20 
REMARK   11  A    between atoms: N4_23  and  C14_24 
REMARK   12  A    between atoms: C14_24  and  C15_25 
REMARK   13  A    between atoms: C15_25  and  C16_26 
REMARK   14  A    between atoms: C16_26  and  N5_27 
REMARK       I    between atoms: N5_27  and  C17_29 
REMARK   15  A    between atoms: C21_36  and  C22_37 
REMARK   16  A    between atoms: C22_37  and  C23_38 
ROOT
HETATM    1  C7  UNL     1       0.210   1.288  -1.767  1.00  0.00     0.151 C 
ENDROOT
BRANCH   1   2
HETATM    2  S1  UNL     1      -1.188   2.320  -1.302  1.00  0.00    -0.087 SA
BRANCH   2   3
HETATM    3  C6  UNL     1      -2.739   1.469  -1.673  1.00  0.00     0.141 C 
HETATM    4  N1  UNL     1      -2.776   0.331  -2.254  1.00  0.00    -0.340 N 
HETATM    5  C4  UNL     1      -4.073  -0.262  -2.491  1.00  0.00     0.021 C 
ATOM      6  H1  UNL     1      -1.919  -0.143  -2.541  1.00  0.00     0.167 HD
HETATM    7  C3  UNL     1      -5.215   0.279  -2.131  1.00  0.00     0.062 C 
HETATM    8  C5  UNL     1      -4.131  -1.473  -3.396  1.00  0.00     0.069 C 
HETATM    9  C21 UNL     1      -5.187   1.360  -1.113  1.00  0.00     0.125 C 
HETATM   10  N6  UNL     1      -3.963   2.150  -1.398  1.00  0.00    -0.362 N 
ATOM     11  H6  UNL     1      -3.996   3.169  -1.397  1.00  0.00     0.162 HD
BRANCH   7  12
HETATM   12  C2  UNL     1      -6.507  -0.239  -2.596  1.00  0.00     0.292 C 
HETATM   13  O2  UNL     1      -7.569   0.360  -2.210  1.00  0.00    -0.259 OA
BRANCH  12  14
HETATM   14  O1  UNL     1      -6.697  -1.315  -3.414  1.00  0.00    -0.323 OA
HETATM   15  C1  UNL     1      -7.993  -1.731  -3.805  1.00  0.00     0.213 C 
ENDBRANCH  12  14
ENDBRANCH   7  12
BRANCH   9  16
HETATM   16  C22 UNL     1      -5.024   0.972   0.295  1.00  0.00     0.035 C 
BRANCH  16  17
HETATM   17  C23 UNL     1      -5.897   0.141   1.074  1.00  0.00    -0.012 C 
HETATM   18  C24 UNL     1      -6.119  -1.276   0.623  1.00  0.00     0.005 C 
HETATM   19  C25 UNL     1      -6.275  -2.188   1.856  1.00  0.00     0.000 C 
HETATM   20  C26 UNL     1      -7.067  -1.411   2.895  1.00  0.00     0.000 C 
HETATM   21  C27 UNL     1      -7.987  -0.424   2.204  1.00  0.00     0.000 C 
HETATM   22  C28 UNL     1      -7.244   0.682   1.487  1.00  0.00     0.005 C 
ENDBRANCH  16  17
ENDBRANCH   9  16
ENDBRANCH   2   3
ENDBRANCH   1   2
BRANCH   1  23
HETATM   23  C8  UNL     1       0.273   0.071  -0.920  1.00  0.00     0.083 C 
HETATM   24  S2  UNL     1       0.146  -1.422  -1.625  1.00  0.00    -0.065 SA
BRANCH  23  25
HETATM   25  N2  UNL     1       0.439   0.134   0.476  1.00  0.00    -0.384 N 
ATOM     26  H2  UNL     1       0.467  -0.768   0.951  1.00  0.00     0.160 HD
BRANCH  25  27
HETATM   27  C9  UNL     1       0.573   1.260   1.318  1.00  0.00     0.122 C 
BRANCH  27  28
HETATM   28  C10 UNL     1       1.845   2.044   1.267  1.00  0.00     0.050 C 
BRANCH  28  29
HETATM   29  C11 UNL     1       3.041   1.223   1.672  1.00  0.00     0.274 C 
BRANCH  29  30
HETATM   30  N3  UNL     1       3.297   0.138   0.765  1.00  0.00     0.091 N 
HETATM   31  C12 UNL     1       4.245  -0.824   1.311  1.00  0.00     0.292 C 
HETATM   32  C13 UNL     1       5.483  -0.136   1.740  1.00  0.00     0.152 C 
HETATM   33  N4  UNL     1       6.162   0.407   0.573  1.00  0.00    -0.390 N 
HETATM   34  C19 UNL     1       5.359   0.378  -0.597  1.00  0.00     0.152 C 
HETATM   35  C20 UNL     1       3.935   0.761  -0.406  1.00  0.00     0.292 C 
BRANCH  33  36
HETATM   36  C14 UNL     1       6.904   1.573   0.842  1.00  0.00     0.063 C 
BRANCH  36  37
HETATM   37  C15 UNL     1       8.138   1.315   1.641  1.00  0.00     0.089 C 
BRANCH  37  38
HETATM   38  C16 UNL     1       9.148   0.518   0.920  1.00  0.00     0.069 C 
BRANCH  38  39
HETATM   39  N5  UNL     1       8.877  -0.794   0.491  1.00  0.00    -0.341 N 
HETATM   40  C17 UNL     1       9.921  -1.492  -0.227  1.00  0.00     0.217 C 
HETATM   41  C18 UNL     1       9.745  -2.859  -0.719  1.00  0.00     0.117 C 
HETATM   42  O3  UNL     1      10.994  -0.894  -0.422  1.00  0.00    -0.274 OA
ATOM     43  H5  UNL     1       7.978  -1.237   0.679  1.00  0.00     0.167 HD
ENDBRANCH  38  39
ENDBRANCH  37  38
ENDBRANCH  36  37
ENDBRANCH  33  36
ENDBRANCH  29  30
ENDBRANCH  28  29
ENDBRANCH  27  28
ENDBRANCH  25  27
ENDBRANCH  23  25
ENDBRANCH   1  23
TORSDOF 16
