REMARK  15 active torsions:
REMARK  status: ('A' for Active; 'I' for Inactive)
REMARK    1  A    between atoms: C4_4  and  C5_5 
REMARK    2  A    between atoms: C11_11  and  N1_12 
REMARK    3  A    between atoms: N1_12  and  C12_13 
REMARK    4  A    between atoms: N1_12  and  C15_20 
REMARK    5  A    between atoms: C12_13  and  C13_14 
REMARK    6  A    between atoms: C13_14  and  C14_15 
REMARK    7  A    between atoms: C14_15  and  N2_16 
REMARK    8  A    between atoms: C15_20  and  C16_21 
REMARK    9  A    between atoms: C16_21  and  C17_22 
REMARK   10  A    between atoms: C17_22  and  N3_23 
REMARK   11  A    between atoms: C24_31  and  N4_32 
REMARK   12  A    between atoms: N4_32  and  C25_33 
REMARK   13  A    between atoms: C25_33  and  C26_34 
REMARK   14  A    between atoms: C26_34  and  C27_35 
REMARK   15  A    between atoms: C27_35  and  N5_36 
ROOT
HETATM    1  C1  UNL     1       0.462   6.317  -0.109  1.00  0.00     0.103 C 
HETATM    2  C2  UNL     1       0.396   5.097  -0.040  1.00  0.00    -0.145 C 
HETATM    3  C3  UNL     1       0.382   3.687   0.021  1.00  0.00     0.045 A 
HETATM    4  C4  UNL     1      -0.797   2.936  -0.021  1.00  0.00     0.013 A 
HETATM    5  C11 UNL     1      -0.653   1.576  -0.034  1.00  0.00     0.047 A 
HETATM    6  C22 UNL     1       0.660   0.986  -0.026  1.00  0.00     0.049 A 
HETATM    7  C23 UNL     1       1.774   1.763   0.012  1.00  0.00     0.053 A 
HETATM    8  C24 UNL     1       3.044   1.170   0.034  1.00  0.00     0.191 A 
HETATM    9  N6  UNL     1       4.144   1.963   0.111  1.00  0.00    -0.327 N 
ATOM     10  H6  UNL     1       5.075   1.548   0.137  1.00  0.00     0.169 HD
HETATM   11  C32 UNL     1       3.997   3.296   0.152  1.00  0.00     0.183 A 
HETATM   12  N7  UNL     1       2.790   3.836   0.115  1.00  0.00    -0.350 N 
ATOM     13  H7  UNL     1       2.711   4.853   0.142  1.00  0.00     0.166 HD
HETATM   14  C33 UNL     1       1.651   3.100   0.043  1.00  0.00     0.067 A 
ENDROOT
BRANCH   4  15
HETATM   15  C5  UNL     1      -2.103   3.662  -0.023  1.00  0.00    -0.066 C 
HETATM   16  C6  UNL     1      -2.798   3.660  -1.368  1.00  0.00     0.035 C 
HETATM   17  C7  UNL     1      -3.923   4.631  -1.385  1.00  0.00     0.004 C 
HETATM   18  C8  UNL     1      -3.330   5.972  -0.948  1.00  0.00     0.001 C 
HETATM   19  C9  UNL     1      -3.157   5.888   0.542  1.00  0.00     0.004 C 
HETATM   20  C10 UNL     1      -2.392   4.672   0.979  1.00  0.00     0.035 C 
ENDBRANCH   4  15
BRANCH   5  21
HETATM   21  N1  UNL     1      -1.635   0.580   0.216  1.00  0.00    -0.359 N 
BRANCH  21  22
HETATM   22  C12 UNL     1      -2.527   0.421   1.310  1.00  0.00     0.066 C 
BRANCH  22  23
HETATM   23  C13 UNL     1      -2.296   1.057   2.625  1.00  0.00     0.072 C 
BRANCH  23  24
HETATM   24  C14 UNL     1      -3.568   0.718   3.448  1.00  0.00     0.234 C 
BRANCH  24  25
HETATM   25  N2  UNL     1      -3.806  -0.691   3.572  1.00  0.00    -0.079 N 
ATOM     26  H23 UNL     1      -3.840  -1.135   2.654  1.00  0.00     0.274 HD
ATOM     27  H22 UNL     1      -2.989  -1.164   3.958  1.00  0.00     0.274 HD
ATOM     28  H21 UNL     1      -4.642  -0.914   4.113  1.00  0.00     0.274 HD
ENDBRANCH  24  25
ENDBRANCH  23  24
ENDBRANCH  22  23
ENDBRANCH  21  22
BRANCH  21  29
HETATM   29  C15 UNL     1      -1.556  -0.670  -0.595  1.00  0.00     0.133 C 
BRANCH  29  30
HETATM   30  C16 UNL     1      -2.845  -1.213  -1.065  1.00  0.00     0.064 C 
BRANCH  30  31
HETATM   31  C17 UNL     1      -2.468  -2.609  -1.626  1.00  0.00     0.060 C 
BRANCH  31  32
HETATM   32  N3  UNL     1      -3.554  -3.460  -1.903  1.00  0.00    -0.389 N 
HETATM   33  C18 UNL     1      -4.453  -3.190  -2.927  1.00  0.00     0.148 C 
HETATM   34  C19 UNL     1      -5.347  -4.448  -3.081  1.00  0.00     0.187 C 
HETATM   35  O1  UNL     1      -6.126  -4.434  -1.910  1.00  0.00    -0.388 OA
HETATM   36  C20 UNL     1      -5.285  -4.881  -0.918  1.00  0.00     0.187 C 
HETATM   37  C21 UNL     1      -4.023  -4.142  -0.737  1.00  0.00     0.148 C 
ENDBRANCH  31  32
ENDBRANCH  30  31
ENDBRANCH  29  30
ENDBRANCH  21  29
ENDBRANCH   5  21
BRANCH   8  38
HETATM   38  N4  UNL     1       3.167  -0.000  -0.206  1.00  0.00    -0.403 NA
BRANCH  38  39
HETATM   39  C25 UNL     1       3.314  -1.293  -0.469  1.00  0.00     0.159 C 
BRANCH  39  40
HETATM   40  C26 UNL     1       4.120  -2.228   0.361  1.00  0.00     0.079 C 
BRANCH  40  41
HETATM   41  C27 UNL     1       5.573  -1.719   0.432  1.00  0.00     0.128 C 
BRANCH  41  42
HETATM   42  N5  UNL     1       6.323  -2.712   1.115  1.00  0.00    -0.389 N 
HETATM   43  C28 UNL     1       6.512  -3.915   0.344  1.00  0.00     0.148 C 
HETATM   44  C29 UNL     1       7.966  -4.146  -0.006  1.00  0.00     0.187 C 
HETATM   45  O2  UNL     1       8.637  -4.223   1.216  1.00  0.00    -0.385 OA
HETATM   46  C30 UNL     1       8.691  -2.951   1.714  1.00  0.00     0.212 C 
HETATM   47  C31 UNL     1       7.351  -2.331   1.992  1.00  0.00     0.084 C 
ENDBRANCH  41  42
ENDBRANCH  40  41
ENDBRANCH  39  40
ENDBRANCH  38  39
ENDBRANCH   8  38
TORSDOF 15
