REMARK  14 active torsions:
REMARK  status: ('A' for Active; 'I' for Inactive)
REMARK    1  A    between atoms: C3_3  and  C4_4 
REMARK    2  A    between atoms: C8_8  and  C9_9 
REMARK    3  A    between atoms: C9_9  and  N1_10 
REMARK       I    between atoms: N1_10  and  C10_12 
REMARK    4  A    between atoms: C10_12  and  C11_14 
REMARK    5  A    between atoms: C14_17  and  C15_18 
REMARK    6  A    between atoms: C17_20  and  O2_21 
REMARK    7  A    between atoms: C19_23  and  O3_24 
REMARK    8  A    between atoms: C21_26  and  O4_27 
REMARK    9  A    between atoms: N2_30  and  C24_31 
REMARK   10  A    between atoms: C24_31  and  O5_32 
REMARK   11  A    between atoms: C24_31  and  C25_34 
REMARK   12  A    between atoms: C27_36  and  O6_37 
REMARK   13  A    between atoms: C29_39  and  O7_40 
REMARK   14  A    between atoms: C31_42  and  O8_43 
ROOT
HETATM    1  C11 UNL     1      -0.272   0.081   1.731  1.00  0.00     0.179 C 
HETATM    2  C12 UNL     1       0.170  -1.303   2.274  1.00  0.00     0.037 C 
HETATM    3  C13 UNL     1       0.586  -2.011   0.997  1.00  0.00     0.033 C 
HETATM    4  C14 UNL     1      -0.409  -1.514   0.039  1.00  0.00     0.120 C 
HETATM    5  N2  UNL     1      -0.827  -0.165   0.456  1.00  0.00    -0.339 N 
ENDROOT
BRANCH   1   6
HETATM    6  C10 UNL     1       0.998   0.933   1.676  1.00  0.00     0.244 C 
HETATM    7  N1  UNL     1       1.541   1.348   0.468  1.00  0.00    -0.337 N 
ATOM      8  H1  UNL     1       0.999   1.035  -0.337  1.00  0.00     0.168 HD
HETATM    9  O1  UNL     1       1.454   1.190   2.799  1.00  0.00    -0.271 OA
BRANCH   7  10
HETATM   10  C9  UNL     1       2.675   2.106   0.102  1.00  0.00     0.096 C 
BRANCH  10  11
HETATM   11  C8  UNL     1       4.045   1.643   0.342  1.00  0.00     0.225 C 
HETATM   12  C7  UNL     1       4.573   1.378   1.682  1.00  0.00     0.038 C 
HETATM   13  C6  UNL     1       4.695  -0.086   2.063  1.00  0.00     0.005 C 
HETATM   14  C5  UNL     1       5.411  -0.873   0.982  1.00  0.00     0.037 C 
HETATM   15  C4  UNL     1       5.615   0.012  -0.251  1.00  0.00     0.209 C 
HETATM   16  N3  UNL     1       4.295   0.512  -0.583  1.00  0.00    -0.059 N 
ATOM     17  H32 UNL     1       4.188   0.759  -1.567  1.00  0.00     0.278 HD
ATOM     18  H31 UNL     1       3.569  -0.204  -0.557  1.00  0.00     0.278 HD
BRANCH  15  19
HETATM   19  C3  UNL     1       6.141  -0.833  -1.344  1.00  0.00     0.001 C 
HETATM   20  C2  UNL     1       7.444  -0.788  -1.665  1.00  0.00    -0.033 C 
HETATM   21  C1  UNL     1       7.974  -1.638  -2.765  1.00  0.00     0.036 C 
ENDBRANCH  15  19
ENDBRANCH  10  11
ENDBRANCH   7  10
ENDBRANCH   1   6
BRANCH   5  22
HETATM   22  C24 UNL     1      -1.653   0.662  -0.358  1.00  0.00     0.150 C 
BRANCH  22  23
HETATM   23  O5  UNL     1      -1.981   0.105  -1.514  1.00  0.00    -0.346 OA
ATOM     24  H5  UNL     1      -2.532   0.657  -2.057  1.00  0.00     0.219 HD
ENDBRANCH  22  23
BRANCH  22  25
HETATM   25  C25 UNL     1      -2.192   1.966  -0.177  1.00  0.00     0.020 A 
HETATM   26  C26 UNL     1      -2.894   2.532  -1.230  1.00  0.00     0.055 A 
HETATM   27  C27 UNL     1      -3.445   3.772  -1.115  1.00  0.00     0.105 A 
HETATM   28  C29 UNL     1      -3.333   4.519   0.045  1.00  0.00     0.135 A 
HETATM   29  C31 UNL     1      -2.649   4.003   1.114  1.00  0.00     0.105 A 
HETATM   30  C33 UNL     1      -2.096   2.730   0.965  1.00  0.00     0.055 A 
BRANCH  27  31
HETATM   31  O6  UNL     1      -4.148   4.328  -2.185  1.00  0.00    -0.353 OA
HETATM   32  C28 UNL     1      -4.271   3.591  -3.362  1.00  0.00     0.210 C 
ENDBRANCH  27  31
BRANCH  28  33
HETATM   33  O7  UNL     1      -3.912   5.781   0.116  1.00  0.00    -0.351 OA
HETATM   34  C30 UNL     1      -3.105   6.896  -0.288  1.00  0.00     0.210 C 
ENDBRANCH  28  33
BRANCH  29  35
HETATM   35  O8  UNL     1      -2.529   4.737   2.278  1.00  0.00    -0.353 OA
HETATM   36  C32 UNL     1      -1.847   4.287   3.420  1.00  0.00     0.210 C 
ENDBRANCH  29  35
ENDBRANCH  22  25
ENDBRANCH   5  22
BRANCH   4  37
HETATM   37  C15 UNL     1      -1.558  -2.391  -0.205  1.00  0.00    -0.030 A 
HETATM   38  C16 UNL     1      -2.639  -2.437   0.646  1.00  0.00     0.049 A 
HETATM   39  C17 UNL     1      -3.703  -3.272   0.397  1.00  0.00     0.104 A 
HETATM   40  C19 UNL     1      -3.703  -4.080  -0.716  1.00  0.00     0.135 A 
HETATM   41  C21 UNL     1      -2.622  -4.059  -1.601  1.00  0.00     0.104 A 
HETATM   42  C23 UNL     1      -1.590  -3.212  -1.309  1.00  0.00     0.049 A 
BRANCH  39  43
HETATM   43  O2  UNL     1      -4.786  -3.317   1.251  1.00  0.00    -0.353 OA
HETATM   44  C18 UNL     1      -4.774  -2.482   2.392  1.00  0.00     0.210 C 
ENDBRANCH  39  43
BRANCH  40  45
HETATM   45  O3  UNL     1      -4.796  -4.918  -0.944  1.00  0.00    -0.351 OA
HETATM   46  C20 UNL     1      -4.856  -6.235  -0.439  1.00  0.00     0.210 C 
ENDBRANCH  40  45
BRANCH  41  47
HETATM   47  O4  UNL     1      -2.652  -4.892  -2.723  1.00  0.00    -0.353 OA
HETATM   48  C22 UNL     1      -1.540  -4.843  -3.596  1.00  0.00     0.210 C 
ENDBRANCH  41  47
ENDBRANCH   4  37
TORSDOF 14
