REMARK  20 active torsions:
REMARK  status: ('A' for Active; 'I' for Inactive)
REMARK    1  A    between atoms: O1_2  and  C2_3 
REMARK    2  A    between atoms: C2_3  and  C3_5 
REMARK    3  A    between atoms: C3_5  and  C4_6 
REMARK    4  A    between atoms: C4_6  and  C5_7 
REMARK    5  A    between atoms: C5_7  and  C6_8 
REMARK    6  A    between atoms: C6_8  and  C7_9 
REMARK    7  A    between atoms: C7_9  and  N1_10 
REMARK    8  A    between atoms: C7_9  and  C25_37 
REMARK       I    between atoms: N1_10  and  C8_12 
REMARK    9  A    between atoms: C8_12  and  C9_14 
REMARK       I    between atoms: N2_18  and  C13_19 
REMARK   10  A    between atoms: C13_19  and  C14_21 
REMARK   11  A    between atoms: C14_21  and  C15_22 
REMARK   12  A    between atoms: C14_21  and  N4_28 
REMARK   13  A    between atoms: C15_22  and  C16_23 
REMARK   14  A    between atoms: C16_23  and  C17_24 
REMARK   15  A    between atoms: C17_24  and  N3_25 
REMARK   16  A    between atoms: N4_28  and  C20_30 
REMARK   17  A    between atoms: C20_30  and  S2_32 
REMARK   18  A    between atoms: S2_32  and  C21_33 
REMARK   19  A    between atoms: C25_37  and  O6_39 
REMARK   20  A    between atoms: O6_39  and  C26_40 
ROOT
HETATM    1  C9  UNL     1      -0.097  -1.638  -0.047  1.00  0.00     0.179 C 
HETATM    2  C10 UNL     1      -0.064  -3.082  -0.534  1.00  0.00     0.037 C 
HETATM    3  C11 UNL     1      -0.227  -3.797   0.793  1.00  0.00     0.022 C 
HETATM    4  C12 UNL     1      -1.146  -2.868   1.597  1.00  0.00     0.127 C 
HETATM    5  N2  UNL     1      -1.257  -1.667   0.829  1.00  0.00    -0.337 N 
HETATM    6  C13 UNL     1      -2.211  -0.614   0.828  1.00  0.00     0.243 C 
HETATM    7  O4  UNL     1      -1.943   0.354   0.022  1.00  0.00    -0.271 OA
ENDROOT
BRANCH   1   8
HETATM    8  C8  UNL     1       1.172  -1.344   0.589  1.00  0.00     0.245 C 
HETATM    9  N1  UNL     1       2.341  -0.878  -0.078  1.00  0.00    -0.320 N 
ATOM     10  H1  UNL     1       2.303  -0.725  -1.086  1.00  0.00     0.169 HD
HETATM   11  O3  UNL     1       1.272  -1.501   1.829  1.00  0.00    -0.271 OA
BRANCH   9  12
HETATM   12  C7  UNL     1       3.583  -0.613   0.622  1.00  0.00     0.111 C 
BRANCH  12  13
HETATM   13  C6  UNL     1       3.635   0.622   1.412  1.00  0.00     0.036 C 
BRANCH  13  14
HETATM   14  C5  UNL     1       3.506   1.948   0.909  1.00  0.00    -0.001 C 
BRANCH  14  15
HETATM   15  C4  UNL     1       3.373   2.580  -0.200  1.00  0.00    -0.017 C 
BRANCH  15  16
HETATM   16  C3  UNL     1       3.289   2.191  -1.597  1.00  0.00     0.138 C 
BRANCH  16  17
HETATM   17  C2  UNL     1       4.393   2.859  -2.374  1.00  0.00     0.261 C 
HETATM   18  O2  UNL     1       4.472   2.694  -3.601  1.00  0.00    -0.265 OA
BRANCH  17  19
HETATM   19  O1  UNL     1       5.308   3.650  -1.718  1.00  0.00    -0.326 OA
HETATM   20  C1  UNL     1       6.330   4.260  -2.495  1.00  0.00     0.213 C 
ENDBRANCH  17  19
ENDBRANCH  16  17
ENDBRANCH  15  16
ENDBRANCH  14  15
ENDBRANCH  13  14
ENDBRANCH  12  13
BRANCH  12  21
HETATM   21  C25 UNL     1       4.793  -0.953  -0.133  1.00  0.00     0.310 C 
HETATM   22  O5  UNL     1       4.727  -1.430  -1.293  1.00  0.00    -0.258 OA
BRANCH  21  23
HETATM   23  O6  UNL     1       6.049  -0.761   0.399  1.00  0.00    -0.306 OA
BRANCH  23  24
HETATM   24  C26 UNL     1       7.204  -1.091  -0.349  1.00  0.00     0.060 C 
HETATM   25  C27 UNL     1       7.280  -0.300  -1.637  1.00  0.00     0.046 C 
HETATM   26  C28 UNL     1       8.406  -0.700   0.485  1.00  0.00     0.046 C 
HETATM   27  C29 UNL     1       7.284  -2.543  -0.688  1.00  0.00     0.046 C 
ENDBRANCH  23  24
ENDBRANCH  21  23
ENDBRANCH  12  21
ENDBRANCH   9  12
ENDBRANCH   1   8
BRANCH   6  28
HETATM   28  C14 UNL     1      -3.428  -0.471   1.599  1.00  0.00     0.175 C 
BRANCH  28  29
HETATM   29  C15 UNL     1      -4.695  -1.019   1.011  1.00  0.00     0.036 C 
BRANCH  29  30
HETATM   30  C16 UNL     1      -4.702  -2.501   0.738  1.00  0.00     0.033 C 
BRANCH  30  31
HETATM   31  C17 UNL     1      -6.029  -2.918   0.166  1.00  0.00     0.271 C 
BRANCH  31  32
HETATM   32  N3  UNL     1      -5.997  -4.335  -0.071  1.00  0.00     0.080 N 
HETATM   33  C18 UNL     1      -7.212  -4.878  -0.607  1.00  0.00     0.309 C 
HETATM   34  C19 UNL     1      -4.834  -4.702  -0.843  1.00  0.00     0.309 C 
ENDBRANCH  31  32
ENDBRANCH  30  31
ENDBRANCH  29  30
ENDBRANCH  28  29
BRANCH  28  35
HETATM   35  N4  UNL     1      -3.720   0.908   1.939  1.00  0.00    -0.362 N 
ATOM     36  H4  UNL     1      -3.624   1.145   2.926  1.00  0.00     0.161 HD
BRANCH  35  37
HETATM   37  C20 UNL     1      -4.116   1.964   1.102  1.00  0.00     0.135 C 
HETATM   38  S1  UNL     1      -4.389   1.891  -0.505  1.00  0.00    -0.053 SA
BRANCH  37  39
HETATM   39  S2  UNL     1      -4.392   3.600   1.825  1.00  0.00    -0.092 SA
BRANCH  39  40
HETATM   40  C21 UNL     1      -4.898   4.815   0.626  1.00  0.00     0.004 C 
HETATM   41  C22 UNL     1      -3.846   5.110  -0.415  1.00  0.00     0.026 C 
HETATM   42  C23 UNL     1      -5.073   6.139   1.397  1.00  0.00     0.026 C 
HETATM   43  C24 UNL     1      -6.209   4.571  -0.041  1.00  0.00     0.026 C 
ENDBRANCH  39  40
ENDBRANCH  37  39
ENDBRANCH  35  37
ENDBRANCH  28  35
ENDBRANCH   6  28
TORSDOF 20
