REMARK  13 active torsions:
REMARK  status: ('A' for Active; 'I' for Inactive)
REMARK    1  A    between atoms: C2_2  and  C3_3 
REMARK    2  A    between atoms: C8_9  and  C9_10 
REMARK    3  A    between atoms: C8_9  and  C11_14 
REMARK    4  A    between atoms: C9_10  and  C10_11 
REMARK    5  A    between atoms: C12_15  and  C13_16 
REMARK    6  A    between atoms: C12_15  and  O6_21 
REMARK    7  A    between atoms: C13_16  and  C14_17 
REMARK    8  A    between atoms: C14_17  and  C15_18 
REMARK    9  A    between atoms: O6_21  and  C16_22 
REMARK   10  A    between atoms: C21_29  and  O9_30 
REMARK   11  A    between atoms: O9_30  and  C22_31 
REMARK   12  A    between atoms: C22_31  and  C23_33 
REMARK   13  A    between atoms: C23_33  and  C24_34 
ROOT
HETATM    1  C11 UNL     1      -1.410   0.949  -0.554  1.00  0.00     0.023 C 
HETATM    2  C12 UNL     1      -0.401  -0.034  -0.671  1.00  0.00     0.045 C 
ENDROOT
BRANCH   2   3
HETATM    3  C13 UNL     1      -0.020  -0.749  -1.906  1.00  0.00     0.074 C 
BRANCH   3   4
HETATM    4  C14 UNL     1       0.457   0.092  -3.063  1.00  0.00     0.119 C 
BRANCH   4   5
HETATM    5  C15 UNL     1       0.771  -0.856  -4.177  1.00  0.00     0.172 C 
HETATM    6  O4  UNL     1       0.628  -2.101  -4.075  1.00  0.00    -0.648 OA
HETATM    7  O5  UNL     1       1.242  -0.351  -5.379  1.00  0.00    -0.648 OA
ENDBRANCH   4   5
ENDBRANCH   3   4
ENDBRANCH   2   3
BRANCH   2   8
HETATM    8  O6  UNL     1       0.776   0.395   0.016  1.00  0.00    -0.343 OA
BRANCH   8   9
HETATM    9  C16 UNL     1       1.171  -0.307   1.091  1.00  0.00     0.202 C 
HETATM   10  C17 UNL     1       1.331   0.571   2.261  1.00  0.00     0.156 C 
HETATM   11  O7  UNL     1       1.002   1.728   2.104  1.00  0.00    -0.295 OA
HETATM   12  C18 UNL     1       1.835   0.314   3.644  1.00  0.00     0.083 C 
HETATM   13  C19 UNL     1       3.302   0.680   3.650  1.00  0.00     0.040 C 
HETATM   14  C20 UNL     1       3.764   0.666   2.210  1.00  0.00     0.134 C 
HETATM   15  O8  UNL     1       5.169   0.490   2.078  1.00  0.00    -0.354 OA
HETATM   16  C26 UNL     1       3.623  -0.717   1.690  1.00  0.00     0.077 C 
HETATM   17  C21 UNL     1       4.885  -0.289   0.923  1.00  0.00     0.276 C 
HETATM   18  C27 UNL     1       2.481  -1.063   0.845  1.00  0.00     0.030 C 
HETATM   19  C28 UNL     1       2.268  -2.578   0.967  1.00  0.00     0.014 C 
BRANCH  17  20
HETATM   20  O9  UNL     1       5.828  -1.311   0.710  1.00  0.00    -0.289 OA
BRANCH  20  21
HETATM   21  C22 UNL     1       6.424  -1.373  -0.568  1.00  0.00     0.261 C 
HETATM   22  O10 UNL     1       6.074  -0.509  -1.431  1.00  0.00    -0.265 OA
BRANCH  21  23
HETATM   23  C23 UNL     1       7.422  -2.434  -0.831  1.00  0.00     0.111 C 
BRANCH  23  24
HETATM   24  C24 UNL     1       7.941  -2.189  -2.248  1.00  0.00     0.005 C 
HETATM   25  C25 UNL     1       8.571  -0.809  -2.319  1.00  0.00     0.005 C 
ENDBRANCH  23  24
ENDBRANCH  21  23
ENDBRANCH  20  21
ENDBRANCH  17  20
ENDBRANCH   8   9
ENDBRANCH   2   8
BRANCH   1  26
HETATM   26  C8  UNL     1      -2.882   0.963  -0.746  1.00  0.00     0.051 C 
HETATM   27  C7  UNL     1      -3.213   2.485  -0.377  1.00  0.00     0.034 C 
HETATM   28  C6  UNL     1      -3.802   2.693   0.925  1.00  0.00     0.059 C 
HETATM   29  C5  UNL     1      -5.308   2.648   0.764  1.00  0.00     0.144 C 
HETATM   30  C32 UNL     1      -3.630   1.687   1.999  1.00  0.00     0.030 C 
HETATM   31  C3  UNL     1      -5.713   1.251   1.061  1.00  0.00     0.048 C 
HETATM   32  O1  UNL     1      -6.060   3.535   0.459  1.00  0.00    -0.296 OA
HETATM   33  C4  UNL     1      -6.501   0.610  -0.027  1.00  0.00     0.029 C 
HETATM   34  C30 UNL     1      -4.403   0.548   1.375  1.00  0.00     0.036 C 
HETATM   35  C29 UNL     1      -3.655   0.125   0.158  1.00  0.00     0.149 C 
HETATM   36  C31 UNL     1      -4.686  -0.555   2.340  1.00  0.00     0.025 C 
HETATM   37  O11 UNL     1      -3.780  -1.109   0.000  1.00  0.00    -0.296 OA
BRANCH  31  38
HETATM   38  C2  UNL     1      -6.553   1.206   2.303  1.00  0.00    -0.019 C 
HETATM   39  C1  UNL     1      -7.568   0.386   2.440  1.00  0.00     0.008 C 
ENDBRANCH  31  38
BRANCH  26  40
HETATM   40  C9  UNL     1      -3.291   0.973  -2.180  1.00  0.00     0.134 C 
BRANCH  40  41
HETATM   41  C10 UNL     1      -3.341  -0.151  -3.038  1.00  0.00     0.173 C 
HETATM   42  O2  UNL     1      -3.409  -1.360  -2.721  1.00  0.00    -0.648 OA
HETATM   43  O3  UNL     1      -3.316   0.010  -4.467  1.00  0.00    -0.648 OA
ENDBRANCH  40  41
ENDBRANCH  26  40
ENDBRANCH   1  26
TORSDOF 13
