REMARK  15 active torsions:
REMARK  status: ('A' for Active; 'I' for Inactive)
REMARK    1  A    between atoms: O1_2  and  C2_3 
REMARK    2  A    between atoms: C4_5  and  C5_6 
REMARK    3  A    between atoms: C5_6  and  C6_7 
REMARK    4  A    between atoms: C7_10  and  O2_11 
REMARK    5  A    between atoms: C8_13  and  C9_14 
REMARK    6  A    between atoms: C9_14  and  C10_15 
REMARK    7  A    between atoms: C10_15  and  S2_17 
REMARK    8  A    between atoms: S2_17  and  C11_18 
REMARK    9  A    between atoms: C11_18  and  C12_19 
REMARK   10  A    between atoms: C12_19  and  C13_20 
REMARK   11  A    between atoms: C13_20  and  N2_21 
REMARK   12  A    between atoms: C20_33  and  C21_34 
REMARK   13  A    between atoms: C21_34  and  C22_35 
REMARK   14  A    between atoms: C22_35  and  C23_36 
REMARK   15  A    between atoms: C23_36  and  N4_37 
ROOT
HETATM    1  C6  UNL     1      -0.033  -0.150   1.004  1.00  0.00     0.077 A 
HETATM    2  N1  UNL     1      -0.283  -0.703  -0.179  1.00  0.00    -0.330 N 
ATOM      3  H1  UNL     1      -1.239  -0.778  -0.527  1.00  0.00     0.168 HD
HETATM    4  C7  UNL     1       0.728  -1.151  -0.892  1.00  0.00     0.158 A 
HETATM    5  C8  UNL     1       1.984  -1.015  -0.359  1.00  0.00     0.056 A 
HETATM    6  S3  UNL     1       1.656  -0.254   1.134  1.00  0.00    -0.068 SA
ENDROOT
BRANCH   1   7
HETATM    7  C5  UNL     1      -0.902   0.369   1.889  1.00  0.00     0.048 C 
BRANCH   7   8
HETATM    8  C4  UNL     1      -2.329   0.407   1.675  1.00  0.00    -0.031 A 
HETATM    9  C3  UNL     1      -2.998   1.610   1.702  1.00  0.00     0.048 A 
HETATM   10  C2  UNL     1      -4.382   1.672   1.499  1.00  0.00     0.075 A 
HETATM   11  C20 UNL     1      -5.077   0.509   1.269  1.00  0.00    -0.025 A 
HETATM   12  C19 UNL     1      -4.387  -0.683   1.247  1.00  0.00     0.011 A 
HETATM   13  C18 UNL     1      -3.012  -0.754   1.447  1.00  0.00     0.012 A 
BRANCH  10  14
HETATM   14  O1  UNL     1      -4.981   2.918   1.541  1.00  0.00    -0.355 OA
HETATM   15  C1  UNL     1      -4.308   4.114   1.771  1.00  0.00     0.210 C 
ENDBRANCH  10  14
BRANCH  11  16
HETATM   16  C21 UNL     1      -6.533   0.597   1.061  1.00  0.00     0.043 C 
BRANCH  16  17
HETATM   17  C22 UNL     1      -6.919   1.119  -0.305  1.00  0.00     0.035 C 
BRANCH  17  18
HETATM   18  C23 UNL     1      -8.430   1.152  -0.359  1.00  0.00     0.272 C 
BRANCH  18  19
HETATM   19  N4  UNL     1      -8.913  -0.198  -0.156  1.00  0.00     0.088 N 
HETATM   20  C24 UNL     1     -10.367  -0.251  -0.169  1.00  0.00     0.272 C 
HETATM   21  C25 UNL     1     -10.596  -1.753  -0.208  1.00  0.00     0.032 C 
HETATM   22  C26 UNL     1      -9.370  -2.338  -0.863  1.00  0.00     0.032 C 
HETATM   23  C27 UNL     1      -8.611  -1.070  -1.279  1.00  0.00     0.272 C 
ENDBRANCH  18  19
ENDBRANCH  17  18
ENDBRANCH  16  17
ENDBRANCH  11  16
ENDBRANCH   7   8
ENDBRANCH   1   7
BRANCH   4  24
HETATM   24  O2  UNL     1       0.600  -1.710  -2.061  1.00  0.00    -0.345 OA
ATOM     25  H2  UNL     1       1.330  -2.033  -2.576  1.00  0.00     0.219 HD
ENDBRANCH   4  24
BRANCH   5  26
HETATM   26  C9  UNL     1       3.151  -1.394  -0.896  1.00  0.00     0.023 C 
BRANCH  26  27
HETATM   27  C10 UNL     1       4.400  -1.154  -0.155  1.00  0.00     0.143 C 
HETATM   28  S1  UNL     1       4.490  -2.322   1.219  1.00  0.00    -0.077 SA
BRANCH  27  29
HETATM   29  S2  UNL     1       5.844  -1.465  -1.228  1.00  0.00    -0.149 SA
BRANCH  29  30
HETATM   30  C11 UNL     1       7.400  -1.141  -0.337  1.00  0.00     0.077 C 
BRANCH  30  31
HETATM   31  C12 UNL     1       7.457   0.324  -0.060  1.00  0.00     0.030 C 
BRANCH  31  32
HETATM   32  C13 UNL     1       8.653   0.815   0.665  1.00  0.00     0.128 C 
BRANCH  32  33
HETATM   33  N2  UNL     1       9.923   0.589   0.002  1.00  0.00    -0.333 N 
HETATM   34  C14 UNL     1      10.680  -0.608   0.267  1.00  0.00     0.136 C 
HETATM   35  C15 UNL     1      11.296  -1.215  -0.947  1.00  0.00     0.123 C 
HETATM   36  C16 UNL     1      11.673  -0.240  -1.992  1.00  0.00     0.227 C 
HETATM   37  O3  UNL     1      12.317  -0.677  -2.979  1.00  0.00    -0.273 OA
HETATM   38  N3  UNL     1      11.337   1.136  -1.915  1.00  0.00    -0.279 N 
HETATM   39  C17 UNL     1      10.448   1.549  -0.898  1.00  0.00     0.325 C 
ATOM     40  H3  UNL     1      11.727   1.808  -2.576  1.00  0.00     0.173 HD
HETATM   41  O4  UNL     1      10.113   2.777  -0.784  1.00  0.00    -0.247 OA
ENDBRANCH  32  33
ENDBRANCH  31  32
ENDBRANCH  30  31
ENDBRANCH  29  30
ENDBRANCH  27  29
ENDBRANCH  26  27
ENDBRANCH   5  26
TORSDOF 15
