REMARK  16 active torsions:
REMARK  status: ('A' for Active; 'I' for Inactive)
REMARK    1  A    between atoms: C2_2  and  N1_3 
REMARK    2  A    between atoms: C2_2  and  C12_17 
REMARK       I    between atoms: N1_3  and  C3_5 
REMARK    3  A    between atoms: C3_5  and  O2_7 
REMARK    4  A    between atoms: O2_7  and  C4_8 
REMARK    5  A    between atoms: C4_8  and  C5_9 
REMARK    6  A    between atoms: C5_9  and  S1_10 
REMARK    7  A    between atoms: S1_10  and  C6_11 
REMARK       I    between atoms: C12_17  and  N2_19 
REMARK    8  A    between atoms: C16_23  and  C17_24 
REMARK       I    between atoms: C17_24  and  N3_26 
REMARK    9  A    between atoms: C21_30  and  C22_31 
REMARK       I    between atoms: C22_31  and  N4_33 
REMARK   10  A    between atoms: N4_33  and  C23_35 
REMARK   11  A    between atoms: C23_35  and  C24_36 
REMARK   12  A    between atoms: C24_36  and  C25_37 
REMARK   13  A    between atoms: C25_37  and  C26_38 
REMARK   14  A    between atoms: C26_38  and  C27_39 
REMARK   15  A    between atoms: C27_39  and  O6_40 
REMARK   16  A    between atoms: N5_42  and  O7_44 
ROOT
HETATM    1  C12 UNL     1      -0.444   2.669  -1.726  1.00  0.00     0.243 C 
HETATM    2  O3  UNL     1      -0.517   3.952  -1.727  1.00  0.00    -0.271 OA
HETATM    3  N2  UNL     1       0.847   2.119  -1.718  1.00  0.00    -0.337 N 
HETATM    4  C13 UNL     1       2.106   2.885  -1.759  1.00  0.00     0.127 C 
HETATM    5  C14 UNL     1       3.077   2.037  -2.510  1.00  0.00     0.022 C 
HETATM    6  C15 UNL     1       2.434   0.698  -2.620  1.00  0.00     0.037 C 
HETATM    7  C16 UNL     1       1.309   0.738  -1.628  1.00  0.00     0.179 C 
ENDROOT
BRANCH   7   8
HETATM    8  C17 UNL     1       1.699   0.487  -0.233  1.00  0.00     0.243 C 
HETATM    9  O4  UNL     1       1.440   1.400   0.628  1.00  0.00    -0.271 OA
HETATM   10  N3  UNL     1       2.347  -0.698   0.236  1.00  0.00    -0.337 N 
HETATM   11  C18 UNL     1       2.767  -1.882  -0.440  1.00  0.00     0.127 C 
HETATM   12  C21 UNL     1       2.707  -0.875   1.651  1.00  0.00     0.179 C 
HETATM   13  C19 UNL     1       2.540  -2.994   0.570  1.00  0.00     0.022 C 
HETATM   14  C20 UNL     1       3.009  -2.322   1.852  1.00  0.00     0.037 C 
BRANCH  12  15
HETATM   15  C22 UNL     1       3.861  -0.013   2.039  1.00  0.00     0.240 C 
HETATM   16  O5  UNL     1       4.105   0.072   3.266  1.00  0.00    -0.271 OA
HETATM   17  N4  UNL     1       4.608   0.654   1.039  1.00  0.00    -0.359 N 
ATOM     18  H4  UNL     1       4.346   0.522   0.062  1.00  0.00     0.162 HD
BRANCH  17  19
HETATM   19  C23 UNL     1       5.710   1.502   1.343  1.00  0.00     0.122 C 
BRANCH  19  20
HETATM   20  C24 UNL     1       6.838   0.844   2.047  1.00  0.00     0.020 C 
BRANCH  20  21
HETATM   21  C25 UNL     1       7.558  -0.233   1.345  1.00  0.00     0.010 C 
BRANCH  21  22
HETATM   22  C26 UNL     1       6.766  -1.425   0.951  1.00  0.00     0.086 C 
BRANCH  22  23
HETATM   23  C27 UNL     1       7.671  -2.455   0.298  1.00  0.00     0.135 C 
HETATM   24  N5  UNL     1       7.512  -2.881  -0.879  1.00  0.00    -0.251 N 
ATOM     25  H5  UNL     1       8.181  -3.574  -1.214  1.00  0.00     0.196 HD
BRANCH  23  26
HETATM   26  O6  UNL     1       8.732  -2.954   1.043  1.00  0.00    -0.348 OA
ATOM     27  H6  UNL     1       9.298  -3.598   0.635  1.00  0.00     0.219 HD
ENDBRANCH  23  26
BRANCH  24  28
HETATM   28  O7  UNL     1       6.516  -2.496  -1.756  1.00  0.00    -0.288 OA
ATOM     29  H7  UNL     1       6.396  -2.817  -2.642  1.00  0.00     0.244 HD
ENDBRANCH  24  28
ENDBRANCH  22  23
ENDBRANCH  21  22
ENDBRANCH  20  21
ENDBRANCH  19  20
ENDBRANCH  17  19
ENDBRANCH  12  15
ENDBRANCH   7   8
BRANCH   1  30
HETATM   30  C2  UNL     1      -1.685   1.880  -1.734  1.00  0.00     0.175 C 
HETATM   31  C1  UNL     1      -1.858   1.136  -3.062  1.00  0.00     0.042 C 
BRANCH  30  32
HETATM   32  N1  UNL     1      -2.824   2.802  -1.591  1.00  0.00    -0.324 N 
HETATM   33  C3  UNL     1      -3.890   2.356  -0.713  1.00  0.00     0.361 C 
HETATM   34  O1  UNL     1      -3.810   1.245  -0.153  1.00  0.00    -0.238 OA
ATOM     35  H1  UNL     1      -2.861   3.697  -2.078  1.00  0.00     0.165 HD
BRANCH  33  36
HETATM   36  O2  UNL     1      -4.987   3.120  -0.472  1.00  0.00    -0.303 OA
BRANCH  36  37
HETATM   37  C4  UNL     1      -6.123   2.936   0.278  1.00  0.00     0.191 C 
BRANCH  37  38
HETATM   38  C5  UNL     1      -7.114   1.921  -0.142  1.00  0.00     0.101 C 
BRANCH  38  39
HETATM   39  S1  UNL     1      -6.675   0.219  -0.202  1.00  0.00    -0.162 SA
BRANCH  39  40
HETATM   40  C6  UNL     1      -6.421  -0.600   1.377  1.00  0.00     0.047 C 
HETATM   41  C7  UNL     1      -7.690  -0.708   2.209  1.00  0.00     0.015 C 
HETATM   42  C8  UNL     1      -8.814  -1.060   1.293  1.00  0.00     0.001 C 
HETATM   43  C9  UNL     1      -8.530  -2.329   0.555  1.00  0.00     0.000 C 
HETATM   44  C10 UNL     1      -7.142  -2.472   0.030  1.00  0.00     0.001 C 
HETATM   45  C11 UNL     1      -6.084  -2.064   1.031  1.00  0.00     0.015 C 
ENDBRANCH  39  40
ENDBRANCH  38  39
ENDBRANCH  37  38
ENDBRANCH  36  37
ENDBRANCH  33  36
ENDBRANCH  30  32
ENDBRANCH   1  30
TORSDOF 16
