REMARK  14 active torsions:
REMARK  status: ('A' for Active; 'I' for Inactive)
REMARK    1  A    between atoms: C4_4  and  O1_5 
REMARK    2  A    between atoms: O1_5  and  S1_6 
REMARK    3  A    between atoms: C11_16  and  C12_17 
REMARK    4  A    between atoms: C12_17  and  O5_18 
REMARK    5  A    between atoms: O5_18  and  C13_19 
REMARK    6  A    between atoms: C13_19  and  C14_20 
REMARK    7  A    between atoms: C14_20  and  O6_21 
REMARK    8  A    between atoms: O6_21  and  C15_22 
REMARK    9  A    between atoms: C15_22  and  C16_23 
REMARK   10  A    between atoms: C16_23  and  O7_24 
REMARK   11  A    between atoms: O7_24  and  C17_25 
REMARK   12  A    between atoms: C17_25  and  C18_26 
REMARK   13  A    between atoms: C18_26  and  N1_27 
REMARK   14  A    between atoms: C29_38  and  O8_39 
ROOT
HETATM    1  C1  UNL     1      -5.239   1.125  -2.790  1.00  0.00     0.018 C 
HETATM    2  C2  UNL     1      -5.759   0.875  -1.367  1.00  0.00    -0.012 C 
HETATM    3  C3  UNL     1      -5.653  -0.576  -1.082  1.00  0.00     0.046 C 
HETATM    4  C4  UNL     1      -4.315  -0.983  -0.506  1.00  0.00     0.153 C 
HETATM    5  C5  UNL     1      -3.961  -0.150   0.665  1.00  0.00    -0.008 C 
HETATM    6  C6  UNL     1      -5.033  -0.419   1.739  1.00  0.00     0.018 C 
HETATM    7  C7  UNL     1      -2.672  -0.506   1.323  1.00  0.00     0.002 C 
HETATM    8  C8  UNL     1      -2.461  -1.940   1.637  1.00  0.00     0.013 C 
HETATM    9  C9  UNL     1      -1.634  -2.014   2.933  1.00  0.00     0.079 C 
HETATM   10  C10 UNL     1      -0.687  -0.843   2.820  1.00  0.00     0.133 C 
HETATM   11  O4  UNL     1      -0.311  -0.232   3.807  1.00  0.00    -0.297 OA
HETATM   12  C11 UNL     1      -0.237  -0.475   1.437  1.00  0.00     0.083 C 
HETATM   13  C22 UNL     1      -1.434   0.016   0.646  1.00  0.00     0.004 C 
HETATM   14  C23 UNL     1      -1.529   1.536   0.673  1.00  0.00     0.006 C 
HETATM   15  C24 UNL     1      -2.732   1.885  -0.143  1.00  0.00     0.006 C 
HETATM   16  C25 UNL     1      -4.019   1.332   0.413  1.00  0.00     0.001 C 
HETATM   17  C26 UNL     1      -5.164   1.807  -0.381  1.00  0.00     0.001 C 
HETATM   18  C27 UNL     1      -6.300   2.368   0.456  1.00  0.00     0.008 C 
HETATM   19  C28 UNL     1      -7.579   1.928  -0.170  1.00  0.00     0.033 C 
HETATM   20  C29 UNL     1      -7.256   1.213  -1.440  1.00  0.00     0.126 C 
ENDROOT
BRANCH  12  21
HETATM   21  C12 UNL     1       0.878   0.512   1.457  1.00  0.00     0.180 C 
BRANCH  21  22
HETATM   22  O5  UNL     1       1.965   0.015   2.126  1.00  0.00    -0.388 OA
BRANCH  22  23
HETATM   23  C13 UNL     1       2.528  -1.131   1.622  1.00  0.00     0.193 C 
BRANCH  23  24
HETATM   24  C14 UNL     1       3.022  -1.026   0.210  1.00  0.00     0.193 C 
BRANCH  24  25
HETATM   25  O6  UNL     1       3.997  -0.062   0.017  1.00  0.00    -0.387 OA
BRANCH  25  26
HETATM   26  C15 UNL     1       5.140  -0.250   0.755  1.00  0.00     0.193 C 
BRANCH  26  27
HETATM   27  C16 UNL     1       6.125   0.864   0.441  1.00  0.00     0.193 C 
BRANCH  27  28
HETATM   28  O7  UNL     1       6.489   0.917  -0.881  1.00  0.00    -0.387 OA
BRANCH  28  29
HETATM   29  C17 UNL     1       7.094  -0.218  -1.352  1.00  0.00     0.195 C 
BRANCH  29  30
HETATM   30  C18 UNL     1       8.368  -0.559  -0.613  1.00  0.00     0.263 C 
BRANCH  30  31
HETATM   31  N1  UNL     1       9.292   0.520  -0.753  1.00  0.00    -0.066 N 
HETATM   32  C19 UNL     1      10.017   0.872   0.455  1.00  0.00     0.272 C 
HETATM   33  C20 UNL     1       9.115   1.592  -1.679  1.00  0.00     0.265 A 
HETATM   34  C21 UNL     1      10.105   0.517  -1.989  1.00  0.00     0.265 A 
ENDBRANCH  30  31
ENDBRANCH  29  30
ENDBRANCH  28  29
ENDBRANCH  27  28
ENDBRANCH  26  27
ENDBRANCH  25  26
ENDBRANCH  24  25
ENDBRANCH  23  24
ENDBRANCH  22  23
ENDBRANCH  21  22
ENDBRANCH  12  21
BRANCH   4  35
HETATM   35  O1  UNL     1      -3.418  -0.966  -1.560  1.00  0.00    -0.256 OA
BRANCH  35  36
HETATM   36  S1  UNL     1      -2.910  -2.476  -2.084  1.00  0.00     0.401 S 
HETATM   37  O2  UNL     1      -1.726  -2.281  -3.020  1.00  0.00    -0.179 OA
HETATM   38  O3  UNL     1      -4.129  -3.414  -2.757  1.00  0.00    -0.179 OA
ENDBRANCH  35  36
ENDBRANCH   4  35
BRANCH  20  39
HETATM   39  O8  UNL     1      -8.021   0.080  -1.654  1.00  0.00    -0.395 OA
ATOM     40  H8  UNL     1      -8.947   0.289  -1.699  1.00  0.00     0.210 HD
ENDBRANCH  20  39
TORSDOF 14
