REMARK  13 active torsions:
REMARK  status: ('A' for Active; 'I' for Inactive)
REMARK    1  A    between atoms: C6_6  and  C7_7 
REMARK       I    between atoms: C7_7  and  N1_9 
REMARK    2  A    between atoms: N1_9  and  C8_11 
REMARK    3  A    between atoms: C10_13  and  C11_14 
REMARK       I    between atoms: C11_14  and  N2_16 
REMARK    4  A    between atoms: N2_16  and  C12_18 
REMARK    5  A    between atoms: C12_18  and  C13_19 
REMARK    6  A    between atoms: C13_19  and  C14_20 
REMARK    7  A    between atoms: C14_20  and  C15_21 
REMARK    8  A    between atoms: N4_23  and  C16_24 
REMARK    9  A    between atoms: C16_24  and  C17_25 
REMARK   10  A    between atoms: C17_25  and  C18_26 
REMARK   11  A    between atoms: C18_26  and  N5_27 
REMARK   12  A    between atoms: C22_33  and  C23_34 
REMARK   13  A    between atoms: C24_35  and  C25_36 
REMARK       I    between atoms: C25_36  and  N7_38 
ROOT
HETATM    1  C7  UNL     1       0.525  -2.714   0.209  1.00  0.00     0.257 C 
HETATM    2  O1  UNL     1      -0.184  -3.293  -0.632  1.00  0.00    -0.267 OA
HETATM    3  N1  UNL     1       0.075  -1.542   0.837  1.00  0.00    -0.308 N 
ATOM      4  H1  UNL     1       0.691  -1.105   1.522  1.00  0.00     0.170 HD
ENDROOT
BRANCH   3   5
HETATM    5  C8  UNL     1      -1.186  -0.917   0.584  1.00  0.00     0.125 A 
HETATM    6  C9  UNL     1      -2.208  -1.252  -0.264  1.00  0.00     0.086 A 
HETATM    7  C10 UNL     1      -3.247  -0.316  -0.156  1.00  0.00     0.122 A 
HETATM    8  N4  UNL     1      -2.813   0.563   0.764  1.00  0.00    -0.285 N 
HETATM    9  N6  UNL     1      -1.610   0.212   1.196  1.00  0.00    -0.283 N 
ATOM     10  H6  UNL     1      -1.075   0.725   1.897  1.00  0.00     0.189 HD
BRANCH   7  11
HETATM   11  C11 UNL     1      -4.502  -0.320  -0.896  1.00  0.00     0.273 C 
HETATM   12  O2  UNL     1      -5.390   0.554  -0.721  1.00  0.00    -0.266 OA
HETATM   13  N2  UNL     1      -4.757  -1.352  -1.868  1.00  0.00    -0.332 N 
ATOM     14  H2  UNL     1      -4.006  -2.031  -1.994  1.00  0.00     0.168 HD
BRANCH  13  15
HETATM   15  C12 UNL     1      -5.877  -1.552  -2.654  1.00  0.00     0.091 C 
BRANCH  15  16
HETATM   16  C13 UNL     1      -7.192  -2.057  -2.361  1.00  0.00     0.018 C 
BRANCH  16  17
HETATM   17  C14 UNL     1      -8.174  -1.714  -1.369  1.00  0.00     0.016 C 
BRANCH  17  18
HETATM   18  C15 UNL     1      -8.099  -2.129   0.049  1.00  0.00     0.100 C 
HETATM   19  N3  UNL     1      -7.071  -1.803   0.918  1.00  0.00    -0.115 NA
ENDBRANCH  17  18
ENDBRANCH  16  17
ENDBRANCH  15  16
ENDBRANCH  13  15
ENDBRANCH   7  11
BRANCH   8  20
HETATM   20  C16 UNL     1      -3.500   1.732   1.245  1.00  0.00     0.151 C 
BRANCH  20  21
HETATM   21  C17 UNL     1      -3.084   2.891   0.338  1.00  0.00     0.052 C 
BRANCH  21  22
HETATM   22  C18 UNL     1      -3.763   4.148   0.791  1.00  0.00     0.273 C 
BRANCH  22  23
HETATM   23  N5  UNL     1      -3.391   5.251  -0.045  1.00  0.00     0.080 N 
HETATM   24  C19 UNL     1      -2.028   5.645   0.058  1.00  0.00     0.309 C 
HETATM   25  C20 UNL     1      -3.910   5.099  -1.357  1.00  0.00     0.309 C 
ENDBRANCH  22  23
ENDBRANCH  21  22
ENDBRANCH  20  21
ENDBRANCH   8  20
ENDBRANCH   3   5
BRANCH   1  26
HETATM   26  C6  UNL     1       1.822  -3.256   0.536  1.00  0.00     0.039 A 
HETATM   27  C4  UNL     1       2.065  -4.597   0.625  1.00  0.00    -0.046 A 
HETATM   28  C3  UNL     1       3.311  -5.096   0.936  1.00  0.00     0.015 A 
HETATM   29  C5  UNL     1       0.982  -5.556   0.389  1.00  0.00     0.049 C 
HETATM   30  C2  UNL     1       4.325  -4.215   1.159  1.00  0.00    -0.051 A 
HETATM   31  C1  UNL     1       5.690  -4.730   1.487  1.00  0.00     0.049 C 
HETATM   32  C22 UNL     1       4.154  -2.801   1.085  1.00  0.00    -0.029 A 
HETATM   33  C21 UNL     1       2.893  -2.375   0.775  1.00  0.00     0.029 A 
BRANCH  32  34
HETATM   34  C23 UNL     1       5.263  -1.981   1.434  1.00  0.00     0.017 C 
HETATM   35  C24 UNL     1       5.624  -0.775   1.135  1.00  0.00     0.075 C 
BRANCH  35  36
HETATM   36  C25 UNL     1       5.125   0.280   0.337  1.00  0.00     0.243 C 
HETATM   37  O3  UNL     1       4.108   0.224  -0.365  1.00  0.00    -0.268 OA
HETATM   38  N7  UNL     1       5.811   1.555   0.293  1.00  0.00    -0.348 N 
HETATM   39  C26 UNL     1       6.987   1.628   1.104  1.00  0.00     0.127 C 
HETATM   40  C30 UNL     1       5.154   2.509  -0.570  1.00  0.00     0.136 C 
HETATM   41  C27 UNL     1       7.607   3.022   1.075  1.00  0.00     0.030 C 
HETATM   42  C28 UNL     1       8.643   3.095  -0.053  1.00  0.00     0.075 C 
HETATM   43  S1  UNL     1       7.714   2.729  -1.583  1.00  0.00    -0.167 SA
HETATM   44  C29 UNL     1       6.043   3.396  -1.359  1.00  0.00     0.093 C 
ENDBRANCH  35  36
ENDBRANCH  32  34
ENDBRANCH   1  26
TORSDOF 13
