REMARK  18 active torsions:
REMARK  status: ('A' for Active; 'I' for Inactive)
REMARK    1  A    between atoms: O1_2  and  C2_3 
REMARK       I    between atoms: C2_3  and  N1_5 
REMARK    2  A    between atoms: N1_5  and  C3_6 
REMARK    3  A    between atoms: N1_5  and  C6_9 
REMARK    4  A    between atoms: C6_9  and  C7_10 
REMARK    5  A    between atoms: C6_9  and  O6_27 
REMARK    6  A    between atoms: C8_11  and  C9_12 
REMARK    7  A    between atoms: C10_13  and  N2_14 
REMARK       I    between atoms: N2_14  and  C11_16 
REMARK    8  A    between atoms: O6_27  and  C16_28 
REMARK    9  A    between atoms: C16_28  and  C17_30 
REMARK   10  A    between atoms: C17_30  and  C18_31 
REMARK   11  A    between atoms: C18_31  and  C19_32 
REMARK   12  A    between atoms: C19_32  and  C20_33 
REMARK   13  A    between atoms: C19_32  and  C27_40 
REMARK   14  A    between atoms: C20_33  and  C21_34 
REMARK   15  A    between atoms: C21_34  and  C22_35 
REMARK   16  A    between atoms: C22_35  and  C23_36 
REMARK   17  A    between atoms: C27_40  and  C28_41 
REMARK   18  A    between atoms: C28_41  and  C29_43 
ROOT
HETATM    1  C6  UNL     1       2.521  -0.021  -0.670  1.00  0.00     0.320 C 
ENDROOT
BRANCH   1   2
HETATM    2  N1  UNL     1       2.427   0.948  -1.776  1.00  0.00    -0.286 N 
HETATM    3  C2  UNL     1       2.765   0.579  -3.088  1.00  0.00     0.365 C 
HETATM    4  O2  UNL     1       3.157  -0.609  -3.296  1.00  0.00    -0.238 OA
BRANCH   3   5
HETATM    5  O1  UNL     1       2.696   1.430  -4.175  1.00  0.00    -0.309 OA
HETATM    6  C1  UNL     1       3.064   0.926  -5.443  1.00  0.00     0.215 C 
ENDBRANCH   3   5
BRANCH   2   7
HETATM    7  C3  UNL     1       1.977   2.277  -1.474  1.00  0.00     0.084 C 
HETATM    8  C4  UNL     1       3.005   3.320  -1.911  1.00  0.00     0.032 C 
HETATM    9  C5  UNL     1       0.715   2.493  -2.318  1.00  0.00     0.032 C 
ENDBRANCH   2   7
ENDBRANCH   1   2
BRANCH   1  10
HETATM   10  C7  UNL     1       3.411   0.512   0.355  1.00  0.00    -0.046 C 
HETATM   11  C8  UNL     1       4.126   0.973   1.208  1.00  0.00    -0.053 C 
BRANCH  11  12
HETATM   12  C9  UNL     1       4.972   1.561   2.227  1.00  0.00     0.130 A 
HETATM   13  C10 UNL     1       6.082   0.835   2.751  1.00  0.00     0.138 A 
HETATM   14  N3  UNL     1       6.785   1.469   3.682  1.00  0.00    -0.288 N 
HETATM   15  C13 UNL     1       7.977   0.872   4.242  1.00  0.00     0.163 C 
HETATM   16  C14 UNL     1       6.507   2.720   4.141  1.00  0.00     0.330 A 
HETATM   17  O4  UNL     1       7.220   3.256   5.030  1.00  0.00    -0.246 OA
HETATM   18  N4  UNL     1       5.465   3.374   3.635  1.00  0.00    -0.274 N 
HETATM   19  C15 UNL     1       4.711   2.807   2.697  1.00  0.00     0.272 A 
ATOM     20  H4  UNL     1       5.244   4.313   3.967  1.00  0.00     0.173 HD
HETATM   21  O5  UNL     1       3.723   3.464   2.237  1.00  0.00    -0.266 OA
BRANCH  13  22
HETATM   22  N2  UNL     1       6.306  -0.421   2.195  1.00  0.00    -0.312 N 
HETATM   23  C11 UNL     1       7.033  -1.571   2.411  1.00  0.00     0.219 C 
HETATM   24  C12 UNL     1       6.984  -2.681   1.314  1.00  0.00     0.117 C 
HETATM   25  O3  UNL     1       7.762  -1.935   3.343  1.00  0.00    -0.274 OA
ATOM     26  H2  UNL     1       5.747  -0.524   1.348  1.00  0.00     0.170 HD
ENDBRANCH  13  22
ENDBRANCH  11  12
ENDBRANCH   1  10
BRANCH   1  27
HETATM   27  O6  UNL     1       1.212  -0.220  -0.167  1.00  0.00    -0.284 OA
BRANCH  27  28
HETATM   28  C16 UNL     1       0.544  -1.443  -0.319  1.00  0.00     0.261 C 
HETATM   29  O7  UNL     1       1.146  -2.349  -0.924  1.00  0.00    -0.265 OA
BRANCH  28  30
HETATM   30  C17 UNL     1      -0.846  -1.597   0.246  1.00  0.00     0.111 C 
BRANCH  30  31
HETATM   31  C18 UNL     1      -1.751  -0.759  -0.634  1.00  0.00     0.015 C 
BRANCH  31  32
HETATM   32  C19 UNL     1      -3.180  -0.806  -0.210  1.00  0.00    -0.007 C 
BRANCH  32  33
HETATM   33  C20 UNL     1      -3.284  -0.302   1.199  1.00  0.00     0.005 C 
BRANCH  33  34
HETATM   34  C21 UNL     1      -4.653  -0.271   1.776  1.00  0.00     0.004 C 
BRANCH  34  35
HETATM   35  C22 UNL     1      -5.628   0.611   1.039  1.00  0.00     0.027 C 
BRANCH  35  36
HETATM   36  C23 UNL     1      -5.152   2.036   1.022  1.00  0.00    -0.025 C 
HETATM   37  C24 UNL     1      -5.860   3.011   1.575  1.00  0.00    -0.091 C 
HETATM   38  C25 UNL     1      -5.329   4.393   1.520  1.00  0.00     0.042 C 
HETATM   39  C26 UNL     1      -7.144   2.683   2.224  1.00  0.00     0.042 C 
ENDBRANCH  35  36
ENDBRANCH  34  35
ENDBRANCH  33  34
ENDBRANCH  32  33
BRANCH  32  40
HETATM   40  C27 UNL     1      -3.759  -2.154  -0.414  1.00  0.00     0.083 C 
BRANCH  40  41
HETATM   41  C28 UNL     1      -3.762  -2.573  -1.836  1.00  0.00     0.134 C 
HETATM   42  O8  UNL     1      -3.447  -1.852  -2.766  1.00  0.00    -0.297 OA
BRANCH  41  43
HETATM   43  C29 UNL     1      -4.171  -3.962  -2.221  1.00  0.00     0.009 C 
HETATM   44  C30 UNL     1      -3.236  -4.929  -1.554  1.00  0.00     0.022 C 
HETATM   45  C31 UNL     1      -5.585  -4.205  -1.733  1.00  0.00     0.022 C 
HETATM   46  C32 UNL     1      -4.158  -4.170  -3.697  1.00  0.00     0.022 C 
ENDBRANCH  41  43
ENDBRANCH  40  41
ENDBRANCH  32  40
ENDBRANCH  31  32
ENDBRANCH  30  31
ENDBRANCH  28  30
ENDBRANCH  27  28
ENDBRANCH   1  27
TORSDOF 18
