REMARK  15 active torsions:
REMARK  status: ('A' for Active; 'I' for Inactive)
REMARK    1  A    between atoms: O1_2  and  C2_3 
REMARK    2  A    between atoms: C4_5  and  C5_6 
REMARK    3  A    between atoms: C5_6  and  C7_8 
REMARK    4  A    between atoms: C5_6  and  N2_26 
REMARK    5  A    between atoms: C7_8  and  N1_9 
REMARK    6  A    between atoms: N1_9  and  C8_11 
REMARK    7  A    between atoms: C8_11  and  O2_12 
REMARK    8  A    between atoms: C8_11  and  C9_14 
REMARK    9  A    between atoms: C12_17  and  O3_18 
REMARK   10  A    between atoms: C14_20  and  O4_21 
REMARK   11  A    between atoms: C16_23  and  O5_24 
REMARK   12  A    between atoms: N2_26  and  S1_28 
REMARK   13  A    between atoms: S1_28  and  C18_31 
REMARK   14  A    between atoms: C28_41  and  O8_42 
REMARK   15  A    between atoms: C30_44  and  O9_45 
ROOT
HETATM    1  C5  UNL     1      -1.284   0.420  -0.231  1.00  0.00     0.080 C 
HETATM    2  C6  UNL     1      -0.919   0.037  -1.662  1.00  0.00     0.046 C 
ENDROOT
BRANCH   1   3
HETATM    3  C4  UNL     1      -0.972   1.907  -0.106  1.00  0.00    -0.023 A 
HETATM    4  C3  UNL     1      -1.621   2.770  -0.991  1.00  0.00     0.049 A 
HETATM    5  C2  UNL     1      -1.424   4.120  -0.980  1.00  0.00     0.104 A 
HETATM    6  C30 UNL     1      -0.542   4.645  -0.051  1.00  0.00     0.135 A 
HETATM    7  C28 UNL     1       0.116   3.840   0.834  1.00  0.00     0.104 A 
HETATM    8  C27 UNL     1      -0.120   2.458   0.787  1.00  0.00     0.049 A 
BRANCH   5   9
HETATM    9  O1  UNL     1      -2.085   4.978  -1.874  1.00  0.00    -0.353 OA
HETATM   10  C1  UNL     1      -2.997   4.392  -2.812  1.00  0.00     0.210 C 
ENDBRANCH   5   9
BRANCH   6  11
HETATM   11  O9  UNL     1      -0.368   6.046  -0.077  1.00  0.00    -0.351 OA
HETATM   12  C31 UNL     1       0.661   6.502  -0.971  1.00  0.00     0.210 C 
ENDBRANCH   6  11
BRANCH   7  13
HETATM   13  O8  UNL     1       0.992   4.366   1.753  1.00  0.00    -0.353 OA
HETATM   14  C29 UNL     1       1.655   3.503   2.647  1.00  0.00     0.210 C 
ENDBRANCH   7  13
ENDBRANCH   1   3
BRANCH   1  15
HETATM   15  C7  UNL     1      -0.327  -0.323   0.650  1.00  0.00     0.158 C 
BRANCH  15  16
HETATM   16  N1  UNL     1       1.079  -0.164   0.321  1.00  0.00    -0.367 N 
ATOM     17  H1  UNL     1       1.381   0.430  -0.451  1.00  0.00     0.161 HD
BRANCH  16  18
HETATM   18  C8  UNL     1       2.002  -0.863   1.111  1.00  0.00     0.149 C 
BRANCH  18  19
HETATM   19  O2  UNL     1       1.503  -1.584   2.094  1.00  0.00    -0.346 OA
ATOM     20  H2  UNL     1       2.129  -2.058   2.629  1.00  0.00     0.219 HD
ENDBRANCH  18  19
BRANCH  18  21
HETATM   21  C9  UNL     1       3.444  -0.927   1.017  1.00  0.00     0.051 A 
HETATM   22  C10 UNL     1       4.124  -1.558   2.097  1.00  0.00     0.021 A 
HETATM   23  C11 UNL     1       5.496  -1.536   2.105  1.00  0.00     0.041 A 
HETATM   24  C12 UNL     1       6.229  -0.923   1.103  1.00  0.00     0.104 A 
HETATM   25  C14 UNL     1       5.573  -0.313   0.055  1.00  0.00     0.136 A 
HETATM   26  C16 UNL     1       4.188  -0.331   0.033  1.00  0.00     0.118 A 
BRANCH  24  27
HETATM   27  O3  UNL     1       7.617  -0.948   1.192  1.00  0.00    -0.353 OA
HETATM   28  C13 UNL     1       8.268  -1.580   2.275  1.00  0.00     0.210 C 
ENDBRANCH  24  27
BRANCH  25  29
HETATM   29  O4  UNL     1       6.272   0.302  -0.947  1.00  0.00    -0.351 OA
HETATM   30  C15 UNL     1       6.724  -0.451  -2.052  1.00  0.00     0.210 C 
ENDBRANCH  25  29
BRANCH  26  31
HETATM   31  O5  UNL     1       3.599   0.279  -1.048  1.00  0.00    -0.352 OA
HETATM   32  C17 UNL     1       3.391  -0.429  -2.279  1.00  0.00     0.210 C 
ENDBRANCH  26  31
ENDBRANCH  18  21
ENDBRANCH  16  18
ENDBRANCH  15  16
ENDBRANCH   1  15
BRANCH   1  33
HETATM   33  N2  UNL     1      -2.577   0.159   0.204  1.00  0.00    -0.300 N 
ATOM     34  H2  UNL     1      -2.726   0.275   1.206  1.00  0.00     0.173 HD
BRANCH  33  35
HETATM   35  S1  UNL     1      -3.898  -0.305  -0.640  1.00  0.00     0.260 S 
HETATM   36  O6  UNL     1      -5.015   0.759  -0.545  1.00  0.00    -0.200 OA
HETATM   37  O7  UNL     1      -3.676  -0.508  -2.140  1.00  0.00    -0.200 OA
BRANCH  35  38
HETATM   38  C18 UNL     1      -4.599  -1.807  -0.115  1.00  0.00     0.086 A 
HETATM   39  C19 UNL     1      -5.874  -1.769   0.445  1.00  0.00     0.032 A 
HETATM   40  C20 UNL     1      -6.535  -2.885   0.917  1.00  0.00    -0.060 A 
HETATM   41  C21 UNL     1      -7.901  -2.810   1.509  1.00  0.00     0.048 C 
HETATM   42  C22 UNL     1      -5.922  -4.099   0.841  1.00  0.00     0.014 A 
HETATM   43  C23 UNL     1      -4.680  -4.174   0.302  1.00  0.00    -0.054 A 
HETATM   44  C24 UNL     1      -4.004  -5.495   0.219  1.00  0.00     0.049 C 
HETATM   45  C25 UNL     1      -4.014  -3.030  -0.179  1.00  0.00    -0.033 A 
HETATM   46  C26 UNL     1      -2.676  -3.219  -0.777  1.00  0.00     0.050 C 
ENDBRANCH  35  38
ENDBRANCH  33  35
ENDBRANCH   1  33
TORSDOF 15
