REMARK  16 active torsions:
REMARK  status: ('A' for Active; 'I' for Inactive)
REMARK    1  A    between atoms: O1_2  and  C2_3 
REMARK    2  A    between atoms: C2_3  and  C3_5 
REMARK    3  A    between atoms: C3_5  and  C4_6 
REMARK    4  A    between atoms: C4_6  and  C5_7 
REMARK    5  A    between atoms: C5_7  and  C6_8 
REMARK    6  A    between atoms: C6_8  and  C7_9 
REMARK    7  A    between atoms: C7_9  and  O4_11 
REMARK    8  A    between atoms: O4_11  and  C8_12 
REMARK    9  A    between atoms: C18_23  and  C19_24 
REMARK   10  A    between atoms: C19_24  and  C21_26 
REMARK       I    between atoms: C21_26  and  N1_28 
REMARK   11  A    between atoms: N1_28  and  C22_30 
REMARK   12  A    between atoms: C22_30  and  C23_31 
REMARK   13  A    between atoms: C23_31  and  C24_32 
REMARK   14  A    between atoms: C24_32  and  O7_33 
REMARK   15  A    between atoms: O7_33  and  C25_34 
REMARK   16  A    between atoms: C33_43  and  O9_45 
ROOT
HETATM    1  C8  UNL     1       3.741   0.690  -1.009  1.00  0.00     0.166 C 
HETATM    2  C9  UNL     1       2.994   1.062  -2.216  1.00  0.00     0.036 C 
HETATM    3  C10 UNL     1       1.551   0.708  -2.269  1.00  0.00     0.013 C 
HETATM    4  C11 UNL     1       1.001   0.592  -0.894  1.00  0.00    -0.027 C 
HETATM    5  C12 UNL     1       1.220   1.841  -0.107  1.00  0.00     0.016 C 
HETATM    6  C13 UNL     1      -0.425   0.093  -0.819  1.00  0.00     0.068 C 
HETATM    7  C14 UNL     1      -1.408   1.185  -0.822  1.00  0.00     0.133 C 
HETATM    8  O5  UNL     1      -1.388   1.972  -1.748  1.00  0.00    -0.298 OA
HETATM    9  C15 UNL     1      -2.428   1.395   0.233  1.00  0.00     0.088 C 
HETATM   10  C16 UNL     1      -2.766   0.091   0.948  1.00  0.00    -0.029 C 
HETATM   11  C17 UNL     1      -3.514  -0.767  -0.042  1.00  0.00     0.016 C 
HETATM   12  C18 UNL     1      -3.466   0.423   2.205  1.00  0.00     0.007 C 
HETATM   13  C27 UNL     1      -2.434   0.469   3.270  1.00  0.00     0.007 C 
HETATM   14  C28 UNL     1      -1.082   0.269   2.567  1.00  0.00     0.006 C 
HETATM   15  C29 UNL     1      -1.491  -0.578   1.387  1.00  0.00    -0.001 C 
HETATM   16  C30 UNL     1      -0.476  -0.802   0.364  1.00  0.00     0.003 C 
HETATM   17  C31 UNL     1       0.951  -0.827   0.949  1.00  0.00     0.014 C 
HETATM   18  C32 UNL     1       1.720  -0.627  -0.299  1.00  0.00     0.031 C 
HETATM   19  C33 UNL     1       3.167  -0.443  -0.200  1.00  0.00     0.085 C 
HETATM   20  C34 UNL     1       3.843  -1.739  -0.666  1.00  0.00     0.049 C 
ENDROOT
BRANCH  12  21
HETATM   21  C19 UNL     1      -4.675  -0.380   2.567  1.00  0.00     0.078 C 
HETATM   22  C20 UNL     1      -5.198   0.094   3.960  1.00  0.00     0.020 C 
BRANCH  21  23
HETATM   23  C21 UNL     1      -5.864  -0.065   1.680  1.00  0.00     0.221 C 
HETATM   24  O6  UNL     1      -5.840   0.952   0.959  1.00  0.00    -0.273 OA
HETATM   25  N1  UNL     1      -6.991  -0.903   1.666  1.00  0.00    -0.361 N 
ATOM     26  H1  UNL     1      -6.968  -1.728   2.266  1.00  0.00     0.162 HD
BRANCH  25  27
HETATM   27  C22 UNL     1      -8.195  -0.692   0.863  1.00  0.00     0.125 C 
BRANCH  27  28
HETATM   28  C23 UNL     1      -8.890   0.562   1.217  1.00  0.00     0.046 C 
BRANCH  28  29
HETATM   29  C24 UNL     1     -10.162   0.836   0.499  1.00  0.00     0.180 C 
BRANCH  29  30
HETATM   30  O7  UNL     1     -10.124   0.944  -0.849  1.00  0.00    -0.322 OA
BRANCH  30  31
HETATM   31  C25 UNL     1     -10.025   0.060  -1.852  1.00  0.00     0.254 C 
HETATM   32  C26 UNL     1      -9.971   0.468  -3.307  1.00  0.00     0.126 C 
HETATM   33  O8  UNL     1      -9.972  -1.163  -1.632  1.00  0.00    -0.266 OA
ENDBRANCH  30  31
ENDBRANCH  29  30
ENDBRANCH  28  29
ENDBRANCH  27  28
ENDBRANCH  25  27
ENDBRANCH  21  23
ENDBRANCH  12  21
BRANCH  19  34
HETATM   34  O9  UNL     1       3.528  -0.297   1.155  1.00  0.00    -0.387 OA
ATOM     35  H9  UNL     1       3.166  -1.012   1.665  1.00  0.00     0.210 HD
ENDBRANCH  19  34
BRANCH   1  36
HETATM   36  O4  UNL     1       5.063   0.328  -1.370  1.00  0.00    -0.313 OA
BRANCH  36  37
HETATM   37  C7  UNL     1       6.181   0.967  -0.910  1.00  0.00     0.259 C 
HETATM   38  O3  UNL     1       6.055   1.933  -0.122  1.00  0.00    -0.265 OA
BRANCH  37  39
HETATM   39  C6  UNL     1       7.592   0.581  -1.292  1.00  0.00     0.111 C 
BRANCH  39  40
HETATM   40  C5  UNL     1       7.573  -0.567  -2.208  1.00  0.00     0.010 C 
BRANCH  40  41
HETATM   41  C4  UNL     1       8.829  -1.112  -2.737  1.00  0.00     0.010 C 
BRANCH  41  42
HETATM   42  C3  UNL     1       9.865  -1.624  -1.831  1.00  0.00     0.111 C 
BRANCH  42  43
HETATM   43  C2  UNL     1      10.538  -0.607  -1.021  1.00  0.00     0.258 C 
HETATM   44  O2  UNL     1      10.654   0.573  -1.432  1.00  0.00    -0.265 OA
BRANCH  43  45
HETATM   45  O1  UNL     1      11.080  -0.897   0.239  1.00  0.00    -0.326 OA
HETATM   46  C1  UNL     1      11.725   0.109   1.000  1.00  0.00     0.213 C 
ENDBRANCH  43  45
ENDBRANCH  42  43
ENDBRANCH  41  42
ENDBRANCH  40  41
ENDBRANCH  39  40
ENDBRANCH  37  39
ENDBRANCH  36  37
ENDBRANCH   1  36
TORSDOF 16
