REMARK  15 active torsions:
REMARK  status: ('A' for Active; 'I' for Inactive)
REMARK    1  A    between atoms: O1_2  and  N1_3 
REMARK    2  A    between atoms: C2_5  and  C3_6 
REMARK    3  A    between atoms: C2_5  and  N4_31 
REMARK    4  A    between atoms: C3_6  and  C4_7 
REMARK    5  A    between atoms: C4_7  and  C5_8 
REMARK    6  A    between atoms: C5_8  and  C6_9 
REMARK    7  A    between atoms: C6_9  and  C7_10 
REMARK    8  A    between atoms: C7_10  and  N2_11 
REMARK    9  A    between atoms: N2_11  and  C8_12 
REMARK   10  A    between atoms: N4_31  and  C23_33 
REMARK   11  A    between atoms: C23_33  and  C24_34 
REMARK   12  A    between atoms: C24_34  and  C25_35 
REMARK   13  A    between atoms: C27_37  and  O4_38 
REMARK   14  A    between atoms: C29_40  and  O5_41 
REMARK   15  A    between atoms: C31_43  and  O6_44 
ROOT
HETATM    1  C4  UNL     1      -0.042   1.067  -2.236  1.00  0.00     0.008 C 
ENDROOT
BRANCH   1   2
HETATM    2  C3  UNL     1       0.759   1.354  -1.006  1.00  0.00     0.078 C 
BRANCH   2   3
HETATM    3  C2  UNL     1       1.923   0.468  -0.895  1.00  0.00     0.097 C 
HETATM    4  N1  UNL     1       2.562  -0.004  -1.850  1.00  0.00    -0.255 N 
ATOM      5  H1  UNL     1       3.333  -0.595  -1.541  1.00  0.00     0.195 HD
BRANCH   4   6
HETATM    6  O1  UNL     1       2.490   0.070  -3.167  1.00  0.00    -0.284 OA
HETATM    7  C1  UNL     1       3.605  -0.240  -3.984  1.00  0.00     0.237 C 
ENDBRANCH   4   6
BRANCH   3   8
HETATM    8  N4  UNL     1       2.343   0.184   0.474  1.00  0.00    -0.378 N 
ATOM      9  H4  UNL     1       2.333   0.951   1.147  1.00  0.00     0.160 HD
BRANCH   8  10
HETATM   10  C23 UNL     1       2.763  -1.089   0.925  1.00  0.00     0.125 C 
BRANCH  10  11
HETATM   11  C24 UNL     1       4.085  -1.592   0.443  1.00  0.00     0.058 C 
BRANCH  11  12
HETATM   12  C25 UNL     1       5.240  -0.749   0.861  1.00  0.00    -0.051 A 
HETATM   13  C26 UNL     1       5.767   0.260   0.095  1.00  0.00     0.047 A 
HETATM   14  C27 UNL     1       6.832   1.049   0.492  1.00  0.00     0.104 A 
HETATM   15  C29 UNL     1       7.382   0.802   1.714  1.00  0.00     0.135 A 
HETATM   16  C31 UNL     1       6.875  -0.222   2.530  1.00  0.00     0.104 A 
HETATM   17  C33 UNL     1       5.822  -0.983   2.110  1.00  0.00     0.047 A 
BRANCH  14  18
HETATM   18  O4  UNL     1       7.311   2.051  -0.335  1.00  0.00    -0.353 OA
HETATM   19  C28 UNL     1       6.705   2.255  -1.580  1.00  0.00     0.210 C 
ENDBRANCH  14  18
BRANCH  15  20
HETATM   20  O5  UNL     1       8.450   1.575   2.140  1.00  0.00    -0.351 OA
HETATM   21  C30 UNL     1       9.760   1.118   1.819  1.00  0.00     0.210 C 
ENDBRANCH  15  20
BRANCH  16  22
HETATM   22  O6  UNL     1       7.512  -0.383   3.751  1.00  0.00    -0.353 OA
HETATM   23  C32 UNL     1       7.061  -1.390   4.626  1.00  0.00     0.210 C 
ENDBRANCH  16  22
ENDBRANCH  11  12
ENDBRANCH  10  11
ENDBRANCH   8  10
ENDBRANCH   3   8
ENDBRANCH   2   3
ENDBRANCH   1   2
BRANCH   1  24
HETATM   24  C5  UNL     1      -0.561  -0.374  -2.226  1.00  0.00     0.003 C 
BRANCH  24  25
HETATM   25  C6  UNL     1      -1.359  -0.687  -3.452  1.00  0.00     0.033 C 
BRANCH  25  26
HETATM   26  C7  UNL     1      -2.629   0.179  -3.502  1.00  0.00     0.218 C 
BRANCH  26  27
HETATM   27  N2  UNL     1      -3.456  -0.023  -2.491  1.00  0.00    -0.446 NA
BRANCH  27  28
HETATM   28  C8  UNL     1      -4.206  -0.153  -1.544  1.00  0.00     0.136 A 
HETATM   29  C9  UNL     1      -4.459   0.850  -0.619  1.00  0.00     0.123 A 
HETATM   30  C10 UNL     1      -5.311   0.689   0.442  1.00  0.00     0.045 A 
HETATM   31  S1  UNL     1      -3.906   2.501  -0.646  1.00  0.00     0.181 S 
HETATM   32  N3  UNL     1      -5.960  -0.526   0.595  1.00  0.00    -0.351 N 
HETATM   33  C19 UNL     1      -5.251   1.812   1.328  1.00  0.00     0.010 C 
HETATM   34  C11 UNL     1      -7.026  -0.639   1.508  1.00  0.00     0.156 C 
HETATM   35  C12 UNL     1      -5.747  -1.540  -0.266  1.00  0.00     0.054 A 
HETATM   36  C13 UNL     1      -6.366  -2.764  -0.055  1.00  0.00    -0.034 A 
HETATM   37  C18 UNL     1      -4.878  -1.376  -1.343  1.00  0.00     0.033 A 
HETATM   38  C14 UNL     1      -7.157  -3.084   1.114  1.00  0.00     0.050 C 
HETATM   39  C15 UNL     1      -6.064  -3.780  -1.002  1.00  0.00     0.009 A 
HETATM   40  C16 UNL     1      -5.222  -3.606  -2.059  1.00  0.00     0.002 A 
HETATM   41  C17 UNL     1      -4.624  -2.404  -2.234  1.00  0.00     0.017 A 
HETATM   42  C20 UNL     1      -6.056   2.033   2.522  1.00  0.00     0.022 C 
HETATM   43  C21 UNL     1      -3.790   1.721   1.925  1.00  0.00     0.022 C 
HETATM   44  C22 UNL     1      -5.169   3.120   0.489  1.00  0.00     0.161 C 
HETATM   45  O2  UNL     1      -2.542   2.739  -0.181  1.00  0.00    -0.222 OA
HETATM   46  O3  UNL     1      -4.208   3.160  -1.969  1.00  0.00    -0.222 OA
ENDBRANCH  27  28
ENDBRANCH  26  27
ENDBRANCH  25  26
ENDBRANCH  24  25
ENDBRANCH   1  24
TORSDOF 15
