REMARK  13 active torsions:
REMARK  status: ('A' for Active; 'I' for Inactive)
REMARK    1  A    between atoms: N1_1  and  C1_5 
REMARK    2  A    between atoms: C1_5  and  C2_6 
REMARK    3  A    between atoms: C2_6  and  N2_7 
REMARK    4  A    between atoms: C2_6  and  C10_23 
REMARK    5  A    between atoms: N2_7  and  C3_9 
REMARK    6  A    between atoms: C3_9  and  C4_10 
REMARK    7  A    between atoms: C4_10  and  C5_11 
REMARK    8  A    between atoms: C5_11  and  S1_12 
REMARK    9  A    between atoms: S1_12  and  C6_15 
REMARK   10  A    between atoms: C6_15  and  C7_16 
REMARK   11  A    between atoms: C7_16  and  C8_17 
REMARK   12  A    between atoms: C8_17  and  N3_18 
REMARK   13  A    between atoms: C13_26  and  N6_27 
REMARK       I    between atoms: N6_27  and  C14_28 
ROOT
HETATM    1  N2  UNL     1      -1.533  -1.416  -0.760  1.00  0.00    -0.396 N 
ATOM      2  H2  UNL     1      -2.109  -1.696  -1.554  1.00  0.00     0.159 HD
ENDROOT
BRANCH   1   3
HETATM    3  C2  UNL     1      -2.089  -0.539   0.104  1.00  0.00     0.110 C 
BRANCH   3   4
HETATM    4  C1  UNL     1      -1.482   0.843   0.243  1.00  0.00     0.254 C 
BRANCH   4   5
HETATM    5  N1  UNL     1      -2.288   1.621   1.227  1.00  0.00    -0.077 N 
ATOM      6  H13 UNL     1      -3.278   1.652   0.983  1.00  0.00     0.274 HD
ATOM      7  H12 UNL     1      -2.379   1.142   2.123  1.00  0.00     0.274 HD
ATOM      8  H11 UNL     1      -1.880   2.551   1.321  1.00  0.00     0.274 HD
ENDBRANCH   4   5
ENDBRANCH   3   4
BRANCH   3   9
HETATM    9  C10 UNL     1      -3.604  -0.382   0.011  1.00  0.00     0.013 C 
HETATM   10  C11 UNL     1      -4.080   0.427  -1.137  1.00  0.00     0.010 C 
HETATM   11  C12 UNL     1      -5.043  -0.486  -1.916  1.00  0.00     0.040 C 
HETATM   12  C13 UNL     1      -5.632  -1.258  -0.714  1.00  0.00     0.166 C 
HETATM   13  C15 UNL     1      -4.304  -1.718  -0.076  1.00  0.00     0.046 C 
BRANCH  12  14
HETATM   14  N6  UNL     1      -6.251  -0.402   0.111  1.00  0.00    -0.415 NA
HETATM   15  C14 UNL     1      -6.789   0.343   0.844  1.00  0.00     0.270 C 
HETATM   16  N7  UNL     1      -7.610   1.415   0.398  1.00  0.00    -0.053 NA
HETATM   17  N8  UNL     1      -6.667   0.235   2.281  1.00  0.00    -0.053 NA
ENDBRANCH  12  14
ENDBRANCH   3   9
ENDBRANCH   1   3
BRANCH   1  18
HETATM   18  C3  UNL     1      -0.281  -1.972  -0.690  1.00  0.00     0.057 C 
BRANCH  18  19
HETATM   19  C4  UNL     1       0.953  -1.160  -0.920  1.00  0.00     0.059 C 
BRANCH  19  20
HETATM   20  C5  UNL     1       2.205  -2.054  -0.825  1.00  0.00     0.145 C 
BRANCH  20  21
HETATM   21  S1  UNL     1       3.627  -0.989  -1.101  1.00  0.00     0.144 S 
HETATM   22  O1  UNL     1       3.585  -0.357  -2.439  1.00  0.00    -0.228 OA
HETATM   23  O2  UNL     1       4.868  -1.870  -1.013  1.00  0.00    -0.228 OA
BRANCH  21  24
HETATM   24  C6  UNL     1       3.641   0.266   0.139  1.00  0.00     0.142 C 
BRANCH  24  25
HETATM   25  C7  UNL     1       4.745   1.240   0.031  1.00  0.00     0.034 C 
BRANCH  25  26
HETATM   26  C8  UNL     1       6.133   0.677   0.120  1.00  0.00     0.123 C 
BRANCH  26  27
HETATM   27  N3  UNL     1       7.103   1.786   0.031  1.00  0.00    -0.367 N 
HETATM   28  C9  UNL     1       8.305   1.555   0.421  1.00  0.00     0.196 C 
HETATM   29  N4  UNL     1       8.714   0.300   0.921  1.00  0.00    -0.067 NA
HETATM   30  N5  UNL     1       9.257   2.619   0.343  1.00  0.00    -0.067 NA
ATOM     31  H3  UNL     1       6.829   2.701  -0.327  1.00  0.00     0.161 HD
ENDBRANCH  26  27
ENDBRANCH  25  26
ENDBRANCH  24  25
ENDBRANCH  21  24
ENDBRANCH  20  21
ENDBRANCH  19  20
ENDBRANCH  18  19
ENDBRANCH   1  18
TORSDOF 13
