REMARK  14 active torsions:
REMARK  status: ('A' for Active; 'I' for Inactive)
REMARK    1  A    between atoms: C2_2  and  C3_3 
REMARK    2  A    between atoms: C2_2  and  N4_15 
REMARK    3  A    between atoms: N1_4  and  C4_6 
REMARK    4  A    between atoms: C4_6  and  C5_10 
REMARK    5  A    between atoms: C5_10  and  C6_11 
REMARK    6  A    between atoms: N4_15  and  C7_17 
REMARK    7  A    between atoms: C7_17  and  C8_18 
REMARK    8  A    between atoms: C8_18  and  C9_19 
REMARK    9  A    between atoms: C9_19  and  N5_20 
REMARK       I    between atoms: N5_20  and  C10_22 
REMARK   10  A    between atoms: C10_22  and  C11_24 
REMARK   11  A    between atoms: C13_29  and  O3_30 
REMARK   12  A    between atoms: O3_30  and  C14_31 
REMARK   13  A    between atoms: C14_31  and  C15_32 
REMARK   14  A    between atoms: N7_33  and  N8_35 
ROOT
HETATM    1  N5  UNL     1      -1.645  -0.470  -0.600  1.00  0.00    -0.359 N 
ATOM      2  H5  UNL     1      -1.767   0.531  -0.755  1.00  0.00     0.162 HD
HETATM    3  C10 UNL     1      -2.654  -1.377  -0.987  1.00  0.00     0.243 C 
HETATM    4  O1  UNL     1      -2.486  -2.605  -0.788  1.00  0.00    -0.271 OA
ENDROOT
BRANCH   1   5
HETATM    5  C9  UNL     1      -0.437  -0.968   0.017  1.00  0.00     0.124 C 
BRANCH   5   6
HETATM    6  C8  UNL     1       0.473   0.201   0.332  1.00  0.00     0.039 C 
BRANCH   6   7
HETATM    7  C7  UNL     1       1.717  -0.328   0.970  1.00  0.00     0.121 C 
BRANCH   7   8
HETATM    8  N4  UNL     1       2.429  -1.243   0.101  1.00  0.00    -0.389 N 
ATOM      9  H4  UNL     1       2.088  -1.468  -0.833  1.00  0.00     0.159 HD
BRANCH   8  10
HETATM   10  C2  UNL     1       3.619  -1.808   0.611  1.00  0.00     0.034 C 
HETATM   11  C1  UNL     1       3.564  -2.918   1.298  1.00  0.00     0.044 C 
BRANCH  10  12
HETATM   12  C3  UNL     1       4.875  -1.153   0.369  1.00  0.00     0.117 C 
HETATM   13  N1  UNL     1       4.911  -0.063  -0.307  1.00  0.00    -0.354 N 
ATOM     14  H1  UNL     1       4.055   0.349  -0.678  1.00  0.00     0.166 HD
BRANCH  13  15
HETATM   15  C4  UNL     1       6.162   0.553  -0.525  1.00  0.00     0.079 C 
HETATM   16  N2  UNL     1       7.095  -0.120  -1.091  1.00  0.00    -0.389 N 
ATOM     17  H22 UNL     1       6.944  -1.086  -1.381  1.00  0.00     0.157 HD
ATOM     18  H21 UNL     1       7.999   0.325  -1.249  1.00  0.00     0.157 HD
BRANCH  15  19
HETATM   19  C5  UNL     1       6.379   1.944  -0.107  1.00  0.00     0.119 C 
BRANCH  19  20
HETATM   20  C6  UNL     1       7.758   2.347  -0.446  1.00  0.00     0.060 C 
HETATM   21  N3  UNL     1       8.045   3.178  -1.364  1.00  0.00    -0.411 N 
ATOM     22  H32 UNL     1       7.267   3.580  -1.886  1.00  0.00     0.155 HD
ATOM     23  H31 UNL     1       8.998   3.456  -1.598  1.00  0.00     0.155 HD
ENDBRANCH  19  20
ENDBRANCH  15  19
ENDBRANCH  13  15
ENDBRANCH  10  12
ENDBRANCH   8  10
ENDBRANCH   7   8
ENDBRANCH   6   7
ENDBRANCH   5   6
ENDBRANCH   1   5
BRANCH   3  24
HETATM   24  C11 UNL     1      -3.887  -0.876  -1.616  1.00  0.00     0.214 C 
HETATM   25  N6  UNL     1      -4.808  -1.975  -1.943  1.00  0.00    -0.343 N 
HETATM   26  C12 UNL     1      -5.206  -1.925  -0.557  1.00  0.00     0.250 C 
ATOM     27  H6  UNL     1      -5.053  -2.521  -2.769  1.00  0.00     0.163 HD
HETATM   28  O2  UNL     1      -5.584  -2.802   0.236  1.00  0.00    -0.271 OA
HETATM   29  C13 UNL     1      -4.943  -0.460  -0.622  1.00  0.00     0.245 C 
BRANCH  29  30
HETATM   30  O3  UNL     1      -4.499   0.119   0.540  1.00  0.00    -0.369 OA
BRANCH  30  31
HETATM   31  C14 UNL     1      -5.261   1.246   0.838  1.00  0.00     0.215 C 
BRANCH  31  32
HETATM   32  C15 UNL     1      -6.688   0.928   1.017  1.00  0.00     0.107 C 
HETATM   33  N7  UNL     1      -7.573   1.769   0.643  1.00  0.00    -0.300 N 
ATOM     34  H7  UNL     1      -8.557   1.535   0.773  1.00  0.00     0.187 HD
BRANCH  33  35
HETATM   35  N8  UNL     1      -7.248   2.993   0.065  1.00  0.00    -0.250 N 
HETATM   36  N9  UNL     1      -7.923   3.375  -0.947  1.00  0.00    -0.331 N 
ATOM     37  H92 UNL     1      -8.675   2.790  -1.310  1.00  0.00     0.178 HD
ATOM     38  H91 UNL     1      -7.685   4.272  -1.371  1.00  0.00     0.178 HD
ATOM     39  H8  UNL     1      -6.493   3.567   0.440  1.00  0.00     0.207 HD
ENDBRANCH  33  35
ENDBRANCH  31  32
ENDBRANCH  30  31
ENDBRANCH  29  30
ENDBRANCH   3  24
TORSDOF 14
