REMARK  14 active torsions:
REMARK  status: ('A' for Active; 'I' for Inactive)
REMARK    1  A    between atoms: N2_4  and  N3_6 
REMARK       I    between atoms: C1_8  and  N5_10 
REMARK    2  A    between atoms: N5_10  and  C2_12 
REMARK    3  A    between atoms: C2_12  and  C3_13 
REMARK    4  A    between atoms: C3_13  and  C4_14 
REMARK    5  A    between atoms: C4_14  and  C5_15 
REMARK    6  A    between atoms: C5_15  and  O1_16 
REMARK    7  A    between atoms: O1_16  and  C6_17 
REMARK    8  A    between atoms: C6_17  and  C7_18 
REMARK    9  A    between atoms: C7_18  and  C8_19 
REMARK   10  A    between atoms: C8_19  and  N6_20 
REMARK       I    between atoms: N6_20  and  C9_22 
REMARK   11  A    between atoms: C9_22  and  C10_24 
REMARK   12  A    between atoms: C12_26  and  N7_27 
REMARK   13  A    between atoms: C14_32  and  C15_33 
REMARK   14  A    between atoms: C15_33  and  N8_34 
REMARK       I    between atoms: N8_34  and  C16_35 
ROOT
HETATM    1  C8  UNL     1      -0.732   0.315   1.929  1.00  0.00     0.124 C 
ENDROOT
BRANCH   1   2
HETATM    2  C7  UNL     1       0.639   0.898   1.731  1.00  0.00     0.046 C 
BRANCH   2   3
HETATM    3  C6  UNL     1       1.395   0.040   0.750  1.00  0.00     0.169 C 
BRANCH   3   4
HETATM    4  O1  UNL     1       2.670   0.462   0.476  1.00  0.00    -0.391 OA
BRANCH   4   5
HETATM    5  C5  UNL     1       3.495   0.509   1.579  1.00  0.00     0.167 C 
BRANCH   5   6
HETATM    6  C4  UNL     1       4.889   0.973   1.244  1.00  0.00     0.028 C 
BRANCH   6   7
HETATM    7  C3  UNL     1       5.582   0.086   0.252  1.00  0.00     0.022 C 
BRANCH   7   8
HETATM    8  C2  UNL     1       6.969   0.680   0.019  1.00  0.00     0.122 C 
BRANCH   8   9
HETATM    9  N5  UNL     1       7.713  -0.119  -0.931  1.00  0.00    -0.363 N 
HETATM   10  C1  UNL     1       9.023   0.282  -1.268  1.00  0.00     0.204 C 
HETATM   11  N3  UNL     1      10.019  -0.133  -0.584  1.00  0.00    -0.260 N 
HETATM   12  N4  UNL     1       9.230   1.144  -2.364  1.00  0.00    -0.062 NA
ATOM     13  H3  UNL     1      10.946   0.185  -0.866  1.00  0.00     0.191 HD
ATOM     14  H5  UNL     1       7.300  -0.953  -1.348  1.00  0.00     0.162 HD
BRANCH  11  15
HETATM   15  N2  UNL     1       9.942  -0.979   0.509  1.00  0.00    -0.247 N 
HETATM   16  N1  UNL     1       9.177  -1.993   0.523  1.00  0.00    -0.331 N 
ATOM     17  H12 UNL     1       8.609  -2.175  -0.304  1.00  0.00     0.178 HD
ATOM     18  H11 UNL     1       9.120  -2.616   1.328  1.00  0.00     0.178 HD
ATOM     19  H2  UNL     1      10.517  -0.782   1.328  1.00  0.00     0.207 HD
ENDBRANCH  11  15
ENDBRANCH   8   9
ENDBRANCH   7   8
ENDBRANCH   6   7
ENDBRANCH   5   6
ENDBRANCH   4   5
ENDBRANCH   3   4
ENDBRANCH   2   3
ENDBRANCH   1   2
BRANCH   1  20
HETATM   20  N6  UNL     1      -1.481   0.264   0.687  1.00  0.00    -0.361 N 
HETATM   21  C9  UNL     1      -2.812  -0.271   0.707  1.00  0.00     0.222 C 
HETATM   22  O2  UNL     1      -3.237  -0.662   1.816  1.00  0.00    -0.273 OA
ATOM     23  H6  UNL     1      -1.069   0.602  -0.183  1.00  0.00     0.162 HD
BRANCH  21  24
HETATM   24  C10 UNL     1      -3.523  -0.302  -0.561  1.00  0.00     0.090 C 
HETATM   25  C11 UNL     1      -3.541   1.160  -1.072  1.00  0.00     0.047 C 
HETATM   26  C12 UNL     1      -4.704   1.075  -2.069  1.00  0.00     0.185 C 
HETATM   27  C13 UNL     1      -5.707   0.341  -1.216  1.00  0.00     0.044 C 
HETATM   28  C14 UNL     1      -4.892  -0.790  -0.638  1.00  0.00     0.053 C 
BRANCH  26  29
HETATM   29  N7  UNL     1      -5.152   2.378  -2.481  1.00  0.00    -0.075 N 
ATOM     30  H73 UNL     1      -5.393   2.959  -1.678  1.00  0.00     0.274 HD
ATOM     31  H72 UNL     1      -4.383   2.934  -2.855  1.00  0.00     0.274 HD
ATOM     32  H71 UNL     1      -5.925   2.321  -3.144  1.00  0.00     0.274 HD
ENDBRANCH  26  29
BRANCH  28  33
HETATM   33  C15 UNL     1      -5.531  -1.339   0.621  1.00  0.00     0.164 C 
BRANCH  33  34
HETATM   34  N8  UNL     1      -6.798  -1.756   0.357  1.00  0.00    -0.393 NA
HETATM   35  C16 UNL     1      -7.914  -2.048   0.146  1.00  0.00     0.274 C 
HETATM   36  N9  UNL     1      -8.304  -3.378  -0.265  1.00  0.00    -0.052 NA
HETATM   37  N10 UNL     1      -9.018  -1.127   0.267  1.00  0.00    -0.052 NA
ENDBRANCH  33  34
ENDBRANCH  28  33
ENDBRANCH  21  24
ENDBRANCH   1  20
TORSDOF 14
