REMARK  5 active torsions:
REMARK  status: ('A' for Active; 'I' for Inactive)
REMARK    1  A    between atoms: C2_2  and  C5_5 
REMARK    2  A    between atoms: N1_10  and  N2_12 
REMARK    3  A    between atoms: N2_12  and  N3_14 
REMARK    4  A    between atoms: C10_15  and  C11_16 
REMARK    5  A    between atoms: C11_16  and  O1_17 
ROOT
HETATM    1  C5  UNL     1      -1.412   0.497  -0.377  1.00  0.00     0.072 C 
HETATM    2  C6  UNL     1      -1.565   1.699   0.532  1.00  0.00     0.012 C 
HETATM    3  C7  UNL     1      -1.619   1.361   1.990  1.00  0.00     0.006 C 
HETATM    4  C8  UNL     1      -0.409   0.601   2.485  1.00  0.00     0.060 C 
HETATM    5  C9  UNL     1       0.355   0.258   1.259  1.00  0.00     0.076 C 
HETATM    6  N1  UNL     1       1.574   0.578   1.194  1.00  0.00    -0.288 N 
ATOM      7  H1  UNL     1       1.959   1.061   2.006  1.00  0.00     0.188 HD
HETATM    8  C13 UNL     1      -0.437  -0.450   0.213  1.00  0.00     0.287 C 
HETATM    9  F1  UNL     1       0.483  -0.939  -0.700  1.00  0.00    -0.199 F 
HETATM   10  F2  UNL     1      -0.957  -1.542   0.848  1.00  0.00    -0.199 F 
ENDROOT
BRANCH   6  11
HETATM   11  N2  UNL     1       2.447   0.347   0.144  1.00  0.00    -0.232 N 
ATOM     12  H2  UNL     1       2.274   0.797  -0.755  1.00  0.00     0.209 HD
BRANCH  11  13
HETATM   13  N3  UNL     1       3.555  -0.484   0.286  1.00  0.00    -0.198 N 
HETATM   14  C10 UNL     1       4.443  -0.748  -0.707  1.00  0.00     0.146 A 
HETATM   15  N4  UNL     1       5.348  -1.581  -0.166  1.00  0.00    -0.283 N 
HETATM   16  N5  UNL     1       5.035  -1.818   1.092  1.00  0.00    -0.273 N 
ATOM     17  H4  UNL     1       6.154  -1.970  -0.655  1.00  0.00     0.188 HD
HETATM   18  C12 UNL     1       3.911  -1.142   1.405  1.00  0.00     0.215 A 
ATOM     19  H5  UNL     1       5.560  -2.418   1.728  1.00  0.00     0.189 HD
HETATM   20  S1  UNL     1       3.130  -1.113   2.839  1.00  0.00    -0.037 SA
BRANCH  14  21
HETATM   21  C11 UNL     1       4.404  -0.212  -2.106  1.00  0.00     0.244 C 
BRANCH  21  22
HETATM   22  O1  UNL     1       3.677  -1.050  -2.943  1.00  0.00    -0.393 OA
ATOM     23  H1  UNL     1       3.652  -0.710  -3.830  1.00  0.00     0.209 HD
ENDBRANCH  21  22
ENDBRANCH  14  21
ENDBRANCH  11  13
ENDBRANCH   6  11
BRANCH   1  24
HETATM   24  C2  UNL     1      -2.707  -0.033  -0.866  1.00  0.00    -0.042 C 
HETATM   25  C1  UNL     1      -2.673  -1.210  -1.760  1.00  0.00     0.015 C 
HETATM   26  C3  UNL     1      -3.403   1.072  -1.695  1.00  0.00     0.015 C 
HETATM   27  C4  UNL     1      -3.728  -0.328   0.213  1.00  0.00     0.015 C 
ENDBRANCH   1  24
TORSDOF 5
