REMARK  6 active torsions:
REMARK  status: ('A' for Active; 'I' for Inactive)
REMARK    1  A    between atoms: C2_2  and  O1_3 
REMARK    2  A    between atoms: O1_3  and  C3_4 
REMARK    3  A    between atoms: C3_4  and  C4_6 
REMARK    4  A    between atoms: N1_8  and  N2_9 
REMARK    5  A    between atoms: C10_15  and  C11_16 
REMARK    6  A    between atoms: C12_21  and  N4_22 
ROOT
HETATM    1  C4  UNL     1      -1.906  -1.087  -0.489  1.00  0.00     0.142 A 
HETATM    2  C5  UNL     1      -0.916  -0.706   0.406  1.00  0.00     0.171 A 
HETATM    3  N1  UNL     1       0.267  -1.089  -0.102  1.00  0.00    -0.096 N 
HETATM    4  C12 UNL     1       0.068  -1.698  -1.282  1.00  0.00     0.697 A 
HETATM    5  N5  UNL     1      -1.253  -1.685  -1.496  1.00  0.00    -0.183 N 
ATOM      6  H5  UNL     1      -1.706  -2.080  -2.320  1.00  0.00     0.184 HD
ENDROOT
BRANCH   3   7
HETATM    7  N2  UNL     1       1.516  -0.896   0.487  1.00  0.00    -0.287 N 
HETATM    8  C6  UNL     1       2.355  -0.006   0.105  1.00  0.00     0.015 C 
HETATM    9  C7  UNL     1       2.280   1.007  -0.981  1.00  0.00     0.055 C 
HETATM   10  C10 UNL     1       3.692   0.222   0.715  1.00  0.00     0.096 C 
HETATM   11  C8  UNL     1       2.783   2.246  -0.266  1.00  0.00     0.007 C 
HETATM   12  C9  UNL     1       3.680   1.750   0.850  1.00  0.00     0.018 C 
ATOM     13  H2  UNL     1       1.777  -1.498   1.268  1.00  0.00     0.187 HD
BRANCH  10  14
HETATM   14  C11 UNL     1       3.875  -0.447   1.993  1.00  0.00     0.100 C 
HETATM   15 CL1  UNL     1       2.833  -0.082   3.345  1.00  0.00    -0.068 Cl
HETATM   16  N3  UNL     1       4.796  -1.310   2.157  1.00  0.00    -0.291 N 
HETATM   17 CL2  UNL     1       5.887  -1.751   0.890  1.00  0.00     0.011 Cl
ATOM     18  H3  UNL     1       4.894  -1.757   3.068  1.00  0.00     0.181 HD
ENDBRANCH  10  14
ENDBRANCH   3   7
BRANCH   4  19
HETATM   19  N4  UNL     1       0.988  -2.206  -2.071  1.00  0.00    -0.233 N 
ATOM     20  H42 UNL     1       1.995  -2.216  -1.908  1.00  0.00     0.174 HD
ATOM     21  H41 UNL     1       0.837  -2.669  -2.967  1.00  0.00     0.174 HD
ENDBRANCH   4  19
BRANCH   1  22
HETATM   22  C3  UNL     1      -3.355  -0.876  -0.354  1.00  0.00     0.312 C 
HETATM   23  O2  UNL     1      -4.096  -1.293  -1.272  1.00  0.00    -0.258 OA
BRANCH  22  24
HETATM   24  O1  UNL     1      -3.934  -0.245   0.727  1.00  0.00    -0.317 OA
BRANCH  24  25
HETATM   25  C2  UNL     1      -5.342  -0.077   0.789  1.00  0.00     0.175 C 
HETATM   26  C1  UNL     1      -5.847   0.741  -0.388  1.00  0.00     0.034 C 
ENDBRANCH  24  25
ENDBRANCH  22  24
ENDBRANCH   1  22
TORSDOF 6
