REMARK  7 active torsions:
REMARK  status: ('A' for Active; 'I' for Inactive)
REMARK    1  A    between atoms: C3_3  and  C4_4 
REMARK    2  A    between atoms: C5_5  and  C6_6 
REMARK    3  A    between atoms: C6_6  and  O2_8 
REMARK    4  A    between atoms: O2_8  and  C7_9 
REMARK    5  A    between atoms: C10_12  and  O3_13 
REMARK    6  A    between atoms: C11_16  and  O5_17 
REMARK    7  A    between atoms: C14_21  and  S1_23 
ROOT
HETATM    1  C7  UNL     1      -0.656  -0.052   0.192  1.00  0.00     0.158 C 
HETATM    2  C8  UNL     1      -1.945  -0.101  -0.102  1.00  0.00     0.031 C 
HETATM    3  C9  UNL     1      -3.035  -0.107   0.863  1.00  0.00     0.046 A 
HETATM    4  C10 UNL     1      -3.377   0.201   2.176  1.00  0.00     0.197 A 
HETATM    5  O4  UNL     1      -4.658  -0.102   2.345  1.00  0.00    -0.264 OA
HETATM    6  C11 UNL     1      -5.148  -0.585   1.213  1.00  0.00     0.193 A 
HETATM    7  C12 UNL     1      -4.162  -0.609   0.243  1.00  0.00     0.020 A 
HETATM    8  C13 UNL     1      -3.837  -0.952  -1.166  1.00  0.00     0.106 C 
HETATM    9  C14 UNL     1      -2.598  -0.161  -1.435  1.00  0.00     0.199 C 
HETATM   10  F1  UNL     1      -1.775  -0.741  -2.377  1.00  0.00    -0.224 F 
ENDROOT
BRANCH   1  11
HETATM   11  O2  UNL     1       0.225  -0.055  -0.868  1.00  0.00    -0.287 OA
BRANCH  11  12
HETATM   12  C6  UNL     1       1.616  -0.005  -0.582  1.00  0.00     0.287 C 
HETATM   13  O1  UNL     1       1.881   0.038   0.628  1.00  0.00    -0.260 OA
BRANCH  12  14
HETATM   14  C5  UNL     1       2.562  -0.007  -1.679  1.00  0.00     0.082 C 
HETATM   15  C4  UNL     1       3.832   0.036  -1.550  1.00  0.00     0.006 C 
BRANCH  15  16
HETATM   16  C3  UNL     1       4.593   0.094  -0.340  1.00  0.00    -0.004 C 
HETATM   17  C2  UNL     1       5.947   0.133  -0.406  1.00  0.00    -0.031 C 
HETATM   18  C1  UNL     1       6.720   0.193   0.853  1.00  0.00     0.036 C 
ENDBRANCH  15  16
ENDBRANCH  12  14
ENDBRANCH  11  12
ENDBRANCH   1  11
BRANCH   9  19
HETATM   19  S1  UNL     1      -2.970   1.564  -1.910  1.00  0.00    -0.010 SA
HETATM   20 CL1  UNL     1      -4.420   2.333  -0.588  1.00  0.00    -0.040 Cl
ENDBRANCH   9  19
BRANCH   4  21
HETATM   21  O3  UNL     1      -2.502   0.733   3.118  1.00  0.00    -0.340 OA
ATOM     22  H3  UNL     1      -2.736   0.943   4.015  1.00  0.00     0.220 HD
ENDBRANCH   4  21
BRANCH   6  23
HETATM   23  O5  UNL     1      -6.456  -0.992   1.068  1.00  0.00    -0.340 OA
ATOM     24  H5  UNL     1      -6.807  -1.338   0.256  1.00  0.00     0.220 HD
ENDBRANCH   6  23
TORSDOF 7
