REMARK  6 active torsions:
REMARK  status: ('A' for Active; 'I' for Inactive)
REMARK    1  A    between atoms: C2_3  and  O1_4 
REMARK    2  A    between atoms: C3_6  and  C4_7 
REMARK    3  A    between atoms: C4_7  and  C5_8 
REMARK    4  A    between atoms: C5_8  and  N2_9 
REMARK    5  A    between atoms: C6_12  and  C7_13 
REMARK    6  A    between atoms: C9_17  and  O2_18 
ROOT
HETATM    1  N2  UNL     1       1.108  -1.187  -0.775  1.00  0.00    -0.269 N 
HETATM    2  N3  UNL     1       2.087  -0.992   0.087  1.00  0.00    -0.293 N 
ATOM      3  H3  UNL     1       2.558  -1.600   0.757  1.00  0.00     0.187 HD
HETATM    4  C6  UNL     1       2.234   0.288  -0.238  1.00  0.00     0.116 A 
HETATM    5  C9  UNL     1       1.218   0.117  -1.143  1.00  0.00     0.185 A 
ENDROOT
BRANCH   1   6
HETATM    6  C5  UNL     1       0.267  -2.265  -1.184  1.00  0.00     0.156 C 
BRANCH   6   7
HETATM    7  C4  UNL     1      -0.978  -2.509  -0.439  1.00  0.00     0.072 C 
BRANCH   7   8
HETATM    8  C3  UNL     1      -1.940  -1.376  -0.393  1.00  0.00     0.038 A 
HETATM    9  C2  UNL     1      -2.012  -0.296   0.454  1.00  0.00     0.157 A 
HETATM   10  N1  UNL     1      -2.948   0.585   0.248  1.00  0.00    -0.317 N 
HETATM   11  C1  UNL     1      -3.101   1.789   1.110  1.00  0.00     0.160 C 
HETATM   12  C10 UNL     1      -3.792   0.404  -0.765  1.00  0.00     0.147 A 
HETATM   13  S1  UNL     1      -3.265  -1.050  -1.464  1.00  0.00    -0.060 SA
HETATM   14  S2  UNL     1      -5.058   1.362  -1.237  1.00  0.00    -0.052 SA
BRANCH   9  15
HETATM   15  O1  UNL     1      -1.054  -0.206   1.517  1.00  0.00    -0.345 OA
ATOM     16  H1  UNL     1      -0.371  -0.849   1.667  1.00  0.00     0.219 HD
ENDBRANCH   9  15
ENDBRANCH   7   8
ENDBRANCH   6   7
ENDBRANCH   1   6
BRANCH   5  17
HETATM   17  O2  UNL     1       0.568   0.942  -2.061  1.00  0.00    -0.344 OA
ATOM     18  H2  UNL     1       0.645   1.853  -2.318  1.00  0.00     0.219 HD
ENDBRANCH   5  17
BRANCH   4  19
HETATM   19  C7  UNL     1       3.109   1.439   0.178  1.00  0.00     0.157 C 
HETATM   20  C8  UNL     1       4.046   0.953   1.249  1.00  0.00     0.057 C 
HETATM   21 CL1  UNL     1       3.964   1.987  -1.275  1.00  0.00    -0.095 Cl
HETATM   22 CL2  UNL     1       2.043   2.707   0.805  1.00  0.00    -0.095 Cl
ENDBRANCH   4  19
TORSDOF 6
