REMARK  5 active torsions:
REMARK  status: ('A' for Active; 'I' for Inactive)
REMARK    1  A    between atoms: C2_2  and  O1_4 
REMARK    2  A    between atoms: O1_4  and  C4_5 
REMARK    3  A    between atoms: C4_5  and  N2_9 
REMARK    4  A    between atoms: C5_12  and  C6_13 
REMARK    5  A    between atoms: C8_17  and  C9_18 
ROOT
HETATM    1  N2  UNL     1       0.386   1.241   0.041  1.00  0.00    -0.221 N 
HETATM    2  N3  UNL     1       0.617   2.566  -0.118  1.00  0.00    -0.289 N 
ATOM      3  H3  UNL     1       1.519   3.028  -0.002  1.00  0.00     0.187 HD
HETATM    4  C5  UNL     1      -0.523   3.167  -0.450  1.00  0.00     0.092 A 
HETATM    5  C7  UNL     1      -1.495   2.202  -0.502  1.00  0.00     0.062 A 
HETATM    6  C8  UNL     1      -0.908   0.981  -0.190  1.00  0.00     0.068 A 
ENDROOT
BRANCH   6   7
HETATM    7  C9  UNL     1      -1.617  -0.288  -0.141  1.00  0.00     0.074 C 
HETATM    8  C10 UNL     1      -1.947  -0.556   1.314  1.00  0.00     0.045 C 
HETATM    9  C11 UNL     1      -0.984  -1.455  -0.824  1.00  0.00     0.048 C 
HETATM   10  C12 UNL     1      -1.552  -2.771  -0.276  1.00  0.00     0.085 C 
HETATM   11  S1  UNL     1      -3.349  -2.818  -0.381  1.00  0.00    -0.095 SA
HETATM   12  C13 UNL     1      -3.927  -1.128  -0.620  1.00  0.00     0.134 C 
HETATM   13  N4  UNL     1      -5.180  -0.849  -0.597  1.00  0.00    -0.380 N 
HETATM   14  N5  UNL     1      -2.919  -0.125  -0.828  1.00  0.00    -0.356 N 
ATOM     15  H42 UNL     1      -5.895  -1.561  -0.449  1.00  0.00     0.158 HD
ATOM     16  H41 UNL     1      -5.507   0.108  -0.732  1.00  0.00     0.158 HD
ATOM     17  H5  UNL     1      -3.095   0.677  -1.432  1.00  0.00     0.162 HD
ENDBRANCH   6   7
BRANCH   1  18
HETATM   18  C4  UNL     1       1.452   0.392   0.429  1.00  0.00     0.239 C 
HETATM   19  N1  UNL     1       1.519  -0.055   1.644  1.00  0.00    -0.364 N 
ATOM     20  H12 UNL     1       2.286  -0.666   1.923  1.00  0.00     0.159 HD
ATOM     21  H11 UNL     1       0.769   0.238   2.270  1.00  0.00     0.159 HD
BRANCH  18  22
HETATM   22  O1  UNL     1       2.464  -0.003  -0.415  1.00  0.00    -0.316 OA
BRANCH  22  23
HETATM   23  C2  UNL     1       3.655  -0.624   0.004  1.00  0.00     0.123 C 
HETATM   24  C1  UNL     1       3.409  -1.942   0.657  1.00  0.00     0.040 C 
HETATM   25  C3  UNL     1       4.698  -0.680  -1.096  1.00  0.00     0.040 C 
ENDBRANCH  22  23
ENDBRANCH  18  22
ENDBRANCH   1  18
BRANCH   4  26
HETATM   26  C6  UNL     1      -0.706   4.640  -0.720  1.00  0.00     0.404 C 
HETATM   27  F1  UNL     1       0.414   5.328  -0.401  1.00  0.00    -0.207 F 
HETATM   28  F2  UNL     1      -1.131   4.847  -2.022  1.00  0.00    -0.207 F 
ENDBRANCH   4  26
TORSDOF 5
