REMARK  4 active torsions:
REMARK  status: ('A' for Active; 'I' for Inactive)
REMARK    1  A    between atoms: C7_7  and  N1_8 
REMARK    2  A    between atoms: N1_8  and  N2_10 
REMARK    3  A    between atoms: C8_12  and  C10_15 
REMARK    4  A    between atoms: C12_22  and  C13_23 
ROOT
HETATM    1  N2  UNL     1       3.487   0.806   1.113  1.00  0.00    -0.287 N 
ATOM      2  H2  UNL     1       3.592   0.596   2.106  1.00  0.00     0.188 HD
HETATM    3  C8  UNL     1       4.201   0.142   0.237  1.00  0.00     0.169 C 
HETATM    4  C9  UNL     1       4.079   0.411  -1.164  1.00  0.00     0.122 C 
HETATM    5  N3  UNL     1       3.965   0.638  -2.284  1.00  0.00    -0.190 NA
ENDROOT
BRANCH   3   6
HETATM    6  C10 UNL     1       5.136  -0.884   0.664  1.00  0.00     0.149 C 
HETATM    7  N4  UNL     1       5.279  -1.160   1.910  1.00  0.00    -0.385 N 
ATOM      8  H42 UNL     1       4.725  -0.645   2.594  1.00  0.00     0.157 HD
ATOM      9  H41 UNL     1       5.936  -1.881   2.210  1.00  0.00     0.157 HD
HETATM   10  N5  UNL     1       5.905  -1.598  -0.285  1.00  0.00    -0.080 NA
ENDBRANCH   3   6
BRANCH   1  11
HETATM   11  N1  UNL     1       2.598   1.781   0.720  1.00  0.00    -0.293 N 
ATOM     12  H1  UNL     1       2.890   2.758   0.719  1.00  0.00     0.187 HD
BRANCH  11  13
HETATM   13  C7  UNL     1       1.255   1.437   0.309  1.00  0.00     0.089 A 
HETATM   14  C6  UNL     1       0.687   0.196   0.245  1.00  0.00     0.047 A 
HETATM   15  C5  UNL     1      -0.586   0.122  -0.170  1.00  0.00    -0.036 A 
HETATM   16  C4  UNL     1      -1.456  -1.115  -0.335  1.00  0.00     0.077 C 
HETATM   17  C11 UNL     1      -1.203   1.307  -0.493  1.00  0.00     0.029 A 
HETATM   18  C2  UNL     1      -2.833  -0.812   0.118  1.00  0.00     0.059 C 
HETATM   19  C1  UNL     1      -2.905  -1.150   1.616  1.00  0.00     0.046 C 
HETATM   20  C3  UNL     1      -3.812  -1.787  -0.550  1.00  0.00     0.046 C 
HETATM   21  O1  UNL     1      -3.280   0.463  -0.026  1.00  0.00    -0.361 OA
HETATM   22  C12 UNL     1      -2.632   1.240  -0.960  1.00  0.00     0.270 C 
HETATM   23  S1  UNL     1       0.004   2.469  -0.210  1.00  0.00    -0.072 SA
BRANCH  22  24
HETATM   24  C13 UNL     1      -3.173   2.667  -0.805  1.00  0.00     0.418 C 
HETATM   25  F1  UNL     1      -3.042   2.954   0.559  1.00  0.00    -0.168 F 
HETATM   26  F2  UNL     1      -4.510   2.732  -1.090  1.00  0.00    -0.168 F 
HETATM   27  F3  UNL     1      -2.413   3.576  -1.492  1.00  0.00    -0.168 F 
ENDBRANCH  22  24
ENDBRANCH  11  13
ENDBRANCH   1  11
TORSDOF 4
