REMARK  8 active torsions:
REMARK  status: ('A' for Active; 'I' for Inactive)
REMARK    1  A    between atoms: C2_2  and  N1_5 
REMARK    2  A    between atoms: N1_5  and  C4_7 
REMARK    3  A    between atoms: C8_12  and  O1_13 
REMARK    4  A    between atoms: N2_15  and  C9_16 
REMARK    5  A    between atoms: C9_16  and  C10_17 
REMARK    6  A    between atoms: C10_17  and  C11_18 
REMARK    7  A    between atoms: C11_18  and  O2_19 
REMARK    8  A    between atoms: C12_21  and  O3_22 
ROOT
HETATM    1  C4  UNL     1      -1.908   0.372   0.126  1.00  0.00     0.082 C 
HETATM    2  S1  UNL     1      -2.463   2.043   0.542  1.00  0.00    -0.107 SA
HETATM    3  C5  UNL     1      -0.853   2.581   1.219  1.00  0.00     0.125 C 
HETATM    4  C6  UNL     1       0.067   1.582   0.652  1.00  0.00     0.020 A 
HETATM    5  C7  UNL     1      -0.465   0.486   0.110  1.00  0.00     0.059 A 
HETATM    6  C8  UNL     1       0.594  -0.309  -0.358  1.00  0.00     0.158 A 
HETATM    7  N2  UNL     1       1.762   0.306  -0.099  1.00  0.00    -0.307 N 
HETATM    8  C12 UNL     1       1.460   1.462   0.518  1.00  0.00     0.152 A 
ENDROOT
BRANCH   1   9
HETATM    9  N1  UNL     1      -2.695  -0.593  -0.081  1.00  0.00    -0.362 N 
ATOM     10  H1  UNL     1      -2.263  -1.489  -0.308  1.00  0.00     0.162 HD
BRANCH   9  11
HETATM   11  C2  UNL     1      -4.110  -0.571  -0.033  1.00  0.00     0.101 C 
HETATM   12  C1  UNL     1      -4.710  -1.794  -0.731  1.00  0.00     0.056 C 
HETATM   13  C3  UNL     1      -4.770   0.650  -0.567  1.00  0.00     0.056 C 
HETATM   14 CL1  UNL     1      -4.593  -0.724   1.692  1.00  0.00    -0.096 Cl
ENDBRANCH   9  11
ENDBRANCH   1   9
BRANCH   6  15
HETATM   15  O1  UNL     1       0.535  -1.539  -0.995  1.00  0.00    -0.345 OA
ATOM     16  H1  UNL     1       1.251  -2.077  -1.312  1.00  0.00     0.219 HD
ENDBRANCH   6  15
BRANCH   8  17
HETATM   17  O3  UNL     1       2.391   2.386   0.950  1.00  0.00    -0.345 OA
ATOM     18  H3  UNL     1       3.333   2.305   0.859  1.00  0.00     0.219 HD
ENDBRANCH   8  17
BRANCH   7  19
HETATM   19  C9  UNL     1       3.097  -0.167  -0.414  1.00  0.00     0.135 C 
BRANCH  19  20
HETATM   20  C10 UNL     1       3.681  -0.997   0.704  1.00  0.00     0.046 C 
BRANCH  20  21
HETATM   21  C11 UNL     1       5.065  -1.432   0.263  1.00  0.00     0.165 C 
BRANCH  21  22
HETATM   22  O2  UNL     1       5.892  -0.345   0.012  1.00  0.00    -0.401 OA
ATOM     23  H2  UNL     1       6.759  -0.618  -0.264  1.00  0.00     0.209 HD
ENDBRANCH  21  22
ENDBRANCH  20  21
ENDBRANCH  19  20
ENDBRANCH   7  19
TORSDOF 8
