REMARK  7 active torsions:
REMARK  status: ('A' for Active; 'I' for Inactive)
REMARK    1  A    between atoms: C3_3  and  O1_4 
REMARK    2  A    between atoms: C4_6  and  N1_7 
REMARK    3  A    between atoms: N2_9  and  C5_11 
REMARK    4  A    between atoms: C5_11  and  O2_12 
REMARK    5  A    between atoms: N3_14  and  N4_16 
REMARK    6  A    between atoms: N4_16  and  C6_18 
REMARK    7  A    between atoms: C10_33  and  O5_34 
ROOT
HETATM    1  C5  UNL     1       1.192   1.362   0.638  1.00  0.00     0.251 C 
HETATM    2  N3  UNL     1       1.813   0.280   0.904  1.00  0.00    -0.250 N 
ATOM      3  H3  UNL     1       1.263  -0.551   1.120  1.00  0.00     0.191 HD
ENDROOT
BRANCH   1   4
HETATM    4  N2  UNL     1      -0.224   1.357   0.657  1.00  0.00    -0.262 N 
HETATM    5  N1  UNL     1      -0.814   0.769  -0.306  1.00  0.00    -0.280 N 
ATOM      6  H1  UNL     1      -0.291   0.321  -1.058  1.00  0.00     0.188 HD
ATOM      7  H2  UNL     1      -0.748   1.805   1.409  1.00  0.00     0.190 HD
BRANCH   5   8
HETATM    8  C4  UNL     1      -2.234   0.766  -0.285  1.00  0.00     0.157 A 
HETATM    9  C3  UNL     1      -2.925  -0.424  -0.095  1.00  0.00     0.120 A 
HETATM   10  C2  UNL     1      -4.293  -0.456  -0.070  1.00  0.00     0.014 A 
HETATM   11  C1  UNL     1      -5.018  -1.729   0.133  1.00  0.00     0.054 C 
HETATM   12  C10 UNL     1      -4.995   0.720  -0.237  1.00  0.00     0.143 A 
HETATM   13  C9  UNL     1      -4.295   1.892  -0.425  1.00  0.00     0.281 A 
HETATM   14  N9  UNL     1      -2.956   1.888  -0.444  1.00  0.00    -0.304 N 
HETATM   15  O4  UNL     1      -4.914   2.990  -0.581  1.00  0.00    -0.265 OA
ATOM     16  H9  UNL     1      -2.465   2.771  -0.585  1.00  0.00     0.171 HD
BRANCH   9  17
HETATM   17  O1  UNL     1      -2.209  -1.582   0.069  1.00  0.00    -0.356 OA
ATOM     18  H1  UNL     1      -1.259  -1.560   0.052  1.00  0.00     0.218 HD
ENDBRANCH   9  17
BRANCH  12  19
HETATM   19  O5  UNL     1      -6.367   0.673  -0.210  1.00  0.00    -0.355 OA
ATOM     20  H5  UNL     1      -6.850   1.483  -0.325  1.00  0.00     0.218 HD
ENDBRANCH  12  19
ENDBRANCH   5   8
ENDBRANCH   1   4
BRANCH   1  21
HETATM   21  O2  UNL     1       1.860   2.539   0.332  1.00  0.00    -0.330 OA
ATOM     22  H2  UNL     1       2.810   2.542   0.319  1.00  0.00     0.221 HD
ENDBRANCH   1  21
BRANCH   2  23
HETATM   23  N4  UNL     1       3.189   0.173   0.915  1.00  0.00    -0.127 N 
ATOM     24  H4  UNL     1       3.696   0.577   1.703  1.00  0.00     0.205 HD
BRANCH  23  25
HETATM   25  C6  UNL     1       3.872  -0.409  -0.015  1.00  0.00     0.718 A 
HETATM   26  N5  UNL     1       3.316  -0.969  -1.084  1.00  0.00    -0.116 N 
HETATM   27  N6  UNL     1       4.077  -1.542  -1.986  1.00  0.00    -0.224 N 
ATOM     28  H5  UNL     1       2.303  -0.953  -1.203  1.00  0.00     0.207 HD
HETATM   29  N7  UNL     1       5.399  -1.590  -1.879  1.00  0.00    -0.236 N 
ATOM     30  H6  UNL     1       3.635  -1.967  -2.801  1.00  0.00     0.209 HD
HETATM   31  C7  UNL     1       5.998  -1.036  -0.815  1.00  0.00     0.356 A 
ATOM     32  H7  UNL     1       5.956  -2.046  -2.602  1.00  0.00     0.193 HD
HETATM   33  O3  UNL     1       7.248  -1.052  -0.665  1.00  0.00    -0.244 OA
HETATM   34  N8  UNL     1       5.215  -0.446   0.114  1.00  0.00    -0.133 N 
HETATM   35  C8  UNL     1       5.822   0.167   1.282  1.00  0.00     0.180 C 
ENDBRANCH  23  25
ENDBRANCH   2  23
TORSDOF 7
