REMARK  3 active torsions:
REMARK  status: ('A' for Active; 'I' for Inactive)
REMARK       I    between atoms: C2_2  and  N1_4 
REMARK    1  A    between atoms: C3_7  and  N3_8 
REMARK    2  A    between atoms: N4_10  and  C4_12 
REMARK    3  A    between atoms: C6_20  and  N8_21 
ROOT
HETATM    1  C4  UNL     1      -1.282   0.706   1.008  1.00  0.00     0.171 A 
HETATM    2  N5  UNL     1      -1.979   0.560   2.142  1.00  0.00    -0.271 N 
ATOM      3  H5  UNL     1      -1.717   0.618   3.126  1.00  0.00     0.189 HD
HETATM    4  N6  UNL     1      -3.126   0.315   1.535  1.00  0.00    -0.194 N 
HETATM    5  C5  UNL     1      -4.429   0.038   1.740  1.00  0.00     0.360 C 
HETATM    6  O2  UNL     1      -4.859   0.307   2.891  1.00  0.00    -0.244 OA
HETATM    7  N7  UNL     1      -5.323  -0.481   0.891  1.00  0.00    -0.140 N 
ATOM      8  H7  UNL     1      -6.223  -0.736   1.297  1.00  0.00     0.189 HD
HETATM    9  C6  UNL     1      -5.192  -0.710  -0.425  1.00  0.00     0.682 C 
HETATM   10  N9  UNL     1      -4.250  -0.190  -1.241  1.00  0.00    -0.154 N 
ATOM     11  H9  UNL     1      -4.473  -0.184  -2.236  1.00  0.00     0.187 HD
HETATM   12  C7  UNL     1      -3.038   0.328  -0.895  1.00  0.00     0.292 C 
HETATM   13  O3  UNL     1      -2.322   0.757  -1.823  1.00  0.00    -0.265 OA
HETATM   14  C8  UNL     1      -2.473   0.451   0.353  1.00  0.00     0.176 A 
ENDROOT
BRANCH   1  15
HETATM   15  N4  UNL     1       0.068   0.992   0.606  1.00  0.00    -0.268 N 
HETATM   16  N3  UNL     1       0.755   0.030   0.205  1.00  0.00    -0.129 N 
ATOM     17  H3  UNL     1       0.310  -0.888   0.190  1.00  0.00     0.205 HD
ATOM     18  H4  UNL     1       0.447   1.938   0.647  1.00  0.00     0.189 HD
BRANCH  16  19
HETATM   19  C3  UNL     1       2.096   0.106  -0.230  1.00  0.00     0.718 A 
HETATM   20  N2  UNL     1       3.134  -0.383   0.465  1.00  0.00    -0.117 N 
HETATM   21  N1  UNL     1       4.288  -0.171  -0.186  1.00  0.00    -0.157 N 
ATOM     22  H2  UNL     1       3.056  -0.853   1.367  1.00  0.00     0.206 HD
HETATM   23  C2  UNL     1       5.588  -0.547   0.240  1.00  0.00     0.243 C 
HETATM   24  C10 UNL     1       3.929   0.471  -1.317  1.00  0.00     0.365 A 
HETATM   25  C1  UNL     1       5.747  -1.248   1.525  1.00  0.00     0.119 C 
HETATM   26  O1  UNL     1       6.581  -0.290  -0.461  1.00  0.00    -0.272 OA
HETATM   27  N10 UNL     1       2.601   0.643  -1.352  1.00  0.00    -0.133 N 
HETATM   28  O4  UNL     1       4.739   0.850  -2.208  1.00  0.00    -0.244 OA
HETATM   29  C9  UNL     1       1.824   1.293  -2.407  1.00  0.00     0.180 C 
ENDBRANCH  16  19
ENDBRANCH   1  15
BRANCH   9  30
HETATM   30  N8  UNL     1      -6.035  -1.497  -0.984  1.00  0.00    -0.234 N 
ATOM     31  H82 UNL     1      -6.747  -1.890  -0.368  1.00  0.00     0.174 HD
ATOM     32  H81 UNL     1      -5.935  -1.671  -1.984  1.00  0.00     0.174 HD
ENDBRANCH   9  30
TORSDOF 3
