REMARK  4 active torsions:
REMARK  status: ('A' for Active; 'I' for Inactive)
REMARK    1  A    between atoms: O1_2  and  C2_3 
REMARK       I    between atoms: C2_3  and  N1_5 
REMARK    2  A    between atoms: C6_13  and  N4_14 
REMARK    3  A    between atoms: C7_21  and  N8_22 
REMARK    4  A    between atoms: C8_25  and  O4_26 
ROOT
HETATM    1  C2  UNL     1       3.164   0.173   0.881  1.00  0.00     0.375 C 
HETATM    2  O2  UNL     1       3.185   0.484   2.066  1.00  0.00    -0.237 OA
HETATM    3  N1  UNL     1       2.036  -0.053   0.071  1.00  0.00    -0.201 N 
HETATM    4  C3  UNL     1       2.063  -0.401  -1.256  1.00  0.00     0.339 A 
HETATM    5  O3  UNL     1       3.111  -0.564  -1.925  1.00  0.00    -0.246 OA
HETATM    6  N2  UNL     1       0.838  -0.544  -1.744  1.00  0.00    -0.287 N 
HETATM    7  C4  UNL     1       0.462  -0.911  -3.125  1.00  0.00     0.163 C 
HETATM    8  C5  UNL     1      -0.025  -0.290  -0.735  1.00  0.00     0.145 A 
HETATM    9  N3  UNL     1      -1.353  -0.301  -0.718  1.00  0.00    -0.322 N 
ATOM     10  H3  UNL     1      -1.862  -0.530  -1.572  1.00  0.00     0.169 HD
HETATM   11  C6  UNL     1      -2.036  -0.017   0.397  1.00  0.00     0.186 A 
HETATM   12  C8  UNL     1      -1.357   0.294   1.549  1.00  0.00     0.166 A 
HETATM   13  C9  UNL     1       0.035   0.305   1.529  1.00  0.00     0.239 A 
HETATM   14  O5  UNL     1       0.644   0.590   2.587  1.00  0.00    -0.283 OA
HETATM   15  C10 UNL     1       0.733   0.009   0.368  1.00  0.00     0.146 A 
ENDROOT
BRANCH  11  16
HETATM   16  N4  UNL     1      -3.471  -0.028   0.416  1.00  0.00    -0.050 N 
HETATM   17  N5  UNL     1      -4.285  -0.905   0.955  1.00  0.00    -0.205 N 
HETATM   18  N6  UNL     1      -5.545  -0.514   0.729  1.00  0.00    -0.213 N 
ATOM     19  H5  UNL     1      -4.004  -1.745   1.462  1.00  0.00     0.211 HD
HETATM   20  N7  UNL     1      -5.546   0.611   0.047  1.00  0.00    -0.115 N 
ATOM     21  H6  UNL     1      -6.379  -1.013   1.039  1.00  0.00     0.210 HD
HETATM   22  C7  UNL     1      -4.230   0.912  -0.147  1.00  0.00     0.716 A 
ATOM     23  H7  UNL     1      -6.357   1.144  -0.269  1.00  0.00     0.207 HD
BRANCH  22  24
HETATM   24  N8  UNL     1      -3.838   1.971  -0.793  1.00  0.00    -0.231 N 
ATOM     25  H82 UNL     1      -2.854   2.196  -0.938  1.00  0.00     0.174 HD
ATOM     26  H81 UNL     1      -4.419   2.690  -1.224  1.00  0.00     0.174 HD
ENDBRANCH  22  24
ENDBRANCH  11  16
BRANCH  12  27
HETATM   27  O4  UNL     1      -2.021   0.594   2.723  1.00  0.00    -0.354 OA
ATOM     28  H4  UNL     1      -1.551   0.809   3.520  1.00  0.00     0.218 HD
ENDBRANCH  12  27
BRANCH   1  29
HETATM   29  O1  UNL     1       4.447   0.034   0.296  1.00  0.00    -0.308 OA
HETATM   30  C1  UNL     1       5.631   0.245   1.044  1.00  0.00     0.215 C 
ENDBRANCH   1  29
TORSDOF 4
