REMARK  3 active torsions:
REMARK  status: ('A' for Active; 'I' for Inactive)
REMARK    1  A    between atoms: C5_6  and  N2_7 
REMARK    2  A    between atoms: C6_10  and  N3_11 
REMARK    3  A    between atoms: C9_21  and  O5_22 
ROOT
HETATM    1  N1  UNL     1       3.567   2.483  -0.351  1.00  0.00    -0.191 NA
HETATM    2  C1  UNL     1       2.886   1.529  -0.217  1.00  0.00     0.103 C 
HETATM    3  C2  UNL     1       2.079   0.328  -0.049  1.00  0.00     0.088 A 
HETATM    4  C3  UNL     1       0.762   0.404  -0.054  1.00  0.00     0.033 A 
HETATM    5  C4  UNL     1      -0.019  -0.759   0.108  1.00  0.00     0.051 A 
HETATM    6  C5  UNL     1      -1.380  -0.601   0.105  1.00  0.00     0.152 A 
HETATM    7  C6  UNL     1      -1.988   0.646  -0.048  1.00  0.00     0.166 A 
HETATM    8  C7  UNL     1      -1.235   1.770  -0.207  1.00  0.00     0.110 A 
HETATM    9  N4  UNL     1      -1.570   3.058  -0.374  1.00  0.00    -0.279 N 
ATOM     10  H4  UNL     1      -2.517   3.434  -0.411  1.00  0.00     0.184 HD
HETATM   11  N5  UNL     1      -0.443   3.755  -0.483  1.00  0.00    -0.022 NA
HETATM   12  N6  UNL     1       0.572   2.907  -0.384  1.00  0.00    -0.281 N 
ATOM     13  H6  UNL     1       1.553   3.181  -0.435  1.00  0.00     0.184 HD
HETATM   14  C8  UNL     1       0.150   1.644  -0.209  1.00  0.00     0.089 A 
HETATM   15  C9  UNL     1       0.529  -1.940   0.270  1.00  0.00     0.132 A 
HETATM   16  C10 UNL     1       1.990  -2.137   0.293  1.00  0.00     0.233 A 
HETATM   17  O6  UNL     1       2.526  -3.256   0.448  1.00  0.00    -0.283 OA
HETATM   18  C11 UNL     1       2.793  -0.949   0.125  1.00  0.00     0.101 A 
HETATM   19  N7  UNL     1       4.097  -0.961   0.123  1.00  0.00    -0.395 N 
ATOM     20  H71 UNL     1       4.591  -1.845   0.243  1.00  0.00     0.156 HD
ATOM     21  H72 UNL     1       4.664  -0.122   0.004  1.00  0.00     0.156 HD
ENDROOT
BRANCH   6  22
HETATM   22  N2  UNL     1      -2.241  -1.717   0.260  1.00  0.00    -0.112 N 
HETATM   23  O1  UNL     1      -2.545  -2.368  -0.776  1.00  0.00    -0.532 OA
HETATM   24  O2  UNL     1      -2.787  -2.085   1.452  1.00  0.00    -0.532 OA
ENDBRANCH   6  22
BRANCH  15  25
HETATM   25  O5  UNL     1      -0.235  -3.101   0.433  1.00  0.00    -0.356 OA
ATOM     26  H5  UNL     1       0.162  -3.956   0.550  1.00  0.00     0.218 HD
ENDBRANCH  15  25
BRANCH   7  27
HETATM   27  N3  UNL     1      -3.411   0.720  -0.014  1.00  0.00    -0.111 N 
HETATM   28  O3  UNL     1      -4.148   0.381  -0.943  1.00  0.00    -0.532 OA
HETATM   29  O4  UNL     1      -3.982   1.206   1.141  1.00  0.00    -0.532 OA
ENDBRANCH   7  27
TORSDOF 3
