REMARK  3 active torsions:
REMARK  status: ('A' for Active; 'I' for Inactive)
REMARK    1  A    between atoms: C2_2  and  N1_3 
REMARK    2  A    between atoms: C7_17  and  N6_18 
REMARK    3  A    between atoms: C8_21  and  O1_22 
ROOT
HETATM    1  N1  UNL     1      -2.849   0.229   0.363  1.00  0.00    -0.325 N 
HETATM    2  C3  UNL     1      -3.720   1.356   0.478  1.00  0.00     0.201 C 
HETATM    3  N2  UNL     1      -3.224   2.440   1.265  1.00  0.00    -0.294 N 
ATOM      4  H2  UNL     1      -3.842   3.139   1.677  1.00  0.00     0.187 HD
HETATM    5  N3  UNL     1      -1.856   2.480   1.432  1.00  0.00    -0.281 N 
ATOM      6  H3  UNL     1      -1.478   3.160   2.092  1.00  0.00     0.188 HD
HETATM    7  C4  UNL     1      -0.936   1.639   0.748  1.00  0.00     0.167 A 
HETATM    8  N4  UNL     1       0.378   1.954   0.642  1.00  0.00    -0.321 N 
ATOM      9  H4  UNL     1       0.761   2.809   1.046  1.00  0.00     0.169 HD
HETATM   10  C5  UNL     1       1.148   1.078  -0.025  1.00  0.00     0.154 A 
HETATM   11  N5  UNL     1       2.463   1.461  -0.074  1.00  0.00    -0.319 N 
ATOM     12  H5  UNL     1       2.655   2.461  -0.124  1.00  0.00     0.169 HD
HETATM   13  C6  UNL     1       3.546   0.613  -0.061  1.00  0.00     0.165 A 
HETATM   14  S1  UNL     1       5.081   0.886   0.631  1.00  0.00    -0.032 SA
HETATM   15  C7  UNL     1       5.827  -0.595   0.230  1.00  0.00     0.123 A 
HETATM   16  C8  UNL     1       4.851  -1.275  -0.441  1.00  0.00     0.187 A 
HETATM   17  N7  UNL     1       3.686  -0.681  -0.601  1.00  0.00    -0.220 N 
HETATM   18  C9  UNL     1       2.659  -1.312  -1.268  1.00  0.00     0.336 C 
HETATM   19  O2  UNL     1       2.994  -2.306  -1.987  1.00  0.00    -0.246 OA
HETATM   20  N8  UNL     1       1.340  -1.029  -1.270  1.00  0.00    -0.291 N 
ATOM     21  H8  UNL     1       0.773  -1.614  -1.883  1.00  0.00     0.172 HD
HETATM   22  C10 UNL     1       0.658  -0.091  -0.585  1.00  0.00     0.156 A 
HETATM   23  N9  UNL     1      -0.662  -0.385  -0.467  1.00  0.00    -0.322 N 
ATOM     24  H9  UNL     1      -1.047  -1.239  -0.871  1.00  0.00     0.169 HD
HETATM   25  C11 UNL     1      -1.448   0.482   0.198  1.00  0.00     0.156 A 
ENDROOT
BRANCH  15  26
HETATM   26  N6  UNL     1       7.049  -1.014   0.492  1.00  0.00    -0.390 N 
ATOM     27  H62 UNL     1       7.778  -0.506   0.993  1.00  0.00     0.157 HD
ATOM     28  H61 UNL     1       7.495  -1.899   0.252  1.00  0.00     0.157 HD
ENDBRANCH  15  26
BRANCH  16  29
HETATM   29  O1  UNL     1       5.120  -2.467  -0.887  1.00  0.00    -0.344 OA
ATOM     30  H1  UNL     1       4.441  -2.940  -1.354  1.00  0.00     0.219 HD
ENDBRANCH  16  29
BRANCH   1  31
HETATM   31  C2  UNL     1      -3.302  -1.154   0.403  1.00  0.00     0.127 C 
HETATM   32  C1  UNL     1      -4.109  -1.536  -0.787  1.00  0.00     0.027 C 
ENDBRANCH   1  31
TORSDOF 3
