REMARK  5 active torsions:
REMARK  status: ('A' for Active; 'I' for Inactive)
REMARK    1  A    between atoms: N2_5  and  O2_6 
REMARK    2  A    between atoms: N3_17  and  C8_18 
REMARK    3  A    between atoms: C8_18  and  O5_19 
REMARK    4  A    between atoms: C8_18  and  C9_21 
REMARK    5  A    between atoms: C9_21  and  N4_22 
ROOT
HETATM    1  C1  UNL     1      -4.500   0.065   1.109  1.00  0.00     0.162 C 
HETATM    2  N1  UNL     1      -3.319  -0.002   0.279  1.00  0.00    -0.295 N 
HETATM    3  C2  UNL     1      -3.415  -0.207  -1.026  1.00  0.00     0.356 A 
HETATM    4  O1  UNL     1      -4.521  -0.352  -1.604  1.00  0.00    -0.244 OA
HETATM    5  N2  UNL     1      -2.328  -0.261  -1.737  1.00  0.00    -0.133 N 
HETATM    6  C3  UNL     1      -1.107  -0.110  -1.156  1.00  0.00     0.291 A 
HETATM    7  O3  UNL     1      -0.217  -0.190  -2.011  1.00  0.00    -0.265 OA
HETATM    8  C4  UNL     1      -0.906   0.105   0.197  1.00  0.00     0.097 A 
HETATM    9  C5  UNL     1      -2.098   0.151   0.877  1.00  0.00     0.099 A 
HETATM   10  S1  UNL     1      -1.769   0.456   2.507  1.00  0.00    -0.061 SA
HETATM   11  C6  UNL     1      -0.061   0.525   2.315  1.00  0.00     0.081 A 
HETATM   12  S2  UNL     1       1.398   0.786   3.172  1.00  0.00    -0.019 SA
HETATM   13  C7  UNL     1       2.376   0.611   1.825  1.00  0.00     0.294 A 
HETATM   14  O4  UNL     1       3.625   0.733   1.966  1.00  0.00    -0.259 OA
HETATM   15  N3  UNL     1       1.608   0.360   0.766  1.00  0.00    -0.277 N 
HETATM   16  C10 UNL     1       0.250   0.311   0.996  1.00  0.00     0.083 A 
ENDROOT
BRANCH  15  17
HETATM   17  C8  UNL     1       2.312   0.115  -0.481  1.00  0.00     0.254 C 
BRANCH  17  18
HETATM   18  O5  UNL     1       2.174  -1.148  -1.033  1.00  0.00    -0.374 OA
ATOM     19  H5  UNL     1       2.634  -1.308  -1.848  1.00  0.00     0.212 HD
ENDBRANCH  17  18
BRANCH  17  20
HETATM   20  C9  UNL     1       3.785   0.373  -0.507  1.00  0.00     0.283 C 
BRANCH  20  21
HETATM   21  N4  UNL     1       4.552  -0.708   0.087  1.00  0.00    -0.075 N 
ATOM     22  H43 UNL     1       4.232  -0.907   1.035  1.00  0.00     0.274 HD
ATOM     23  H42 UNL     1       4.329  -1.601  -0.353  1.00  0.00     0.274 HD
ATOM     24  H41 UNL     1       5.557  -0.532   0.069  1.00  0.00     0.274 HD
ENDBRANCH  20  21
ENDBRANCH  17  20
ENDBRANCH  15  17
BRANCH   5  25
HETATM   25  O2  UNL     1      -2.418  -0.477  -3.119  1.00  0.00    -0.276 OA
ATOM     26  H2  UNL     1      -1.624  -0.516  -3.639  1.00  0.00     0.245 HD
ENDBRANCH   5  25
TORSDOF 5
