REMARK  6 active torsions:
REMARK  status: ('A' for Active; 'I' for Inactive)
REMARK    1  A    between atoms: N1_1  and  C1_4 
REMARK    2  A    between atoms: C2_7  and  C3_8 
REMARK    3  A    between atoms: C3_8  and  S1_9 
REMARK    4  A    between atoms: S1_9  and  C4_10 
REMARK    5  A    between atoms: C6_18  and  C7_19 
REMARK    6  A    between atoms: C9_35  and  N13_36 
ROOT
HETATM    1  C4  UNL     1       0.548   0.057   0.737  1.00  0.00     0.162 A 
HETATM    2  N3  UNL     1       1.275   1.158   0.965  1.00  0.00    -0.168 N 
ATOM      3  H3  UNL     1       0.803   2.008   1.274  1.00  0.00     0.186 HD
HETATM    4  C5  UNL     1       2.605   1.176   0.799  1.00  0.00     0.709 A 
HETATM    5  N4  UNL     1       3.458   2.195   0.986  1.00  0.00    -0.130 N 
ATOM      6  H4  UNL     1       3.219   3.139   1.291  1.00  0.00     0.205 HD
HETATM    7  N5  UNL     1       4.637   1.754   0.707  1.00  0.00    -0.267 N 
ATOM      8  H5  UNL     1       5.493   2.306   0.759  1.00  0.00     0.189 HD
HETATM    9  C6  UNL     1       4.575   0.417   0.325  1.00  0.00     0.193 A 
HETATM   10  N10 UNL     1       3.284   0.059   0.387  1.00  0.00    -0.100 N 
HETATM   11  C8  UNL     1       2.576  -1.056   0.153  1.00  0.00     0.202 A 
HETATM   12  S2  UNL     1       3.298  -2.426  -0.338  1.00  0.00    -0.039 SA
HETATM   13  N11 UNL     1       1.222  -1.026   0.336  1.00  0.00    -0.312 N 
ATOM     14  H11 UNL     1       0.694  -1.880   0.156  1.00  0.00     0.170 HD
ENDROOT
BRANCH   1  15
HETATM   15  S1  UNL     1      -1.236   0.032   0.959  1.00  0.00    -0.086 SA
BRANCH  15  16
HETATM   16  C3  UNL     1      -2.077   0.494  -0.578  1.00  0.00     0.160 C 
BRANCH  16  17
HETATM   17  C2  UNL     1      -3.535   0.453  -0.323  1.00  0.00     0.123 A 
HETATM   18  N2  UNL     1      -4.185   1.531   0.111  1.00  0.00    -0.179 N 
HETATM   19  C1  UNL     1      -5.513   1.515   0.349  1.00  0.00     0.691 A 
ATOM     20  H2  UNL     1      -3.664   2.394   0.268  1.00  0.00     0.185 HD
HETATM   21  N14 UNL     1      -6.176   0.360   0.132  1.00  0.00    -0.023 N 
HETATM   22  C9  UNL     1      -5.540  -0.738  -0.305  1.00  0.00     0.691 A 
ATOM     23  H14 UNL     1      -7.181   0.321   0.304  1.00  0.00     0.203 HD
HETATM   24  N12 UNL     1      -4.199  -0.702  -0.540  1.00  0.00    -0.179 N 
ATOM     25  H12 UNL     1      -3.707  -1.531  -0.873  1.00  0.00     0.185 HD
BRANCH  19  26
HETATM   26  N1  UNL     1      -6.161   2.555   0.771  1.00  0.00    -0.234 N 
ATOM     27  H12 UNL     1      -5.660   3.428   0.935  1.00  0.00     0.174 HD
ATOM     28  H11 UNL     1      -7.165   2.543   0.951  1.00  0.00     0.174 HD
ENDBRANCH  19  26
BRANCH  22  29
HETATM   29  N13 UNL     1      -6.219  -1.819  -0.498  1.00  0.00    -0.234 N 
ATOM     30 2H13 UNL     1      -5.736  -2.654  -0.830  1.00  0.00     0.174 HD
ATOM     31 1H13 UNL     1      -7.223  -1.846  -0.322  1.00  0.00     0.174 HD
ENDBRANCH  22  29
ENDBRANCH  16  17
ENDBRANCH  15  16
ENDBRANCH   1  15
BRANCH   9  32
HETATM   32  C7  UNL     1       5.726  -0.368  -0.051  1.00  0.00     0.184 A 
HETATM   33  N6  UNL     1       5.935  -1.592  -0.434  1.00  0.00    -0.266 N 
HETATM   34  N7  UNL     1       7.206  -1.842  -0.670  1.00  0.00    -0.226 N 
ATOM     35  H6  UNL     1       5.194  -2.285  -0.540  1.00  0.00     0.190 HD
HETATM   36  N8  UNL     1       7.837  -0.720  -0.425  1.00  0.00    -0.226 N 
ATOM     37  H7  UNL     1       7.614  -2.724  -0.979  1.00  0.00     0.210 HD
HETATM   38  N9  UNL     1       6.980   0.188  -0.051  1.00  0.00    -0.266 N 
ATOM     39  H8  UNL     1       8.843  -0.579  -0.513  1.00  0.00     0.210 HD
ATOM     40  H9  UNL     1       7.204   1.151   0.200  1.00  0.00     0.190 HD
ENDBRANCH   9  32
TORSDOF 6
