REMARK  10 active torsions:
REMARK  status: ('A' for Active; 'I' for Inactive)
REMARK       I    between atoms: N1_2  and  C2_4 
REMARK    1  A    between atoms: C2_4  and  C3_6 
REMARK    2  A    between atoms: C3_6  and  C4_11 
REMARK    3  A    between atoms: N2_7  and  O2_9 
REMARK    4  A    between atoms: C4_11  and  N3_12 
REMARK    5  A    between atoms: C4_11  and  N5_15 
REMARK    6  A    between atoms: C6_18  and  N7_19 
REMARK    7  A    between atoms: N8_21  and  C7_23 
REMARK    8  A    between atoms: C7_23  and  O3_24 
REMARK    9  A    between atoms: N9_26  and  O4_28 
REMARK   10  A    between atoms: C8_30  and  N10_31 
ROOT
HETATM    1  N3  UNL     1      -1.340  -1.218   2.626  1.00  0.00    -0.307 NA
HETATM    2  C5  UNL     1      -1.520  -1.677   3.809  1.00  0.00     0.270 C 
HETATM    3  N4  UNL     1      -1.664  -2.101   4.868  1.00  0.00    -0.156 NA
ENDROOT
BRANCH   1   4
HETATM    4  C4  UNL     1      -1.464  -0.719   1.546  1.00  0.00     0.250 C 
BRANCH   4   5
HETATM    5  C3  UNL     1      -2.698  -0.147   1.024  1.00  0.00     0.183 C 
HETATM    6  N2  UNL     1      -3.796  -0.126   1.687  1.00  0.00    -0.259 N 
ATOM      7  H2  UNL     1      -4.570   0.305   1.181  1.00  0.00     0.194 HD
BRANCH   5   8
HETATM    8  C2  UNL     1      -2.788   0.458  -0.328  1.00  0.00     0.274 C 
HETATM    9  N1  UNL     1      -4.049   0.981  -0.728  1.00  0.00    -0.360 N 
HETATM   10  C1  UNL     1      -4.224   1.589  -2.027  1.00  0.00     0.149 C 
ATOM     11  H1  UNL     1      -4.841   0.926  -0.088  1.00  0.00     0.162 HD
HETATM   12  O1  UNL     1      -1.836   0.530  -1.114  1.00  0.00    -0.266 OA
ENDBRANCH   5   8
BRANCH   6  13
HETATM   13  O2  UNL     1      -4.124  -0.549   2.888  1.00  0.00    -0.289 OA
ATOM     14  H2  UNL     1      -4.937  -0.533   3.379  1.00  0.00     0.244 HD
ENDBRANCH   6  13
ENDBRANCH   4   5
BRANCH   4  15
HETATM   15  N5  UNL     1      -0.288  -0.678   0.675  1.00  0.00    -0.205 N 
HETATM   16  N6  UNL     1       0.618   0.275   0.593  1.00  0.00    -0.271 N 
HETATM   17  C6  UNL     1       1.594  -0.035  -0.291  1.00  0.00     0.173 A 
ATOM     18  H6  UNL     1       0.587   1.141   1.131  1.00  0.00     0.189 HD
HETATM   19  C8  UNL     1       1.279  -1.286  -0.812  1.00  0.00     0.194 A 
HETATM   20  C9  UNL     1       0.105  -1.643  -0.183  1.00  0.00     0.161 A 
HETATM   21  N11 UNL     1      -0.546  -2.741  -0.371  1.00  0.00    -0.382 N 
ATOM     22 2H11 UNL     1      -1.414  -3.005   0.094  1.00  0.00     0.157 HD
ATOM     23 1H11 UNL     1      -0.249  -3.470  -1.019  1.00  0.00     0.157 HD
BRANCH  17  24
HETATM   24  N7  UNL     1       2.727   0.696  -0.672  1.00  0.00    -0.279 N 
HETATM   25  N8  UNL     1       3.789   0.608  -0.021  1.00  0.00    -0.262 N 
ATOM     26  H8  UNL     1       3.801  -0.010   0.790  1.00  0.00     0.190 HD
ATOM     27  H7  UNL     1       2.684   1.306  -1.489  1.00  0.00     0.189 HD
BRANCH  25  28
HETATM   28  C7  UNL     1       4.983   1.313  -0.337  1.00  0.00     0.256 C 
HETATM   29  N9  UNL     1       4.874   2.521  -0.744  1.00  0.00    -0.232 N 
ATOM     30  H9  UNL     1       3.943   2.930  -0.826  1.00  0.00     0.198 HD
BRANCH  28  31
HETATM   31  O3  UNL     1       6.241   0.760  -0.227  1.00  0.00    -0.330 OA
ATOM     32  H3  UNL     1       7.039   1.231  -0.438  1.00  0.00     0.221 HD
ENDBRANCH  28  31
BRANCH  29  33
HETATM   33  O4  UNL     1       5.950   3.275  -1.069  1.00  0.00    -0.287 OA
ATOM     34  H4  UNL     1       5.869   4.172  -1.371  1.00  0.00     0.244 HD
ENDBRANCH  29  33
ENDBRANCH  25  28
ENDBRANCH  17  24
BRANCH  19  35
HETATM   35  N10 UNL     1       1.985  -2.052  -1.766  1.00  0.00    -0.108 N 
HETATM   36  O5  UNL     1       1.972  -1.742  -2.961  1.00  0.00    -0.531 OA
HETATM   37  O6  UNL     1       2.695  -3.154  -1.377  1.00  0.00    -0.531 OA
ENDBRANCH  19  35
ENDBRANCH   4  15
ENDBRANCH   1   4
TORSDOF 10
