REMARK  6 active torsions:
REMARK  status: ('A' for Active; 'I' for Inactive)
REMARK       I    between atoms: C2_2  and  N1_4 
REMARK    1  A    between atoms: N1_4  and  N2_6 
REMARK    2  A    between atoms: N2_6  and  C3_8 
REMARK    3  A    between atoms: C4_11  and  N4_12 
REMARK    4  A    between atoms: N4_12  and  N6_15 
REMARK       I    between atoms: N7_17  and  C6_19 
REMARK       I    between atoms: C6_19  and  N8_20 
REMARK       I    between atoms: C6_19  and  N9_24 
REMARK    5  A    between atoms: C7_32  and  C8_33 
REMARK    6  A    between atoms: C11_39  and  N13_40 
ROOT
HETATM    1  N4  UNL     1       2.854   0.329  -1.035  1.00  0.00     0.000 N 
HETATM    2  C5  UNL     1       3.869  -0.441  -1.608  1.00  0.00     0.222 C 
HETATM    3  N5  UNL     1       4.703  -1.090  -2.099  1.00  0.00    -0.169 NA
ENDROOT
BRANCH   1   4
HETATM    4  C4  UNL     1       1.532  -0.165  -1.083  1.00  0.00     0.730 A 
HETATM    5  N3  UNL     1       0.481   0.496  -0.562  1.00  0.00    -0.169 N 
HETATM    6  C3  UNL     1      -0.776   0.029  -0.606  1.00  0.00     0.165 A 
ATOM      7  H3  UNL     1       0.649   1.396  -0.112  1.00  0.00     0.186 HD
HETATM    8  C7  UNL     1      -1.026  -1.185  -1.210  1.00  0.00     0.111 A 
HETATM    9  N11 UNL     1       0.017  -1.849  -1.731  1.00  0.00    -0.282 N 
HETATM   10  N10 UNL     1       1.230  -1.349  -1.663  1.00  0.00    -0.129 N 
ATOM     11  H11 UNL     1      -0.133  -2.750  -2.184  1.00  0.00     0.187 HD
ATOM     12  H10 UNL     1       1.992  -1.888  -2.074  1.00  0.00     0.205 HD
BRANCH   6  13
HETATM   13  N2  UNL     1      -1.777   0.673  -0.102  1.00  0.00    -0.281 N 
ATOM     14  H2  UNL     1      -2.702   0.249  -0.177  1.00  0.00     0.188 HD
BRANCH  13  15
HETATM   15  N1  UNL     1      -1.678   1.898   0.532  1.00  0.00    -0.269 N 
HETATM   16  C2  UNL     1      -2.494   2.968   0.067  1.00  0.00     0.232 C 
HETATM   17  C1  UNL     1      -2.456   4.319   0.687  1.00  0.00     0.119 C 
HETATM   18  O1  UNL     1      -3.287   2.817  -0.892  1.00  0.00    -0.272 OA
ATOM     19  H1  UNL     1      -1.036   2.032   1.313  1.00  0.00     0.190 HD
ENDBRANCH  13  15
ENDBRANCH   6  13
BRANCH   8  20
HETATM   20  C8  UNL     1      -2.388  -1.708  -1.267  1.00  0.00     0.073 A 
HETATM   21  C9  UNL     1      -2.972  -2.512  -0.317  1.00  0.00     0.045 A 
HETATM   22  C10 UNL     1      -2.409  -3.040   0.953  1.00  0.00     0.071 C 
HETATM   23  N12 UNL     1      -4.216  -2.750  -0.770  1.00  0.00    -0.263 N 
HETATM   24  O2  UNL     1      -4.394  -2.144  -1.908  1.00  0.00    -0.219 OA
ATOM     25  H12 UNL     1      -4.915  -3.320  -0.293  1.00  0.00     0.194 HD
HETATM   26  C11 UNL     1      -3.314  -1.492  -2.262  1.00  0.00     0.178 A 
BRANCH  26  27
HETATM   27  N13 UNL     1      -3.156  -0.777  -3.353  1.00  0.00    -0.377 N 
ATOM     28 2H13 UNL     1      -2.315  -0.269  -3.629  1.00  0.00     0.158 HD
ATOM     29 1H13 UNL     1      -3.842  -0.617  -4.090  1.00  0.00     0.158 HD
ENDBRANCH  26  27
ENDBRANCH   8  20
ENDBRANCH   1   4
BRANCH   1  30
HETATM   30  N6  UNL     1       3.113   1.550  -0.430  1.00  0.00    -0.213 N 
HETATM   31  N7  UNL     1       3.728   1.664   0.656  1.00  0.00    -0.268 N 
HETATM   32  C6  UNL     1       4.219   0.507   1.362  1.00  0.00     0.495 C 
ATOM     33  H7  UNL     1       3.884   2.593   1.048  1.00  0.00     0.185 HD
HETATM   34  N8  UNL     1       5.664   0.443   1.134  1.00  0.00    -0.032 N 
HETATM   35  N9  UNL     1       4.060   0.687   2.812  1.00  0.00    -0.032 N 
ATOM     36  H83 UNL     1       5.913   0.443   0.145  1.00  0.00     0.279 HD
ATOM     37  H82 UNL     1       6.148   1.303   1.391  1.00  0.00     0.279 HD
ATOM     38  H81 UNL     1       6.011  -0.376   1.634  1.00  0.00     0.279 HD
ATOM     39  H93 UNL     1       4.501   1.547   3.139  1.00  0.00     0.279 HD
ATOM     40  H92 UNL     1       3.096   0.906   3.064  1.00  0.00     0.279 HD
ATOM     41  H91 UNL     1       4.407  -0.132   3.312  1.00  0.00     0.279 HD
ATOM     42  H6  UNL     1       2.786   2.398  -0.893  1.00  0.00     0.210 HD
ENDBRANCH   1  30
TORSDOF 6
