REMARK  8 active torsions:
REMARK  status: ('A' for Active; 'I' for Inactive)
REMARK    1  A    between atoms: C2_2  and  N1_4 
REMARK    2  A    between atoms: N1_4  and  C4_5 
REMARK    3  A    between atoms: C6_9  and  O1_10 
REMARK    4  A    between atoms: O1_10  and  C7_11 
REMARK    5  A    between atoms: C7_11  and  C8_12 
REMARK    6  A    between atoms: N3_14  and  C10_15 
REMARK    7  A    between atoms: C12_21  and  N6_22 
REMARK    8  A    between atoms: C19_40  and  N12_41 
ROOT
HETATM    1  C10 UNL     1       6.219   0.716  -0.739  1.00  0.00     0.153 A 
HETATM    2  N4  UNL     1       6.692   1.512   0.246  1.00  0.00    -0.336 N 
ATOM      3  H4  UNL     1       6.069   2.176   0.706  1.00  0.00     0.168 HD
HETATM    4  C11 UNL     1       7.983   1.432   0.623  1.00  0.00     0.183 A 
HETATM    5  N5  UNL     1       8.852   0.579   0.057  1.00  0.00    -0.338 N 
ATOM      6  H5  UNL     1       9.822   0.548   0.370  1.00  0.00     0.168 HD
HETATM    7  C12 UNL     1       8.427  -0.239  -0.933  1.00  0.00     0.124 A 
HETATM    8  C13 UNL     1       7.107  -0.160  -1.322  1.00  0.00     0.134 A 
HETATM    9  C14 UNL     1       6.610  -1.007  -2.368  1.00  0.00     0.107 C 
HETATM   10  N7  UNL     1       6.218  -1.705  -3.203  1.00  0.00    -0.191 NA
ENDROOT
BRANCH   1  11
HETATM   11  N3  UNL     1       4.852   0.821  -1.118  1.00  0.00    -0.233 N 
HETATM   12  C9  UNL     1       3.831   0.469  -0.314  1.00  0.00     0.148 A 
HETATM   13  C8  UNL     1       2.644   0.700  -0.996  1.00  0.00     0.069 A 
HETATM   14  N9  UNL     1       2.997   1.185  -2.190  1.00  0.00    -0.286 N 
HETATM   15  N8  UNL     1       4.315   1.242  -2.224  1.00  0.00    -0.234 N 
ATOM     16  H9  UNL     1       2.363   1.461  -2.939  1.00  0.00     0.188 HD
ATOM     17  H8  UNL     1       4.850   1.577  -3.025  1.00  0.00     0.209 HD
BRANCH  13  18
HETATM   18  C7  UNL     1       1.261   0.482  -0.559  1.00  0.00     0.237 C 
BRANCH  18  19
HETATM   19  O1  UNL     1       1.204  -0.061   0.761  1.00  0.00    -0.330 OA
BRANCH  19  20
HETATM   20  C6  UNL     1      -0.035  -0.340   1.357  1.00  0.00     0.143 A 
HETATM   21  N2  UNL     1      -1.192  -0.108   0.717  1.00  0.00    -0.331 N 
HETATM   22  C5  UNL     1      -2.374  -0.389   1.322  1.00  0.00     0.122 A 
ATOM     23  H2  UNL     1      -1.183   0.280  -0.226  1.00  0.00     0.168 HD
HETATM   24  C4  UNL     1      -3.552  -0.130   0.611  1.00  0.00     0.241 A 
HETATM   25  C17 UNL     1      -2.349  -0.909   2.590  1.00  0.00     0.081 A 
HETATM   26  N14 UNL     1      -4.715  -0.426   1.256  1.00  0.00    -0.040 N 
HETATM   27  C18 UNL     1      -4.686  -0.934   2.495  1.00  0.00     0.721 A 
HETATM   28  N13 UNL     1      -5.996  -0.314   0.895  1.00  0.00    -0.108 N 
HETATM   29  N10 UNL     1      -3.545  -1.174   3.156  1.00  0.00    -0.187 N 
HETATM   30  N11 UNL     1      -5.971  -1.126   2.875  1.00  0.00    -0.019 N 
ATOM     31  H10 UNL     1      -3.581  -1.562   4.099  1.00  0.00     0.184 HD
HETATM   32  C19 UNL     1      -6.793  -0.741   1.883  1.00  0.00     0.706 A 
ATOM     33  H11 UNL     1      -6.269  -1.504   3.774  1.00  0.00     0.203 HD
ATOM     34  H13 UNL     1      -6.320   0.045  -0.003  1.00  0.00     0.207 HD
HETATM   35  C16 UNL     1      -1.169  -1.157   3.271  1.00  0.00     0.037 A 
HETATM   36  C15 UNL     1       0.014  -0.862   2.632  1.00  0.00     0.058 A 
BRANCH  24  37
HETATM   37  N1  UNL     1      -3.561   0.322  -0.489  1.00  0.00    -0.422 NA
BRANCH  37  38
HETATM   38  C2  UNL     1      -3.575   0.830  -1.727  1.00  0.00     0.157 C 
HETATM   39  C1  UNL     1      -4.571   2.002  -1.921  1.00  0.00     0.047 C 
HETATM   40  C3  UNL     1      -4.055  -0.233  -2.741  1.00  0.00     0.047 C 
ENDBRANCH  37  38
ENDBRANCH  24  37
BRANCH  32  41
HETATM   41  N12 UNL     1      -8.091  -0.765   1.853  1.00  0.00    -0.233 N 
ATOM     42 2H12 UNL     1      -8.698  -1.090   2.605  1.00  0.00     0.174 HD
ATOM     43 1H12 UNL     1      -8.715  -0.473   1.100  1.00  0.00     0.174 HD
ENDBRANCH  32  41
ENDBRANCH  19  20
ENDBRANCH  18  19
ENDBRANCH  13  18
ENDBRANCH   1  11
BRANCH   7  44
HETATM   44  N6  UNL     1       9.242  -1.079  -1.506  1.00  0.00    -0.384 N 
ATOM     45  H62 UNL     1      10.219  -1.137  -1.218  1.00  0.00     0.157 HD
ATOM     46  H61 UNL     1       8.922  -1.696  -2.252  1.00  0.00     0.157 HD
ENDBRANCH   7  44
TORSDOF 8
