REMARK  9 active torsions:
REMARK  status: ('A' for Active; 'I' for Inactive)
REMARK    1  A    between atoms: N2_7  and  C6_8 
REMARK    2  A    between atoms: C6_8  and  S2_10 
REMARK    3  A    between atoms: S2_10  and  C7_11 
REMARK    4  A    between atoms: C7_11  and  C8_12 
REMARK    5  A    between atoms: C8_12  and  S3_13 
REMARK    6  A    between atoms: S3_13  and  C9_14 
REMARK    7  A    between atoms: C10_15  and  C11_16 
REMARK    8  A    between atoms: N7_25  and  C12_26 
REMARK    9  A    between atoms: C13_32  and  N10_33 
ROOT
HETATM    1  N1  UNL     1      -4.281  -2.237  -1.499  1.00  0.00    -0.197 NA
HETATM    2  C1  UNL     1      -4.841  -1.245  -1.230  1.00  0.00     0.066 C 
HETATM    3  C2  UNL     1      -5.540   0.001  -0.911  1.00  0.00     0.127 C 
HETATM    4  C3  UNL     1      -5.562   0.234   0.582  1.00  0.00     0.056 C 
HETATM    5  C4  UNL     1      -5.279   1.711   0.730  1.00  0.00     0.205 C 
HETATM    6  C5  UNL     1      -3.832   1.863   1.200  1.00  0.00     0.157 C 
HETATM    7  N2  UNL     1      -2.995   1.149   0.244  1.00  0.00    -0.362 N 
HETATM    8  C14 UNL     1      -3.330   1.016  -1.144  1.00  0.00     0.158 C 
HETATM    9  C15 UNL     1      -4.801   1.219  -1.411  1.00  0.00     0.221 C 
HETATM   10  N11 UNL     1      -5.348   2.276  -0.595  1.00  0.00    -0.062 N 
ATOM     11 1H11 UNL     1      -4.890   3.181  -0.700  1.00  0.00     0.278 HD
ATOM     12 2H11 UNL     1      -6.273   2.601  -0.876  1.00  0.00     0.278 HD
ENDROOT
BRANCH   7  13
HETATM   13  C6  UNL     1      -1.776   0.548   0.707  1.00  0.00     0.136 C 
HETATM   14  S1  UNL     1      -1.365   0.665   2.287  1.00  0.00    -0.053 SA
BRANCH  13  15
HETATM   15  S2  UNL     1      -0.740  -0.324  -0.433  1.00  0.00    -0.100 SA
BRANCH  15  16
HETATM   16  C7  UNL     1       0.760  -0.911   0.375  1.00  0.00     0.092 C 
BRANCH  16  17
HETATM   17  C8  UNL     1       1.635   0.232   0.748  1.00  0.00     0.091 C 
BRANCH  17  18
HETATM   18  S3  UNL     1       3.179  -0.219   1.573  1.00  0.00    -0.107 SA
BRANCH  18  19
HETATM   19  C9  UNL     1       4.241  -1.115   0.467  1.00  0.00     0.128 A 
HETATM   20  C10 UNL     1       4.341  -2.478   0.335  1.00  0.00     0.125 A 
HETATM   21  N5  UNL     1       5.255  -2.634  -0.681  1.00  0.00    -0.280 N 
HETATM   22  N6  UNL     1       5.653  -1.453  -1.103  1.00  0.00    -0.233 N 
ATOM     23  H5  UNL     1       5.575  -3.529  -1.051  1.00  0.00     0.188 HD
HETATM   24  N7  UNL     1       5.068  -0.491  -0.438  1.00  0.00    -0.211 N 
ATOM     25  H6  UNL     1       6.330  -1.307  -1.852  1.00  0.00     0.209 HD
BRANCH  20  26
HETATM   26  C11 UNL     1       3.703  -3.570   1.060  1.00  0.00     0.141 C 
HETATM   27  N3  UNL     1       2.861  -3.468   2.008  1.00  0.00    -0.386 N 
ATOM     28  H32 UNL     1       2.589  -2.533   2.310  1.00  0.00     0.157 HD
ATOM     29  H31 UNL     1       2.415  -4.232   2.515  1.00  0.00     0.157 HD
HETATM   30  N4  UNL     1       4.091  -4.902   0.630  1.00  0.00    -0.081 NA
ENDBRANCH  20  26
BRANCH  24  31
HETATM   31  C12 UNL     1       5.210   0.921  -0.568  1.00  0.00     0.197 A 
HETATM   32  N8  UNL     1       5.493   1.843   0.367  1.00  0.00    -0.220 N 
HETATM   33  O1  UNL     1       5.535   3.032  -0.153  1.00  0.00    -0.153 OA
ATOM     34  H8  UNL     1       5.653   1.637   1.353  1.00  0.00     0.198 HD
HETATM   35  N9  UNL     1       5.286   2.927  -1.421  1.00  0.00    -0.222 N 
HETATM   36  C13 UNL     1       5.075   1.634  -1.739  1.00  0.00     0.169 A 
ATOM     37  H9  UNL     1       5.254   3.706  -2.079  1.00  0.00     0.198 HD
BRANCH  36  38
HETATM   38  N10 UNL     1       4.799   1.145  -2.908  1.00  0.00    -0.381 N 
ATOM     39 2H10 UNL     1       4.639   0.167  -3.149  1.00  0.00     0.157 HD
ATOM     40 1H10 UNL     1       4.699   1.673  -3.775  1.00  0.00     0.157 HD
ENDBRANCH  36  38
ENDBRANCH  24  31
ENDBRANCH  18  19
ENDBRANCH  17  18
ENDBRANCH  16  17
ENDBRANCH  15  16
ENDBRANCH  13  15
ENDBRANCH   7  13
TORSDOF 9
