REMARK  9 active torsions:
REMARK  status: ('A' for Active; 'I' for Inactive)
REMARK    1  A    between atoms: S1_2  and  C2_3 
REMARK    2  A    between atoms: C3_6  and  N2_7 
REMARK    3  A    between atoms: N2_7  and  N3_9 
REMARK    4  A    between atoms: C4_11  and  C5_12 
REMARK    5  A    between atoms: C6_13  and  S2_14 
REMARK    6  A    between atoms: S2_14  and  C7_15 
REMARK    7  A    between atoms: C10_24  and  N6_25 
REMARK    8  A    between atoms: N7_28  and  N8_29 
REMARK    9  A    between atoms: C11_34  and  C12_35 
ROOT
HETATM    1  N3  UNL     1       0.239   0.594   1.649  1.00  0.00    -0.295 N 
ATOM      2  H3  UNL     1       0.114   1.580   1.419  1.00  0.00     0.186 HD
HETATM    3  C4  UNL     1       1.352   0.049   1.331  1.00  0.00     0.142 C 
ENDROOT
BRANCH   3   4
HETATM    4  C5  UNL     1       2.405   0.803   0.665  1.00  0.00     0.125 A 
HETATM    5  C6  UNL     1       3.653   0.344   0.266  1.00  0.00     0.118 A 
HETATM    6  N5  UNL     1       4.303   1.361  -0.305  1.00  0.00    -0.182 N 
HETATM    7  C10 UNL     1       3.499   2.432  -0.270  1.00  0.00     0.698 A 
ATOM      8  H5  UNL     1       5.244   1.328  -0.698  1.00  0.00     0.185 HD
HETATM    9  N7  UNL     1       2.354   2.096   0.314  1.00  0.00    -0.089 N 
BRANCH   5  10
HETATM   10  S2  UNL     1       4.253  -1.300   0.476  1.00  0.00    -0.085 SA
BRANCH  10  11
HETATM   11  C7  UNL     1       5.883  -1.460  -0.260  1.00  0.00     0.238 C 
HETATM   12  C8  UNL     1       5.982  -1.376  -1.716  1.00  0.00     0.247 C 
HETATM   13  O1  UNL     1       5.521  -0.714  -2.667  1.00  0.00    -0.271 OA
HETATM   14  N4  UNL     1       6.925  -2.468  -1.707  1.00  0.00    -0.295 N 
HETATM   15  C9  UNL     1       6.354  -2.846  -0.468  1.00  0.00     0.247 C 
ATOM     16  H4  UNL     1       7.667  -2.812  -2.317  1.00  0.00     0.171 HD
HETATM   17  O2  UNL     1       6.290  -3.920   0.163  1.00  0.00    -0.271 OA
ENDBRANCH  10  11
ENDBRANCH   5  10
BRANCH   7  18
HETATM   18  N6  UNL     1       3.828   3.591  -0.745  1.00  0.00    -0.233 N 
ATOM     19  H62 UNL     1       4.707   3.849  -1.193  1.00  0.00     0.174 HD
ATOM     20  H61 UNL     1       3.216   4.406  -0.718  1.00  0.00     0.174 HD
ENDBRANCH   7  18
BRANCH   9  21
HETATM   21  N8  UNL     1       1.268   2.976   0.524  1.00  0.00    -0.324 N 
ATOM     22  H82 UNL     1       0.389   2.718   0.972  1.00  0.00     0.178 HD
ATOM     23  H81 UNL     1       1.229   3.960   0.257  1.00  0.00     0.178 HD
ENDBRANCH   9  21
ENDBRANCH   3   4
BRANCH   1  24
HETATM   24  N2  UNL     1      -0.806  -0.050   2.280  1.00  0.00    -0.132 N 
ATOM     25  H2  UNL     1      -0.613  -0.495   3.177  1.00  0.00     0.205 HD
BRANCH  24  26
HETATM   26  C3  UNL     1      -1.999  -0.131   1.824  1.00  0.00     0.700 A 
HETATM   27  N1  UNL     1      -2.919  -0.792   2.548  1.00  0.00    -0.169 N 
HETATM   28  C2  UNL     1      -4.204  -0.920   2.132  1.00  0.00     0.160 A 
ATOM     29  H1  UNL     1      -2.643  -1.210   3.437  1.00  0.00     0.186 HD
HETATM   30  N10 UNL     1      -4.520  -0.348   0.945  1.00  0.00    -0.321 N 
HETATM   31  C11 UNL     1      -3.621   0.314   0.207  1.00  0.00     0.140 A 
ATOM     32  H10 UNL     1      -5.477  -0.425   0.602  1.00  0.00     0.169 HD
HETATM   33  N9  UNL     1      -2.362   0.427   0.639  1.00  0.00    -0.174 N 
ATOM     34  H9  UNL     1      -1.674   0.931   0.080  1.00  0.00     0.186 HD
BRANCH  28  35
HETATM   35  S1  UNL     1      -5.424  -1.802   3.098  1.00  0.00    -0.098 SA
HETATM   36  C1  UNL     1      -5.351  -3.549   2.542  1.00  0.00     0.099 C 
ENDBRANCH  28  35
BRANCH  31  37
HETATM   37  C12 UNL     1      -4.040   0.914  -1.083  1.00  0.00     0.049 A 
HETATM   38  C13 UNL     1      -5.288   0.877  -1.647  1.00  0.00     0.023 A 
HETATM   39  C14 UNL     1      -5.442   1.491  -2.827  1.00  0.00     0.009 A 
HETATM   40  C15 UNL     1      -4.344   2.102  -3.371  1.00  0.00     0.050 A 
HETATM   41  S3  UNL     1      -3.129   1.800  -2.214  1.00  0.00    -0.098 SA
ENDBRANCH  31  37
ENDBRANCH  24  26
ENDBRANCH   1  24
TORSDOF 9
