REMARK  11 active torsions:
REMARK  status: ('A' for Active; 'I' for Inactive)
REMARK    1  A    between atoms: C2_2  and  O2_7 
REMARK    2  A    between atoms: N1_3  and  O1_5 
REMARK    3  A    between atoms: O2_7  and  C3_8 
REMARK    4  A    between atoms: C5_10  and  O3_11 
REMARK    5  A    between atoms: C8_16  and  S1_17 
REMARK    6  A    between atoms: S1_17  and  C9_18 
REMARK    7  A    between atoms: C11_20  and  O5_21 
REMARK    8  A    between atoms: O5_21  and  C12_22 
REMARK    9  A    between atoms: C17_28  and  O7_29 
REMARK   10  A    between atoms: C18_31  and  C19_32 
REMARK   11  A    between atoms: C19_32  and  O8_33 
ROOT
HETATM    1  C9  UNL     1       0.209   0.045  -1.157  1.00  0.00     0.188 C 
HETATM    2  C10 UNL     1       0.662   0.911  -0.006  1.00  0.00     0.077 C 
HETATM    3  C11 UNL     1       2.129   1.260  -0.331  1.00  0.00     0.159 C 
HETATM    4  C17 UNL     1       2.105   1.968  -1.646  1.00  0.00     0.178 C 
HETATM    5  C18 UNL     1       1.284   1.323  -2.712  1.00  0.00     0.177 C 
HETATM    6  O9  UNL     1       0.070   0.817  -2.311  1.00  0.00    -0.365 OA
ENDROOT
BRANCH   1   7
HETATM    7  S1  UNL     1      -1.148  -1.040  -0.822  1.00  0.00    -0.103 SA
BRANCH   7   8
HETATM    8  C8  UNL     1      -2.721  -0.293  -0.490  1.00  0.00     0.215 C 
HETATM    9  C3  UNL     1      -2.742   0.454   0.823  1.00  0.00     0.171 C 
HETATM   10  C4  UNL     1      -2.372  -0.445   1.973  1.00  0.00     0.070 C 
HETATM   11  C5  UNL     1      -2.858  -1.836   1.862  1.00  0.00     0.149 C 
HETATM   12  C6  UNL     1      -3.228  -2.291   0.491  1.00  0.00     0.147 C 
HETATM   13  C7  UNL     1      -4.333  -3.354   0.582  1.00  0.00     0.042 C 
HETATM   14  O4  UNL     1      -3.678  -1.318  -0.349  1.00  0.00    -0.365 OA
BRANCH   9  15
HETATM   15  O2  UNL     1      -4.116   0.818   1.060  1.00  0.00    -0.329 OA
BRANCH  15  16
HETATM   16  C2  UNL     1      -4.824   1.650   0.219  1.00  0.00     0.133 C 
HETATM   17  C1  UNL     1      -6.283   1.492   0.028  1.00  0.00     0.099 C 
HETATM   18  N1  UNL     1      -4.158   2.563  -0.387  1.00  0.00    -0.251 N 
ATOM     19  H1  UNL     1      -3.152   2.657  -0.244  1.00  0.00     0.196 HD
BRANCH  18  20
HETATM   20  O1  UNL     1      -4.829   3.411  -1.232  1.00  0.00    -0.288 OA
ATOM     21  H1  UNL     1      -4.336   4.087  -1.681  1.00  0.00     0.244 HD
ENDBRANCH  18  20
ENDBRANCH  15  16
ENDBRANCH   9  15
BRANCH  11  22
HETATM   22  O3  UNL     1      -1.892  -2.715   2.372  1.00  0.00    -0.393 OA
ATOM     23  H3  UNL     1      -2.204  -3.609   2.301  1.00  0.00     0.210 HD
ENDBRANCH  11  22
ENDBRANCH   7   8
ENDBRANCH   1   7
BRANCH   3  24
HETATM   24  O5  UNL     1       2.804   0.077  -0.449  1.00  0.00    -0.353 OA
BRANCH  24  25
HETATM   25  C12 UNL     1       3.857  -0.088   0.404  1.00  0.00     0.260 C 
HETATM   26  C13 UNL     1       3.577  -1.238   1.345  1.00  0.00     0.061 C 
HETATM   27  C14 UNL     1       4.779  -1.414   2.239  1.00  0.00     0.007 C 
HETATM   28  C15 UNL     1       5.695  -0.226   2.087  1.00  0.00     0.026 C 
HETATM   29  C16 UNL     1       6.145  -0.027   0.652  1.00  0.00     0.171 C 
HETATM   30  O6  UNL     1       5.085  -0.219  -0.236  1.00  0.00    -0.361 OA
ENDBRANCH  24  25
ENDBRANCH   3  24
BRANCH   5  31
HETATM   31  C19 UNL     1       2.098   0.320  -3.533  1.00  0.00     0.198 C 
BRANCH  31  32
HETATM   32  O8  UNL     1       1.364  -0.010  -4.658  1.00  0.00    -0.398 OA
ATOM     33  H8  UNL     1       1.869  -0.633  -5.168  1.00  0.00     0.209 HD
ENDBRANCH  31  32
ENDBRANCH   5  31
BRANCH   4  34
HETATM   34  O7  UNL     1       1.684   3.288  -1.499  1.00  0.00    -0.390 OA
ATOM     35  H7  UNL     1       1.669   3.738  -2.335  1.00  0.00     0.210 HD
ENDBRANCH   4  34
TORSDOF 11
