REMARK  9 active torsions:
REMARK  status: ('A' for Active; 'I' for Inactive)
REMARK    1  A    between atoms: N1_4  and  C4_5 
REMARK    2  A    between atoms: C6_7  and  N2_8 
REMARK    3  A    between atoms: C7_9  and  C8_10 
REMARK    4  A    between atoms: C8_10  and  S1_11 
REMARK    5  A    between atoms: S1_11  and  C9_12 
REMARK    6  A    between atoms: C9_12  and  C10_13 
REMARK    7  A    between atoms: C10_13  and  C11_14 
REMARK    8  A    between atoms: C16_26  and  N6_27 
REMARK    9  A    between atoms: C19_36  and  N8_37 
ROOT
HETATM    1  N2  UNL     1       0.186  -2.129  -0.481  1.00  0.00    -0.302 N 
HETATM    2  C7  UNL     1       0.981  -1.915  -1.526  1.00  0.00     0.097 A 
HETATM    3  N3  UNL     1       1.476  -3.124  -1.984  1.00  0.00    -0.329 N 
ATOM      4  H3  UNL     1       2.107  -3.271  -2.772  1.00  0.00     0.168 HD
HETATM    5  C14 UNL     1       0.957  -4.062  -1.181  1.00  0.00     0.139 A 
HETATM    6  N4  UNL     1       1.110  -5.413  -1.158  1.00  0.00    -0.337 N 
ATOM      7  H4  UNL     1       1.702  -5.864  -1.855  1.00  0.00     0.168 HD
HETATM    8  C15 UNL     1       0.497  -6.154  -0.238  1.00  0.00     0.183 A 
HETATM    9  N5  UNL     1      -0.285  -5.603   0.688  1.00  0.00    -0.337 N 
ATOM     10  H5  UNL     1      -0.742  -6.196   1.380  1.00  0.00     0.168 HD
HETATM   11  C16 UNL     1      -0.481  -4.250   0.720  1.00  0.00     0.131 A 
HETATM   12  C17 UNL     1       0.148  -3.473  -0.230  1.00  0.00     0.126 A 
ENDROOT
BRANCH   1  13
HETATM   13  C6  UNL     1      -0.613  -1.224   0.337  1.00  0.00     0.236 C 
HETATM   14  C5  UNL     1      -2.102  -1.262   0.101  1.00  0.00     0.108 C 
HETATM   15  C4  UNL     1      -1.821  -0.054  -0.671  1.00  0.00     0.238 C 
HETATM   16  O2  UNL     1      -0.576   0.060  -0.112  1.00  0.00    -0.341 OA
BRANCH  15  17
HETATM   17  N1  UNL     1      -2.699   1.082  -0.490  1.00  0.00    -0.282 N 
HETATM   18  C3  UNL     1      -3.257   1.375   0.697  1.00  0.00     0.108 A 
HETATM   19  C2  UNL     1      -4.082   2.463   0.813  1.00  0.00    -0.003 A 
HETATM   20  C1  UNL     1      -4.706   2.797   2.123  1.00  0.00     0.054 C 
HETATM   21  C19 UNL     1      -4.363   3.285  -0.272  1.00  0.00     0.110 A 
HETATM   22  N7  UNL     1      -3.780   2.951  -1.443  1.00  0.00    -0.294 N 
HETATM   23  C18 UNL     1      -2.964   1.870  -1.546  1.00  0.00     0.330 A 
ATOM     24  H7  UNL     1      -3.956   3.523  -2.269  1.00  0.00     0.172 HD
HETATM   25  O3  UNL     1      -2.478   1.661  -2.697  1.00  0.00    -0.246 OA
BRANCH  21  26
HETATM   26  N8  UNL     1      -5.140   4.306  -0.153  1.00  0.00    -0.385 N 
ATOM     27  H82 UNL     1      -5.580   4.558   0.732  1.00  0.00     0.157 HD
ATOM     28  H81 UNL     1      -5.346   4.909  -0.949  1.00  0.00     0.157 HD
ENDBRANCH  21  26
ENDBRANCH  15  17
ENDBRANCH   1  13
BRANCH   2  29
HETATM   29  C8  UNL     1       1.421  -0.655  -2.154  1.00  0.00     0.150 C 
BRANCH  29  30
HETATM   30  S1  UNL     1       3.074  -0.231  -1.484  1.00  0.00    -0.162 SA
BRANCH  30  31
HETATM   31  C9  UNL     1       2.986   0.141   0.262  1.00  0.00     0.077 C 
BRANCH  31  32
HETATM   32  C10 UNL     1       4.393   0.480   0.736  1.00  0.00     0.042 C 
BRANCH  32  33
HETATM   33  C11 UNL     1       4.861   1.676  -0.056  1.00  0.00     0.124 A 
HETATM   34  C12 UNL     1       3.967   2.856   0.153  1.00  0.00     0.058 A 
HETATM   35  C13 UNL     1       5.207   3.403   0.802  1.00  0.00     0.170 A 
HETATM   36  O1  UNL     1       5.963   2.279   0.504  1.00  0.00    -0.386 OA
ENDBRANCH  32  33
ENDBRANCH  31  32
ENDBRANCH  30  31
ENDBRANCH  29  30
ENDBRANCH   2  29
BRANCH  11  37
HETATM   37  N6  UNL     1      -1.212  -3.734   1.641  1.00  0.00    -0.383 N 
ATOM     38  H62 UNL     1      -1.677  -4.309   2.344  1.00  0.00     0.157 HD
ATOM     39  H61 UNL     1      -1.358  -2.725   1.665  1.00  0.00     0.157 HD
ENDBRANCH  11  37
TORSDOF 9
