REMARK  9 active torsions:
REMARK  status: ('A' for Active; 'I' for Inactive)
REMARK    1  A    between atoms: N1_1  and  C1_4 
REMARK    2  A    between atoms: N3_7  and  N4_8 
REMARK    3  A    between atoms: C2_11  and  N5_12 
REMARK    4  A    between atoms: N5_12  and  C3_14 
REMARK    5  A    between atoms: C4_16  and  N6_17 
REMARK    6  A    between atoms: C5_21  and  C6_22 
REMARK    7  A    between atoms: C8_24  and  C9_25 
REMARK    8  A    between atoms: C9_25  and  S1_26 
REMARK    9  A    between atoms: S1_26  and  C10_27 
ROOT
HETATM    1  C1  UNL     1      -1.490   2.360   2.031  1.00  0.00     0.128 A 
HETATM    2  N2  UNL     1      -2.699   2.774   1.744  1.00  0.00    -0.263 N 
ATOM      3  H2  UNL     1      -3.215   3.500   2.241  1.00  0.00     0.190 HD
HETATM    4  N3  UNL     1      -3.126   2.105   0.724  1.00  0.00    -0.184 N 
HETATM    5  C2  UNL     1      -2.162   1.173   0.288  1.00  0.00     0.155 A 
HETATM    6  C5  UNL     1      -1.117   1.341   1.116  1.00  0.00     0.063 A 
ENDROOT
BRANCH   6   7
HETATM    7  C6  UNL     1       0.223   0.730   1.289  1.00  0.00     0.165 C 
HETATM    8  C7  UNL     1       1.033   1.117   0.071  1.00  0.00     0.070 C 
HETATM    9  C8  UNL     1       1.672  -0.201   0.291  1.00  0.00     0.135 C 
HETATM   10  O2  UNL     1       0.386  -0.598   0.856  1.00  0.00    -0.375 OA
BRANCH   9  11
HETATM   11  C9  UNL     1       2.721  -0.202   1.382  1.00  0.00     0.114 C 
BRANCH  11  12
HETATM   12  S1  UNL     1       3.523  -1.877   1.434  1.00  0.00    -0.089 SA
BRANCH  12  13
HETATM   13  C10 UNL     1       4.570  -2.042  -0.006  1.00  0.00     0.176 A 
HETATM   14  N7  UNL     1       5.898  -1.719  -0.051  1.00  0.00    -0.263 N 
HETATM   15  N8  UNL     1       6.334  -1.923  -1.298  1.00  0.00    -0.226 N 
ATOM     16  H7  UNL     1       6.459  -1.381   0.731  1.00  0.00     0.190 HD
HETATM   17  N9  UNL     1       5.345  -2.363  -2.046  1.00  0.00    -0.226 N 
ATOM     18  H8  UNL     1       7.288  -1.762  -1.621  1.00  0.00     0.210 HD
HETATM   19  N10 UNL     1       4.266  -2.429  -1.225  1.00  0.00    -0.263 N 
ATOM     20  H9  UNL     1       5.381  -2.604  -3.036  1.00  0.00     0.210 HD
ATOM     21  H10 UNL     1       3.339  -2.739  -1.516  1.00  0.00     0.190 HD
ENDBRANCH  12  13
ENDBRANCH  11  12
ENDBRANCH   9  11
ENDBRANCH   6   7
BRANCH   1  22
HETATM   22  N1  UNL     1      -0.753   2.861   2.974  1.00  0.00    -0.384 N 
ATOM     23  H12 UNL     1      -1.021   3.593   3.632  1.00  0.00     0.157 HD
ATOM     24  H11 UNL     1       0.189   2.539   3.198  1.00  0.00     0.157 HD
ENDBRANCH   1  22
BRANCH   5  25
HETATM   25  N5  UNL     1      -2.396   0.302  -0.771  1.00  0.00    -0.343 N 
ATOM     26  H5  UNL     1      -3.203   0.589  -1.325  1.00  0.00     0.164 HD
BRANCH  25  27
HETATM   27  C3  UNL     1      -1.809  -0.869  -1.275  1.00  0.00     0.281 A 
HETATM   28  O1  UNL     1      -2.007  -2.044  -0.377  1.00  0.00    -0.326 OA
HETATM   29  C4  UNL     1      -2.621  -2.010  -1.720  1.00  0.00     0.369 A 
BRANCH  29  30
HETATM   30  N6  UNL     1      -1.954  -2.906  -2.623  1.00  0.00    -0.049 N 
ATOM     31  H63 UNL     1      -1.593  -2.393  -3.428  1.00  0.00     0.277 HD
ATOM     32  H62 UNL     1      -1.078  -3.233  -2.215  1.00  0.00     0.277 HD
ATOM     33  H61 UNL     1      -2.518  -3.698  -2.932  1.00  0.00     0.277 HD
ENDBRANCH  29  30
ENDBRANCH  25  27
ENDBRANCH   5  25
BRANCH   4  34
HETATM   34  N4  UNL     1      -4.366   2.257   0.127  1.00  0.00    -0.322 N 
ATOM     35  H42 UNL     1      -5.063   2.931   0.442  1.00  0.00     0.179 HD
ATOM     36  H41 UNL     1      -4.703   1.729  -0.678  1.00  0.00     0.179 HD
ENDBRANCH   4  34
TORSDOF 9
