REMARK  11 active torsions:
REMARK  status: ('A' for Active; 'I' for Inactive)
REMARK    1  A    between atoms: C2_2  and  C3_6 
REMARK    2  A    between atoms: C3_6  and  N2_7 
REMARK    3  A    between atoms: N2_7  and  C4_9 
REMARK    4  A    between atoms: C4_9  and  O1_13 
REMARK    5  A    between atoms: O1_13  and  N4_14 
REMARK    6  A    between atoms: C5_16  and  N5_18 
REMARK    7  A    between atoms: N5_18  and  O2_20 
REMARK    8  A    between atoms: O2_20  and  C7_21 
REMARK       I    between atoms: C7_21  and  N6_23 
REMARK    9  A    between atoms: N6_23  and  C8_25 
REMARK   10  A    between atoms: C8_25  and  N7_26 
REMARK   11  A    between atoms: C10_30  and  N10_31 
ROOT
HETATM    1  N4  UNL     1       2.082  -2.510   0.149  1.00  0.00    -0.244 N 
ATOM      2  H4  UNL     1       2.688  -3.115   0.703  1.00  0.00     0.196 HD
HETATM    3  C5  UNL     1       0.849  -2.367   0.461  1.00  0.00     0.118 C 
HETATM    4  C6  UNL     1       0.260  -3.066   1.623  1.00  0.00     0.093 C 
ENDROOT
BRANCH   3   5
HETATM    5  N5  UNL     1       0.034  -1.519  -0.327  1.00  0.00    -0.243 N 
ATOM      6  H5  UNL     1      -0.094  -1.691  -1.324  1.00  0.00     0.196 HD
BRANCH   5   7
HETATM    7  O2  UNL     1      -0.581  -0.455   0.293  1.00  0.00    -0.180 OA
BRANCH   7   8
HETATM    8  C7  UNL     1      -1.588   0.195  -0.376  1.00  0.00     0.384 C 
HETATM    9  O3  UNL     1      -1.917  -0.198  -1.525  1.00  0.00    -0.236 OA
HETATM   10  N6  UNL     1      -2.297   1.303   0.155  1.00  0.00    -0.309 N 
ATOM     11  H6  UNL     1      -2.046   1.637   1.085  1.00  0.00     0.166 HD
BRANCH  10  12
HETATM   12  C8  UNL     1      -3.355   1.981  -0.554  1.00  0.00     0.405 C 
BRANCH  12  13
HETATM   13  N7  UNL     1      -4.386   1.044  -0.835  1.00  0.00     0.168 N 
HETATM   14  C9  UNL     1      -5.513   1.504  -1.555  1.00  0.00     0.408 C 
HETATM   15  N8  UNL     1      -6.546   1.603  -0.543  1.00  0.00    -0.114 NA
HETATM   16  N9  UNL     1      -6.352   0.398   0.171  1.00  0.00    -0.084 NA
HETATM   17  C10 UNL     1      -4.885   0.276   0.242  1.00  0.00     0.530 C 
BRANCH  17  18
HETATM   18  N10 UNL     1      -4.454   0.869   1.497  1.00  0.00    -0.032 N 
ATOM     19 3H10 UNL     1      -3.442   0.985   1.542  1.00  0.00     0.278 HD
ATOM     20 2H10 UNL     1      -4.716   1.852   1.570  1.00  0.00     0.278 HD
ATOM     21 1H10 UNL     1      -4.814   0.315   2.274  1.00  0.00     0.278 HD
ENDBRANCH  17  18
ENDBRANCH  12  13
ENDBRANCH  10  12
ENDBRANCH   7   8
ENDBRANCH   5   7
ENDBRANCH   3   5
BRANCH   1  22
HETATM   22  O1  UNL     1       2.576  -1.840  -0.937  1.00  0.00    -0.200 OA
BRANCH  22  23
HETATM   23  C4  UNL     1       3.261  -0.653  -0.705  1.00  0.00     0.237 C 
HETATM   24  N3  UNL     1       2.933   0.017   0.340  1.00  0.00    -0.364 N 
ATOM     25  H32 UNL     1       3.436   0.888   0.510  1.00  0.00     0.159 HD
ATOM     26  H31 UNL     1       2.197  -0.333   0.954  1.00  0.00     0.159 HD
BRANCH  23  27
HETATM   27  N2  UNL     1       4.282  -0.167  -1.557  1.00  0.00    -0.350 N 
ATOM     28  H2  UNL     1       4.247  -0.358  -2.558  1.00  0.00     0.163 HD
BRANCH  27  29
HETATM   29  C3  UNL     1       5.360   0.591  -1.010  1.00  0.00     0.174 C 
BRANCH  29  30
HETATM   30  C2  UNL     1       6.238  -0.242  -0.153  1.00  0.00    -0.006 C 
HETATM   31  C1  UNL     1       7.394   0.458   0.526  1.00  0.00     0.064 C 
HETATM   32  N1  UNL     1       6.122  -1.476   0.066  1.00  0.00    -0.405 N 
ATOM     33  H12 UNL     1       6.726  -2.049   0.655  1.00  0.00     0.155 HD
ATOM     34  H11 UNL     1       5.342  -1.948  -0.392  1.00  0.00     0.155 HD
ENDBRANCH  29  30
ENDBRANCH  27  29
ENDBRANCH  23  27
ENDBRANCH  22  23
ENDBRANCH   1  22
TORSDOF 11
