REMARK  10 active torsions:
REMARK  status: ('A' for Active; 'I' for Inactive)
REMARK    1  A    between atoms: N1_1  and  C1_4 
REMARK    2  A    between atoms: C2_7  and  C3_8 
REMARK    3  A    between atoms: C3_8  and  S1_9 
REMARK    4  A    between atoms: C4_11  and  N3_12 
REMARK    5  A    between atoms: C8_17  and  N4_18 
REMARK    6  A    between atoms: N4_18  and  N5_20 
REMARK    7  A    between atoms: N5_20  and  C9_22 
REMARK    8  A    between atoms: C9_22  and  O2_23 
REMARK    9  A    between atoms: C9_22  and  N6_25 
REMARK   10  A    between atoms: N6_25  and  N7_27 
ROOT
HETATM    1  C1  UNL     1      -0.691   2.307  -1.563  1.00  0.00     0.677 A 
HETATM    2  N2  UNL     1      -1.899   1.967  -1.146  1.00  0.00    -0.193 N 
ATOM      3  H2  UNL     1      -2.675   2.585  -1.385  1.00  0.00     0.184 HD
HETATM    4  C2  UNL     1      -2.181   0.845  -0.417  1.00  0.00     0.067 A 
HETATM    5  C4  UNL     1      -1.137   0.040  -0.115  1.00  0.00     0.102 A 
HETATM    6  C8  UNL     1       0.152   0.423  -0.557  1.00  0.00     0.164 A 
HETATM    7  N8  UNL     1       0.402   1.531  -1.272  1.00  0.00    -0.173 N 
ATOM      8  H8  UNL     1       1.343   1.780  -1.579  1.00  0.00     0.186 HD
ENDROOT
BRANCH   6   9
HETATM    9  N4  UNL     1       1.161  -0.280  -0.216  1.00  0.00    -0.284 N 
ATOM     10  H4  UNL     1       0.990  -1.104   0.361  1.00  0.00     0.188 HD
BRANCH   9  11
HETATM   11  N5  UNL     1       2.462  -0.009  -0.569  1.00  0.00    -0.288 N 
ATOM     12  H5  UNL     1       2.617   0.725  -1.260  1.00  0.00     0.185 HD
BRANCH  11  13
HETATM   13  C9  UNL     1       3.639  -0.687  -0.035  1.00  0.00     0.356 C 
BRANCH  13  14
HETATM   14  O2  UNL     1       4.164  -1.549  -0.986  1.00  0.00    -0.358 OA
ATOM     15  H2  UNL     1       4.930  -1.990  -0.638  1.00  0.00     0.214 HD
ENDBRANCH  13  14
BRANCH  13  16
HETATM   16  N6  UNL     1       4.516   0.316   0.451  1.00  0.00    -0.296 N 
ATOM     17  H6  UNL     1       4.239   1.297   0.477  1.00  0.00     0.184 HD
BRANCH  16  18
HETATM   18  N7  UNL     1       5.753  -0.090   0.885  1.00  0.00    -0.346 N 
ATOM     19  H72 UNL     1       6.015  -1.075   0.853  1.00  0.00     0.176 HD
ATOM     20  H71 UNL     1       6.384   0.631   1.235  1.00  0.00     0.176 HD
ENDBRANCH  16  18
ENDBRANCH  13  16
ENDBRANCH  11  13
ENDBRANCH   9  11
ENDBRANCH   6   9
BRANCH   5  21
HETATM   21  N3  UNL     1      -1.306  -1.199   0.537  1.00  0.00    -0.353 N 
HETATM   22  C5  UNL     1      -2.471  -2.009   0.793  1.00  0.00     0.151 C 
HETATM   23  C6  UNL     1      -1.871  -3.345   1.296  1.00  0.00     0.189 C 
HETATM   24  O1  UNL     1      -0.899  -2.821   2.131  1.00  0.00    -0.370 OA
HETATM   25  C7  UNL     1      -0.239  -1.919   1.235  1.00  0.00     0.293 C 
ENDBRANCH   5  21
BRANCH   4  26
HETATM   26  C3  UNL     1      -3.614   0.599  -0.066  1.00  0.00     0.147 C 
BRANCH  26  27
HETATM   27  S1  UNL     1      -3.998   1.667   1.429  1.00  0.00    -0.079 SA
HETATM   28  S2  UNL     1      -3.311   3.615   1.211  1.00  0.00    -0.013 SA
ENDBRANCH  26  27
ENDBRANCH   4  26
BRANCH   1  29
HETATM   29  N1  UNL     1      -0.426   3.318  -2.331  1.00  0.00    -0.234 N 
ATOM     30  H12 UNL     1      -1.239   3.895  -2.547  1.00  0.00     0.174 HD
ATOM     31  H11 UNL     1       0.506   3.580  -2.653  1.00  0.00     0.174 HD
ENDBRANCH   1  29
TORSDOF 10
