REMARK  9 active torsions:
REMARK  status: ('A' for Active; 'I' for Inactive)
REMARK    1  A    between atoms: N1_1  and  C1_4 
REMARK    2  A    between atoms: C2_7  and  S1_8 
REMARK    3  A    between atoms: S1_8  and  S2_9 
REMARK    4  A    between atoms: S2_9  and  C3_10 
REMARK    5  A    between atoms: C4_13  and  C5_14 
REMARK    6  A    between atoms: C5_14  and  N4_15 
REMARK    7  A    between atoms: C5_14  and  C6_19 
REMARK    8  A    between atoms: C7_22  and  N5_23 
REMARK    9  A    between atoms: C8_26  and  N6_27 
ROOT
HETATM    1  C1  UNL     1      -3.608  -1.481   0.077  1.00  0.00     0.678 A 
HETATM    2  N2  UNL     1      -2.458  -0.876   0.471  1.00  0.00    -0.183 N 
ATOM      3  H2  UNL     1      -1.823  -1.373   1.096  1.00  0.00     0.185 HD
HETATM    4  C2  UNL     1      -2.138   0.354   0.060  1.00  0.00     0.133 A 
HETATM    5  C7  UNL     1      -2.993   1.012  -0.778  1.00  0.00     0.181 A 
HETATM    6  C8  UNL     1      -4.165   0.434  -1.201  1.00  0.00     0.151 A 
HETATM    7  N7  UNL     1      -4.445  -0.824  -0.751  1.00  0.00    -0.175 N 
ATOM      8  H7  UNL     1      -5.309  -1.278  -1.048  1.00  0.00     0.186 HD
ENDROOT
BRANCH   4   9
HETATM    9  S1  UNL     1      -0.642   1.118   0.593  1.00  0.00    -0.035 SA
BRANCH   9  10
HETATM   10  S2  UNL     1       0.479  -0.085   1.910  1.00  0.00    -0.064 SA
BRANCH  10  11
HETATM   11  C3  UNL     1       1.653  -1.163   1.086  1.00  0.00     0.212 C 
HETATM   12  N3  UNL     1       2.344  -1.961   2.121  1.00  0.00    -0.081 NA
HETATM   13  O1  UNL     1       3.032  -0.793   2.369  1.00  0.00    -0.275 OA
HETATM   14  C4  UNL     1       3.077  -0.656   0.986  1.00  0.00     0.220 C 
BRANCH  14  15
HETATM   15  C5  UNL     1       3.264   0.721   0.435  1.00  0.00     0.316 C 
BRANCH  15  16
HETATM   16  N4  UNL     1       4.497   1.340   0.873  1.00  0.00    -0.062 N 
ATOM     17  H43 UNL     1       4.562   1.342   1.891  1.00  0.00     0.275 HD
ATOM     18  H42 UNL     1       5.299   0.748   0.656  1.00  0.00     0.275 HD
ATOM     19  H41 UNL     1       4.625   2.280   0.497  1.00  0.00     0.275 HD
ENDBRANCH  15  16
BRANCH  15  20
HETATM   20  C6  UNL     1       3.335   0.583  -1.043  1.00  0.00     0.207 C 
HETATM   21  O2  UNL     1       2.371   0.040  -1.676  1.00  0.00    -0.646 OA
HETATM   22  O3  UNL     1       4.426   1.030  -1.746  1.00  0.00    -0.646 OA
ENDBRANCH  15  20
ENDBRANCH  14  15
ENDBRANCH  10  11
ENDBRANCH   9  10
ENDBRANCH   4   9
BRANCH   5  23
HETATM   23  N5  UNL     1      -2.656   2.318  -1.201  1.00  0.00    -0.109 N 
HETATM   24  O4  UNL     1      -1.773   2.488  -2.050  1.00  0.00    -0.532 OA
HETATM   25  O5  UNL     1      -3.321   3.391  -0.662  1.00  0.00    -0.532 OA
ENDBRANCH   5  23
BRANCH   1  26
HETATM   26  N1  UNL     1      -3.946  -2.661   0.456  1.00  0.00    -0.234 N 
ATOM     27  H12 UNL     1      -3.313  -3.158   1.082  1.00  0.00     0.174 HD
ATOM     28  H11 UNL     1      -4.810  -3.115   0.160  1.00  0.00     0.174 HD
ENDBRANCH   1  26
BRANCH   6  29
HETATM   29  N6  UNL     1      -4.984   1.010  -1.978  1.00  0.00    -0.383 N 
ATOM     30  H62 UNL     1      -4.775   1.950  -2.314  1.00  0.00     0.157 HD
ATOM     31  H61 UNL     1      -5.854   0.581  -2.292  1.00  0.00     0.157 HD
ENDBRANCH   6  29
TORSDOF 9
