REMARK  4 active torsions:
REMARK  status: ('A' for Active; 'I' for Inactive)
REMARK    1  A    between atoms: C6_6  and  N1_7 
REMARK    2  A    between atoms: C7_10  and  C8_11 
REMARK    3  A    between atoms: C15_18  and  N3_19 
REMARK       I    between atoms: N3_19  and  C16_21 
REMARK    4  A    between atoms: C16_21  and  C17_23 
ROOT
HETATM    1  C1  UNL     1      -1.496   7.586  -1.237  1.00  0.00     0.018 C 
HETATM    2  C2  UNL     1      -1.432   6.390  -1.088  1.00  0.00    -0.076 C 
HETATM    3  C3  UNL     1      -1.379   4.966  -0.900  1.00  0.00     0.032 A 
HETATM    4  C4  UNL     1      -2.541   4.221  -0.828  1.00  0.00     0.026 A 
HETATM    5  C5  UNL     1      -2.473   2.854  -0.647  1.00  0.00     0.052 A 
HETATM    6  C6  UNL     1      -1.252   2.199  -0.534  1.00  0.00     0.129 A 
HETATM    7  N5  UNL     1      -0.153   2.928  -0.606  1.00  0.00    -0.349 N 
ATOM      8  H5  UNL     1       0.752   2.464  -0.526  1.00  0.00     0.167 HD
HETATM    9  C23 UNL     1      -0.186   4.275  -0.783  1.00  0.00     0.110 A 
ENDROOT
BRANCH   6  10
HETATM   10  N1  UNL     1      -1.263   0.781  -0.348  1.00  0.00    -0.223 N 
HETATM   11  N2  UNL     1      -2.279   0.083   0.180  1.00  0.00    -0.290 N 
HETATM   12  C7  UNL     1      -1.953  -1.221   0.206  1.00  0.00     0.062 A 
ATOM     13  H2  UNL     1      -3.159   0.479   0.510  1.00  0.00     0.187 HD
HETATM   14  C14 UNL     1      -0.697  -1.356  -0.320  1.00  0.00     0.082 A 
HETATM   15  C15 UNL     1      -0.276  -0.075  -0.666  1.00  0.00     0.134 A 
BRANCH  12  16
HETATM   16  C8  UNL     1      -2.786  -2.313   0.705  1.00  0.00    -0.008 A 
HETATM   17  C9  UNL     1      -4.048  -2.101   1.223  1.00  0.00     0.014 A 
HETATM   18  C10 UNL     1      -4.836  -3.128   1.695  1.00  0.00     0.001 A 
HETATM   19  C11 UNL     1      -4.381  -4.430   1.665  1.00  0.00     0.000 A 
HETATM   20  C12 UNL     1      -3.124  -4.644   1.149  1.00  0.00     0.001 A 
HETATM   21  C13 UNL     1      -2.335  -3.616   0.677  1.00  0.00     0.014 A 
ENDBRANCH  12  16
BRANCH  15  22
HETATM   22  N3  UNL     1       0.849   0.284  -1.198  1.00  0.00    -0.307 N 
HETATM   23  C16 UNL     1       1.851  -0.681  -1.507  1.00  0.00     0.257 C 
HETATM   24  O1  UNL     1       1.587  -1.485  -2.434  1.00  0.00    -0.267 OA
ATOM     25  H3  UNL     1       1.020   1.269  -1.398  1.00  0.00     0.170 HD
BRANCH  23  26
HETATM   26  C17 UNL     1       3.118  -0.749  -0.802  1.00  0.00     0.032 A 
HETATM   27  C18 UNL     1       4.029  -1.716  -1.169  1.00  0.00     0.019 A 
HETATM   28  C19 UNL     1       5.228  -1.798  -0.518  1.00  0.00     0.027 A 
HETATM   29  C20 UNL     1       5.560  -0.934   0.507  1.00  0.00     0.046 A 
HETATM   30  N4  UNL     1       6.807  -1.036   1.168  1.00  0.00    -0.102 NA
HETATM   31  C21 UNL     1       4.665   0.039   0.889  1.00  0.00     0.027 A 
HETATM   32  C22 UNL     1       3.454   0.109   0.220  1.00  0.00     0.019 A 
ENDBRANCH  23  26
ENDBRANCH  15  22
ENDBRANCH   6  10
TORSDOF 4
