REMARK  6 active torsions:
REMARK  status: ('A' for Active; 'I' for Inactive)
REMARK    1  A    between atoms: C2_2  and  C3_4 
REMARK    2  A    between atoms: C6_7  and  C7_8 
REMARK    3  A    between atoms: C8_9  and  C9_10 
REMARK    4  A    between atoms: C11_14  and  N2_15 
REMARK    5  A    between atoms: N2_15  and  C12_17 
REMARK    6  A    between atoms: C12_17  and  C14_19 
ROOT
HETATM    1  C9  UNL     1       0.637  -1.638  -0.431  1.00  0.00     0.164 A 
HETATM    2  N1  UNL     1      -0.359  -0.778  -0.633  1.00  0.00    -0.329 N 
ATOM      3  H1  UNL     1      -0.253   0.237  -0.639  1.00  0.00     0.168 HD
HETATM    4  C10 UNL     1      -1.531  -1.428  -0.830  1.00  0.00     0.123 A 
HETATM    5  C11 UNL     1      -2.817  -0.995  -1.075  1.00  0.00     0.133 A 
HETATM    6  N3  UNL     1      -3.756  -1.945  -1.222  1.00  0.00    -0.337 N 
ATOM      7  H3  UNL     1      -4.719  -1.661  -1.403  1.00  0.00     0.168 HD
HETATM    8  C20 UNL     1      -3.469  -3.273  -1.138  1.00  0.00     0.183 A 
HETATM    9  N4  UNL     1      -2.217  -3.661  -0.901  1.00  0.00    -0.337 N 
ATOM     10  H4  UNL     1      -2.008  -4.658  -0.839  1.00  0.00     0.168 HD
HETATM   11  C21 UNL     1      -1.221  -2.771  -0.741  1.00  0.00     0.139 A 
HETATM   12  N5  UNL     1       0.092  -2.887  -0.500  1.00  0.00    -0.319 N 
ATOM     13  H5  UNL     1       0.600  -3.764  -0.387  1.00  0.00     0.169 HD
ENDROOT
BRANCH   1  14
HETATM   14  C8  UNL     1       2.007  -1.283  -0.191  1.00  0.00    -0.025 C 
HETATM   15  C7  UNL     1       3.153  -0.966   0.007  1.00  0.00    -0.059 C 
BRANCH  15  16
HETATM   16  C6  UNL     1       4.531  -0.560   0.241  1.00  0.00     0.018 A 
HETATM   17  C5  UNL     1       4.886   0.711  -0.086  1.00  0.00     0.021 A 
HETATM   18  C4  UNL     1       6.197   1.126   0.127  1.00  0.00     0.016 A 
HETATM   19  C3  UNL     1       7.140   0.254   0.669  1.00  0.00     0.009 A 
HETATM   20  C23 UNL     1       6.779  -1.032   1.001  1.00  0.00     0.016 A 
HETATM   21  C22 UNL     1       5.469  -1.400   0.771  1.00  0.00     0.021 A 
BRANCH  19  22
HETATM   22  C2  UNL     1       8.498   0.696   0.887  1.00  0.00     0.155 C 
HETATM   23  C1  UNL     1       8.966   2.069   0.557  1.00  0.00     0.096 C 
HETATM   24  O1  UNL     1       9.337  -0.105   1.377  1.00  0.00    -0.293 OA
ENDBRANCH  19  22
ENDBRANCH  15  16
ENDBRANCH   1  14
BRANCH   5  25
HETATM   25  N2  UNL     1      -3.098   0.256  -1.156  1.00  0.00    -0.366 N 
ATOM     26  H2  UNL     1      -2.335   0.921  -1.033  1.00  0.00     0.161 HD
BRANCH  25  27
HETATM   27  C12 UNL     1      -4.402   0.782  -1.406  1.00  0.00     0.112 C 
HETATM   28  C13 UNL     1      -4.213   2.222  -1.900  1.00  0.00     0.037 C 
BRANCH  27  29
HETATM   29  C14 UNL     1      -5.184   0.898  -0.137  1.00  0.00    -0.036 A 
HETATM   30  C15 UNL     1      -6.484   0.507  -0.008  1.00  0.00     0.009 A 
HETATM   31  C16 UNL     1      -7.169   0.635   1.193  1.00  0.00     0.001 A 
HETATM   32  C17 UNL     1      -6.516   1.169   2.272  1.00  0.00     0.000 A 
HETATM   33  C18 UNL     1      -5.199   1.571   2.161  1.00  0.00     0.001 A 
HETATM   34  C19 UNL     1      -4.523   1.436   0.948  1.00  0.00     0.009 A 
ENDBRANCH  27  29
ENDBRANCH  25  27
ENDBRANCH   5  25
TORSDOF 6
