REMARK  4 active torsions:
REMARK  status: ('A' for Active; 'I' for Inactive)
REMARK    1  A    between atoms: C2_2  and  C3_3 
REMARK       I    between atoms: C3_3  and  N1_5 
REMARK    2  A    between atoms: N1_5  and  C4_7 
REMARK    3  A    between atoms: C6_9  and  C7_10 
REMARK    4  A    between atoms: C10_13  and  C11_14 
ROOT
HETATM    1  C7  UNL     1       0.466   1.110  -0.034  1.00  0.00    -0.009 A 
HETATM    2  C8  UNL     1      -0.459   2.009  -0.503  1.00  0.00     0.014 A 
HETATM    3  C9  UNL     1      -1.816   1.779  -0.322  1.00  0.00     0.013 A 
HETATM    4  C10 UNL     1      -2.297   0.669   0.319  1.00  0.00    -0.024 A 
HETATM    5  C18 UNL     1      -1.358  -0.215   0.779  1.00  0.00     0.013 A 
HETATM    6  C19 UNL     1       0.003  -0.018   0.616  1.00  0.00     0.014 A 
ENDROOT
BRANCH   1   7
HETATM    7  C6  UNL     1       1.911   1.306  -0.200  1.00  0.00     0.046 A 
HETATM    8  C5  UNL     1       2.848   0.410   0.267  1.00  0.00     0.079 A 
HETATM    9  C4  UNL     1       4.210   0.621   0.096  1.00  0.00     0.110 A 
HETATM   10  N4  UNL     1       4.610   1.725  -0.538  1.00  0.00    -0.338 N 
HETATM   11  C20 UNL     1       3.720   2.624  -1.009  1.00  0.00     0.182 A 
ATOM     12  H4  UNL     1       5.608   1.893  -0.669  1.00  0.00     0.168 HD
HETATM   13  N3  UNL     1       2.391   2.392  -0.828  1.00  0.00    -0.352 N 
ATOM     14  H3  UNL     1       1.726   3.077  -1.187  1.00  0.00     0.166 HD
BRANCH   9  15
HETATM   15  N1  UNL     1       5.029  -0.231   0.543  1.00  0.00    -0.309 N 
HETATM   16  C3  UNL     1       6.439  -0.102   0.416  1.00  0.00     0.245 C 
HETATM   17  O1  UNL     1       6.959   1.018   0.629  1.00  0.00    -0.268 OA
ATOM     18  H1  UNL     1       4.659  -1.054   1.019  1.00  0.00     0.170 HD
BRANCH  16  19
HETATM   19  C2  UNL     1       7.263  -1.230   0.052  1.00  0.00     0.064 C 
HETATM   20  C1  UNL     1       6.746  -2.442  -0.183  1.00  0.00     0.017 C 
ENDBRANCH  16  19
ENDBRANCH   9  15
ENDBRANCH   1   7
BRANCH   4  21
HETATM   21  C11 UNL     1      -3.767   0.484   0.542  1.00  0.00    -0.002 A 
HETATM   22  C12 UNL     1      -4.421   1.397   1.345  1.00  0.00     0.063 A 
HETATM   23  S1  UNL     1      -6.010   0.818   1.400  1.00  0.00    -0.100 SA
HETATM   24  C13 UNL     1      -5.839  -0.561   0.414  1.00  0.00     0.022 A 
HETATM   25  C14 UNL     1      -6.720  -1.566  -0.034  1.00  0.00     0.037 A 
HETATM   26  C17 UNL     1      -4.519  -0.536   0.059  1.00  0.00     0.061 A 
HETATM   27  C15 UNL     1      -6.283  -2.578  -0.862  1.00  0.00     0.092 A 
HETATM   28  N2  UNL     1      -4.983  -2.518  -1.190  1.00  0.00    -0.333 N 
HETATM   29  C16 UNL     1      -4.116  -1.588  -0.789  1.00  0.00     0.257 A 
ATOM     30  H2  UNL     1      -4.625  -3.251  -1.802  1.00  0.00     0.168 HD
HETATM   31  O2  UNL     1      -2.939  -1.700  -1.207  1.00  0.00    -0.267 OA
ENDBRANCH   4  21
TORSDOF 4
