REMARK  5 active torsions:
REMARK  status: ('A' for Active; 'I' for Inactive)
REMARK    1  A    between atoms: C5_5  and  C6_6 
REMARK    2  A    between atoms: C9_11  and  N2_12 
REMARK    3  A    between atoms: N2_12  and  C10_14 
REMARK    4  A    between atoms: C14_20  and  C15_21 
REMARK       I    between atoms: C15_21  and  N4_23 
REMARK    5  A    between atoms: N4_23  and  C16_25 
ROOT
HETATM    1  C10 UNL     1       0.889  -1.066  -0.386  1.00  0.00     0.081 A 
HETATM    2  C11 UNL     1       0.103  -1.176  -1.506  1.00  0.00     0.034 A 
HETATM    3  C12 UNL     1       0.452  -0.413  -2.602  1.00  0.00     0.019 A 
HETATM    4  C13 UNL     1       1.549   0.422  -2.560  1.00  0.00     0.088 A 
HETATM    5  N3  UNL     1       2.287   0.492  -1.433  1.00  0.00    -0.360 N 
ATOM      6  H3  UNL     1       3.096   1.113  -1.412  1.00  0.00     0.165 HD
HETATM    7  C14 UNL     1       1.996  -0.223  -0.346  1.00  0.00     0.128 A 
ENDROOT
BRANCH   1   8
HETATM    8  N2  UNL     1       0.614  -1.816   0.782  1.00  0.00    -0.189 N 
ATOM      9  H2  UNL     1       1.332  -2.417   1.186  1.00  0.00     0.184 HD
BRANCH   8  10
HETATM   10  C9  UNL     1      -0.538  -1.736   1.328  1.00  0.00     0.683 A 
HETATM   11  N1  UNL     1      -0.845  -2.434   2.444  1.00  0.00    -0.202 N 
HETATM   12  C8  UNL     1      -2.064  -2.328   2.992  1.00  0.00     0.108 A 
ATOM     13  H1  UNL     1      -0.147  -3.043   2.871  1.00  0.00     0.183 HD
HETATM   14  C7  UNL     1      -3.050  -1.503   2.438  1.00  0.00     0.048 A 
HETATM   15  C6  UNL     1      -2.729  -0.785   1.288  1.00  0.00     0.060 A 
HETATM   16  N6  UNL     1      -1.482  -0.955   0.810  1.00  0.00    -0.191 N 
ATOM     17  H6  UNL     1      -1.237  -0.434  -0.032  1.00  0.00     0.184 HD
BRANCH  15  18
HETATM   18  C5  UNL     1      -3.692   0.095   0.650  1.00  0.00    -0.009 A 
HETATM   19  C4  UNL     1      -4.967   0.267   1.116  1.00  0.00     0.014 A 
HETATM   20  C3  UNL     1      -5.876   1.116   0.493  1.00  0.00     0.007 A 
HETATM   21  C2  UNL     1      -5.454   1.793  -0.631  1.00  0.00    -0.062 A 
HETATM   22  C1  UNL     1      -6.425   2.706  -1.304  1.00  0.00     0.048 C 
HETATM   23  C22 UNL     1      -4.184   1.650  -1.135  1.00  0.00     0.007 A 
HETATM   24  C21 UNL     1      -3.308   0.788  -0.474  1.00  0.00     0.014 A 
ENDBRANCH  15  18
ENDBRANCH   8  10
ENDBRANCH   1   8
BRANCH   7  25
HETATM   25  C15 UNL     1       2.813  -0.126   0.854  1.00  0.00     0.275 C 
HETATM   26  O1  UNL     1       2.557  -0.785   1.883  1.00  0.00    -0.266 OA
HETATM   27  N4  UNL     1       3.943   0.740   0.878  1.00  0.00    -0.322 N 
ATOM     28  H4  UNL     1       3.847   1.639   1.350  1.00  0.00     0.169 HD
BRANCH  27  29
HETATM   29  C16 UNL     1       5.063   0.463   0.348  1.00  0.00     0.037 A 
HETATM   30  C17 UNL     1       6.098   1.354   0.419  1.00  0.00     0.046 A 
HETATM   31  C18 UNL     1       7.322   1.032  -0.173  1.00  0.00     0.090 A 
HETATM   32  N5  UNL     1       7.461  -0.146  -0.801  1.00  0.00    -0.375 N 
HETATM   33  C19 UNL     1       6.464  -1.060  -0.896  1.00  0.00     0.090 A 
ATOM     34  H5  UNL     1       8.361  -0.364  -1.228  1.00  0.00     0.164 HD
HETATM   35  C20 UNL     1       5.250  -0.726  -0.302  1.00  0.00     0.046 A 
ENDBRANCH  27  29
ENDBRANCH   7  25
TORSDOF 5
