REMARK  4 active torsions:
REMARK  status: ('A' for Active; 'I' for Inactive)
REMARK    1  A    between atoms: C5_9  and  C6_10 
REMARK    2  A    between atoms: C6_10  and  C7_11 
REMARK    3  A    between atoms: C14_19  and  C15_20 
REMARK       I    between atoms: C15_20  and  N4_22 
REMARK    4  A    between atoms: N4_22  and  C16_24 
ROOT
HETATM    1  C1  UNL     1       1.402  -2.619  -1.609  1.00  0.00     0.070 C 
HETATM    2  C2  UNL     1       0.195  -2.253  -0.863  1.00  0.00     0.040 A 
HETATM    3  N1  UNL     1      -0.780  -3.171  -0.589  1.00  0.00    -0.194 N 
ATOM      4  H1  UNL     1      -0.657  -4.130  -0.915  1.00  0.00     0.184 HD
HETATM    5  C3  UNL     1      -1.894  -2.859   0.093  1.00  0.00     0.689 A 
HETATM    6  N2  UNL     1      -2.976  -3.567   0.483  1.00  0.00    -0.199 N 
ATOM      7  H2  UNL     1      -3.125  -4.559   0.296  1.00  0.00     0.183 HD
HETATM    8  C4  UNL     1      -3.817  -2.782   1.146  1.00  0.00     0.132 A 
HETATM    9  C5  UNL     1      -3.247  -1.504   1.186  1.00  0.00     0.054 A 
HETATM   10  N3  UNL     1      -2.084  -1.606   0.534  1.00  0.00    -0.159 N 
HETATM   11  C13 UNL     1      -1.153  -0.692   0.282  1.00  0.00     0.134 A 
HETATM   12  C14 UNL     1       0.016  -0.975  -0.422  1.00  0.00     0.072 A 
ENDROOT
BRANCH  12  13
HETATM   13  C15 UNL     1       0.969   0.062  -0.652  1.00  0.00     0.273 C 
HETATM   14  O1  UNL     1       0.727   1.243  -0.203  1.00  0.00    -0.267 OA
HETATM   15  N4  UNL     1       2.196  -0.022  -1.333  1.00  0.00    -0.155 N 
ATOM     16  H4  UNL     1       2.209  -0.468  -2.250  1.00  0.00     0.187 HD
BRANCH  15  17
HETATM   17  C16 UNL     1       3.310   0.435  -0.860  1.00  0.00     0.686 A 
HETATM   18  N5  UNL     1       3.575   1.048   0.285  1.00  0.00    -0.189 N 
HETATM   19  C17 UNL     1       4.899   1.350   0.354  1.00  0.00     0.076 A 
ATOM     20  H5  UNL     1       2.887   1.262   1.007  1.00  0.00     0.184 HD
HETATM   21  C18 UNL     1       5.692   1.967   1.288  1.00  0.00     0.032 A 
HETATM   22  C22 UNL     1       5.459   0.893  -0.813  1.00  0.00     0.076 A 
HETATM   23  C19 UNL     1       7.050   2.155   1.111  1.00  0.00     0.002 A 
HETATM   24  C20 UNL     1       7.570   1.681  -0.075  1.00  0.00     0.002 A 
HETATM   25  C21 UNL     1       6.807   1.061  -1.027  1.00  0.00     0.032 A 
HETATM   26  N6  UNL     1       4.474   0.344  -1.528  1.00  0.00    -0.189 N 
ATOM     27  H6  UNL     1       4.588  -0.083  -2.448  1.00  0.00     0.184 HD
ENDBRANCH  15  17
ENDBRANCH  12  13
BRANCH   9  28
HETATM   28  C6  UNL     1      -3.823  -0.291   1.824  1.00  0.00     0.098 C 
BRANCH  28  29
HETATM   29  C7  UNL     1      -4.690   0.421   0.852  1.00  0.00    -0.052 A 
HETATM   30  C8  UNL     1      -6.030   0.069   0.787  1.00  0.00     0.007 A 
HETATM   31  C9  UNL     1      -6.874   0.699  -0.095  1.00  0.00     0.001 A 
HETATM   32  C10 UNL     1      -6.406   1.694  -0.934  1.00  0.00     0.000 A 
HETATM   33  C11 UNL     1      -5.087   2.023  -0.852  1.00  0.00     0.001 A 
HETATM   34  C12 UNL     1      -4.196   1.407   0.031  1.00  0.00     0.007 A 
ENDBRANCH  28  29
ENDBRANCH   9  28
TORSDOF 4
