REMARK  7 active torsions:
REMARK  status: ('A' for Active; 'I' for Inactive)
REMARK    1  A    between atoms: C7_7  and  N1_8 
REMARK    2  A    between atoms: N1_8  and  C8_10 
REMARK    3  A    between atoms: C9_13  and  C10_14 
REMARK    4  A    between atoms: C10_14  and  O1_15 
REMARK    5  A    between atoms: C10_14  and  N3_17 
REMARK    6  A    between atoms: C15_22  and  C16_23 
REMARK    7  A    between atoms: C16_23  and  N4_24 
ROOT
HETATM    1  C8  UNL     1       2.767  -1.276  -1.869  1.00  0.00     0.145 A 
HETATM    2  N2  UNL     1       1.635  -0.815  -1.335  1.00  0.00    -0.333 N 
ATOM      3  H2  UNL     1       1.663  -0.302  -0.454  1.00  0.00     0.168 HD
HETATM    4  C9  UNL     1       0.489  -1.016  -1.932  1.00  0.00     0.092 A 
HETATM    5  C21 UNL     1       0.577  -1.734  -3.140  1.00  0.00     0.087 A 
HETATM    6  S1  UNL     1       2.234  -2.039  -3.291  1.00  0.00    -0.064 SA
ENDROOT
BRANCH   4   7
HETATM    7  C10 UNL     1      -0.846  -0.604  -1.489  1.00  0.00     0.166 C 
BRANCH   7   8
HETATM    8  O1  UNL     1      -1.861  -0.887  -2.278  1.00  0.00    -0.344 OA
ATOM      9  H1  UNL     1      -2.726  -0.620  -1.991  1.00  0.00     0.219 HD
ENDBRANCH   7   8
BRANCH   7  10
HETATM   10  N3  UNL     1      -1.267   0.064  -0.329  1.00  0.00    -0.354 N 
HETATM   11  C11 UNL     1      -0.423   0.479   0.722  1.00  0.00     0.125 C 
HETATM   12  C12 UNL     1      -1.115   1.021   1.954  1.00  0.00     0.020 C 
HETATM   13  C13 UNL     1      -2.241   1.955   1.703  1.00  0.00     0.004 C 
HETATM   14  C14 UNL     1      -2.857   1.751   0.362  1.00  0.00     0.027 C 
HETATM   15  C15 UNL     1      -2.704   0.385  -0.184  1.00  0.00     0.114 C 
BRANCH  15  16
HETATM   16  C16 UNL     1      -3.474  -0.648   0.563  1.00  0.00     0.297 C 
BRANCH  16  17
HETATM   17  N4  UNL     1      -4.854  -0.189   0.618  1.00  0.00     0.090 N 
HETATM   18  C17 UNL     1      -5.476  -0.202  -0.688  1.00  0.00     0.272 C 
HETATM   19  C18 UNL     1      -6.918  -0.566  -0.497  1.00  0.00     0.032 C 
HETATM   20  C19 UNL     1      -7.079  -0.589   1.014  1.00  0.00     0.032 C 
HETATM   21  C20 UNL     1      -5.675  -1.046   1.433  1.00  0.00     0.272 C 
ENDBRANCH  16  17
ENDBRANCH  15  16
ENDBRANCH   7  10
ENDBRANCH   4   7
BRANCH   1  22
HETATM   22  N1  UNL     1       3.998  -1.170  -1.408  1.00  0.00    -0.365 N 
ATOM     23  H1  UNL     1       4.778  -1.574  -1.926  1.00  0.00     0.162 HD
BRANCH  22  24
HETATM   24  C7  UNL     1       4.227  -0.490  -0.188  1.00  0.00     0.087 C 
HETATM   25  C2  UNL     1       5.520  -0.975   0.450  1.00  0.00     0.004 C 
HETATM   26  C1  UNL     1       6.669  -0.947  -0.524  1.00  0.00     0.012 C 
HETATM   27  C3  UNL     1       5.801  -0.249   1.732  1.00  0.00     0.006 C 
HETATM   28  C4  UNL     1       5.636   1.230   1.657  1.00  0.00     0.001 C 
HETATM   29  C5  UNL     1       4.422   1.680   0.883  1.00  0.00     0.002 C 
HETATM   30  C6  UNL     1       4.338   1.000  -0.465  1.00  0.00     0.025 C 
ENDBRANCH  22  24
ENDBRANCH   1  22
TORSDOF 7
