REMARK  6 active torsions:
REMARK  status: ('A' for Active; 'I' for Inactive)
REMARK    1  A    between atoms: O1_2  and  C2_3 
REMARK    2  A    between atoms: C5_6  and  N1_7 
REMARK    3  A    between atoms: N1_7  and  C6_9 
REMARK    4  A    between atoms: C6_9  and  N2_11 
REMARK    5  A    between atoms: C9_14  and  N3_15 
REMARK    6  A    between atoms: N4_18  and  C12_19 
ROOT
HETATM    1  N2  UNL     1      -1.580  -0.089   0.834  1.00  0.00    -0.358 N 
HETATM    2  C7  UNL     1      -1.097  -1.405   0.619  1.00  0.00     0.127 C 
HETATM    3  C8  UNL     1       0.136  -1.468  -0.288  1.00  0.00     0.040 C 
HETATM    4  C9  UNL     1       0.960  -0.225  -0.147  1.00  0.00     0.070 C 
HETATM    5  C18 UNL     1       0.772   0.299   1.255  1.00  0.00     0.040 C 
HETATM    6  C19 UNL     1      -0.630   0.920   1.263  1.00  0.00     0.127 C 
ENDROOT
BRANCH   1   7
HETATM    7  C6  UNL     1      -2.929   0.274   0.657  1.00  0.00     0.174 C 
HETATM    8  S1  UNL     1      -3.299   1.846   1.000  1.00  0.00    -0.041 SA
BRANCH   7   9
HETATM    9  N1  UNL     1      -3.908  -0.650   0.250  1.00  0.00    -0.333 N 
ATOM     10  H1  UNL     1      -3.606  -1.612   0.099  1.00  0.00     0.168 HD
BRANCH   9  11
HETATM   11  C5  UNL     1      -5.278  -0.359   0.032  1.00  0.00     0.034 A 
HETATM   12  C4  UNL     1      -5.781   0.809  -0.452  1.00  0.00     0.032 A 
HETATM   13  C3  UNL     1      -7.159   0.991  -0.590  1.00  0.00     0.039 A 
HETATM   14  C2  UNL     1      -8.051   0.012  -0.250  1.00  0.00     0.068 A 
HETATM   15  C21 UNL     1      -7.573  -1.179   0.240  1.00  0.00     0.039 A 
HETATM   16  C20 UNL     1      -6.215  -1.353   0.375  1.00  0.00     0.032 A 
BRANCH  14  17
HETATM   17  O1  UNL     1      -9.399   0.217  -0.395  1.00  0.00    -0.356 OA
HETATM   18  C1  UNL     1      -9.903   1.433  -0.896  1.00  0.00     0.210 C 
ENDBRANCH  14  17
ENDBRANCH   9  11
ENDBRANCH   7   9
ENDBRANCH   1   7
BRANCH   4  19
HETATM   19  N3  UNL     1       2.323  -0.386  -0.537  1.00  0.00    -0.263 NA
HETATM   20  C10 UNL     1       3.022   0.834  -0.482  1.00  0.00     0.082 C 
HETATM   21  C11 UNL     1       4.261   0.844   0.376  1.00  0.00     0.102 C 
HETATM   22  N4  UNL     1       5.054  -0.304   0.228  1.00  0.00    -0.360 N 
HETATM   23  C16 UNL     1       4.411  -1.547   0.080  1.00  0.00     0.102 C 
HETATM   24  C17 UNL     1       2.933  -1.533   0.010  1.00  0.00     0.082 C 
BRANCH  22  25
HETATM   25  C12 UNL     1       6.426  -0.208   0.005  1.00  0.00     0.088 C 
HETATM   26  C13 UNL     1       6.909   0.476  -1.252  1.00  0.00     0.026 C 
HETATM   27  C14 UNL     1       8.162   0.850  -0.451  1.00  0.00     0.004 C 
HETATM   28  C15 UNL     1       7.252   0.788   0.785  1.00  0.00     0.026 C 
ENDBRANCH  22  25
ENDBRANCH   4  19
TORSDOF 6
