REMARK  5 active torsions:
REMARK  status: ('A' for Active; 'I' for Inactive)
REMARK    1  A    between atoms: N1_4  and  C4_5 
REMARK    2  A    between atoms: C4_5  and  C5_6 
REMARK    3  A    between atoms: C5_6  and  C6_7 
REMARK    4  A    between atoms: C10_11  and  N2_12 
REMARK       I    between atoms: N2_12  and  C11_14 
REMARK    5  A    between atoms: C11_14  and  C12_16 
ROOT
HETATM    1  C6  UNL     1       0.610   0.274   0.139  1.00  0.00    -0.013 C 
HETATM    2  C7  UNL     1       1.079  -1.042   0.655  1.00  0.00     0.005 C 
HETATM    3  C8  UNL     1       2.085  -0.748   1.777  1.00  0.00     0.002 C 
HETATM    4  C9  UNL     1       3.069   0.238   1.205  1.00  0.00     0.025 C 
HETATM    5  C10 UNL     1       3.543  -0.255  -0.124  1.00  0.00     0.084 C 
HETATM    6  C16 UNL     1       2.689   0.077  -1.290  1.00  0.00     0.025 C 
HETATM    7  C17 UNL     1       1.414   0.781  -1.026  1.00  0.00     0.007 C 
ENDROOT
BRANCH   1   8
HETATM    8  C5  UNL     1      -0.869   0.298  -0.151  1.00  0.00     0.034 C 
BRANCH   8   9
HETATM    9  C4  UNL     1      -1.722   0.040   1.038  1.00  0.00     0.272 C 
BRANCH   9  10
HETATM   10  N1  UNL     1      -3.131   0.061   0.762  1.00  0.00     0.088 N 
HETATM   11  C3  UNL     1      -3.571  -1.060  -0.068  1.00  0.00     0.277 C 
HETATM   12  C2  UNL     1      -5.088  -1.106   0.148  1.00  0.00     0.021 C 
HETATM   13  C1  UNL     1      -5.321  -1.480   1.583  1.00  0.00     0.012 C 
HETATM   14  C20 UNL     1      -5.771   0.149  -0.282  1.00  0.00    -0.007 C 
HETATM   15  C19 UNL     1      -5.006   1.415  -0.048  1.00  0.00     0.042 C 
HETATM   16  C21 UNL     1      -7.078   0.254   0.476  1.00  0.00     0.041 C 
HETATM   17  C23 UNL     1      -6.147  -0.027  -1.754  1.00  0.00     0.219 C 
HETATM   18  C18 UNL     1      -3.517   1.244   0.030  1.00  0.00     0.273 C 
HETATM   19  C22 UNL     1      -8.139   0.722  -0.499  1.00  0.00     0.210 C 
HETATM   20  O2  UNL     1      -8.362  -0.237  -1.459  1.00  0.00    -0.241 OA
HETATM   21  O3  UNL     1      -7.273  -0.863  -1.776  1.00  0.00    -0.240 OA
ENDBRANCH   9  10
ENDBRANCH   8   9
ENDBRANCH   1   8
BRANCH   5  22
HETATM   22  N2  UNL     1       4.900   0.247  -0.287  1.00  0.00    -0.356 N 
HETATM   23  C11 UNL     1       6.008  -0.604  -0.356  1.00  0.00     0.225 C 
HETATM   24  O1  UNL     1       5.893  -1.873  -0.281  1.00  0.00    -0.273 OA
ATOM     25  H2  UNL     1       5.048   1.254  -0.353  1.00  0.00     0.162 HD
BRANCH  23  26
HETATM   26  C12 UNL     1       7.373  -0.060  -0.518  1.00  0.00     0.030 C 
HETATM   27  C13 UNL     1       7.653   0.801   0.722  1.00  0.00     0.024 C 
HETATM   28  C14 UNL     1       8.377  -1.169  -0.642  1.00  0.00     0.024 C 
HETATM   29  C15 UNL     1       7.449   0.862  -1.719  1.00  0.00     0.024 C 
ENDBRANCH  23  26
ENDBRANCH   5  22
TORSDOF 5
