REMARK  4 active torsions:
REMARK  status: ('A' for Active; 'I' for Inactive)
REMARK    1  A    between atoms: O1_2  and  C2_3 
REMARK    2  A    between atoms: C5_6  and  N1_7 
REMARK    3  A    between atoms: C8_10  and  C9_11 
REMARK    4  A    between atoms: C13_15  and  N2_16 
REMARK       I    between atoms: N2_16  and  C14_18 
REMARK       I    between atoms: C14_18  and  N3_20 
ROOT
HETATM    1  C9  UNL     1      -1.495  -2.335   0.159  1.00  0.00     0.012 C 
HETATM    2  C10 UNL     1      -1.015  -3.434   1.123  1.00  0.00     0.007 C 
HETATM    3  C11 UNL     1      -1.688  -3.175   2.450  1.00  0.00     0.002 C 
HETATM    4  C12 UNL     1      -2.570  -1.962   2.287  1.00  0.00     0.026 C 
HETATM    5  C13 UNL     1      -2.763  -1.936   0.758  1.00  0.00     0.090 C 
ENDROOT
BRANCH   1   6
HETATM    6  C8  UNL     1      -0.390  -1.360   0.062  1.00  0.00    -0.005 C 
HETATM    7  C7  UNL     1      -0.005  -0.595   1.290  1.00  0.00     0.035 C 
HETATM    8  C6  UNL     1       1.229   0.214   0.962  1.00  0.00     0.273 C 
HETATM    9  N1  UNL     1       1.873  -0.139  -0.283  1.00  0.00     0.093 N 
HETATM   10  C20 UNL     1       1.034  -0.035  -1.417  1.00  0.00     0.273 C 
HETATM   11  C19 UNL     1      -0.430  -0.385  -1.079  1.00  0.00     0.035 C 
BRANCH   9  12
HETATM   12  C5  UNL     1       3.048   0.668  -0.405  1.00  0.00     0.223 C 
HETATM   13  C4  UNL     1       3.276   1.296  -1.734  1.00  0.00     0.038 C 
HETATM   14  C3  UNL     1       4.609   1.940  -1.891  1.00  0.00     0.034 C 
HETATM   15  C2  UNL     1       5.784   1.162  -1.361  1.00  0.00     0.120 C 
HETATM   16  C22 UNL     1       5.451   0.881   0.091  1.00  0.00     0.034 C 
HETATM   17  C21 UNL     1       4.284  -0.078   0.056  1.00  0.00     0.038 C 
BRANCH  15  18
HETATM   18  O1  UNL     1       6.909   1.921  -1.537  1.00  0.00    -0.391 OA
HETATM   19  C1  UNL     1       7.884   1.404  -2.339  1.00  0.00     0.202 C 
ENDBRANCH  15  18
ENDBRANCH   9  12
ENDBRANCH   1   6
BRANCH   5  20
HETATM   20  N2  UNL     1      -3.450  -0.797   0.306  1.00  0.00    -0.338 N 
HETATM   21  C14 UNL     1      -4.819  -0.559   0.631  1.00  0.00     0.325 C 
HETATM   22  O2  UNL     1      -5.408  -1.384   1.341  1.00  0.00    -0.247 OA
HETATM   23  N3  UNL     1      -5.485   0.602   0.151  1.00  0.00    -0.270 N 
HETATM   24  C15 UNL     1      -4.977   1.644  -0.731  1.00  0.00     0.137 C 
HETATM   25  C18 UNL     1      -6.800   1.012   0.491  1.00  0.00     0.227 C 
HETATM   26  C16 UNL     1      -6.190   1.799  -1.657  1.00  0.00     0.029 C 
HETATM   27  C17 UNL     1      -7.310   1.908  -0.613  1.00  0.00     0.105 C 
HETATM   28  O3  UNL     1      -7.463   0.695   1.537  1.00  0.00    -0.273 OA
ATOM     29  H2  UNL     1      -2.955  -0.119  -0.273  1.00  0.00     0.164 HD
ENDBRANCH   5  20
TORSDOF 4
