REMARK  5 active torsions:
REMARK  status: ('A' for Active; 'I' for Inactive)
REMARK    1  A    between atoms: S1_2  and  C1_4 
REMARK    2  A    between atoms: S1_2  and  N1_8 
REMARK    3  A    between atoms: C7_11  and  N2_12 
REMARK    4  A    between atoms: N2_12  and  C8_14 
REMARK    5  A    between atoms: C10_18  and  C11_19 
ROOT
HETATM    1  N2  UNL     1      -0.335   1.230   0.022  1.00  0.00    -0.366 N 
ATOM      2  H2  UNL     1      -0.404   2.219   0.262  1.00  0.00     0.162 HD
ENDROOT
BRANCH   1   3
HETATM    3  C7  UNL     1       0.958   0.653  -0.160  1.00  0.00     0.085 C 
HETATM    4  C6  UNL     1       1.450  -0.120   1.046  1.00  0.00     0.041 C 
HETATM    5  C5  UNL     1       2.948  -0.337   0.866  1.00  0.00     0.109 C 
HETATM    6  N1  UNL     1       3.258  -0.256  -0.542  1.00  0.00    -0.210 NA
HETATM    7  C18 UNL     1       3.214   1.095  -1.014  1.00  0.00     0.109 C 
HETATM    8  C17 UNL     1       1.977   1.753  -0.427  1.00  0.00     0.041 C 
BRANCH   6   9
HETATM    9  S1  UNL     1       4.759  -1.037  -0.815  1.00  0.00     0.215 S 
HETATM   10  O1  UNL     1       4.635  -2.472  -0.407  1.00  0.00    -0.211 OA
HETATM   11  O2  UNL     1       5.112  -0.985  -2.281  1.00  0.00    -0.211 OA
BRANCH   9  12
HETATM   12  C1  UNL     1       6.061  -0.225   0.084  1.00  0.00     0.124 C 
HETATM   13  C2  UNL     1       7.370  -0.991   0.027  1.00  0.00     0.021 C 
HETATM   14  C3  UNL     1       7.526  -0.753   1.510  1.00  0.00     0.003 C 
HETATM   15  C4  UNL     1       6.039  -0.463   1.579  1.00  0.00     0.021 C 
ENDBRANCH   9  12
ENDBRANCH   6   9
ENDBRANCH   1   3
BRANCH   1  16
HETATM   16  C8  UNL     1      -1.441   0.530  -0.109  1.00  0.00     0.145 A 
HETATM   17  N3  UNL     1      -1.552  -0.760  -0.415  1.00  0.00    -0.346 N 
HETATM   18  C9  UNL     1      -2.738  -1.288  -0.503  1.00  0.00     0.105 A 
ATOM     19  H3  UNL     1      -0.720  -1.327  -0.578  1.00  0.00     0.167 HD
HETATM   20  C10 UNL     1      -3.817  -0.469  -0.271  1.00  0.00     0.006 A 
HETATM   21  S2  UNL     1      -3.063   1.026   0.063  1.00  0.00    -0.057 SA
BRANCH  20  22
HETATM   22  C11 UNL     1      -5.286  -0.767  -0.293  1.00  0.00     0.027 C 
HETATM   23  C12 UNL     1      -5.937  -0.063  -1.426  1.00  0.00     0.010 C 
HETATM   24  C13 UNL     1      -6.910   1.005  -1.082  1.00  0.00     0.001 C 
HETATM   25  C14 UNL     1      -6.743   1.641   0.250  1.00  0.00     0.000 C 
HETATM   26  C15 UNL     1      -6.731   0.584   1.295  1.00  0.00     0.001 C 
HETATM   27  C16 UNL     1      -5.884  -0.602   1.046  1.00  0.00     0.010 C 
ENDBRANCH  20  22
ENDBRANCH   1  16
TORSDOF 5
