REMARK  12 active torsions:
REMARK  status: ('A' for Active; 'I' for Inactive)
REMARK    1  A    between atoms: C5_5  and  C6_6 
REMARK       I    between atoms: C6_6  and  N1_8 
REMARK    2  A    between atoms: N1_8  and  C7_10 
REMARK    3  A    between atoms: C7_10  and  C8_11 
REMARK    4  A    between atoms: C8_11  and  C9_12 
REMARK    5  A    between atoms: C9_12  and  N2_13 
REMARK       I    between atoms: N2_13  and  C10_15 
REMARK    6  A    between atoms: C10_15  and  C11_17 
REMARK    7  A    between atoms: C12_18  and  C13_19 
REMARK    8  A    between atoms: C13_19  and  N3_20 
REMARK    9  A    between atoms: C16_25  and  C17_26 
REMARK   10  A    between atoms: C23_33  and  S1_34 
REMARK   11  A    between atoms: S1_34  and  N5_37 
REMARK   12  A    between atoms: N5_37  and  C25_39 
ROOT
HETATM    1  C1  UNL     1      -4.872  -2.399  -2.026  1.00  0.00     0.018 C 
HETATM    2  C2  UNL     1      -4.702  -1.968  -0.913  1.00  0.00    -0.076 C 
HETATM    3  C3  UNL     1      -4.482  -1.486   0.446  1.00  0.00     0.041 A 
HETATM    4  C4  UNL     1      -3.190  -1.185   0.822  1.00  0.00     0.039 A 
HETATM    5  C5  UNL     1      -2.895  -0.793   2.129  1.00  0.00     0.033 A 
HETATM    6  C21 UNL     1      -3.943  -0.722   3.012  1.00  0.00     0.018 A 
HETATM    7  C22 UNL     1      -5.229  -1.026   2.613  1.00  0.00     0.028 A 
HETATM    8  C23 UNL     1      -5.544  -1.420   1.305  1.00  0.00     0.098 A 
ENDROOT
BRANCH   8   9
HETATM    9  S1  UNL     1      -7.183  -1.673   0.862  1.00  0.00     0.266 S 
HETATM   10  O4  UNL     1      -8.027  -2.114   2.056  1.00  0.00    -0.200 OA
HETATM   11  O5  UNL     1      -7.322  -2.835  -0.124  1.00  0.00    -0.200 OA
BRANCH   9  12
HETATM   12  N5  UNL     1      -7.993  -0.354   0.155  1.00  0.00    -0.272 N 
HETATM   13  C24 UNL     1      -8.092   0.832   1.069  1.00  0.00     0.170 C 
BRANCH  12  14
HETATM   14  C25 UNL     1      -8.529  -0.257  -1.137  1.00  0.00     0.092 A 
HETATM   15  C26 UNL     1      -7.963   0.303  -2.241  1.00  0.00     0.051 A 
HETATM   16  C27 UNL     1      -6.651   0.940  -2.455  1.00  0.00     0.072 C 
HETATM   17  N6  UNL     1      -8.891   0.227  -3.234  1.00  0.00    -0.301 N 
HETATM   18  N7  UNL     1      -9.994  -0.343  -2.816  1.00  0.00    -0.299 N 
ATOM     19  H6  UNL     1      -8.746   0.570  -4.183  1.00  0.00     0.187 HD
HETATM   20  C28 UNL     1     -11.218  -0.612  -3.556  1.00  0.00     0.177 C 
HETATM   21  C29 UNL     1      -9.803  -0.659  -1.508  1.00  0.00     0.053 A 
HETATM   22  C30 UNL     1     -10.810  -1.326  -0.653  1.00  0.00     0.072 C 
ENDBRANCH  12  14
ENDBRANCH   9  12
ENDBRANCH   8   9
BRANCH   5  23
HETATM   23  C6  UNL     1      -1.500  -0.494   2.484  1.00  0.00     0.251 C 
HETATM   24  O1  UNL     1      -1.287   0.428   3.327  1.00  0.00    -0.268 OA
HETATM   25  N1  UNL     1      -0.417  -1.184   1.933  1.00  0.00    -0.357 N 
ATOM     26  H1  UNL     1      -0.625  -1.926   1.265  1.00  0.00     0.162 HD
BRANCH  25  27
HETATM   27  C7  UNL     1       0.967  -0.933   2.232  1.00  0.00     0.124 C 
BRANCH  27  28
HETATM   28  C8  UNL     1       1.377   0.460   1.835  1.00  0.00     0.039 C 
BRANCH  28  29
HETATM   29  C9  UNL     1       2.851   0.694   2.134  1.00  0.00     0.124 C 
BRANCH  29  30
HETATM   30  N2  UNL     1       3.675  -0.246   1.425  1.00  0.00    -0.358 N 
HETATM   31  C10 UNL     1       5.115  -0.167   1.587  1.00  0.00     0.240 C 
HETATM   32  O2  UNL     1       5.525   0.738   2.340  1.00  0.00    -0.269 OA
ATOM     33  H2  UNL     1       3.257  -0.953   0.821  1.00  0.00     0.162 HD
BRANCH  31  34
HETATM   34  C11 UNL     1       5.947  -1.105   0.894  1.00  0.00     0.072 C 
HETATM   35  C12 UNL     1       7.215  -1.247   0.856  1.00  0.00     0.000 C 
BRANCH  35  36
HETATM   36  C13 UNL     1       8.213  -0.433   1.551  1.00  0.00     0.176 C 
BRANCH  36  37
HETATM   37  N3  UNL     1       9.141   0.161   0.564  1.00  0.00    -0.292 N 
HETATM   38  N4  UNL     1      10.245  -0.448   0.151  1.00  0.00    -0.302 N 
HETATM   39  C14 UNL     1      10.828   0.346  -0.735  1.00  0.00     0.038 A 
ATOM     40  H4  UNL     1      10.583  -1.360   0.459  1.00  0.00     0.186 HD
HETATM   41  C15 UNL     1      12.102   0.109  -1.499  1.00  0.00     0.070 C 
HETATM   42  C16 UNL     1      10.083   1.490  -0.895  1.00  0.00     0.057 A 
HETATM   43  C19 UNL     1       8.990   1.332  -0.031  1.00  0.00     0.041 A 
HETATM   44  C20 UNL     1       7.922   2.330   0.128  1.00  0.00     0.071 C 
BRANCH  42  45
HETATM   45  C17 UNL     1      10.336   2.625  -1.756  1.00  0.00     0.159 C 
HETATM   46  C18 UNL     1      11.140   3.777  -1.233  1.00  0.00     0.097 C 
HETATM   47  O3  UNL     1       9.888   2.634  -2.917  1.00  0.00    -0.293 OA
ENDBRANCH  42  45
ENDBRANCH  36  37
ENDBRANCH  35  36
ENDBRANCH  31  34
ENDBRANCH  29  30
ENDBRANCH  28  29
ENDBRANCH  27  28
ENDBRANCH  25  27
ENDBRANCH   5  23
TORSDOF 12
