REMARK  16 active torsions:
REMARK  status: ('A' for Active; 'I' for Inactive)
REMARK    1  A    between atoms: C2_2  and  C3_3 
REMARK    2  A    between atoms: C3_3  and  O1_4 
REMARK    3  A    between atoms: O1_4  and  C4_5 
REMARK    4  A    between atoms: C4_5  and  C5_6 
REMARK    5  A    between atoms: C5_6  and  C6_7 
REMARK    6  A    between atoms: C6_7  and  N1_8 
REMARK    7  A    between atoms: C9_11  and  C11_13 
REMARK    8  A    between atoms: C11_13  and  N2_14 
REMARK    9  A    between atoms: C13_19  and  C14_20 
REMARK   10  A    between atoms: C15_21  and  C16_22 
REMARK   11  A    between atoms: C19_25  and  C20_26 
REMARK   12  A    between atoms: C20_26  and  N4_27 
REMARK   13  A    between atoms: C23_30  and  O3_31 
REMARK   14  A    between atoms: C28_39  and  N6_40 
REMARK   15  A    between atoms: N6_40  and  C29_42 
REMARK   16  A    between atoms: C29_42  and  C30_43 
ROOT
HETATM    1  C30 UNL     1      -0.982  -0.918  -3.865  1.00  0.00     0.058 C 
HETATM    2  C31 UNL     1      -0.344  -1.840  -2.853  1.00  0.00     0.033 C 
HETATM    3  C32 UNL     1      -2.396  -1.296  -4.207  1.00  0.00     0.033 C 
HETATM    4  C33 UNL     1      -0.122  -1.049  -5.087  1.00  0.00     0.070 C 
HETATM    5  N7  UNL     1       0.546  -1.134  -6.026  1.00  0.00    -0.196 NA
ENDROOT
BRANCH   1   6
HETATM    6  C29 UNL     1      -0.927   0.526  -3.484  1.00  0.00     0.162 C 
BRANCH   6   7
HETATM    7  N6  UNL     1      -1.544   0.887  -2.254  1.00  0.00    -0.224 N 
ATOM      8  H6  UNL     1      -2.562   0.955  -2.255  1.00  0.00     0.177 HD
BRANCH   7   9
HETATM    9  C28 UNL     1      -0.949   1.137  -1.139  1.00  0.00     0.686 A 
HETATM   10  N2  UNL     1      -1.690   1.469  -0.066  1.00  0.00    -0.132 N 
HETATM   11  C12 UNL     1      -0.978   1.750   1.072  1.00  0.00     0.342 A 
HETATM   12  O2  UNL     1      -1.537   2.081   2.142  1.00  0.00    -0.246 OA
HETATM   13  N3  UNL     1       0.361   1.688   1.093  1.00  0.00    -0.286 N 
HETATM   14  C13 UNL     1       1.092   1.355   0.023  1.00  0.00     0.180 A 
ATOM     15  H3  UNL     1       0.845   1.905   1.965  1.00  0.00     0.172 HD
HETATM   16  N5  UNL     1       0.406   1.080  -1.101  1.00  0.00    -0.168 N 
ATOM     17  H5  UNL     1       0.917   0.822  -1.945  1.00  0.00     0.186 HD
BRANCH  10  18
HETATM   18  C11 UNL     1      -3.117   1.554  -0.050  1.00  0.00     0.163 C 
BRANCH  18  19
HETATM   19  C9  UNL     1      -3.924   0.373   0.278  1.00  0.00    -0.009 C 
HETATM   20  C8  UNL     1      -3.747  -0.293   1.596  1.00  0.00     0.032 C 
HETATM   21  C7  UNL     1      -4.694   0.414   2.579  1.00  0.00     0.122 C 
HETATM   22  N1  UNL     1      -5.515   1.168   1.744  1.00  0.00    -0.392 N 
HETATM   23  C34 UNL     1      -5.427   0.838   0.384  1.00  0.00     0.132 C 
HETATM   24  C10 UNL     1      -3.964  -0.707  -0.787  1.00  0.00     0.018 C 
BRANCH  22  25
HETATM   25  C6  UNL     1      -6.442   2.083   2.221  1.00  0.00     0.060 C 
BRANCH  25  26
HETATM   26  C5  UNL     1      -7.637   1.531   2.966  1.00  0.00     0.070 C 
BRANCH  26  27
HETATM   27  C4  UNL     1      -8.383   0.600   2.033  1.00  0.00     0.172 C 
BRANCH  27  28
HETATM   28  O1  UNL     1      -9.487   0.094   2.711  1.00  0.00    -0.391 OA
BRANCH  28  29
HETATM   29  C3  UNL     1     -10.237  -0.789   1.963  1.00  0.00     0.167 C 
BRANCH  29  30
HETATM   30  C2  UNL     1     -10.807  -0.225   0.705  1.00  0.00     0.022 C 
HETATM   31  C1  UNL     1     -11.598  -1.331   0.011  1.00  0.00     0.007 C 
ENDBRANCH  29  30
ENDBRANCH  28  29
ENDBRANCH  27  28
ENDBRANCH  26  27
ENDBRANCH  25  26
ENDBRANCH  22  25
ENDBRANCH  18  19
ENDBRANCH  10  18
BRANCH  14  32
HETATM   32  C14 UNL     1       2.526   1.285   0.045  1.00  0.00    -0.024 C 
HETATM   33  C15 UNL     1       3.728   1.214   0.041  1.00  0.00    -0.059 C 
BRANCH  33  34
HETATM   34  C16 UNL     1       5.158   1.115   0.011  1.00  0.00     0.018 A 
HETATM   35  C17 UNL     1       5.784   0.610  -1.104  1.00  0.00     0.021 A 
HETATM   36  C18 UNL     1       7.161   0.515  -1.121  1.00  0.00     0.010 A 
HETATM   37  C19 UNL     1       7.950   0.906  -0.065  1.00  0.00    -0.030 A 
HETATM   38  C26 UNL     1       7.318   1.411   1.048  1.00  0.00     0.010 A 
HETATM   39  C27 UNL     1       5.926   1.512   1.080  1.00  0.00     0.021 A 
BRANCH  37  40
HETATM   40  C20 UNL     1       9.416   0.769  -0.193  1.00  0.00     0.311 C 
BRANCH  40  41
HETATM   41  N4  UNL     1       9.762  -0.616  -0.134  1.00  0.00     0.092 N 
HETATM   42  C21 UNL     1      11.181  -0.851  -0.275  1.00  0.00     0.275 C 
HETATM   43  C22 UNL     1      11.648  -1.885   0.701  1.00  0.00     0.062 C 
HETATM   44  C23 UNL     1      11.295  -1.520   2.119  1.00  0.00     0.121 C 
HETATM   45  C24 UNL     1       9.870  -1.066   2.225  1.00  0.00     0.062 C 
HETATM   46  C25 UNL     1       9.170  -1.369   0.923  1.00  0.00     0.275 C 
BRANCH  44  47
HETATM   47  O3  UNL     1      11.461  -2.652   2.912  1.00  0.00    -0.395 OA
ATOM     48  H3  UNL     1      11.238  -2.422   3.806  1.00  0.00     0.210 HD
ENDBRANCH  44  47
ENDBRANCH  40  41
ENDBRANCH  37  40
ENDBRANCH  33  34
ENDBRANCH  14  32
ENDBRANCH   7   9
ENDBRANCH   6   7
ENDBRANCH   1   6
TORSDOF 16
