REMARK  14 active torsions:
REMARK  status: ('A' for Active; 'I' for Inactive)
REMARK    1  A    between atoms: C5_9  and  C6_10 
REMARK    2  A    between atoms: C6_10  and  C7_11 
REMARK    3  A    between atoms: C7_11  and  C8_12 
REMARK    4  A    between atoms: C8_12  and  N3_13 
REMARK    5  A    between atoms: N4_16  and  C11_17 
REMARK    6  A    between atoms: C11_17  and  C12_18 
REMARK    7  A    between atoms: C12_18  and  C13_19 
REMARK    8  A    between atoms: C13_19  and  C14_20 
REMARK    9  A    between atoms: C14_20  and  C15_21 
REMARK   10  A    between atoms: C15_21  and  C16_22 
REMARK       I    between atoms: C16_22  and  N5_24 
REMARK   11  A    between atoms: N5_24  and  C17_26 
REMARK   12  A    between atoms: C21_34  and  O5_35 
REMARK   13  A    between atoms: O5_35  and  C22_36 
REMARK   14  A    between atoms: C22_36  and  C23_38 
ROOT
HETATM    1  C16 UNL     1      -2.015  -1.332   0.921  1.00  0.00     0.218 C 
HETATM    2  O1  UNL     1      -2.796  -0.862   1.789  1.00  0.00    -0.274 OA
HETATM    3  N5  UNL     1      -2.480  -2.053  -0.203  1.00  0.00    -0.345 N 
ATOM      4  H5  UNL     1      -1.825  -2.417  -0.895  1.00  0.00     0.163 HD
ENDROOT
BRANCH   1   5
HETATM    5  C15 UNL     1      -0.520  -1.116   1.087  1.00  0.00     0.103 C 
BRANCH   5   6
HETATM    6  C14 UNL     1      -0.321  -0.262   2.285  1.00  0.00     0.009 C 
BRANCH   6   7
HETATM    7  C13 UNL     1       1.011   0.054   2.772  1.00  0.00     0.002 C 
BRANCH   7   8
HETATM    8  C12 UNL     1       2.033   0.754   1.978  1.00  0.00     0.030 C 
BRANCH   8   9
HETATM    9  C11 UNL     1       2.599   0.116   0.779  1.00  0.00     0.275 C 
BRANCH   9  10
HETATM   10  N4  UNL     1       3.618   0.995   0.164  1.00  0.00     0.118 N 
HETATM   11  C10 UNL     1       4.020   0.392  -1.112  1.00  0.00     0.304 C 
HETATM   12  C9  UNL     1       5.478   0.098  -0.945  1.00  0.00     0.304 C 
HETATM   13  N3  UNL     1       5.738   0.127   0.441  1.00  0.00     0.118 N 
HETATM   14  C29 UNL     1       4.785   1.022   0.997  1.00  0.00     0.542 C 
BRANCH  13  15
HETATM   15  C8  UNL     1       7.115   0.346   0.835  1.00  0.00     0.275 C 
BRANCH  15  16
HETATM   16  C7  UNL     1       7.996  -0.797   0.535  1.00  0.00     0.035 C 
BRANCH  16  17
HETATM   17  C6  UNL     1       9.408  -0.598   0.963  1.00  0.00     0.044 C 
BRANCH  17  18
HETATM   18  C5  UNL     1      10.132   0.526   0.356  1.00  0.00    -0.011 A 
HETATM   19  C2  UNL     1      10.162   1.825   0.750  1.00  0.00     0.030 A 
HETATM   20  C1  UNL     1       9.567   2.525   1.926  1.00  0.00     0.070 C 
HETATM   21  N1  UNL     1      10.934   2.483  -0.156  1.00  0.00    -0.305 N 
HETATM   22  N2  UNL     1      11.368   1.647  -1.068  1.00  0.00    -0.305 N 
ATOM     23  H1  UNL     1      11.144   3.481  -0.130  1.00  0.00     0.186 HD
HETATM   24  C3  UNL     1      10.908   0.436  -0.804  1.00  0.00     0.030 A 
ATOM     25  H2  UNL     1      11.966   1.892  -1.857  1.00  0.00     0.186 HD
HETATM   26  C4  UNL     1      11.155  -0.815  -1.574  1.00  0.00     0.070 C 
ENDBRANCH  17  18
ENDBRANCH  16  17
ENDBRANCH  15  16
ENDBRANCH  13  15
ENDBRANCH   9  10
ENDBRANCH   8   9
ENDBRANCH   7   8
ENDBRANCH   6   7
ENDBRANCH   5   6
ENDBRANCH   1   5
BRANCH   3  27
HETATM   27  C17 UNL     1      -3.888  -2.261  -0.350  1.00  0.00     0.210 C 
HETATM   28  C18 UNL     1      -4.196  -3.605  -0.895  1.00  0.00     0.255 C 
HETATM   29  O2  UNL     1      -3.735  -4.745  -0.645  1.00  0.00    -0.270 OA
HETATM   30  N6  UNL     1      -5.187  -3.046  -1.773  1.00  0.00    -0.245 N 
HETATM   31  C19 UNL     1      -6.344  -3.457  -2.483  1.00  0.00     0.375 C 
HETATM   32  C28 UNL     1      -4.507  -1.788  -1.656  1.00  0.00     0.192 C 
HETATM   33  O3  UNL     1      -6.362  -4.653  -2.911  1.00  0.00    -0.237 OA
HETATM   34  O4  UNL     1      -7.463  -2.653  -2.749  1.00  0.00    -0.263 OA
HETATM   35  C20 UNL     1      -8.023  -1.708  -1.875  1.00  0.00     0.090 C 
HETATM   36  C21 UNL     1      -9.306  -1.511  -1.994  1.00  0.00     0.179 C 
HETATM   37  C27 UNL     1      -7.282  -0.942  -0.854  1.00  0.00     0.143 C 
HETATM   38  S1  UNL     1      -5.660  -0.400  -1.479  1.00  0.00    -0.134 SA
BRANCH  36  39
HETATM   39  O5  UNL     1      -9.968  -0.611  -1.194  1.00  0.00    -0.288 OA
BRANCH  39  40
HETATM   40  C22 UNL     1     -10.195   0.705  -1.496  1.00  0.00     0.271 C 
HETATM   41  O6  UNL     1      -9.769   1.136  -2.595  1.00  0.00    -0.264 OA
BRANCH  40  42
HETATM   42  C23 UNL     1     -10.926   1.606  -0.554  1.00  0.00     0.037 C 
HETATM   43  C24 UNL     1     -11.127   2.957  -1.156  1.00  0.00     0.025 C 
HETATM   44  C25 UNL     1     -10.138   1.804   0.734  1.00  0.00     0.025 C 
HETATM   45  C26 UNL     1     -12.266   0.999  -0.200  1.00  0.00     0.025 C 
ENDBRANCH  40  42
ENDBRANCH  39  40
ENDBRANCH  36  39
ENDBRANCH   3  27
TORSDOF 14
