REMARK  7 active torsions:
REMARK  status: ('A' for Active; 'I' for Inactive)
REMARK    1  A    between atoms: C2_2  and  C3_3 
REMARK    2  A    between atoms: C6_7  and  C7_8 
REMARK    3  A    between atoms: C9_10  and  N1_11 
REMARK    4  A    between atoms: N1_11  and  N2_13 
REMARK    5  A    between atoms: C10_15  and  C11_16 
REMARK    6  A    between atoms: C14_19  and  O1_20 
REMARK    7  A    between atoms: C22_30  and  C23_31 
ROOT
HETATM    1  C7  UNL     1      -1.264  -0.021   0.224  1.00  0.00     0.047 A 
HETATM    2  C8  UNL     1      -0.495  -0.049  -0.949  1.00  0.00     0.061 A 
HETATM    3  C9  UNL     1       0.553  -0.925  -1.058  1.00  0.00     0.052 A 
HETATM    4  C19 UNL     1       0.834  -1.775   0.002  1.00  0.00     0.055 A 
HETATM    5  C20 UNL     1       0.069  -1.735   1.146  1.00  0.00     0.007 A 
HETATM    6  C21 UNL     1       0.356  -2.640   2.312  1.00  0.00     0.068 C 
HETATM    7  N3  UNL     1      -0.967  -0.838   1.206  1.00  0.00    -0.359 N 
ATOM      8  H3  UNL     1      -1.533  -0.805   2.054  1.00  0.00     0.166 HD
ENDROOT
BRANCH   3   9
HETATM    9  N1  UNL     1       1.312  -0.984  -2.092  1.00  0.00    -0.301 N 
ATOM     10  H1  UNL     1       1.039  -0.307  -2.805  1.00  0.00     0.187 HD
BRANCH   9  11
HETATM   11  N2  UNL     1       2.339  -1.688  -2.458  1.00  0.00    -0.311 N 
HETATM   12  C10 UNL     1       3.552  -1.880  -2.337  1.00  0.00     0.118 C 
ATOM     13  H2  UNL     1       1.999  -2.374  -3.132  1.00  0.00     0.186 HD
BRANCH  12  14
HETATM   14  C11 UNL     1       4.537  -1.190  -1.509  1.00  0.00    -0.019 A 
HETATM   15  C12 UNL     1       4.296  -0.123  -0.709  1.00  0.00     0.015 A 
HETATM   16  C13 UNL     1       5.305   0.472   0.060  1.00  0.00     0.038 A 
HETATM   17  C14 UNL     1       6.595  -0.008   0.033  1.00  0.00     0.074 A 
HETATM   18  C16 UNL     1       6.852  -1.090  -0.776  1.00  0.00    -0.028 A 
HETATM   19  C17 UNL     1       8.246  -1.654  -0.850  1.00  0.00     0.051 C 
HETATM   20  C18 UNL     1       5.858  -1.668  -1.527  1.00  0.00     0.022 A 
BRANCH  17  21
HETATM   21  O1  UNL     1       7.575   0.595   0.802  1.00  0.00    -0.355 OA
HETATM   22  C15 UNL     1       7.261   1.700   1.615  1.00  0.00     0.210 C 
ENDBRANCH  17  21
ENDBRANCH  12  14
ENDBRANCH   9  11
ENDBRANCH   3   9
BRANCH   1  23
HETATM   23  C6  UNL     1      -2.394   0.867   0.204  1.00  0.00     0.019 A 
HETATM   24  C5  UNL     1      -2.109   2.208  -0.146  1.00  0.00     0.047 A 
HETATM   25  C4  UNL     1      -3.133   3.077  -0.328  1.00  0.00     0.031 A 
HETATM   26 CL1  UNL     1      -0.420   2.653  -0.276  1.00  0.00    -0.083 Cl
HETATM   27  C3  UNL     1      -4.439   2.692  -0.180  1.00  0.00    -0.056 A 
HETATM   28  C27 UNL     1      -4.685   1.382   0.163  1.00  0.00     0.016 A 
HETATM   29  C22 UNL     1      -3.685   0.400   0.373  1.00  0.00    -0.036 A 
BRANCH  27  30
HETATM   30  C2  UNL     1      -5.578   3.607  -0.375  1.00  0.00     0.034 C 
HETATM   31  C1  UNL     1      -5.969   3.507  -1.848  1.00  0.00     0.010 C 
ENDBRANCH  27  30
BRANCH  29  32
HETATM   32  C23 UNL     1      -4.087  -0.981   0.739  1.00  0.00    -0.023 C 
HETATM   33  C24 UNL     1      -3.582  -2.063  -0.198  1.00  0.00     0.019 C 
HETATM   34  C25 UNL     1      -4.182  -1.343   2.166  1.00  0.00     0.019 C 
HETATM   35  C26 UNL     1      -5.624  -1.044   0.331  1.00  0.00     0.019 C 
ENDBRANCH  29  32
ENDBRANCH   1  23
TORSDOF 7
