REMARK  8 active torsions:
REMARK  status: ('A' for Active; 'I' for Inactive)
REMARK    1  A    between atoms: C2_2  and  C3_3 
REMARK    2  A    between atoms: C3_3  and  C4_4 
REMARK    3  A    between atoms: C7_7  and  S1_8 
REMARK    4  A    between atoms: S1_8  and  C8_11 
REMARK    5  A    between atoms: C8_11  and  C11_14 
REMARK    6  A    between atoms: C13_16  and  C14_17 
REMARK    7  A    between atoms: C17_20  and  O3_21 
REMARK    8  A    between atoms: C18_23  and  C19_24 
ROOT
HETATM    1  C8  UNL     1       0.444  -0.122  -0.220  1.00  0.00     0.088 C 
HETATM    2  C9  UNL     1       0.901   1.180   0.456  1.00  0.00     0.037 C 
HETATM    3  C10 UNL     1       0.834  -0.012  -1.673  1.00  0.00     0.037 C 
ENDROOT
BRANCH   1   4
HETATM    4  S1  UNL     1       1.382  -1.454   0.499  1.00  0.00     0.187 S 
HETATM    5  O1  UNL     1       1.230  -1.529   1.972  1.00  0.00    -0.221 OA
HETATM    6  O2  UNL     1       1.104  -2.718  -0.226  1.00  0.00    -0.221 OA
BRANCH   4   7
HETATM    7  C7  UNL     1       3.087  -1.053   0.180  1.00  0.00     0.062 A 
HETATM    8  C6  UNL     1       3.718  -0.199   1.064  1.00  0.00     0.024 A 
HETATM    9  C5  UNL     1       5.037   0.137   0.838  1.00  0.00     0.011 A 
HETATM   10  C4  UNL     1       5.748  -0.346  -0.236  1.00  0.00    -0.033 A 
HETATM   11  C25 UNL     1       5.086  -1.188  -1.086  1.00  0.00     0.042 A 
HETATM   12  C24 UNL     1       3.771  -1.547  -0.895  1.00  0.00     0.047 A 
HETATM   13 CL1  UNL     1       5.898  -1.879  -2.488  1.00  0.00    -0.084 Cl
BRANCH  10  14
HETATM   14  C3  UNL     1       7.171   0.014  -0.487  1.00  0.00     0.066 C 
BRANCH  14  15
HETATM   15  C2  UNL     1       7.613   1.145   0.341  1.00  0.00    -0.032 C 
HETATM   16  C1  UNL     1       8.043   2.251  -0.232  1.00  0.00     0.007 C 
ENDBRANCH  14  15
ENDBRANCH  10  14
ENDBRANCH   4   7
ENDBRANCH   1   4
BRANCH   1  17
HETATM   17  C11 UNL     1      -0.997  -0.229   0.003  1.00  0.00    -0.034 A 
HETATM   18  C12 UNL     1      -1.633  -1.291   0.602  1.00  0.00     0.019 A 
HETATM   19  C13 UNL     1      -2.995  -1.337   0.817  1.00  0.00    -0.020 A 
HETATM   20  C17 UNL     1      -3.742  -0.233   0.393  1.00  0.00     0.079 A 
HETATM   21  C18 UNL     1      -3.152   0.851  -0.211  1.00  0.00    -0.016 A 
HETATM   22  C23 UNL     1      -1.785   0.833  -0.398  1.00  0.00     0.019 A 
BRANCH  19  23
HETATM   23  C14 UNL     1      -3.685  -2.495   1.422  1.00  0.00     0.013 C 
HETATM   24  C15 UNL     1      -2.638  -3.389   2.112  1.00  0.00     0.015 C 
HETATM   25  C16 UNL     1      -4.389  -3.302   0.349  1.00  0.00     0.015 C 
ENDBRANCH  19  23
BRANCH  20  26
HETATM   26  O3  UNL     1      -5.103  -0.172   0.562  1.00  0.00    -0.360 OA
ATOM     27  H3  UNL     1      -5.610   0.578   0.274  1.00  0.00     0.217 HD
ENDBRANCH  20  26
BRANCH  21  28
HETATM   28  C19 UNL     1      -3.904   2.031  -0.626  1.00  0.00    -0.021 C 
HETATM   29  C20 UNL     1      -5.006   1.794  -1.597  1.00  0.00     0.019 C 
HETATM   30  C21 UNL     1      -4.446   2.731   0.590  1.00  0.00     0.019 C 
HETATM   31  C22 UNL     1      -2.972   3.068  -1.282  1.00  0.00     0.019 C 
ENDBRANCH  21  28
ENDBRANCH   1  17
TORSDOF 8
