REMARK  5 active torsions:
REMARK  status: ('A' for Active; 'I' for Inactive)
REMARK    1  A    between atoms: C4_4  and  C5_5 
REMARK    2  A    between atoms: C5_5  and  C6_6 
REMARK    3  A    between atoms: C12_12  and  C13_13 
REMARK       I    between atoms: C13_13  and  N1_15 
REMARK    4  A    between atoms: N1_15  and  C14_17 
REMARK    5  A    between atoms: C17_21  and  C18_22 
ROOT
HETATM    1  C6  UNL     1      -5.500  -0.773   0.813  1.00  0.00    -0.052 A 
HETATM    2  C7  UNL     1      -5.259  -1.126  -0.484  1.00  0.00     0.008 A 
HETATM    3  C8  UNL     1      -3.944  -1.169  -0.951  1.00  0.00     0.015 A 
HETATM    4  C9  UNL     1      -2.855  -0.871  -0.172  1.00  0.00     0.005 A 
HETATM    5  C10 UNL     1      -1.559  -0.914  -0.634  1.00  0.00    -0.027 A 
HETATM    6  C11 UNL     1      -1.288  -1.246  -2.037  1.00  0.00     0.050 C 
HETATM    7  C12 UNL     1      -0.482  -0.598   0.230  1.00  0.00     0.114 A 
HETATM    8  C25 UNL     1      -0.843  -0.258   1.510  1.00  0.00     0.304 A 
HETATM    9  O2  UNL     1      -0.024   0.047   2.404  1.00  0.00    -0.259 OA
HETATM   10  O3  UNL     1      -2.111  -0.226   1.920  1.00  0.00    -0.274 OA
HETATM   11  C26 UNL     1      -3.117  -0.516   1.137  1.00  0.00     0.090 A 
HETATM   12  C27 UNL     1      -4.432  -0.474   1.603  1.00  0.00     0.045 A 
ENDROOT
BRANCH   7  13
HETATM   13  C13 UNL     1       0.898  -0.711  -0.200  1.00  0.00     0.262 C 
HETATM   14  O1  UNL     1       1.115  -1.539  -1.114  1.00  0.00    -0.267 OA
HETATM   15  N1  UNL     1       1.939   0.030   0.333  1.00  0.00    -0.322 N 
ATOM     16  H1  UNL     1       1.658   0.685   1.063  1.00  0.00     0.169 HD
BRANCH  15  17
HETATM   17  C14 UNL     1       3.305   0.039   0.047  1.00  0.00     0.042 A 
HETATM   18  C15 UNL     1       3.894  -0.757  -0.901  1.00  0.00     0.054 A 
HETATM   19  C16 UNL     1       5.265  -0.747  -1.188  1.00  0.00     0.043 A 
HETATM   20 CL1  UNL     1       5.938  -1.807  -2.426  1.00  0.00    -0.084 Cl
HETATM   21  C17 UNL     1       6.076   0.105  -0.486  1.00  0.00    -0.028 A 
HETATM   22  C22 UNL     1       5.526   0.918   0.472  1.00  0.00     0.018 A 
HETATM   23  C23 UNL     1       4.154   0.884   0.735  1.00  0.00    -0.035 A 
HETATM   24  C24 UNL     1       3.568   1.767   1.772  1.00  0.00     0.050 C 
BRANCH  21  25
HETATM   25  C18 UNL     1       7.533   0.177  -0.728  1.00  0.00    -0.022 C 
HETATM   26  C19 UNL     1       7.776   0.574  -2.148  1.00  0.00     0.019 C 
HETATM   27  C20 UNL     1       8.135   1.265   0.145  1.00  0.00     0.019 C 
HETATM   28  C21 UNL     1       8.224  -1.125  -0.368  1.00  0.00     0.019 C 
ENDBRANCH  21  25
ENDBRANCH  15  17
ENDBRANCH   7  13
BRANCH   1  29
HETATM   29  C5  UNL     1      -6.901  -0.724   1.319  1.00  0.00     0.066 C 
BRANCH  29  30
HETATM   30  C4  UNL     1      -7.491   0.613   1.122  1.00  0.00    -0.020 C 
HETATM   31  C2  UNL     1      -8.593   0.792   0.373  1.00  0.00    -0.091 C 
HETATM   32  C1  UNL     1      -9.212  -0.410  -0.261  1.00  0.00     0.042 C 
HETATM   33  C3  UNL     1      -9.187   2.131   0.173  1.00  0.00     0.042 C 
ENDBRANCH  29  30
ENDBRANCH   1  29
TORSDOF 5
