REMARK  6 active torsions:
REMARK  status: ('A' for Active; 'I' for Inactive)
REMARK    1  A    between atoms: C2_2  and  C3_3 
REMARK    2  A    between atoms: C8_8  and  O1_9 
REMARK    3  A    between atoms: C10_11  and  C11_12 
REMARK    4  A    between atoms: C11_12  and  C12_13 
REMARK    5  A    between atoms: C12_13  and  C14_15 
REMARK    6  A    between atoms: C16_17  and  O2_18 
ROOT
HETATM    1  C3  UNL     1      -3.321   0.914   0.593  1.00  0.00    -0.024 A 
HETATM    2  C4  UNL     1      -3.253  -0.478   0.517  1.00  0.00     0.024 A 
HETATM    3  C5  UNL     1      -2.132  -1.137   0.088  1.00  0.00     0.003 A 
HETATM    4  C6  UNL     1      -1.018  -0.386  -0.284  1.00  0.00    -0.015 A 
HETATM    5  C7  UNL     1      -1.070   1.012  -0.215  1.00  0.00     0.050 A 
HETATM    6  C8  UNL     1      -2.212   1.643   0.220  1.00  0.00     0.075 A 
HETATM    7  C10 UNL     1       0.087  -1.024  -0.742  1.00  0.00    -0.045 A 
HETATM    8  C20 UNL     1       0.059  -2.435  -0.829  1.00  0.00     0.021 A 
HETATM    9  C21 UNL     1      -1.051  -3.151  -0.456  1.00  0.00    -0.008 A 
HETATM   10  C22 UNL     1      -1.083  -4.545  -0.538  1.00  0.00     0.015 A 
HETATM   11  C23 UNL     1      -2.228  -5.209  -0.148  1.00  0.00     0.018 A 
HETATM   12  C24 UNL     1      -3.341  -4.553   0.318  1.00  0.00     0.088 A 
HETATM   13  N1  UNL     1      -3.291  -3.206   0.390  1.00  0.00    -0.365 N 
ATOM     14  H1  UNL     1      -4.103  -2.692   0.733  1.00  0.00     0.165 HD
HETATM   15  C25 UNL     1      -2.179  -2.522   0.014  1.00  0.00     0.053 A 
ENDROOT
BRANCH   7  16
HETATM   16  C11 UNL     1       1.339  -0.353  -1.060  1.00  0.00     0.048 C 
BRANCH  16  17
HETATM   17  C12 UNL     1       2.345  -0.274   0.055  1.00  0.00     0.019 C 
HETATM   18  C13 UNL     1       1.904   0.435   1.268  1.00  0.00     0.015 C 
BRANCH  17  19
HETATM   19  C14 UNL     1       3.579   0.386  -0.445  1.00  0.00    -0.050 A 
HETATM   20  C15 UNL     1       4.701  -0.352  -0.766  1.00  0.00     0.044 A 
HETATM   21  C16 UNL     1       5.865   0.243  -1.222  1.00  0.00     0.067 A 
HETATM   22  C17 UNL     1       5.944   1.617  -1.375  1.00  0.00     0.055 A 
HETATM   23  C18 UNL     1       4.835   2.357  -1.060  1.00  0.00     0.014 A 
HETATM   24 BR1  UNL     1       4.876   4.269  -1.240  1.00  0.00    -0.051 Br
HETATM   25  C19 UNL     1       3.685   1.751  -0.607  1.00  0.00     0.026 A 
BRANCH  21  26
HETATM   26  O2  UNL     1       7.013  -0.482  -1.553  1.00  0.00    -0.361 OA
ATOM     27  H2  UNL     1       7.812  -0.074  -1.866  1.00  0.00     0.217 HD
ENDBRANCH  21  26
ENDBRANCH  17  19
ENDBRANCH  16  17
ENDBRANCH   7  16
BRANCH   6  28
HETATM   28  O1  UNL     1      -2.333   3.031   0.315  1.00  0.00    -0.355 OA
HETATM   29  C9  UNL     1      -1.174   3.787  -0.075  1.00  0.00     0.210 C 
ENDBRANCH   6  28
BRANCH   1  30
HETATM   30  C2  UNL     1      -4.544   1.556   1.059  1.00  0.00     0.037 C 
HETATM   31  C1  UNL     1      -5.399   2.176  -0.005  1.00  0.00     0.010 C 
ENDBRANCH   1  30
TORSDOF 6
