REMARK  9 active torsions:
REMARK  status: ('A' for Active; 'I' for Inactive)
REMARK    1  A    between atoms: C3_3  and  C4_4 
REMARK    2  A    between atoms: C5_5  and  O1_6 
REMARK    3  A    between atoms: C6_8  and  C7_9 
REMARK    4  A    between atoms: C9_12  and  C10_13 
REMARK    5  A    between atoms: C13_16  and  C14_17 
REMARK    6  A    between atoms: C19_23  and  C20_24 
REMARK    7  A    between atoms: C20_24  and  C21_25 
REMARK    8  A    between atoms: C20_24  and  C24_28 
REMARK    9  A    between atoms: C21_25  and  C22_26 
ROOT
HETATM    1  C1  UNL     1       3.965   2.271   2.717  1.00  0.00     0.112 C 
HETATM    2  C2  UNL     1       2.767   1.831   1.985  1.00  0.00    -0.105 C 
HETATM    3  C3  UNL     1       1.804   1.487   1.366  1.00  0.00    -0.064 C 
ENDROOT
BRANCH   3   4
HETATM    4  C4  UNL     1       0.660   1.107   0.605  1.00  0.00     0.067 C 
HETATM    5  C5  UNL     1      -0.548   1.790   0.825  1.00  0.00     0.100 C 
HETATM    6  C6  UNL     1      -1.744   1.628   0.121  1.00  0.00     0.055 C 
HETATM    7  C9  UNL     1      -2.297   0.358  -0.252  1.00  0.00    -0.007 C 
HETATM    8  C13 UNL     1      -1.508  -0.746  -0.643  1.00  0.00     0.012 C 
HETATM    9  C18 UNL     1      -0.129  -0.615  -1.002  1.00  0.00     0.192 C 
HETATM   10  O3  UNL     1       0.158  -1.220  -2.043  1.00  0.00    -0.287 OA
HETATM   11  C19 UNL     1       0.876   0.100  -0.319  1.00  0.00     0.047 C 
BRANCH   5  12
HETATM   12  O1  UNL     1      -0.557   2.719   1.833  1.00  0.00    -0.358 OA
ATOM     13  H1  UNL     1      -1.374   3.181   1.982  1.00  0.00     0.217 HD
ENDBRANCH   5  12
BRANCH   6  14
HETATM   14  C7  UNL     1      -2.429   2.819  -0.264  1.00  0.00     0.159 C 
HETATM   15  C8  UNL     1      -1.943   4.150   0.127  1.00  0.00     0.097 C 
HETATM   16  O2  UNL     1      -3.456   2.825  -0.936  1.00  0.00    -0.293 OA
ENDBRANCH   6  14
BRANCH   7  17
HETATM   17  C10 UNL     1      -3.661   0.243   0.005  1.00  0.00    -0.076 C 
HETATM   18  C11 UNL     1      -4.744   0.103  -1.018  1.00  0.00     0.044 C 
HETATM   19  C12 UNL     1      -4.182   1.052   1.188  1.00  0.00     0.044 C 
ENDBRANCH   7  17
BRANCH   8  20
HETATM   20  C14 UNL     1      -2.014  -2.087  -0.645  1.00  0.00    -0.019 C 
HETATM   21  C15 UNL     1      -3.128  -2.578  -1.484  1.00  0.00     0.019 C 
HETATM   22  C16 UNL     1      -0.902  -3.092  -1.057  1.00  0.00     0.019 C 
HETATM   23  C17 UNL     1      -2.179  -2.609   0.838  1.00  0.00     0.019 C 
ENDBRANCH   8  20
BRANCH  11  24
HETATM   24  C20 UNL     1       2.232  -0.285  -0.628  1.00  0.00    -0.014 C 
BRANCH  24  25
HETATM   25  C21 UNL     1       2.815   0.232  -1.678  1.00  0.00    -0.014 C 
BRANCH  25  26
HETATM   26  C22 UNL     1       2.150   1.215  -2.586  1.00  0.00     0.023 C 
HETATM   27  C23 UNL     1       3.048   2.462  -2.653  1.00  0.00     0.009 C 
ENDBRANCH  25  26
ENDBRANCH  24  25
BRANCH  24  28
HETATM   28  C24 UNL     1       2.957  -1.190   0.235  1.00  0.00    -0.025 A 
HETATM   29  C25 UNL     1       4.302  -1.384   0.091  1.00  0.00     0.015 A 
HETATM   30  C26 UNL     1       4.984  -2.287   0.890  1.00  0.00     0.043 A 
HETATM   31  C27 UNL     1       4.357  -3.011   1.841  1.00  0.00     0.116 A 
HETATM   32  F1  UNL     1       5.044  -3.895   2.616  1.00  0.00    -0.206 F 
HETATM   33  C28 UNL     1       2.989  -2.851   2.033  1.00  0.00     0.043 A 
HETATM   34  C29 UNL     1       2.334  -1.943   1.220  1.00  0.00     0.015 A 
ENDBRANCH  24  28
ENDBRANCH  11  24
ENDBRANCH   3   4
TORSDOF 9
