REMARK  9 active torsions:
REMARK  status: ('A' for Active; 'I' for Inactive)
REMARK    1  A    between atoms: C16_16  and  N1_17 
REMARK    2  A    between atoms: C17_19  and  C18_20 
REMARK    3  A    between atoms: C18_20  and  C19_21 
REMARK    4  A    between atoms: C19_21  and  C20_22 
REMARK    5  A    between atoms: C24_27  and  O1_28 
REMARK    6  A    between atoms: C24_27  and  C25_30 
REMARK    7  A    between atoms: C25_30  and  N2_31 
REMARK    8  A    between atoms: N2_31  and  N3_33 
REMARK    9  A    between atoms: N3_33  and  N4_34 
ROOT
HETATM    1  C1  UNL     1      -3.236   3.597   0.753  1.00  0.00     0.010 C 
HETATM    2  C2  UNL     1      -2.941   2.299   1.531  1.00  0.00    -0.016 C 
HETATM    3  C3  UNL     1      -1.518   2.146   1.844  1.00  0.00     0.005 C 
HETATM    4  C4  UNL     1      -0.688   1.265   0.987  1.00  0.00     0.010 C 
HETATM    5  C5  UNL     1      -1.062  -0.162   0.877  1.00  0.00    -0.033 C 
HETATM    6  C6  UNL     1      -1.501  -0.612   2.286  1.00  0.00     0.016 C 
HETATM    7  C7  UNL     1      -2.112  -0.478  -0.131  1.00  0.00     0.030 C 
HETATM    8  C8  UNL     1      -1.607  -0.790  -1.506  1.00  0.00     0.009 C 
HETATM    9  C9  UNL     1      -0.184  -0.460  -1.783  1.00  0.00     0.012 C 
HETATM   10  C10 UNL     1       0.676  -1.117  -0.738  1.00  0.00    -0.015 C 
HETATM   11  C11 UNL     1       0.841  -2.576  -1.221  1.00  0.00     0.021 C 
HETATM   12  C12 UNL     1       1.763  -3.340  -0.314  1.00  0.00    -0.043 C 
HETATM   13  C13 UNL     1       1.796  -4.766  -0.735  1.00  0.00     0.015 C 
HETATM   14  C14 UNL     1       3.141  -2.731  -0.358  1.00  0.00     0.011 C 
HETATM   15  C15 UNL     1       3.087  -1.253  -0.019  1.00  0.00     0.026 C 
HETATM   16  C16 UNL     1       2.086  -0.566  -0.919  1.00  0.00     0.089 C 
HETATM   17  C21 UNL     1       1.250  -3.205   1.083  1.00  0.00     0.010 C 
HETATM   18  C22 UNL     1      -0.108  -2.487   1.106  1.00  0.00     0.007 C 
HETATM   19  C23 UNL     1       0.145  -1.073   0.633  1.00  0.00     0.005 C 
HETATM   20  C24 UNL     1      -3.193   0.557  -0.299  1.00  0.00     0.081 C 
HETATM   21  C26 UNL     1      -3.696   1.208   0.916  1.00  0.00     0.044 C 
ENDROOT
BRANCH  20  22
HETATM   22  O1  UNL     1      -2.762   1.436  -1.289  1.00  0.00    -0.388 OA
ATOM     23  H1  UNL     1      -3.444   2.089  -1.395  1.00  0.00     0.210 HD
ENDBRANCH  20  22
BRANCH  20  24
HETATM   24  C25 UNL     1      -4.368  -0.206  -0.942  1.00  0.00     0.193 C 
BRANCH  24  25
HETATM   25  N2  UNL     1      -5.427   0.656  -1.341  1.00  0.00    -0.250 N 
ATOM     26  H2  UNL     1      -5.807   1.291  -0.639  1.00  0.00     0.197 HD
BRANCH  25  27
HETATM   27  N3  UNL     1      -5.920   0.695  -2.466  1.00  0.00    -0.248 NA
BRANCH  27  28
HETATM   28  N4  UNL     1      -6.188   0.938  -3.654  1.00  0.00    -0.261 N 
ATOM     29  H42 UNL     1      -5.412   1.593  -3.746  1.00  0.00     0.193 HD
ATOM     30  H41 UNL     1      -6.597   0.970  -4.588  1.00  0.00     0.193 HD
ENDBRANCH  27  28
ENDBRANCH  25  27
ENDBRANCH  24  25
ENDBRANCH  20  24
BRANCH  16  31
HETATM   31  N1  UNL     1       2.174   0.833  -0.937  1.00  0.00    -0.397 N 
HETATM   32  C17 UNL     1       3.017   1.470  -0.195  1.00  0.00     0.056 C 
ATOM     33  H1  UNL     1       1.556   1.362  -1.552  1.00  0.00     0.159 HD
BRANCH  32  34
HETATM   34  C18 UNL     1       3.091   2.956  -0.233  1.00  0.00     0.046 C 
BRANCH  34  35
HETATM   35  C19 UNL     1       4.475   3.433  -0.596  1.00  0.00     0.036 C 
BRANCH  35  36
HETATM   36  C20 UNL     1       5.515   2.970   0.386  1.00  0.00     0.222 C 
HETATM   37  F1  UNL     1       6.748   3.451  -0.020  1.00  0.00    -0.255 F 
ENDBRANCH  35  36
ENDBRANCH  34  35
ENDBRANCH  32  34
ENDBRANCH  16  31
TORSDOF 9
