REMARK  4 active torsions:
REMARK  status: ('A' for Active; 'I' for Inactive)
REMARK    1  A    between atoms: N1_2  and  C3_4 
REMARK    2  A    between atoms: C6_7  and  C7_8 
REMARK       I    between atoms: C7_8  and  N2_10 
REMARK    3  A    between atoms: N2_10  and  C8_11 
REMARK    4  A    between atoms: C9_14  and  C10_15 
ROOT
HETATM    1  C8  UNL     1      -1.494  -0.883   0.585  1.00  0.00     0.197 A 
HETATM    2  N3  UNL     1      -2.115   0.356   0.569  1.00  0.00    -0.316 N 
ATOM      3  H3  UNL     1      -1.624   1.157   0.966  1.00  0.00     0.170 HD
HETATM    4  C9  UNL     1      -3.319   0.538   0.059  1.00  0.00     0.118 A 
HETATM    5  N5  UNL     1      -3.959  -0.549  -0.470  1.00  0.00    -0.341 N 
ATOM      6  H5  UNL     1      -4.889  -0.416  -0.867  1.00  0.00     0.167 HD
HETATM    7  C15 UNL     1      -3.430  -1.778  -0.495  1.00  0.00     0.048 A 
HETATM    8  C16 UNL     1      -4.156  -2.843  -1.058  1.00  0.00     0.030 A 
HETATM    9  C17 UNL     1      -3.597  -4.088  -1.074  1.00  0.00     0.002 A 
HETATM   10  C18 UNL     1      -2.342  -4.323  -0.552  1.00  0.00     0.001 A 
HETATM   11  C19 UNL     1      -1.655  -3.243  -0.003  1.00  0.00     0.018 A 
HETATM   12  C20 UNL     1      -2.180  -1.972   0.034  1.00  0.00     0.049 A 
ENDROOT
BRANCH   1  13
HETATM   13  N2  UNL     1      -0.398  -1.013   1.078  1.00  0.00    -0.347 NA
HETATM   14  C7  UNL     1       0.757  -1.441   1.530  1.00  0.00     0.328 C 
HETATM   15  O1  UNL     1       0.920  -2.353   2.423  1.00  0.00    -0.251 OA
BRANCH  14  16
HETATM   16  C6  UNL     1       2.037  -0.882   1.029  1.00  0.00     0.046 A 
HETATM   17  C5  UNL     1       3.264  -1.317   1.480  1.00  0.00     0.020 A 
HETATM   18  C4  UNL     1       4.397  -0.712   0.960  1.00  0.00     0.030 A 
HETATM   19  C3  UNL     1       4.337   0.300   0.016  1.00  0.00     0.029 A 
HETATM   20  C22 UNL     1       3.088   0.704  -0.407  1.00  0.00     0.030 A 
HETATM   21  C21 UNL     1       1.955   0.124   0.090  1.00  0.00     0.020 A 
BRANCH  19  22
HETATM   22  N1  UNL     1       5.509   0.903  -0.478  1.00  0.00    -0.390 N 
HETATM   23  C1  UNL     1       6.454   0.081  -1.206  1.00  0.00     0.149 C 
HETATM   24  C2  UNL     1       5.794   2.306  -0.294  1.00  0.00     0.149 C 
ENDBRANCH  19  22
ENDBRANCH  14  16
ENDBRANCH   1  13
BRANCH   4  25
HETATM   25  C10 UNL     1      -4.000   1.828   0.025  1.00  0.00     0.011 A 
HETATM   26  C11 UNL     1      -5.268   1.928  -0.499  1.00  0.00     0.032 A 
HETATM   27  C12 UNL     1      -5.929   3.164  -0.536  1.00  0.00     0.088 A 
HETATM   28  N4  UNL     1      -5.333   4.265  -0.060  1.00  0.00    -0.375 N 
HETATM   29  C13 UNL     1      -4.099   4.180   0.453  1.00  0.00     0.088 A 
ATOM     30  H4  UNL     1      -5.816   5.163  -0.088  1.00  0.00     0.164 HD
HETATM   31  C14 UNL     1      -3.404   2.956   0.507  1.00  0.00     0.032 A 
ENDBRANCH   4  25
TORSDOF 4
