REMARK  5 active torsions:
REMARK  status: ('A' for Active; 'I' for Inactive)
REMARK    1  A    between atoms: N1_1  and  C1_4 
REMARK    2  A    between atoms: C3_8  and  C4_9 
REMARK       I    between atoms: C4_9  and  N3_11 
REMARK    3  A    between atoms: N3_11  and  N4_13 
REMARK    4  A    between atoms: C5_16  and  N5_17 
REMARK    5  A    between atoms: N5_17  and  N6_19 
ROOT
HETATM    1  C1  UNL     1      -2.476  -0.670  -0.022  1.00  0.00     0.677 A 
HETATM    2  N2  UNL     1      -1.839  -1.568   0.754  1.00  0.00    -0.201 N 
ATOM      3  H2  UNL     1      -2.347  -2.384   1.097  1.00  0.00     0.183 HD
HETATM    4  C2  UNL     1      -0.524  -1.405   1.090  1.00  0.00     0.127 A 
HETATM    5  C3  UNL     1       0.203  -0.320   0.655  1.00  0.00     0.095 A 
HETATM    6  C5  UNL     1      -0.461   0.596  -0.135  1.00  0.00     0.152 A 
HETATM    7  N7  UNL     1      -1.763   0.390  -0.444  1.00  0.00    -0.175 N 
ATOM      8  H7  UNL     1      -2.231   1.080  -1.032  1.00  0.00     0.186 HD
ENDROOT
BRANCH   5   9
HETATM    9  C4  UNL     1       1.629  -0.174   0.958  1.00  0.00     0.274 C 
HETATM   10  O1  UNL     1       2.024   0.086   2.144  1.00  0.00    -0.266 OA
HETATM   11  N3  UNL     1       2.580  -0.328  -0.066  1.00  0.00    -0.272 N 
ATOM     12  H3  UNL     1       2.281  -0.543  -1.017  1.00  0.00     0.189 HD
BRANCH  11  13
HETATM   13  N4  UNL     1       3.945  -0.184   0.231  1.00  0.00    -0.342 N 
ATOM     14  H42 UNL     1       4.228   0.031   1.187  1.00  0.00     0.176 HD
ATOM     15  H41 UNL     1       4.635  -0.296  -0.512  1.00  0.00     0.176 HD
ENDBRANCH  11  13
ENDBRANCH   5   9
BRANCH   6  16
HETATM   16  N5  UNL     1       0.179   1.635  -0.552  1.00  0.00    -0.291 N 
ATOM     17  H5  UNL     1       1.159   1.779  -0.307  1.00  0.00     0.188 HD
BRANCH  16  18
HETATM   18  N6  UNL     1      -0.517   2.574  -1.362  1.00  0.00    -0.344 N 
ATOM     19  H62 UNL     1      -1.497   2.415  -1.598  1.00  0.00     0.176 HD
ATOM     20  H61 UNL     1      -0.011   3.396  -1.692  1.00  0.00     0.176 HD
ENDBRANCH  16  18
ENDBRANCH   6  16
BRANCH   1  21
HETATM   21  N1  UNL     1      -3.709  -0.841  -0.379  1.00  0.00    -0.234 N 
ATOM     22  H12 UNL     1      -4.250  -1.645  -0.059  1.00  0.00     0.174 HD
ATOM     23  H11 UNL     1      -4.191  -0.161  -0.967  1.00  0.00     0.174 HD
ENDBRANCH   1  21
TORSDOF 5
