REMARK  3 active torsions:
REMARK  status: ('A' for Active; 'I' for Inactive)
REMARK    1  A    between atoms: N1_2  and  C2_4 
REMARK    2  A    between atoms: C3_7  and  C5_9 
REMARK       I    between atoms: C5_9  and  N3_11 
REMARK    3  A    between atoms: N3_11  and  N4_13 
ROOT
HETATM    1  C2  UNL     1       1.363  -0.016   0.346  1.00  0.00     0.188 C 
HETATM    2  N2  UNL     1       0.166   0.160   0.788  1.00  0.00    -0.329 N 
ATOM      3  H2  UNL     1      -0.082   0.754   1.579  1.00  0.00     0.165 HD
HETATM    4  C3  UNL     1      -0.775  -0.606   0.002  1.00  0.00     0.203 C 
HETATM    5  C4  UNL     1      -1.727  -1.385   0.892  1.00  0.00     0.071 C 
HETATM    6  N5  UNL     1       0.037  -1.484  -0.796  1.00  0.00    -0.096 NA
HETATM    7  N6  UNL     1       1.321  -0.907  -0.762  1.00  0.00    -0.272 N 
ATOM      8  H6  UNL     1       2.083  -1.094  -1.414  1.00  0.00     0.185 HD
ENDROOT
BRANCH   4   9
HETATM    9  C5  UNL     1      -1.584   0.321  -0.809  1.00  0.00     0.282 C 
HETATM   10  O1  UNL     1      -1.560   0.336  -2.072  1.00  0.00    -0.267 OA
HETATM   11  N3  UNL     1      -2.435   1.248  -0.169  1.00  0.00    -0.273 N 
ATOM     12  H3  UNL     1      -2.467   1.250   0.851  1.00  0.00     0.189 HD
BRANCH  11  13
HETATM   13  N4  UNL     1      -3.235   2.162  -0.855  1.00  0.00    -0.343 N 
ATOM     14  H42 UNL     1      -3.191   2.146  -1.874  1.00  0.00     0.176 HD
ATOM     15  H41 UNL     1      -3.850   2.832  -0.393  1.00  0.00     0.176 HD
ENDBRANCH  11  13
ENDBRANCH   4   9
BRANCH   1  16
HETATM   16  N1  UNL     1       2.564   0.580   0.872  1.00  0.00    -0.366 N 
HETATM   17  C1  UNL     1       3.812  -0.144   0.729  1.00  0.00     0.149 C 
ATOM     18  H1  UNL     1       2.537   1.489   1.334  1.00  0.00     0.162 HD
ENDBRANCH   1  16
TORSDOF 3
