REMARK  4 active torsions:
REMARK  status: ('A' for Active; 'I' for Inactive)
REMARK    1  A    between atoms: N1_1  and  C1_4 
REMARK    2  A    between atoms: C2_5  and  C3_6 
REMARK       I    between atoms: C3_6  and  N2_8 
REMARK    3  A    between atoms: N2_8  and  N3_10 
REMARK    4  A    between atoms: N6_19  and  N7_20 
ROOT
HETATM    1  C1  UNL     1      -0.627  -0.093   0.750  1.00  0.00     0.159 A 
HETATM    2  C2  UNL     1       0.292  -0.086  -0.276  1.00  0.00     0.163 A 
HETATM    3  N4  UNL     1      -0.002   0.689  -1.342  1.00  0.00    -0.288 N 
ATOM      4  H4  UNL     1       0.643   0.730  -2.131  1.00  0.00     0.187 HD
HETATM    5  N5  UNL     1      -1.119   1.394  -1.371  1.00  0.00    -0.249 N 
ATOM      6  H5  UNL     1      -1.309   1.970  -2.191  1.00  0.00     0.192 HD
HETATM    7  C4  UNL     1      -2.022   1.388  -0.364  1.00  0.00     0.361 A 
HETATM    8  O2  UNL     1      -3.065   2.088  -0.467  1.00  0.00    -0.243 OA
HETATM    9  N6  UNL     1      -1.763   0.626   0.714  1.00  0.00    -0.192 N 
ENDROOT
BRANCH   2  10
HETATM   10  C3  UNL     1       1.518  -0.871  -0.224  1.00  0.00     0.291 C 
HETATM   11  O1  UNL     1       1.725  -1.571   0.800  1.00  0.00    -0.264 OA
HETATM   12  N2  UNL     1       2.424  -0.822  -1.310  1.00  0.00    -0.271 N 
ATOM     13  H2  UNL     1       2.198  -0.234  -2.112  1.00  0.00     0.189 HD
BRANCH  12  14
HETATM   14  N3  UNL     1       3.618  -1.551  -1.323  1.00  0.00    -0.342 N 
ATOM     15  H32 UNL     1       3.828  -2.134  -0.513  1.00  0.00     0.176 HD
ATOM     16  H31 UNL     1       4.271  -1.516  -2.106  1.00  0.00     0.176 HD
ENDBRANCH  12  14
ENDBRANCH   2  10
BRANCH   1  17
HETATM   17  N1  UNL     1      -0.345  -0.838   1.773  1.00  0.00    -0.382 N 
ATOM     18  H12 UNL     1       0.517  -1.383   1.800  1.00  0.00     0.157 HD
ATOM     19  H11 UNL     1      -1.026  -0.843   2.533  1.00  0.00     0.157 HD
ENDBRANCH   1  17
BRANCH   9  20
HETATM   20  N7  UNL     1      -2.659   0.583   1.781  1.00  0.00    -0.333 N 
ATOM     21  H72 UNL     1      -2.463   0.005   2.598  1.00  0.00     0.177 HD
ATOM     22  H71 UNL     1      -3.521   1.128   1.754  1.00  0.00     0.177 HD
ENDBRANCH   9  20
TORSDOF 4
