REMARK  3 active torsions:
REMARK  status: ('A' for Active; 'I' for Inactive)
REMARK    1  A    between atoms: N1_1  and  N2_4 
REMARK    2  A    between atoms: N2_4  and  N3_6 
REMARK       I    between atoms: N3_6  and  C1_8 
REMARK    3  A    between atoms: C1_8  and  C2_10 
ROOT
HETATM    1  C2  UNL     1       0.742  -0.379   0.166  1.00  0.00     0.186 A 
HETATM    2  N4  UNL     1       1.813  -1.237   0.221  1.00  0.00    -0.287 N 
ATOM      3  H4  UNL     1       1.625  -2.240   0.225  1.00  0.00     0.187 HD
HETATM    4  N5  UNL     1       3.065  -0.842   0.269  1.00  0.00    -0.251 N 
ATOM      5  H5  UNL     1       3.827  -1.519   0.308  1.00  0.00     0.191 HD
HETATM    6  C3  UNL     1       3.318   0.489   0.266  1.00  0.00     0.341 A 
HETATM    7  O2  UNL     1       4.519   0.894   0.311  1.00  0.00    -0.245 OA
HETATM    8  N6  UNL     1       2.322   1.377   0.215  1.00  0.00    -0.272 N 
ATOM      9  H6  UNL     1       2.532   2.375   0.214  1.00  0.00     0.174 HD
HETATM   10  C4  UNL     1       1.015   0.953   0.164  1.00  0.00     0.283 A 
HETATM   11  O3  UNL     1       0.135   1.862   0.121  1.00  0.00    -0.265 OA
ENDROOT
BRANCH   1  12
HETATM   12  C1  UNL     1      -0.605  -0.896   0.154  1.00  0.00     0.294 C 
HETATM   13  N3  UNL     1      -1.750  -0.163  -0.219  1.00  0.00    -0.250 N 
ATOM     14  H3  UNL     1      -1.634   0.807  -0.512  1.00  0.00     0.192 HD
HETATM   15  O1  UNL     1      -0.725  -2.118   0.519  1.00  0.00    -0.264 OA
BRANCH  13  16
HETATM   16  N2  UNL     1      -3.038  -0.707  -0.205  1.00  0.00    -0.246 N 
ATOM     17  H2  UNL     1      -3.255  -1.584  -0.678  1.00  0.00     0.207 HD
BRANCH  16  18
HETATM   18  N1  UNL     1      -3.981  -0.011   0.467  1.00  0.00    -0.331 N 
ATOM     19  H12 UNL     1      -3.749   0.865   0.935  1.00  0.00     0.178 HD
ATOM     20  H11 UNL     1      -4.921  -0.408   0.477  1.00  0.00     0.178 HD
ENDBRANCH  16  18
ENDBRANCH  13  16
ENDBRANCH   1  12
TORSDOF 3
