REMARK  1 active torsions:
REMARK  status: ('A' for Active; 'I' for Inactive)
REMARK    1  A    between atoms: N1_1  and  C1_4 
REMARK       I    between atoms: N3_11  and  C4_12 
REMARK       I    between atoms: C4_12  and  N4_13 
REMARK       I    between atoms: C4_12  and  N5_17 
ROOT
HETATM    1  C1  UNL     1      -1.972  -0.791  -0.323  1.00  0.00     0.693 A 
HETATM    2  N2  UNL     1      -2.472   0.456  -0.280  1.00  0.00    -0.150 N 
ATOM      3  H2  UNL     1      -3.471   0.631  -0.392  1.00  0.00     0.188 HD
HETATM    4  C2  UNL     1      -1.598   1.469  -0.082  1.00  0.00     0.329 A 
HETATM    5  O1  UNL     1      -2.048   2.649  -0.038  1.00  0.00    -0.261 OA
HETATM    6  C3  UNL     1      -0.246   1.255   0.071  1.00  0.00     0.334 A 
HETATM    7  O2  UNL     1       0.522   2.236   0.253  1.00  0.00    -0.260 OA
HETATM    8  N3  UNL     1       0.212   0.007   0.023  1.00  0.00    -0.183 N 
HETATM    9  C4  UNL     1       1.617  -0.231   0.181  1.00  0.00     0.504 C 
HETATM   10  N4  UNL     1       2.123   0.053   1.489  1.00  0.00    -0.031 N 
ATOM     11  H41 UNL     1       3.123  -0.116   1.601  1.00  0.00     0.279 HD
ATOM     12  H42 UNL     1       1.594  -0.461   2.194  1.00  0.00     0.279 HD
ATOM     13  H43 UNL     1       1.892   1.009   1.759  1.00  0.00     0.279 HD
HETATM   14  N5  UNL     1       2.417   0.466  -0.806  1.00  0.00    -0.031 N 
ATOM     15  H51 UNL     1       3.417   0.297  -0.694  1.00  0.00     0.279 HD
ATOM     16  H52 UNL     1       2.213   1.465  -0.803  1.00  0.00     0.279 HD
ATOM     17  H53 UNL     1       2.111   0.238  -1.752  1.00  0.00     0.279 HD
HETATM   18  N6  UNL     1      -0.651  -0.999  -0.173  1.00  0.00    -0.124 N 
ATOM     19  H6  UNL     1      -0.295  -1.954  -0.210  1.00  0.00     0.206 HD
ENDROOT
BRANCH   1  20
HETATM   20  N1  UNL     1      -2.766  -1.783  -0.509  1.00  0.00    -0.233 N 
ATOM     21  H12 UNL     1      -3.767  -1.625  -0.623  1.00  0.00     0.174 HD
ATOM     22  H11 UNL     1      -2.387  -2.729  -0.542  1.00  0.00     0.174 HD
ENDBRANCH   1  20
TORSDOF 1
