REMARK  2 active torsions:
REMARK  status: ('A' for Active; 'I' for Inactive)
REMARK    1  A    between atoms: O1_2  and  C2_3 
REMARK    2  A    between atoms: N5_15  and  N6_16 
ROOT
HETATM    1  C2  UNL     1       1.517  -0.556   0.417  1.00  0.00     0.168 C 
HETATM    2  C3  UNL     1       0.294  -0.412  -0.012  1.00  0.00     0.123 A 
HETATM    3  C4  UNL     1      -0.484   0.738   0.421  1.00  0.00     0.119 A 
HETATM    4  N1  UNL     1       0.134   1.663   1.303  1.00  0.00    -0.096 NA
HETATM    5  C5  UNL     1      -1.745   0.915  -0.001  1.00  0.00     0.158 A 
HETATM    6  N2  UNL     1      -2.460   2.066   0.459  1.00  0.00    -0.080 NA
HETATM    7  N3  UNL     1      -2.334  -0.028  -0.883  1.00  0.00    -0.175 N 
ATOM      8  H3  UNL     1      -3.293   0.121  -1.195  1.00  0.00     0.185 HD
HETATM    9  C6  UNL     1      -1.632  -1.172  -1.345  1.00  0.00     0.698 A 
HETATM   10  N4  UNL     1      -2.163  -2.034  -2.148  1.00  0.00    -0.233 N 
ATOM     11  H41 UNL     1      -1.659  -2.856  -2.480  1.00  0.00     0.174 HD
ATOM     12  H42 UNL     1      -3.121  -1.901  -2.471  1.00  0.00     0.174 HD
HETATM   13  N5  UNL     1      -0.290  -1.358  -0.893  1.00  0.00    -0.089 N 
ENDROOT
BRANCH   1  14
HETATM   14  O1  UNL     1       2.126   0.365   1.292  1.00  0.00    -0.365 OA
HETATM   15  C1  UNL     1       3.522   0.605   1.078  1.00  0.00     0.209 C 
ENDBRANCH   1  14
BRANCH  13  16
HETATM   16  N6  UNL     1       0.464  -2.471  -1.311  1.00  0.00    -0.324 N 
ATOM     17  H62 UNL     1       1.422  -2.604  -0.988  1.00  0.00     0.178 HD
ATOM     18  H61 UNL     1       0.044  -3.151  -1.945  1.00  0.00     0.178 HD
ENDBRANCH  13  16
TORSDOF 2
