REMARK  1 active torsions:
REMARK  status: ('A' for Active; 'I' for Inactive)
REMARK    1  A    between atoms: N1_1  and  C1_4 
REMARK       I    between atoms: N3_9  and  C3_10 
ROOT
HETATM    1  C1  UNL     1      -2.044  -0.242   0.305  1.00  0.00     0.683 A 
HETATM    2  N2  UNL     1      -1.310   0.870   0.470  1.00  0.00    -0.141 N 
ATOM      3  H2  UNL     1      -1.767   1.727   0.782  1.00  0.00     0.189 HD
HETATM    4  C2  UNL     1       0.032   0.879   0.230  1.00  0.00     0.352 A 
HETATM    5  O1  UNL     1       0.705   1.921   0.388  1.00  0.00    -0.245 OA
HETATM    6  N3  UNL     1       0.664  -0.235  -0.182  1.00  0.00    -0.166 N 
HETATM    7  C3  UNL     1       2.061  -0.261  -0.441  1.00  0.00     0.347 C 
HETATM    8  N4  UNL     1       2.862   0.902  -0.274  1.00  0.00    -0.039 NA
HETATM    9  O2  UNL     1       2.631  -1.306  -0.823  1.00  0.00    -0.250 OA
HETATM   10  C4  UNL     1      -0.084  -1.341  -0.343  1.00  0.00     0.352 A 
HETATM   11  O3  UNL     1       0.517  -2.395  -0.733  1.00  0.00    -0.245 OA
HETATM   12  N5  UNL     1      -1.415  -1.349  -0.105  1.00  0.00    -0.141 N 
ATOM     13  H5  UNL     1      -1.946  -2.210  -0.240  1.00  0.00     0.189 HD
ENDROOT
BRANCH   1  14
HETATM   14  N1  UNL     1      -3.333  -0.227   0.541  1.00  0.00    -0.234 N 
ATOM     15  H12 UNL     1      -3.813   0.617   0.854  1.00  0.00     0.174 HD
ATOM     16  H11 UNL     1      -3.891  -1.072   0.416  1.00  0.00     0.174 HD
ENDBRANCH   1  14
TORSDOF 1
