REMARK  6 active torsions:
REMARK  status: ('A' for Active; 'I' for Inactive)
REMARK    1  A    between atoms: N1_2  and  N2_4 
REMARK    2  A    between atoms: N2_4  and  C2_6 
REMARK    3  A    between atoms: C2_6  and  C3_7 
REMARK    4  A    between atoms: C5_12  and  N4_13 
REMARK    5  A    between atoms: N4_13  and  N5_15 
REMARK    6  A    between atoms: N5_15  and  N6_16 
ROOT
HETATM    1  C3  UNL     1      -0.574   0.828  -0.172  1.00  0.00     0.083 A 
HETATM    2  C4  UNL     1      -1.136   0.264  -1.447  1.00  0.00     0.245 A 
HETATM    3  N3  UNL     1      -1.777  -0.777  -0.629  1.00  0.00    -0.051 N 
ATOM      4  H31 UNL     1      -1.608  -1.755  -0.865  1.00  0.00     0.279 HD
ATOM      5  H32 UNL     1      -2.787  -0.902  -0.704  1.00  0.00     0.279 HD
HETATM    6  C5  UNL     1      -1.230  -0.257   0.619  1.00  0.00     0.320 A 
ENDROOT
BRANCH   1   7
HETATM    7  C2  UNL     1       0.913   0.861  -0.068  1.00  0.00     0.149 C 
BRANCH   7   8
HETATM    8  N2  UNL     1       1.501  -0.460  -0.166  1.00  0.00    -0.337 N 
ATOM      9  H2  UNL     1       0.902  -1.276  -0.291  1.00  0.00     0.180 HD
BRANCH   8  10
HETATM   10  N1  UNL     1       2.880  -0.616  -0.090  1.00  0.00    -0.326 N 
HETATM   11  C1  UNL     1       3.669   0.179   0.506  1.00  0.00     0.138 C 
ATOM     12  H1  UNL     1       3.288  -1.431  -0.548  1.00  0.00     0.184 HD
ENDBRANCH   8  10
ENDBRANCH   7   8
ENDBRANCH   1   7
BRANCH   6  13
HETATM   13  N4  UNL     1      -2.233   0.236   1.543  1.00  0.00    -0.221 N 
ATOM     14  H4  UNL     1      -1.923   0.736   2.376  1.00  0.00     0.199 HD
BRANCH  13  15
HETATM   15  N5  UNL     1      -3.442   0.079   1.369  1.00  0.00    -0.247 NA
BRANCH  15  16
HETATM   16  N6  UNL     1      -4.655   0.142   1.104  1.00  0.00    -0.261 N 
ATOM     17  H62 UNL     1      -4.521   1.087   0.743  1.00  0.00     0.193 HD
ATOM     18  H61 UNL     1      -5.656   0.012   0.960  1.00  0.00     0.193 HD
ENDBRANCH  15  16
ENDBRANCH  13  15
ENDBRANCH   6  13
TORSDOF 6
