REMARK  4 active torsions:
REMARK  status: ('A' for Active; 'I' for Inactive)
REMARK    1  A    between atoms: C3_3  and  C4_4 
REMARK    2  A    between atoms: C3_3  and  C6_9 
REMARK    3  A    between atoms: C4_4  and  N1_5 
REMARK    4  A    between atoms: C6_9  and  N2_11 
ROOT
HETATM    1  C1  UNL     1      -0.798   3.118  -0.253  1.00  0.00     0.012 C 
HETATM    2  C2  UNL     1      -0.442   1.979  -0.090  1.00  0.00    -0.109 C 
HETATM    3  C3  UNL     1       0.000   0.574   0.138  1.00  0.00     0.119 C 
ENDROOT
BRANCH   3   4
HETATM    4  C4  UNL     1       0.998   0.275  -0.959  1.00  0.00     0.250 C 
BRANCH   4   5
HETATM    5  N1  UNL     1       1.553  -1.042  -0.913  1.00  0.00    -0.078 N 
HETATM    6  C5  UNL     1       2.426  -1.162   0.247  1.00  0.00     0.267 C 
ATOM      7  H12 UNL     1       0.833  -1.764  -0.930  1.00  0.00     0.276 HD
ATOM      8  H11 UNL     1       2.029  -1.290  -1.780  1.00  0.00     0.276 HD
ENDBRANCH   4   5
ENDBRANCH   3   4
BRANCH   3   9
HETATM    9  C6  UNL     1      -1.257  -0.260  -0.025  1.00  0.00     0.196 C 
HETATM   10  C7  UNL     1      -2.299   0.180   0.992  1.00  0.00     0.041 C 
BRANCH   9  11
HETATM   11  N2  UNL     1      -1.052  -1.666   0.123  1.00  0.00    -0.074 N 
ATOM     12  H23 UNL     1      -0.325  -1.989  -0.515  1.00  0.00     0.274 HD
ATOM     13  H22 UNL     1      -0.603  -1.869   1.016  1.00  0.00     0.274 HD
ATOM     14  H21 UNL     1      -1.897  -2.227   0.013  1.00  0.00     0.274 HD
ENDBRANCH   9  11
ENDBRANCH   3   9
TORSDOF 4
