REMARK  4 active torsions:
REMARK  status: ('A' for Active; 'I' for Inactive)
REMARK    1  A    between atoms: N1_2  and  N2_3 
REMARK    2  A    between atoms: C3_5  and  C4_6 
REMARK    3  A    between atoms: C4_6  and  N3_7 
REMARK    4  A    between atoms: N3_7  and  C5_10 
ROOT
HETATM    1  C4  UNL     1      -0.557   0.463  -0.117  1.00  0.00     0.255 C 
ENDROOT
BRANCH   1   2
HETATM    2  C3  UNL     1       0.856   0.204  -0.517  1.00  0.00     0.116 A 
HETATM    3  N2  UNL     1       1.806  -0.385   0.376  1.00  0.00    -0.226 NA
HETATM    4  C2  UNL     1       1.874   1.056   0.219  1.00  0.00     0.133 A 
BRANCH   3   5
HETATM    5  N1  UNL     1       2.911  -1.047  -0.178  1.00  0.00    -0.169 NA
HETATM    6  C1  UNL     1       4.060  -0.184   0.016  1.00  0.00     0.152 C 
ENDBRANCH   3   5
ENDBRANCH   1   2
BRANCH   1   7
HETATM    7  N3  UNL     1      -1.302  -0.716   0.267  1.00  0.00    -0.069 N 
ATOM      8  H32 UNL     1      -1.303  -1.446  -0.445  1.00  0.00     0.277 HD
ATOM      9  H31 UNL     1      -0.850  -1.261   1.002  1.00  0.00     0.277 HD
BRANCH   7  10
HETATM   10  C5  UNL     1      -2.644  -0.249   0.627  1.00  0.00     0.186 A 
HETATM   11  C6  UNL     1      -3.403   0.398  -0.545  1.00  0.00     0.035 A 
HETATM   12  C7  UNL     1      -3.842  -0.911   0.071  1.00  0.00     0.035 A 
ENDBRANCH   7  10
ENDBRANCH   1   7
TORSDOF 4
