REMARK  3 active torsions:
REMARK  status: ('A' for Active; 'I' for Inactive)
REMARK    1  A    between atoms: C2_2  and  C3_3 
REMARK    2  A    between atoms: C3_3  and  C4_4 
REMARK    3  A    between atoms: N1_5  and  N2_7 
ROOT
HETATM    1  N2  UNL     1      -0.599  -1.430   0.075  1.00  0.00    -0.272 N 
ATOM      2  H2  UNL     1      -0.709  -2.305   0.587  1.00  0.00     0.190 HD
HETATM    3  C5  UNL     1      -1.614  -0.608  -0.013  1.00  0.00     0.190 C 
HETATM    4  N3  UNL     1      -2.883  -0.868   0.573  1.00  0.00    -0.360 N 
ATOM      5  H3  UNL     1      -3.131  -1.670   1.152  1.00  0.00     0.162 HD
HETATM    6  C6  UNL     1      -3.759   0.224   0.192  1.00  0.00     0.142 C 
HETATM    7  C7  UNL     1      -2.776   1.352  -0.038  1.00  0.00     0.142 C 
HETATM    8  N4  UNL     1      -1.675   0.651  -0.673  1.00  0.00    -0.360 N 
ATOM      9  H4  UNL     1      -1.076   0.987  -1.427  1.00  0.00     0.162 HD
ENDROOT
BRANCH   1  10
HETATM   10  N1  UNL     1       0.630  -1.135  -0.516  1.00  0.00    -0.313 N 
HETATM   11  C4  UNL     1       1.239  -0.034  -0.167  1.00  0.00     0.084 C 
ATOM     12  H1  UNL     1       1.043  -1.764  -1.204  1.00  0.00     0.185 HD
BRANCH  11  13
HETATM   13  C3  UNL     1       2.537   0.294  -0.780  1.00  0.00     0.072 C 
BRANCH  13  14
HETATM   14  C2  UNL     1       3.460  -0.846  -0.543  1.00  0.00    -0.032 C 
HETATM   15  C1  UNL     1       4.578  -0.636   0.135  1.00  0.00     0.007 C 
ENDBRANCH  13  14
ENDBRANCH  11  13
ENDBRANCH   1  10
TORSDOF 3
