REMARK  4 active torsions:
REMARK  status: ('A' for Active; 'I' for Inactive)
REMARK    1  A    between atoms: S1_2  and  N1_3 
REMARK    2  A    between atoms: S1_2  and  O2_7 
REMARK    3  A    between atoms: O2_7  and  N2_8 
REMARK    4  A    between atoms: N2_8  and  C2_9 
ROOT
HETATM    1  C1  UNL     1      -2.806   1.007   1.088  1.00  0.00     0.169 C 
HETATM    2  S1  UNL     1      -1.924  -0.313   0.949  1.00  0.00     0.153 S 
HETATM    3  O1  UNL     1      -2.722  -1.273   1.826  1.00  0.00    -0.221 OA
ENDROOT
BRANCH   2   4
HETATM    4  N1  UNL     1      -1.877  -0.935  -0.624  1.00  0.00    -0.339 N 
ATOM      5  H12 UNL     1      -2.372  -0.495  -1.399  1.00  0.00     0.167 HD
ATOM      6  H11 UNL     1      -1.312  -1.780  -0.713  1.00  0.00     0.167 HD
ENDBRANCH   2   4
BRANCH   2   7
HETATM    7  O2  UNL     1      -0.385  -0.129   1.534  1.00  0.00    -0.176 OA
BRANCH   7   8
HETATM    8  N2  UNL     1       0.394   0.483   0.647  1.00  0.00    -0.078 NA
BRANCH   8   9
HETATM    9  C2  UNL     1       1.357  -0.371   0.016  1.00  0.00     0.108 A 
HETATM   10  C3  UNL     1       2.238   0.362  -0.999  1.00  0.00     0.025 A 
HETATM   11  C4  UNL     1       2.796  -0.307   0.281  1.00  0.00     0.025 A 
ENDBRANCH   8   9
ENDBRANCH   7   8
ENDBRANCH   2   7
TORSDOF 4
