REMARK  4 active torsions:
REMARK  status: ('A' for Active; 'I' for Inactive)
REMARK    1  A    between atoms: N1_2  and  N2_4 
REMARK    2  A    between atoms: C2_6  and  C3_7 
REMARK    3  A    between atoms: N3_8  and  C4_10 
REMARK    4  A    between atoms: C4_10  and  C5_11 
ROOT
HETATM    1  C3  UNL     1       0.893   0.276   0.362  1.00  0.00     0.101 C 
HETATM    2  N3  UNL     1      -0.218   0.885   0.165  1.00  0.00    -0.396 N 
ATOM      3  H3  UNL     1      -0.541   1.523   0.892  1.00  0.00     0.158 HD
ENDROOT
BRANCH   2   4
HETATM    4  C4  UNL     1      -1.044   0.737  -1.003  1.00  0.00     0.153 C 
BRANCH   4   5
HETATM    5  C5  UNL     1      -2.134  -0.243  -0.634  1.00  0.00     0.229 A 
HETATM    6  C6  UNL     1      -2.989   0.229   0.530  1.00  0.00     0.267 A 
HETATM    7  N4  UNL     1      -3.520   0.136  -0.803  1.00  0.00    -0.066 N 
ATOM      8  H42 UNL     1      -3.988   0.806  -1.413  1.00  0.00     0.277 HD
ATOM      9  H41 UNL     1      -4.329  -0.344  -1.197  1.00  0.00     0.277 HD
ENDBRANCH   4   5
ENDBRANCH   2   4
BRANCH   1  10
HETATM   10  C2  UNL     1       1.457  -0.657  -0.599  1.00  0.00     0.123 C 
HETATM   11  N2  UNL     1       2.577  -1.233  -0.336  1.00  0.00    -0.312 N 
ATOM     12  H2  UNL     1       2.975  -1.888  -1.009  1.00  0.00     0.186 HD
BRANCH  11  13
HETATM   13  N1  UNL     1       3.254  -0.975   0.854  1.00  0.00    -0.322 N 
HETATM   14  C1  UNL     1       4.219  -0.147   0.906  1.00  0.00     0.139 C 
ATOM     15  H1  UNL     1       2.969  -1.462   1.704  1.00  0.00     0.185 HD
ENDBRANCH  11  13
ENDBRANCH   1  10
TORSDOF 4
