REMARK  6 active torsions:
REMARK  status: ('A' for Active; 'I' for Inactive)
REMARK    1  A    between atoms: C2_2  and  C3_3 
REMARK    2  A    between atoms: C3_3  and  C4_4 
REMARK    3  A    between atoms: C4_4  and  C5_5 
REMARK    4  A    between atoms: C6_6  and  C7_7 
REMARK    5  A    between atoms: C7_7  and  O1_8 
REMARK    6  A    between atoms: N1_10  and  O2_12 
ROOT
HETATM    1  C1  UNL     1      -3.705   0.347  -0.320  1.00  0.00     0.058 C 
HETATM    2  C2  UNL     1      -2.241   0.279   0.120  1.00  0.00    -0.010 C 
HETATM    3  C8  UNL     1      -2.139   0.329   1.464  1.00  0.00     0.108 C 
HETATM    4  C9  UNL     1      -0.867   0.278   2.084  1.00  0.00     0.089 C 
HETATM    5  N2  UNL     1       0.176   0.238   2.635  1.00  0.00    -0.192 NA
ENDROOT
BRANCH   2   6
HETATM    6  C3  UNL     1      -1.165   0.182  -0.705  1.00  0.00    -0.136 C 
BRANCH   6   7
HETATM    7  C4  UNL     1      -0.154   0.091  -1.479  1.00  0.00     0.179 C 
BRANCH   7   8
HETATM    8  C5  UNL     1       1.201   0.040  -0.908  1.00  0.00    -0.086 C 
HETATM    9  C6  UNL     1       2.322  -0.010  -0.465  1.00  0.00    -0.021 C 
BRANCH   9  10
HETATM   10  C7  UNL     1       3.662  -0.061   0.039  1.00  0.00     0.217 C 
HETATM   11  N1  UNL     1       4.275  -1.136   0.394  1.00  0.00    -0.240 N 
ATOM     12  H1  UNL     1       5.231  -1.131   0.748  1.00  0.00     0.197 HD
BRANCH  10  13
HETATM   13  O1  UNL     1       4.400   1.126   0.174  1.00  0.00    -0.338 OA
ATOM     14  H1  UNL     1       5.289   1.092   0.508  1.00  0.00     0.220 HD
ENDBRANCH  10  13
BRANCH  11  15
HETATM   15  O2  UNL     1       3.531  -2.309   0.257  1.00  0.00    -0.287 OA
ATOM     16  H2  UNL     1       3.983  -3.102   0.519  1.00  0.00     0.244 HD
ENDBRANCH  11  15
ENDBRANCH   9  10
ENDBRANCH   7   8
ENDBRANCH   6   7
ENDBRANCH   2   6
TORSDOF 6
