REMARK  2 active torsions:
REMARK  status: ('A' for Active; 'I' for Inactive)
REMARK    1  A    between atoms: N1_2  and  N2_3 
REMARK    2  A    between atoms: N1_2  and  C2_8 
ROOT
HETATM    1  C2  UNL     1       0.870  -0.094  -0.415  1.00  0.00     0.095 C 
HETATM    2  N4  UNL     1       0.050   0.494   0.355  1.00  0.00    -0.370 N 
ATOM      3  H4  UNL     1       0.449   1.163   1.013  1.00  0.00     0.161 HD
HETATM    4  C3  UNL     1      -1.362   0.327   0.406  1.00  0.00     0.024 C 
HETATM    5  C4  UNL     1      -2.007   1.454  -0.391  1.00  0.00     0.038 C 
HETATM    6  C5  UNL     1      -1.815   0.511   1.842  1.00  0.00     0.038 C 
HETATM    7  C6  UNL     1      -1.853  -0.974  -0.172  1.00  0.00     0.030 C 
HETATM    8  C7  UNL     1      -0.736  -1.858  -0.664  1.00  0.00     0.010 C 
HETATM    9  C8  UNL     1       0.323  -1.074  -1.385  1.00  0.00     0.078 C 
ENDROOT
BRANCH   1  10
HETATM   10  N1  UNL     1       2.256   0.208  -0.316  1.00  0.00    -0.271 N 
HETATM   11  C1  UNL     1       3.021  -0.415   0.740  1.00  0.00     0.181 C 
BRANCH  10  12
HETATM   12  N2  UNL     1       2.816   1.089  -1.241  1.00  0.00    -0.246 N 
HETATM   13  N3  UNL     1       3.263   2.227  -0.971  1.00  0.00    -0.331 N 
ATOM     14  H32 UNL     1       3.206   2.517   0.005  1.00  0.00     0.178 HD
ATOM     15  H31 UNL     1       3.673   2.871  -1.647  1.00  0.00     0.178 HD
ATOM     16  H2  UNL     1       2.865   0.783  -2.213  1.00  0.00     0.208 HD
ENDBRANCH  10  12
ENDBRANCH   1  10
TORSDOF 2
