REMARK  1 active torsions:
REMARK  status: ('A' for Active; 'I' for Inactive)
REMARK    1  A    between atoms: O1_1  and  C1_3 
ROOT
HETATM    1  C1  UNL     1       1.233  -0.204   0.310  1.00  0.00     0.137 C 
HETATM    2  C2  UNL     1       0.286  -0.888  -0.670  1.00  0.00     0.107 C 
HETATM    3  S1  UNL     1      -1.211  -1.426   0.149  1.00  0.00    -0.155 SA
HETATM    4  C3  UNL     1      -2.588  -0.311  -0.032  1.00  0.00     0.160 C 
HETATM    5  S2  UNL     1      -2.194   1.411   0.207  1.00  0.00    -0.087 SA
HETATM    6  S3  UNL     1      -0.376   1.750   1.197  1.00  0.00    -0.094 SA
HETATM    7  C4  UNL     1       1.030   1.296   0.154  1.00  0.00     0.118 C 
ENDROOT
BRANCH   1   8
HETATM    8  O1  UNL     1       2.546  -0.475   0.006  1.00  0.00    -0.394 OA
ATOM      9  H1  UNL     1       3.136  -0.049   0.617  1.00  0.00     0.210 HD
ENDBRANCH   1   8
TORSDOF 1
