REMARK  1 active torsions:
REMARK  status: ('A' for Active; 'I' for Inactive)
REMARK    1  A    between atoms: C2_2  and  C3_3 
ROOT
HETATM    1  C3  UNL     1       0.228   0.547  -0.513  1.00  0.00     0.039 C 
HETATM    2  C4  UNL     1      -0.287   1.970  -0.564  1.00  0.00     0.088 C 
HETATM    3  S1  UNL     1      -2.046   1.725  -1.049  1.00  0.00    -0.114 SA
HETATM    4  C5  UNL     1      -2.180   0.154  -0.210  1.00  0.00     0.078 C 
HETATM    5  N1  UNL     1      -3.288  -0.307   0.214  1.00  0.00    -0.395 N 
ATOM      6  H11 UNL     1      -3.365  -1.204   0.693  1.00  0.00     0.156 HD
ATOM      7  H12 UNL     1      -4.236   0.068   0.175  1.00  0.00     0.156 HD
HETATM    8  C6  UNL     1      -0.818  -0.385  -0.154  1.00  0.00     0.189 C 
HETATM    9  C7  UNL     1      -0.841  -1.540  -1.097  1.00  0.00     0.092 C 
HETATM   10  N2  UNL     1      -0.838  -2.444  -1.828  1.00  0.00    -0.195 NA
HETATM   11  C8  UNL     1      -0.674  -0.914   1.231  1.00  0.00     0.092 C 
HETATM   12  N3  UNL     1      -0.582  -1.333   2.321  1.00  0.00    -0.195 NA
ENDROOT
BRANCH   1  13
HETATM   13  C2  UNL     1       1.494   0.512   0.304  1.00  0.00     0.004 C 
HETATM   14  C1  UNL     1       2.136  -0.838   0.428  1.00  0.00     0.005 C 
ENDBRANCH   1  13
TORSDOF 1
