REMARK  2 active torsions:
REMARK  status: ('A' for Active; 'I' for Inactive)
REMARK    1  A    between atoms: C2_2  and  O1_3 
REMARK    2  A    between atoms: C2_2  and  C3_5 
ROOT
HETATM    1  C3  UNL     1      -0.256  -0.187   0.285  1.00  0.00     0.038 C 
HETATM    2  C4  UNL     1      -0.036  -1.508   1.009  1.00  0.00     0.030 C 
HETATM    3  C5  UNL     1       0.298   0.902   1.158  1.00  0.00     0.096 C 
HETATM    4  S1  UNL     1       1.064   2.225   0.152  1.00  0.00    -0.167 SA
HETATM    5  C6  UNL     1       2.522   1.638  -0.711  1.00  0.00     0.084 C 
HETATM    6  C7  UNL     1       2.415   0.123  -0.863  1.00  0.00     0.085 C 
HETATM    7  S2  UNL     1       0.657  -0.218  -1.255  1.00  0.00    -0.155 SA
ENDROOT
BRANCH   1   8
HETATM    8  C2  UNL     1      -1.746  -0.032   0.084  1.00  0.00     0.133 C 
HETATM    9  C1  UNL     1      -2.341  -1.133  -0.725  1.00  0.00     0.041 C 
BRANCH   8  10
HETATM   10  O1  UNL     1      -2.012   1.197  -0.543  1.00  0.00    -0.394 OA
ATOM     11  H1  UNL     1      -1.633   1.899  -0.027  1.00  0.00     0.210 HD
ENDBRANCH   8  10
ENDBRANCH   1   8
TORSDOF 2
