REMARK  3 active torsions:
REMARK  status: ('A' for Active; 'I' for Inactive)
REMARK    1  A    between atoms: O1_1  and  C1_3 
REMARK    2  A    between atoms: C8_10  and  O2_11 
REMARK    3  A    between atoms: C13_17  and  O3_18 
ROOT
HETATM    1  C1  UNL     1       4.172  -0.508   0.389  1.00  0.00     0.118 C 
HETATM    2  C2  UNL     1       3.995   0.900  -0.142  1.00  0.00     0.032 C 
HETATM    3  C3  UNL     1       2.814   0.838  -1.115  1.00  0.00     0.011 C 
HETATM    4  C4  UNL     1       1.540   0.961  -0.323  1.00  0.00     0.012 C 
HETATM    5  C5  UNL     1       0.582   1.750  -1.187  1.00  0.00    -0.025 C 
HETATM    6  C6  UNL     1      -0.675   1.750  -0.727  1.00  0.00    -0.023 C 
HETATM    7  C7  UNL     1      -0.902   0.987   0.531  1.00  0.00     0.043 C 
HETATM    8  C8  UNL     1      -2.235   1.223   1.138  1.00  0.00     0.126 C 
HETATM    9  C9  UNL     1      -3.410   1.204   0.216  1.00  0.00     0.032 C 
HETATM   10  C10 UNL     1      -4.212  -0.046   0.523  1.00  0.00     0.002 C 
HETATM   11  C11 UNL     1      -3.765  -1.226  -0.299  1.00  0.00     0.002 C 
HETATM   12  C12 UNL     1      -2.506  -1.867   0.282  1.00  0.00     0.032 C 
HETATM   13  C13 UNL     1      -1.273  -1.354  -0.387  1.00  0.00     0.123 C 
HETATM   14  C14 UNL     1      -0.451  -0.417   0.402  1.00  0.00     0.029 C 
HETATM   15  C15 UNL     1       0.939  -0.416  -0.207  1.00  0.00     0.000 C 
HETATM   16  C16 UNL     1       1.834  -1.392   0.512  1.00  0.00     0.008 C 
HETATM   17  C17 UNL     1       2.948  -0.768   1.278  1.00  0.00     0.032 C 
ENDROOT
BRANCH   1  18
HETATM   18  O1  UNL     1       5.351  -0.648   1.080  1.00  0.00    -0.396 OA
ATOM     19  H1  UNL     1       5.462  -1.531   1.413  1.00  0.00     0.210 HD
ENDBRANCH   1  18
BRANCH  13  20
HETATM   20  O3  UNL     1      -1.512  -0.895  -1.698  1.00  0.00    -0.395 OA
ATOM     21  H3  UNL     1      -0.728  -0.569  -2.123  1.00  0.00     0.210 HD
ENDBRANCH  13  20
BRANCH   8  22
HETATM   22  O2  UNL     1      -2.210   2.522   1.712  1.00  0.00    -0.395 OA
ATOM     23  H2  UNL     1      -3.064   2.673   2.101  1.00  0.00     0.210 HD
ENDBRANCH   8  22
TORSDOF 3
