REMARK  2 active torsions:
REMARK  status: ('A' for Active; 'I' for Inactive)
REMARK    1  A    between atoms: C5_5  and  O1_6 
REMARK    2  A    between atoms: C13_15  and  O2_16 
ROOT
HETATM    1  C1  UNL     1       1.913   0.054  -1.989  1.00  0.00     0.016 C 
HETATM    2  C2  UNL     1       1.391  -0.052  -0.568  1.00  0.00    -0.036 C 
HETATM    3  C3  UNL     1       1.682   1.236   0.126  1.00  0.00     0.012 C 
HETATM    4  C4  UNL     1       3.162   1.487   0.214  1.00  0.00     0.032 C 
HETATM    5  C5  UNL     1       3.944   0.328   0.738  1.00  0.00     0.118 C 
HETATM    6  C6  UNL     1       3.508  -0.996   0.212  1.00  0.00     0.037 C 
HETATM    7  C7  UNL     1       2.034  -1.186   0.164  1.00  0.00    -0.004 C 
HETATM    8  C8  UNL     1       1.440  -1.301   1.541  1.00  0.00     0.006 C 
HETATM    9  C9  UNL     1      -0.051  -1.452   1.497  1.00  0.00     0.006 C 
HETATM   10  C10 UNL     1      -0.718  -0.341   0.711  1.00  0.00    -0.005 C 
HETATM   11  C11 UNL     1      -2.184  -0.677   0.597  1.00  0.00    -0.004 C 
HETATM   12  C12 UNL     1      -3.051   0.375   1.301  1.00  0.00     0.037 C 
HETATM   13  C13 UNL     1      -4.366   0.383   0.589  1.00  0.00     0.118 C 
HETATM   14  C14 UNL     1      -4.207  -0.573  -0.586  1.00  0.00     0.036 C 
HETATM   15  C15 UNL     1      -2.704  -0.591  -0.809  1.00  0.00    -0.008 C 
HETATM   16  C16 UNL     1      -2.239   0.702  -1.424  1.00  0.00     0.005 C 
HETATM   17  C17 UNL     1      -0.741   0.616  -1.613  1.00  0.00     0.006 C 
HETATM   18  C18 UNL     1      -0.085  -0.312  -0.651  1.00  0.00    -0.002 C 
ENDROOT
BRANCH   5  19
HETATM   19  O1  UNL     1       5.288   0.519   0.337  1.00  0.00    -0.396 OA
ATOM     20  H1  UNL     1       5.786  -0.218   0.670  1.00  0.00     0.210 HD
ENDBRANCH   5  19
BRANCH  13  21
HETATM   21  O2  UNL     1      -4.737   1.628   0.107  1.00  0.00    -0.396 OA
ATOM     22  H2  UNL     1      -5.572   1.633  -0.345  1.00  0.00     0.210 HD
ENDBRANCH  13  21
TORSDOF 2
