REMARK  2 active torsions:
REMARK  status: ('A' for Active; 'I' for Inactive)
REMARK    1  A    between atoms: O1_1  and  C1_3 
REMARK    2  A    between atoms: C17_22  and  O2_23 
ROOT
HETATM    1  C1  UNL     1      -2.154  -0.603   0.029  1.00  0.00     0.064 C 
HETATM    2  C2  UNL     1      -2.763  -0.624  -1.364  1.00  0.00     0.038 C 
HETATM    3  C3  UNL     1      -3.725   0.531  -1.499  1.00  0.00     0.003 C 
HETATM    4  C4  UNL     1      -4.385   0.906  -0.202  1.00  0.00     0.001 C 
HETATM    5  C5  UNL     1      -3.436   1.266   0.889  1.00  0.00     0.007 C 
HETATM    6  C6  UNL     1      -2.031   0.821   0.438  1.00  0.00     0.020 C 
HETATM    7  C7  UNL     1      -1.119   1.055   1.591  1.00  0.00     0.008 C 
HETATM    8  C8  UNL     1       0.323   0.852   1.342  1.00  0.00     0.008 C 
HETATM    9  C9  UNL     1       0.700   0.449  -0.049  1.00  0.00     0.025 C 
HETATM   10  C10 UNL     1       2.140   0.762  -0.269  1.00  0.00     0.001 C 
HETATM   11  C11 UNL     1       2.930   0.972   0.994  1.00  0.00     0.040 C 
HETATM   12  C12 UNL     1       4.377   0.762   0.528  1.00  0.00     0.217 A 
HETATM   13  N1  UNL     1       4.783   1.432  -0.679  1.00  0.00    -0.062 N 
ATOM     14  H11 UNL     1       5.613   1.946  -0.975  1.00  0.00     0.278 HD
ATOM     15  H12 UNL     1       4.501   2.286  -1.160  1.00  0.00     0.278 HD
HETATM   16  C13 UNL     1       4.374   0.071  -0.723  1.00  0.00     0.221 A 
HETATM   17  C14 UNL     1       2.921  -0.302  -0.972  1.00  0.00     0.023 C 
HETATM   18  C15 UNL     1       2.724  -1.677  -0.437  1.00  0.00     0.010 C 
HETATM   19  C16 UNL     1       1.389  -1.926   0.155  1.00  0.00     0.038 C 
HETATM   20  C17 UNL     1       0.322  -0.958  -0.380  1.00  0.00     0.065 C 
HETATM   21  C18 UNL     1      -0.948  -1.432   0.175  1.00  0.00     0.076 C 
ENDROOT
BRANCH   1  22
HETATM   22  O1  UNL     1      -3.142  -1.201   0.854  1.00  0.00    -0.389 OA
ATOM     23  H1  UNL     1      -2.761  -1.188   1.724  1.00  0.00     0.210 HD
ENDBRANCH   1  22
BRANCH  20  24
HETATM   24  O2  UNL     1       0.381  -1.078  -1.788  1.00  0.00    -0.389 OA
ATOM     25  H2  UNL     1       0.141  -1.973  -1.998  1.00  0.00     0.210 HD
ENDBRANCH  20  24
TORSDOF 2
