REMARK  3 active torsions:
REMARK  status: ('A' for Active; 'I' for Inactive)
REMARK    1  A    between atoms: C13_13  and  O1_14 
REMARK    2  A    between atoms: C14_16  and  C15_17 
REMARK    3  A    between atoms: C15_17  and  O2_18 
ROOT
HETATM    1  C1  UNL     1       5.078  -0.638  -0.119  1.00  0.00     0.010 C 
HETATM    2  C2  UNL     1       4.122   0.344  -0.779  1.00  0.00    -0.018 C 
HETATM    3  C3  UNL     1       3.556   1.326   0.228  1.00  0.00     0.009 C 
HETATM    4  C4  UNL     1       2.059   1.205   0.028  1.00  0.00    -0.010 C 
HETATM    5  C5  UNL     1       1.258   1.571   1.218  1.00  0.00     0.005 C 
HETATM    6  C6  UNL     1      -0.142   1.041   1.124  1.00  0.00     0.006 C 
HETATM    7  C7  UNL     1      -0.355   0.381  -0.195  1.00  0.00    -0.005 C 
HETATM    8  C8  UNL     1       0.581  -0.780  -0.438  1.00  0.00    -0.006 C 
HETATM    9  C9  UNL     1       0.279  -1.888   0.540  1.00  0.00     0.006 C 
HETATM   10  C10 UNL     1      -1.130  -2.270   0.662  1.00  0.00     0.005 C 
HETATM   11  C11 UNL     1      -2.164  -1.306   0.264  1.00  0.00    -0.007 C 
HETATM   12  C12 UNL     1      -2.963  -0.785   1.469  1.00  0.00     0.037 C 
HETATM   13  C13 UNL     1      -3.404   0.599   1.113  1.00  0.00     0.125 C 
HETATM   14  C14 UNL     1      -2.794   0.946  -0.202  1.00  0.00     0.043 C 
HETATM   15  C16 UNL     1      -1.735  -0.096  -0.464  1.00  0.00     0.003 C 
HETATM   16  C17 UNL     1       1.971  -0.308  -0.165  1.00  0.00    -0.006 C 
HETATM   17  C18 UNL     1       2.943  -0.487  -1.277  1.00  0.00     0.009 C 
ENDROOT
BRANCH  14  18
HETATM   18  C15 UNL     1      -3.812   0.968  -1.340  1.00  0.00     0.171 C 
BRANCH  18  19
HETATM   19  O2  UNL     1      -4.436  -0.246  -1.520  1.00  0.00    -0.400 OA
ATOM     20  H2  UNL     1      -5.069  -0.232  -2.228  1.00  0.00     0.209 HD
ENDBRANCH  18  19
ENDBRANCH  14  18
BRANCH  13  21
HETATM   21  O1  UNL     1      -4.800   0.612   1.087  1.00  0.00    -0.395 OA
ATOM     22  H1  UNL     1      -5.080   1.491   0.861  1.00  0.00     0.210 HD
ENDBRANCH  13  21
TORSDOF 3
