REMARK  10 active torsions:
REMARK  status: ('A' for Active; 'I' for Inactive)
REMARK    1  A    between atoms: N1_2  and  C3_4 
REMARK    2  A    between atoms: C3_4  and  C6_7 
REMARK       I    between atoms: C6_7  and  N2_9 
REMARK    3  A    between atoms: N2_9  and  C7_11 
REMARK    4  A    between atoms: C7_11  and  C8_12 
REMARK    5  A    between atoms: C7_11  and  C12_20 
REMARK    6  A    between atoms: C8_12  and  C9_13 
REMARK    7  A    between atoms: C9_13  and  C10_14 
REMARK    8  A    between atoms: C10_14  and  N3_15 
REMARK       I    between atoms: C12_20  and  N6_22 
REMARK    9  A    between atoms: C15_25  and  C16_26 
REMARK       I    between atoms: C16_26  and  N7_28 
REMARK   10  A    between atoms: N7_28  and  C17_30 
ROOT
HETATM    1  C16 UNL     1       0.267  -1.710  -0.296  1.00  0.00     0.241 C 
HETATM    2  O3  UNL     1       0.137  -0.480  -0.080  1.00  0.00    -0.271 OA
HETATM    3  N7  UNL     1      -0.713  -2.558   0.276  1.00  0.00    -0.354 N 
ATOM      4  H7  UNL     1      -0.627  -3.563   0.124  1.00  0.00     0.162 HD
ENDROOT
BRANCH   1   5
HETATM    5  C15 UNL     1       1.387  -2.225  -1.108  1.00  0.00     0.180 C 
HETATM    6  N6  UNL     1       2.347  -1.156  -1.435  1.00  0.00    -0.337 N 
HETATM    7  C12 UNL     1       3.501  -0.707  -0.764  1.00  0.00     0.243 C 
HETATM    8  C13 UNL     1       1.553  -0.885  -2.589  1.00  0.00     0.129 C 
HETATM    9  O2  UNL     1       3.864  -1.332   0.308  1.00  0.00    -0.271 OA
HETATM   10  C14 UNL     1       1.098  -2.339  -2.584  1.00  0.00     0.055 C 
BRANCH   7  11
HETATM   11  C7  UNL     1       4.361   0.415  -1.142  1.00  0.00     0.176 C 
BRANCH  11  12
HETATM   12  N2  UNL     1       5.460   0.555  -0.190  1.00  0.00    -0.346 N 
HETATM   13  C6  UNL     1       5.563   1.608   0.750  1.00  0.00     0.256 C 
HETATM   14  O1  UNL     1       4.699   2.490   0.813  1.00  0.00    -0.271 OA
ATOM     15  H2  UNL     1       6.198  -0.149  -0.204  1.00  0.00     0.163 HD
BRANCH  13  16
HETATM   16  C3  UNL     1       6.726   1.674   1.691  1.00  0.00     0.231 C 
HETATM   17  C4  UNL     1       7.954   1.890   0.830  1.00  0.00     0.059 C 
HETATM   18  C5  UNL     1       6.866   0.377   2.456  1.00  0.00     0.059 C 
BRANCH  16  19
HETATM   19  N1  UNL     1       6.577   2.745   2.666  1.00  0.00     0.098 N 
HETATM   20  C1  UNL     1       7.720   2.763   3.573  1.00  0.00     0.310 C 
HETATM   21  C2  UNL     1       5.407   2.498   3.492  1.00  0.00     0.310 C 
ENDBRANCH  16  19
ENDBRANCH  13  16
ENDBRANCH  11  12
BRANCH  11  22
HETATM   22  C8  UNL     1       4.861   0.337  -2.541  1.00  0.00     0.036 C 
BRANCH  22  23
HETATM   23  C9  UNL     1       5.771  -0.846  -2.781  1.00  0.00     0.022 C 
BRANCH  23  24
HETATM   24  C10 UNL     1       6.265  -0.858  -4.215  1.00  0.00     0.122 C 
BRANCH  24  25
HETATM   25  N3  UNL     1       7.018   0.356  -4.524  1.00  0.00    -0.367 N 
HETATM   26  C11 UNL     1       8.238   0.287  -4.958  1.00  0.00     0.196 C 
HETATM   27  N4  UNL     1       8.921  -0.919  -5.165  1.00  0.00    -0.067 NA
HETATM   28  N5  UNL     1       8.910   1.502  -5.238  1.00  0.00    -0.067 NA
ATOM     29  H3  UNL     1       6.579   1.268  -4.397  1.00  0.00     0.161 HD
ENDBRANCH  24  25
ENDBRANCH  23  24
ENDBRANCH  22  23
ENDBRANCH  11  22
ENDBRANCH   7  11
ENDBRANCH   1   5
BRANCH   3  30
HETATM   30  C17 UNL     1      -1.831  -2.078   1.065  1.00  0.00     0.089 C 
HETATM   31  C18 UNL     1      -1.555  -2.163   2.543  1.00  0.00     0.030 C 
HETATM   32  C19 UNL     1      -2.841  -1.944   3.352  1.00  0.00    -0.013 C 
HETATM   33  C20 UNL     1      -3.758  -3.083   3.047  1.00  0.00     0.005 C 
HETATM   34  C36 UNL     1      -3.373  -0.572   3.185  1.00  0.00     0.005 C 
HETATM   35  C21 UNL     1      -3.905  -3.445   1.625  1.00  0.00     0.007 C 
HETATM   36  C22 UNL     1      -3.125  -2.618   0.630  1.00  0.00     0.011 C 
HETATM   37  C23 UNL     1      -4.016  -1.722  -0.185  1.00  0.00     0.039 C 
HETATM   38  C24 UNL     1      -4.391  -0.398   0.365  1.00  0.00     0.127 C 
HETATM   39  O4  UNL     1      -4.853   0.345  -0.756  1.00  0.00    -0.373 OA
HETATM   40  C34 UNL     1      -5.304  -0.356   1.517  1.00  0.00     0.020 C 
HETATM   41  C25 UNL     1      -6.161   0.319  -1.033  1.00  0.00     0.076 C 
HETATM   42  C26 UNL     1      -6.737  -0.930  -1.638  1.00  0.00     0.047 C 
HETATM   43  C27 UNL     1      -6.373   1.406  -2.105  1.00  0.00     0.040 C 
HETATM   44  C37 UNL     1      -7.079   0.726   0.081  1.00  0.00     0.060 C 
HETATM   45  C28 UNL     1      -7.565   2.194  -1.671  1.00  0.00     0.014 C 
HETATM   46  C29 UNL     1      -7.496   2.161  -0.160  1.00  0.00    -0.023 C 
HETATM   47  C30 UNL     1      -8.803   2.513   0.495  1.00  0.00     0.017 C 
HETATM   48  C31 UNL     1      -6.413   3.032   0.384  1.00  0.00     0.011 C 
HETATM   49  C32 UNL     1      -5.560   2.151   1.304  1.00  0.00     0.007 C 
HETATM   50  C33 UNL     1      -6.271   0.831   1.321  1.00  0.00     0.015 C 
HETATM   51  S1  UNL     1      -8.536  -0.311   0.229  1.00  0.00    -0.082 SA
HETATM   52  C35 UNL     1      -4.792  -0.365   2.893  1.00  0.00     0.008 C 
ENDBRANCH   3  30
TORSDOF 10
