REMARK  15 active torsions:
REMARK  status: ('A' for Active; 'I' for Inactive)
REMARK       I    between atoms: C2_2  and  N1_4 
REMARK    1  A    between atoms: N1_4  and  C3_6 
REMARK    2  A    between atoms: C3_6  and  C32_50 
REMARK    3  A    between atoms: C4_7  and  O2_8 
REMARK    4  A    between atoms: C4_7  and  N2_10 
REMARK    5  A    between atoms: C8_14  and  C9_15 
REMARK       I    between atoms: C9_15  and  N3_17 
REMARK    6  A    between atoms: N3_17  and  C10_19 
REMARK    7  A    between atoms: C10_19  and  C11_20 
REMARK    8  A    between atoms: C10_19  and  C17_31 
REMARK    9  A    between atoms: C11_20  and  O4_21 
REMARK   10  A    between atoms: C11_20  and  C12_23 
REMARK       I    between atoms: C12_23  and  N4_25 
REMARK   11  A    between atoms: N4_25  and  C13_27 
REMARK   12  A    between atoms: C17_31  and  N5_32 
REMARK   13  A    between atoms: C17_31  and  C28_46 
REMARK       I    between atoms: N5_32  and  C18_34 
REMARK   14  A    between atoms: C18_34  and  O7_36 
REMARK   15  A    between atoms: O7_36  and  C19_37 
ROOT
HETATM    1  C10 UNL     1      -0.860   1.789  -0.572  1.00  0.00     0.170 C 
ENDROOT
BRANCH   1   2
HETATM    2  N3  UNL     1      -0.180   0.613   0.057  1.00  0.00    -0.346 N 
HETATM    3  C9  UNL     1       1.009   0.094  -0.526  1.00  0.00     0.241 C 
HETATM    4  O3  UNL     1       1.416   0.692  -1.556  1.00  0.00    -0.271 OA
ATOM      5  H3  UNL     1      -0.567   0.186   0.899  1.00  0.00     0.163 HD
BRANCH   3   6
HETATM    6  C8  UNL     1       1.729  -1.048   0.014  1.00  0.00     0.178 C 
HETATM    7  N2  UNL     1       3.171  -1.109  -0.341  1.00  0.00    -0.347 N 
HETATM    8  C5  UNL     1       3.201  -1.416  -1.731  1.00  0.00     0.126 C 
HETATM    9  C6  UNL     1       1.956  -2.183  -2.018  1.00  0.00     0.022 C 
HETATM   10  C7  UNL     1       1.231  -2.306  -0.671  1.00  0.00     0.037 C 
BRANCH   7  11
HETATM   11  C4  UNL     1       4.132  -0.889   0.661  1.00  0.00     0.162 C 
HETATM   12  C3  UNL     1       5.555  -0.958   0.828  1.00  0.00     0.067 C 
BRANCH  12  13
HETATM   13  N1  UNL     1       6.047   0.315   1.365  1.00  0.00    -0.327 N 
HETATM   14  C2  UNL     1       6.767   1.301   0.687  1.00  0.00     0.218 C 
HETATM   15  C1  UNL     1       7.233   2.565   1.364  1.00  0.00     0.117 C 
HETATM   16  O1  UNL     1       7.079   1.215  -0.522  1.00  0.00    -0.274 OA
ATOM     17  H1  UNL     1       5.840   0.502   2.346  1.00  0.00     0.168 HD
ENDBRANCH  12  13
BRANCH  12  18
HETATM   18  C32 UNL     1       6.487  -1.523  -0.143  1.00  0.00     0.040 C 
HETATM   19  C33 UNL     1       7.901  -1.658   0.527  1.00  0.00     0.011 C 
HETATM   20  C34 UNL     1       8.851  -1.892  -0.617  1.00  0.00     0.001 C 
HETATM   21  C35 UNL     1       8.572  -3.259  -1.186  1.00  0.00     0.000 C 
HETATM   22  C36 UNL     1       7.105  -3.408  -1.537  1.00  0.00     0.001 C 
HETATM   23  C37 UNL     1       6.215  -3.037  -0.389  1.00  0.00     0.011 C 
ENDBRANCH  12  18
BRANCH  11  24
HETATM   24  O2  UNL     1       3.551  -0.486   1.801  1.00  0.00    -0.345 OA
ATOM     25  H2  UNL     1       2.609  -0.440   1.690  1.00  0.00     0.219 HD
ENDBRANCH  11  24
ENDBRANCH   7  11
ENDBRANCH   3   6
ENDBRANCH   1   2
BRANCH   1  26
HETATM   26  C11 UNL     1      -0.210   2.891   0.264  1.00  0.00     0.136 C 
BRANCH  26  27
HETATM   27  O4  UNL     1       1.095   2.851   0.231  1.00  0.00    -0.358 OA
ATOM     28  H4  UNL     1       1.499   3.536   0.751  1.00  0.00     0.217 HD
ENDBRANCH  26  27
BRANCH  26  29
HETATM   29  C12 UNL     1      -0.759   3.913   1.057  1.00  0.00     0.273 C 
HETATM   30  O5  UNL     1      -1.955   4.018   1.374  1.00  0.00    -0.266 OA
HETATM   31  N4  UNL     1       0.081   4.971   1.592  1.00  0.00    -0.347 N 
ATOM     32  H4  UNL     1       1.076   4.950   1.369  1.00  0.00     0.163 HD
BRANCH  31  33
HETATM   33  C13 UNL     1      -0.397   6.036   2.408  1.00  0.00     0.022 C 
HETATM   34  C14 UNL     1       0.777   6.960   2.782  1.00  0.00     0.037 C 
HETATM   35  C15 UNL     1      -0.945   5.542   3.724  1.00  0.00     0.037 C 
HETATM   36  C16 UNL     1      -1.432   6.889   1.745  1.00  0.00     0.037 C 
ENDBRANCH  31  33
ENDBRANCH  26  29
ENDBRANCH   1  26
BRANCH   1  37
HETATM   37  C17 UNL     1      -2.314   1.786  -0.440  1.00  0.00     0.123 C 
BRANCH  37  38
HETATM   38  N5  UNL     1      -2.771   0.360  -0.849  1.00  0.00    -0.329 N 
HETATM   39  C18 UNL     1      -3.583  -0.343   0.073  1.00  0.00     0.361 C 
HETATM   40  O6  UNL     1      -3.920   0.148   1.165  1.00  0.00    -0.238 OA
ATOM     41  H5  UNL     1      -2.499  -0.052  -1.742  1.00  0.00     0.165 HD
BRANCH  39  42
HETATM   42  O7  UNL     1      -4.045  -1.627  -0.206  1.00  0.00    -0.299 OA
BRANCH  42  43
HETATM   43  C19 UNL     1      -4.853  -2.339   0.711  1.00  0.00     0.134 C 
HETATM   44  C20 UNL     1      -4.272  -3.651   1.148  1.00  0.00     0.033 C 
HETATM   45  C21 UNL     1      -5.056  -4.767   0.493  1.00  0.00     0.007 C 
HETATM   46  C22 UNL     1      -6.482  -4.865   1.027  1.00  0.00    -0.010 C 
HETATM   47  C23 UNL     1      -7.270  -5.702   0.074  1.00  0.00     0.005 C 
HETATM   48  C26 UNL     1      -7.055  -3.466   1.013  1.00  0.00    -0.008 C 
HETATM   49  C24 UNL     1      -8.524  -4.942  -0.192  1.00  0.00     0.001 C 
HETATM   50  C25 UNL     1      -8.472  -3.630   0.563  1.00  0.00     0.005 C 
HETATM   51  C27 UNL     1      -6.240  -2.536   0.131  1.00  0.00     0.037 C 
ENDBRANCH  42  43
ENDBRANCH  39  42
ENDBRANCH  37  38
BRANCH  37  52
HETATM   52  C28 UNL     1      -3.014   2.576  -1.571  1.00  0.00    -0.028 C 
HETATM   53  C29 UNL     1      -2.707   1.839  -2.910  1.00  0.00     0.016 C 
HETATM   54  C30 UNL     1      -4.506   2.572  -1.422  1.00  0.00     0.016 C 
HETATM   55  C31 UNL     1      -2.536   3.956  -1.823  1.00  0.00     0.016 C 
ENDBRANCH  37  52
ENDBRANCH   1  37
TORSDOF 15
