REMARK  14 active torsions:
REMARK  status: ('A' for Active; 'I' for Inactive)
REMARK    1  A    between atoms: C2_2  and  C3_3 
REMARK    2  A    between atoms: N1_6  and  C6_7 
REMARK    3  A    between atoms: C6_7  and  O1_8 
REMARK    4  A    between atoms: C6_7  and  C7_10 
REMARK    5  A    between atoms: C7_10  and  N2_11 
REMARK    6  A    between atoms: C7_10  and  C31_47 
REMARK       I    between atoms: N2_11  and  C8_13 
REMARK    7  A    between atoms: C8_13  and  C9_15 
REMARK       I    between atoms: N3_17  and  C11_18 
REMARK    8  A    between atoms: C11_18  and  C12_20 
REMARK    9  A    between atoms: C12_20  and  N4_21 
REMARK   10  A    between atoms: C12_20  and  C27_43 
REMARK       I    between atoms: N4_21  and  C13_23 
REMARK   11  A    between atoms: C13_23  and  O5_25 
REMARK   12  A    between atoms: O5_25  and  C14_26 
REMARK   13  A    between atoms: C19_31  and  C20_32 
REMARK       I    between atoms: C20_32  and  N5_34 
REMARK   14  A    between atoms: N5_34  and  C21_36 
ROOT
HETATM    1  C12 UNL     1      -1.536   1.696   0.545  1.00  0.00     0.089 C 
ENDROOT
BRANCH   1   2
HETATM    2  C11 UNL     1      -0.285   1.521  -0.173  1.00  0.00     0.268 C 
HETATM    3  N3  UNL     1       0.850   2.339  -0.263  1.00  0.00    -0.330 N 
HETATM    4  C9  UNL     1       2.163   2.545  -0.794  1.00  0.00     0.197 A 
HETATM    5  C10 UNL     1       1.510   3.605   0.097  1.00  0.00     0.162 A 
HETATM    6  O3  UNL     1      -0.217   0.414  -0.850  1.00  0.00    -0.266 OA
BRANCH   4   7
HETATM    7  C8  UNL     1       3.397   2.030  -0.228  1.00  0.00     0.243 C 
HETATM    8  N2  UNL     1       4.527   1.872  -1.045  1.00  0.00    -0.346 N 
ATOM      9  H2  UNL     1       4.427   2.123  -2.029  1.00  0.00     0.163 HD
HETATM   10  O2  UNL     1       3.471   1.719   1.012  1.00  0.00    -0.271 OA
BRANCH   8  11
HETATM   11  C7  UNL     1       5.840   1.379  -0.613  1.00  0.00     0.166 C 
BRANCH  11  12
HETATM   12  C6  UNL     1       6.092   0.096  -1.208  1.00  0.00     0.137 C 
BRANCH  12  13
HETATM   13  N1  UNL     1       7.160  -0.694  -1.540  1.00  0.00    -0.364 N 
HETATM   14  C5  UNL     1       6.866  -2.063  -2.090  1.00  0.00     0.125 C 
HETATM   15  C4  UNL     1       7.565  -3.099  -1.258  1.00  0.00     0.024 C 
HETATM   16  C3  UNL     1       9.020  -2.800  -1.032  1.00  0.00    -0.012 C 
HETATM   17  C36 UNL     1       9.220  -1.392  -0.503  1.00  0.00     0.024 C 
HETATM   18  C35 UNL     1       8.548  -0.424  -1.488  1.00  0.00     0.125 C 
BRANCH  16  19
HETATM   19  C2  UNL     1       9.737  -3.808  -0.202  1.00  0.00     0.000 C 
HETATM   20  C1  UNL     1       9.709  -5.192  -0.808  1.00  0.00     0.005 C 
ENDBRANCH  16  19
ENDBRANCH  12  13
BRANCH  12  21
HETATM   21  O1  UNL     1       4.925  -0.506  -1.535  1.00  0.00    -0.348 OA
ATOM     22  H1  UNL     1       4.184   0.042  -1.305  1.00  0.00     0.219 HD
ENDBRANCH  12  21
ENDBRANCH  11  12
BRANCH  11  23
HETATM   23  C31 UNL     1       6.803   2.495  -0.625  1.00  0.00    -0.023 C 
HETATM   24  C32 UNL     1       7.260   2.972  -1.968  1.00  0.00     0.017 C 
HETATM   25  C33 UNL     1       7.863   2.420   0.434  1.00  0.00     0.017 C 
HETATM   26  C34 UNL     1       5.943   3.740  -0.125  1.00  0.00     0.017 C 
ENDBRANCH  11  23
ENDBRANCH   8  11
ENDBRANCH   4   7
ENDBRANCH   1   2
BRANCH   1  27
HETATM   27  N4  UNL     1      -2.667   1.081  -0.119  1.00  0.00    -0.300 N 
HETATM   28  C13 UNL     1      -3.420  -0.016   0.446  1.00  0.00     0.365 C 
HETATM   29  O4  UNL     1      -3.087  -0.466   1.572  1.00  0.00    -0.238 OA
ATOM     30  H4  UNL     1      -2.946   1.440  -1.032  1.00  0.00     0.171 HD
BRANCH  28  31
HETATM   31  O5  UNL     1      -4.479  -0.571  -0.207  1.00  0.00    -0.297 OA
BRANCH  31  32
HETATM   32  C14 UNL     1      -5.315  -1.618   0.213  1.00  0.00     0.147 C 
HETATM   33  C15 UNL     1      -5.007  -2.858  -0.694  1.00  0.00     0.039 C 
HETATM   34  C16 UNL     1      -6.318  -3.361  -1.103  1.00  0.00     0.001 A 
HETATM   35  C17 UNL     1      -7.032  -3.564   0.260  1.00  0.00    -0.001 A 
HETATM   36  C24 UNL     1      -7.051  -4.537  -0.787  1.00  0.00    -0.040 A 
HETATM   37  C18 UNL     1      -7.751  -2.304   0.440  1.00  0.00     0.022 C 
HETATM   38  C19 UNL     1      -6.740  -1.188   0.091  1.00  0.00     0.108 C 
HETATM   39  C25 UNL     1      -6.303  -5.839  -0.578  1.00  0.00     0.015 C 
HETATM   40  C26 UNL     1      -8.396  -4.762  -1.479  1.00  0.00     0.015 C 
BRANCH  38  41
HETATM   41  C20 UNL     1      -7.035  -0.114   1.062  1.00  0.00     0.225 C 
HETATM   42  O6  UNL     1      -6.250   0.253   1.946  1.00  0.00    -0.273 OA
HETATM   43  N5  UNL     1      -8.310   0.567   1.005  1.00  0.00    -0.342 N 
ATOM     44  H5  UNL     1      -8.985   0.297   0.290  1.00  0.00     0.164 HD
BRANCH  43  45
HETATM   45  C21 UNL     1      -8.652   1.615   1.930  1.00  0.00     0.084 C 
HETATM   46  C22 UNL     1      -8.673   1.171   3.375  1.00  0.00     0.051 C 
HETATM   47  C23 UNL     1     -10.008   2.200   1.554  1.00  0.00     0.051 C 
HETATM   48  S1  UNL     1      -7.462   2.999   1.804  1.00  0.00    -0.064 SA
ENDBRANCH  43  45
ENDBRANCH  38  41
ENDBRANCH  31  32
ENDBRANCH  28  31
ENDBRANCH   1  27
BRANCH   1  49
HETATM   49  C27 UNL     1      -1.864   3.034   1.099  1.00  0.00    -0.003 C 
HETATM   50  C28 UNL     1      -3.270   2.888   1.736  1.00  0.00     0.021 C 
HETATM   51  C29 UNL     1      -1.956   4.127   0.091  1.00  0.00     0.021 C 
HETATM   52  C30 UNL     1      -0.976   3.362   2.291  1.00  0.00     0.021 C 
ENDBRANCH   1  49
TORSDOF 14
