REMARK  12 active torsions:
REMARK  status: ('A' for Active; 'I' for Inactive)
REMARK    1  A    between atoms: C2_2  and  C3_3 
REMARK    2  A    between atoms: C2_2  and  C26_37 
REMARK       I    between atoms: C3_3  and  N1_5 
REMARK       I    between atoms: N1_5  and  C4_7 
REMARK    3  A    between atoms: C4_7  and  C5_9 
REMARK    4  A    between atoms: N2_13  and  C9_14 
REMARK    5  A    between atoms: C9_14  and  O3_15 
REMARK    6  A    between atoms: C9_14  and  C10_17 
REMARK    7  A    between atoms: C10_17  and  N3_18 
REMARK    8  A    between atoms: C10_17  and  C20_31 
REMARK       I    between atoms: C11_20  and  N5_22 
REMARK    9  A    between atoms: C26_37  and  O4_38 
REMARK   10  A    between atoms: C26_37  and  N6_40 
REMARK   11  A    between atoms: C31_45  and  C32_46 
REMARK       I    between atoms: C32_46  and  N7_48 
REMARK   12  A    between atoms: N7_48  and  C33_50 
ROOT
HETATM    1  C5  UNL     1      -1.507   0.936   1.136  1.00  0.00     0.178 C 
HETATM    2  C6  UNL     1      -1.938   2.127   2.001  1.00  0.00     0.037 C 
HETATM    3  C7  UNL     1      -2.174   3.147   0.891  1.00  0.00     0.022 C 
HETATM    4  C8  UNL     1      -2.816   2.284  -0.195  1.00  0.00     0.126 C 
HETATM    5  N2  UNL     1      -2.643   0.914   0.193  1.00  0.00    -0.350 N 
ENDROOT
BRANCH   1   6
HETATM    6  C4  UNL     1      -0.231   1.239   0.488  1.00  0.00     0.247 C 
HETATM    7  N1  UNL     1       0.970   1.139   1.226  1.00  0.00    -0.295 N 
HETATM    8  C3  UNL     1       2.233   1.478   0.660  1.00  0.00     0.232 C 
ATOM      9  H1  UNL     1       0.932   0.815   2.192  1.00  0.00     0.171 HD
HETATM   10  O1  UNL     1       2.276   1.885  -0.507  1.00  0.00    -0.273 OA
HETATM   11  O2  UNL     1      -0.198   1.586  -0.712  1.00  0.00    -0.271 OA
BRANCH   8  12
HETATM   12  C2  UNL     1       3.446   1.333   1.479  1.00  0.00     0.122 C 
HETATM   13  C1  UNL     1       3.181   2.222   2.732  1.00  0.00     0.024 C 
BRANCH  12  14
HETATM   14  C26 UNL     1       4.729   1.756   0.847  1.00  0.00     0.229 C 
BRANCH  14  15
HETATM   15  O4  UNL     1       4.678   3.099   0.422  1.00  0.00    -0.376 OA
ATOM     16  H4  UNL     1       5.495   3.368   0.019  1.00  0.00     0.212 HD
ENDBRANCH  14  15
BRANCH  14  17
HETATM   17  N6  UNL     1       5.298   0.852  -0.018  1.00  0.00    -0.372 N 
HETATM   18  C27 UNL     1       4.846   0.368  -1.234  1.00  0.00     0.131 C 
HETATM   19  C28 UNL     1       6.296  -0.026  -1.562  1.00  0.00    -0.003 C 
HETATM   20  C29 UNL     1       6.849   0.580  -2.810  1.00  0.00     0.019 C 
HETATM   21  C30 UNL     1       6.468  -1.502  -1.438  1.00  0.00     0.019 C 
HETATM   22  C31 UNL     1       6.684   0.782  -0.306  1.00  0.00     0.183 C 
BRANCH  22  23
HETATM   23  C32 UNL     1       7.539  -0.006   0.616  1.00  0.00     0.241 C 
HETATM   24  O5  UNL     1       7.011  -0.646   1.549  1.00  0.00    -0.271 OA
HETATM   25  N7  UNL     1       8.938  -0.041   0.454  1.00  0.00    -0.355 N 
ATOM     26  H7  UNL     1       9.357   0.490  -0.309  1.00  0.00     0.162 HD
BRANCH  25  27
HETATM   27  C33 UNL     1       9.794  -0.795   1.322  1.00  0.00     0.084 C 
HETATM   28  C34 UNL     1      10.545   0.140   2.252  1.00  0.00     0.025 C 
HETATM   29  C35 UNL     1      11.669   0.861   1.590  1.00  0.00     0.002 C 
HETATM   30  C36 UNL     1      12.607  -0.196   1.002  1.00  0.00     0.000 C 
HETATM   31  C37 UNL     1      11.845  -0.924  -0.073  1.00  0.00     0.002 C 
HETATM   32  C38 UNL     1      10.700  -1.707   0.555  1.00  0.00     0.025 C 
ENDBRANCH  25  27
ENDBRANCH  22  23
ENDBRANCH  14  17
ENDBRANCH  12  14
ENDBRANCH   8  12
ENDBRANCH   1   6
BRANCH   5  33
HETATM   33  C9  UNL     1      -3.296  -0.284  -0.130  1.00  0.00     0.138 C 
BRANCH  33  34
HETATM   34  O3  UNL     1      -2.814  -1.337   0.481  1.00  0.00    -0.348 OA
ATOM     35  H3  UNL     1      -3.256  -2.149   0.262  1.00  0.00     0.219 HD
ENDBRANCH  33  34
BRANCH  33  36
HETATM   36  C10 UNL     1      -4.419  -0.543  -1.033  1.00  0.00     0.163 C 
BRANCH  36  37
HETATM   37  N3  UNL     1      -5.098   0.648  -1.404  1.00  0.00    -0.352 N 
HETATM   38  C11 UNL     1      -6.280   1.005  -0.997  1.00  0.00     0.186 C 
HETATM   39  N4  UNL     1      -6.712   2.265  -1.546  1.00  0.00    -0.064 NA
HETATM   40  N5  UNL     1      -7.086   0.285  -0.096  1.00  0.00    -0.355 N 
HETATM   41  C12 UNL     1      -7.285   0.598   1.306  1.00  0.00     0.130 C 
HETATM   42  C19 UNL     1      -7.881  -0.885  -0.349  1.00  0.00     0.130 C 
HETATM   43  C13 UNL     1      -8.586  -0.024   1.707  1.00  0.00     0.009 C 
HETATM   44  C14 UNL     1      -9.616   0.958   2.212  1.00  0.00     0.007 C 
HETATM   45  C18 UNL     1      -9.144  -0.529   0.368  1.00  0.00     0.009 C 
HETATM   46  C15 UNL     1     -10.985   0.357   1.874  1.00  0.00     0.000 C 
HETATM   47  C16 UNL     1     -10.928  -1.171   1.856  1.00  0.00     0.000 C 
HETATM   48  C17 UNL     1     -10.051  -1.669   0.693  1.00  0.00     0.007 C 
ATOM     49  H3  UNL     1      -4.616   1.278  -2.046  1.00  0.00     0.163 HD
ENDBRANCH  36  37
BRANCH  36  50
HETATM   50  C20 UNL     1      -3.935  -1.204  -2.316  1.00  0.00     0.016 C 
HETATM   51  C21 UNL     1      -5.038  -1.514  -3.278  1.00  0.00     0.007 C 
HETATM   52  C22 UNL     1      -5.678  -2.846  -3.131  1.00  0.00     0.000 C 
HETATM   53  C23 UNL     1      -4.790  -3.991  -2.783  1.00  0.00     0.000 C 
HETATM   54  C24 UNL     1      -3.885  -3.602  -1.627  1.00  0.00     0.000 C 
HETATM   55  C25 UNL     1      -3.084  -2.411  -2.126  1.00  0.00     0.007 C 
ENDBRANCH  36  50
ENDBRANCH  33  36
ENDBRANCH   5  33
TORSDOF 12
