REMARK  11 active torsions:
REMARK  status: ('A' for Active; 'I' for Inactive)
REMARK    1  A    between atoms: C3_3  and  O1_4 
REMARK    2  A    between atoms: O1_4  and  C4_5 
REMARK       I    between atoms: C4_5  and  N1_7 
REMARK    3  A    between atoms: N1_7  and  C5_9 
REMARK    4  A    between atoms: C5_9  and  N2_10 
REMARK    5  A    between atoms: C5_9  and  C20_29 
REMARK       I    between atoms: N2_10  and  C6_12 
REMARK       I    between atoms: C6_12  and  N3_14 
REMARK    6  A    between atoms: N3_14  and  C7_16 
REMARK    7  A    between atoms: C7_16  and  C8_17 
REMARK       I    between atoms: C20_29  and  N4_31 
REMARK    8  A    between atoms: N4_31  and  C21_33 
REMARK    9  A    between atoms: C21_33  and  C22_34 
REMARK   10  A    between atoms: C21_33  and  C29_42 
REMARK   11  A    between atoms: C22_34  and  C23_35 
ROOT
HETATM    1  C5  UNL     1      -0.391   0.778   1.737  1.00  0.00     0.283 C 
ENDROOT
BRANCH   1   2
HETATM    2  N1  UNL     1      -0.279   1.956   2.515  1.00  0.00    -0.307 N 
HETATM    3  C4  UNL     1      -1.203   3.037   2.511  1.00  0.00     0.362 C 
HETATM    4  O2  UNL     1      -2.229   3.119   1.811  1.00  0.00    -0.238 OA
ATOM      5  H1  UNL     1       0.532   2.036   3.129  1.00  0.00     0.167 HD
BRANCH   3   6
HETATM    6  O1  UNL     1      -0.946   4.114   3.367  1.00  0.00    -0.297 OA
BRANCH   6   7
HETATM    7  C3  UNL     1      -1.714   5.254   3.446  1.00  0.00     0.152 C 
HETATM    8  C2  UNL     1      -0.912   6.518   3.151  1.00  0.00     0.134 C 
HETATM    9  C1  UNL     1      -0.333   6.539   1.785  1.00  0.00     0.029 C 
HETATM   10  S1  UNL     1      -2.224   7.732   3.364  1.00  0.00     0.150 S 
HETATM   11  C36 UNL     1      -3.361   6.722   4.331  1.00  0.00     0.143 C 
HETATM   12  O5  UNL     1      -1.749   8.922   4.099  1.00  0.00    -0.227 OA
HETATM   13  O6  UNL     1      -2.836   8.039   2.030  1.00  0.00    -0.227 OA
HETATM   14  C35 UNL     1      -2.429   5.556   4.711  1.00  0.00     0.049 C 
ENDBRANCH   6   7
ENDBRANCH   3   6
ENDBRANCH   1   2
BRANCH   1  15
HETATM   15  N2  UNL     1      -0.695   0.921   0.320  1.00  0.00    -0.313 N 
HETATM   16  C6  UNL     1      -1.901   0.338  -0.202  1.00  0.00     0.318 C 
HETATM   17  O3  UNL     1      -2.596  -0.228   0.721  1.00  0.00    -0.247 OA
HETATM   18  N3  UNL     1      -2.355   0.327  -1.510  1.00  0.00    -0.333 N 
ATOM     19  H3  UNL     1      -1.784   0.781  -2.223  1.00  0.00     0.165 HD
ATOM     20  H2  UNL     1      -0.059   1.429  -0.295  1.00  0.00     0.166 HD
BRANCH  18  21
HETATM   21  C7  UNL     1      -3.623  -0.307  -1.929  1.00  0.00     0.043 C 
HETATM   22  C14 UNL     1      -4.708   0.193  -1.071  1.00  0.00     0.038 C 
HETATM   23  C15 UNL     1      -5.314  -1.138  -1.059  1.00  0.00     0.003 A 
HETATM   24  C16 UNL     1      -3.887  -1.605  -1.344  1.00  0.00     0.027 A 
HETATM   25  C17 UNL     1      -4.945  -2.501  -0.982  1.00  0.00    -0.037 A 
HETATM   26  C18 UNL     1      -5.148  -3.056   0.455  1.00  0.00     0.015 C 
HETATM   27  C19 UNL     1      -5.227  -3.624  -1.962  1.00  0.00     0.015 C 
BRANCH  21  28
HETATM   28  C8  UNL     1      -3.689  -0.110  -3.397  1.00  0.00     0.014 C 
HETATM   29  C9  UNL     1      -4.914  -0.487  -4.141  1.00  0.00     0.007 C 
HETATM   30  C10 UNL     1      -4.741   0.072  -5.570  1.00  0.00     0.000 C 
HETATM   31  C11 UNL     1      -3.670  -0.712  -6.256  1.00  0.00     0.000 C 
HETATM   32  C12 UNL     1      -2.391  -0.593  -5.459  1.00  0.00     0.000 C 
HETATM   33  C13 UNL     1      -2.567  -0.964  -4.023  1.00  0.00     0.007 C 
ENDBRANCH  21  28
ENDBRANCH  18  21
ENDBRANCH   1  15
BRANCH   1  34
HETATM   34  C20 UNL     1       0.795  -0.100   1.932  1.00  0.00     0.260 C 
HETATM   35  O4  UNL     1       1.134  -0.353   3.097  1.00  0.00    -0.269 OA
HETATM   36  N4  UNL     1       1.493  -0.606   0.813  1.00  0.00    -0.353 N 
ATOM     37  H4  UNL     1       1.177  -0.350  -0.123  1.00  0.00     0.163 HD
BRANCH  36  38
HETATM   38  C21 UNL     1       2.693  -1.515   0.957  1.00  0.00     0.089 C 
BRANCH  38  39
HETATM   39  C22 UNL     1       3.746  -0.541   1.235  1.00  0.00     0.030 C 
BRANCH  39  40
HETATM   40  C23 UNL     1       5.152  -0.698   1.450  1.00  0.00    -0.010 C 
HETATM   41  C24 UNL     1       6.049  -1.203   0.354  1.00  0.00     0.024 C 
HETATM   42  C25 UNL     1       7.421  -0.537   0.645  1.00  0.00     0.117 C 
HETATM   43  N5  UNL     1       7.858  -1.076   1.889  1.00  0.00    -0.417 N 
HETATM   44  C26 UNL     1       8.580  -0.154   2.709  1.00  0.00     0.143 C 
HETATM   45  C27 UNL     1       6.998  -1.971   2.563  1.00  0.00     0.117 C 
HETATM   46  C28 UNL     1       5.545  -1.503   2.696  1.00  0.00     0.024 C 
ENDBRANCH  39  40
ENDBRANCH  38  39
BRANCH  38  47
HETATM   47  C29 UNL     1       2.638  -2.360  -0.227  1.00  0.00     0.008 C 
HETATM   48  C30 UNL     1       3.636  -3.461  -0.391  1.00  0.00     0.007 C 
HETATM   49  C31 UNL     1       3.031  -4.817  -0.699  1.00  0.00     0.000 C 
HETATM   50  C32 UNL     1       2.269  -4.711  -1.994  1.00  0.00     0.000 C 
HETATM   51  C33 UNL     1       1.324  -3.543  -1.908  1.00  0.00     0.000 C 
HETATM   52  C34 UNL     1       1.260  -3.026  -0.451  1.00  0.00     0.007 C 
ENDBRANCH  38  47
ENDBRANCH  36  38
ENDBRANCH   1  34
TORSDOF 11
