REMARK  12 active torsions:
REMARK  status: ('A' for Active; 'I' for Inactive)
REMARK    1  A    between atoms: O1_2  and  C2_3 
REMARK       I    between atoms: C2_3  and  N1_5 
REMARK       I    between atoms: C3_7  and  N3_9 
REMARK    2  A    between atoms: C4_11  and  C5_12 
REMARK    3  A    between atoms: C4_11  and  C19_30 
REMARK       I    between atoms: C5_12  and  N4_14 
REMARK    4  A    between atoms: C11_21  and  C12_22 
REMARK    5  A    between atoms: C12_22  and  C13_23 
REMARK    6  A    between atoms: C19_30  and  N6_31 
REMARK    7  A    between atoms: C19_30  and  C32_49 
REMARK       I    between atoms: N6_31  and  C20_33 
REMARK    8  A    between atoms: C20_33  and  C21_35 
REMARK    9  A    between atoms: C21_35  and  C22_36 
REMARK   10  A    between atoms: C22_36  and  O6_37 
REMARK   11  A    between atoms: C22_36  and  C23_39 
REMARK   12  A    between atoms: C23_39  and  N7_40 
ROOT
HETATM    1  C2  UNL     1       1.577  -5.106  -0.614  1.00  0.00     0.366 C 
HETATM    2  O2  UNL     1       1.338  -5.502   0.543  1.00  0.00    -0.238 OA
HETATM    3  N1  UNL     1       1.689  -3.730  -0.921  1.00  0.00    -0.276 N 
ATOM      4  H1  UNL     1       1.984  -3.479  -1.865  1.00  0.00     0.173 HD
HETATM    5  C3  UNL     1       1.445  -2.768  -0.095  1.00  0.00     0.197 C 
HETATM    6  N2  UNL     1       1.028  -3.176   1.226  1.00  0.00    -0.063 NA
HETATM    7  N3  UNL     1       1.562  -1.417  -0.388  1.00  0.00    -0.327 N 
ATOM      8  H3  UNL     1       2.356  -0.935   0.034  1.00  0.00     0.168 HD
HETATM    9  C4  UNL     1       0.777  -0.683  -1.141  1.00  0.00     0.104 C 
ENDROOT
BRANCH   9  10
HETATM   10  C5  UNL     1       1.190   0.711  -1.234  1.00  0.00     0.284 C 
HETATM   11  O3  UNL     1       0.519   1.586  -1.890  1.00  0.00    -0.265 OA
HETATM   12  N4  UNL     1       2.348   1.200  -0.621  1.00  0.00    -0.257 N 
HETATM   13  C6  UNL     1       2.615   2.626  -0.841  1.00  0.00     0.180 C 
HETATM   14  N5  UNL     1       3.171   0.385   0.130  1.00  0.00    -0.128 NA
HETATM   15  C7  UNL     1       4.029   2.691  -1.394  1.00  0.00     0.141 C 
HETATM   16  C8  UNL     1       4.259   1.634  -2.435  1.00  0.00     0.035 C 
HETATM   17  O4  UNL     1       4.905   2.741  -0.374  1.00  0.00    -0.377 OA
HETATM   18  C9  UNL     1       4.696   0.353  -1.815  1.00  0.00     0.028 C 
HETATM   19  C10 UNL     1       4.549   0.406  -0.302  1.00  0.00     0.128 C 
HETATM   20  C11 UNL     1       5.350   1.572   0.198  1.00  0.00     0.143 C 
BRANCH  20  21
HETATM   21  C12 UNL     1       5.306   1.750   1.688  1.00  0.00     0.038 C 
BRANCH  21  22
HETATM   22  C13 UNL     1       5.779   0.651   2.529  1.00  0.00    -0.012 C 
HETATM   23  C14 UNL     1       5.660   1.024   3.999  1.00  0.00     0.005 C 
HETATM   24  C15 UNL     1       6.701   2.031   4.411  1.00  0.00     0.000 C 
HETATM   25  C16 UNL     1       8.063   1.406   4.202  1.00  0.00     0.000 C 
HETATM   26  C17 UNL     1       8.222   1.178   2.712  1.00  0.00     0.000 C 
HETATM   27  C18 UNL     1       7.169   0.167   2.316  1.00  0.00     0.005 C 
ENDBRANCH  21  22
ENDBRANCH  20  21
ENDBRANCH   9  10
BRANCH   9  28
HETATM   28  C19 UNL     1      -0.331  -1.345  -1.794  1.00  0.00     0.144 C 
BRANCH  28  29
HETATM   29  N6  UNL     1      -1.569  -0.654  -1.456  1.00  0.00    -0.350 N 
HETATM   30  C20 UNL     1      -2.662  -1.212  -0.806  1.00  0.00     0.220 C 
HETATM   31  O5  UNL     1      -2.684  -2.387  -0.435  1.00  0.00    -0.274 OA
ATOM     32  H6  UNL     1      -1.639   0.329  -1.721  1.00  0.00     0.163 HD
BRANCH  30  33
HETATM   33  C21 UNL     1      -3.890  -0.382  -0.528  1.00  0.00     0.136 C 
BRANCH  33  34
HETATM   34  C22 UNL     1      -5.009  -1.218  -0.042  1.00  0.00     0.155 C 
BRANCH  34  35
HETATM   35  O6  UNL     1      -4.750  -1.882   1.144  1.00  0.00    -0.393 OA
ATOM     36  H6  UNL     1      -5.469  -2.419   1.456  1.00  0.00     0.210 HD
ENDBRANCH  34  35
BRANCH  34  37
HETATM   37  C23 UNL     1      -6.333  -0.552  -0.004  1.00  0.00     0.304 C 
BRANCH  37  38
HETATM   38  N7  UNL     1      -6.577   0.350   1.032  1.00  0.00     0.091 N 
HETATM   39  C24 UNL     1      -7.951   0.898   0.993  1.00  0.00     0.277 C 
HETATM   40  C25 UNL     1      -7.921   1.901   2.116  1.00  0.00     0.020 C 
HETATM   41  C26 UNL     1      -8.915   3.012   2.021  1.00  0.00     0.007 C 
HETATM   42  C30 UNL     1      -6.561   2.526   1.879  1.00  0.00     0.020 C 
HETATM   43  C27 UNL     1      -8.299   4.195   2.778  1.00  0.00     0.000 C 
HETATM   44  C28 UNL     1      -7.344   3.687   3.850  1.00  0.00     0.000 C 
HETATM   45  C29 UNL     1      -6.107   3.020   3.236  1.00  0.00     0.007 C 
HETATM   46  C31 UNL     1      -5.734   1.453   1.281  1.00  0.00     0.277 C 
ENDBRANCH  37  38
ENDBRANCH  34  37
ENDBRANCH  33  34
ENDBRANCH  30  33
ENDBRANCH  28  29
BRANCH  28  47
HETATM   47  C32 UNL     1      -0.156  -1.564  -3.240  1.00  0.00     0.014 C 
HETATM   48  C33 UNL     1      -1.345  -2.285  -3.872  1.00  0.00     0.007 C 
HETATM   49  C34 UNL     1      -0.759  -3.213  -4.946  1.00  0.00     0.000 C 
HETATM   50  C35 UNL     1       0.355  -2.457  -5.624  1.00  0.00     0.000 C 
HETATM   51  C36 UNL     1       0.136  -0.967  -5.579  1.00  0.00     0.000 C 
HETATM   52  C37 UNL     1       0.183  -0.431  -4.129  1.00  0.00     0.007 C 
ENDBRANCH  28  47
ENDBRANCH   9  28
BRANCH   1  53
HETATM   53  O1  UNL     1       1.736  -6.072  -1.611  1.00  0.00    -0.309 OA
HETATM   54  C1  UNL     1       1.622  -7.464  -1.285  1.00  0.00     0.215 C 
ENDBRANCH   1  53
TORSDOF 12
