REMARK  12 active torsions:
REMARK  status: ('A' for Active; 'I' for Inactive)
REMARK       I    between atoms: C2_2  and  N1_4 
REMARK    1  A    between atoms: N1_4  and  C3_6 
REMARK    2  A    between atoms: C3_6  and  C4_7 
REMARK    3  A    between atoms: N2_10  and  C7_11 
REMARK    4  A    between atoms: C7_11  and  C8_12 
REMARK    5  A    between atoms: C8_12  and  O2_13 
REMARK    6  A    between atoms: N3_15  and  O3_17 
REMARK    7  A    between atoms: C16_27  and  C17_28 
REMARK    8  A    between atoms: C17_28  and  C18_29 
REMARK    9  A    between atoms: C18_29  and  N5_30 
REMARK       I    between atoms: N5_30  and  C19_32 
REMARK   10  A    between atoms: C19_32  and  C20_34 
REMARK   11  A    between atoms: C20_34  and  C21_35 
REMARK       I    between atoms: N6_44  and  C30_45 
REMARK   12  A    between atoms: C30_45  and  C31_47 
ROOT
HETATM    1  C17 UNL     1      -1.333  -0.756  -2.240  1.00  0.00    -0.020 C 
HETATM    2  C37 UNL     1      -1.168  -1.200  -3.663  1.00  0.00     0.011 C 
HETATM    3  C38 UNL     1      -1.508  -2.622  -3.280  1.00  0.00     0.002 C 
HETATM    4  C39 UNL     1      -1.349  -2.157  -1.824  1.00  0.00     0.011 C 
ENDROOT
BRANCH   1   5
HETATM    5  C16 UNL     1      -2.478   0.155  -2.014  1.00  0.00     0.006 C 
HETATM    6  C4  UNL     1      -3.842  -0.137  -2.381  1.00  0.00     0.010 C 
HETATM    7  C5  UNL     1      -4.602  -1.198  -1.615  1.00  0.00     0.026 C 
HETATM    8  C6  UNL     1      -4.536  -1.004  -0.117  1.00  0.00     0.123 C 
HETATM    9  N2  UNL     1      -4.654   0.334   0.316  1.00  0.00    -0.377 N 
HETATM   10  C14 UNL     1      -3.630   1.236  -0.002  1.00  0.00     0.060 C 
HETATM   11  C15 UNL     1      -2.406   0.628  -0.558  1.00  0.00     0.050 C 
BRANCH   6  12
HETATM   12  C3  UNL     1      -4.242  -0.096  -3.834  1.00  0.00     0.127 C 
BRANCH  12  13
HETATM   13  N1  UNL     1      -5.641   0.206  -4.084  1.00  0.00    -0.361 N 
HETATM   14  C2  UNL     1      -6.318   1.388  -3.754  1.00  0.00     0.213 C 
HETATM   15  C1  UNL     1      -7.754   1.548  -4.069  1.00  0.00     0.117 C 
HETATM   16  O1  UNL     1      -5.733   2.331  -3.192  1.00  0.00    -0.274 OA
ATOM     17  H1  UNL     1      -6.188  -0.519  -4.549  1.00  0.00     0.162 HD
ENDBRANCH  12  13
ENDBRANCH   6  12
BRANCH   9  18
HETATM   18  C7  UNL     1      -5.469   0.568   1.443  1.00  0.00     0.101 C 
HETATM   19  C9  UNL     1      -5.048  -0.287   2.628  1.00  0.00     0.070 C 
HETATM   20  C10 UNL     1      -5.163   0.431   3.932  1.00  0.00     0.275 C 
HETATM   21  N4  UNL     1      -6.431   1.127   4.000  1.00  0.00     0.084 N 
HETATM   22  C11 UNL     1      -6.518   1.713   5.326  1.00  0.00     0.309 C 
HETATM   23  C12 UNL     1      -6.614   2.078   2.944  1.00  0.00     0.275 C 
HETATM   24  C13 UNL     1      -5.500   1.979   1.891  1.00  0.00     0.070 C 
BRANCH  18  25
HETATM   25  C8  UNL     1      -6.863   0.157   1.075  1.00  0.00     0.164 C 
HETATM   26  N3  UNL     1      -7.478  -0.778   1.713  1.00  0.00    -0.249 N 
ATOM     27  H3  UNL     1      -6.999  -1.244   2.484  1.00  0.00     0.196 HD
BRANCH  25  28
HETATM   28  O2  UNL     1      -7.537   0.773   0.030  1.00  0.00    -0.346 OA
ATOM     29  H2  UNL     1      -8.420   0.513  -0.203  1.00  0.00     0.219 HD
ENDBRANCH  25  28
BRANCH  26  30
HETATM   30  O3  UNL     1      -8.736  -1.164   1.398  1.00  0.00    -0.288 OA
ATOM     31  H3  UNL     1      -9.190  -1.854   1.868  1.00  0.00     0.244 HD
ENDBRANCH  26  30
ENDBRANCH  18  25
ENDBRANCH   9  18
ENDBRANCH   1   5
BRANCH   1  32
HETATM   32  C18 UNL     1      -0.000  -0.135  -1.774  1.00  0.00     0.132 C 
BRANCH  32  33
HETATM   33  N5  UNL     1       1.126  -0.963  -1.989  1.00  0.00    -0.360 N 
HETATM   34  C19 UNL     1       2.414  -0.472  -1.592  1.00  0.00     0.219 C 
HETATM   35  O4  UNL     1       2.434   0.674  -1.083  1.00  0.00    -0.274 OA
ATOM     36  H5  UNL     1       1.025  -1.884  -2.415  1.00  0.00     0.162 HD
BRANCH  34  37
HETATM   37  C20 UNL     1       3.630  -1.262  -1.772  1.00  0.00     0.128 C 
BRANCH  37  38
HETATM   38  C21 UNL     1       4.920  -0.590  -1.488  1.00  0.00     0.096 C 
HETATM   39  C22 UNL     1       6.090  -1.554  -1.713  1.00  0.00     0.031 C 
HETATM   40  C23 UNL     1       6.574  -2.190  -0.449  1.00  0.00    -0.007 C 
HETATM   41  C24 UNL     1       7.035  -3.623  -0.699  1.00  0.00     0.005 C 
HETATM   42  C28 UNL     1       5.656  -2.211   0.711  1.00  0.00     0.008 C 
HETATM   43  C25 UNL     1       6.944  -4.412   0.573  1.00  0.00     0.000 C 
HETATM   44  C26 UNL     1       7.469  -3.602   1.728  1.00  0.00     0.000 C 
HETATM   45  C27 UNL     1       6.544  -2.453   1.955  1.00  0.00     0.006 C 
HETATM   46  C29 UNL     1       4.924  -0.940   1.000  1.00  0.00     0.131 C 
HETATM   47  N6  UNL     1       5.042  -0.048  -0.128  1.00  0.00    -0.346 N 
HETATM   48  C30 UNL     1       5.285   1.327   0.100  1.00  0.00     0.224 C 
HETATM   49  O5  UNL     1       5.395   2.125  -0.902  1.00  0.00    -0.273 OA
BRANCH  48  50
HETATM   50  C31 UNL     1       5.436   1.974   1.414  1.00  0.00     0.078 C 
HETATM   51  C32 UNL     1       6.777   1.794   2.055  1.00  0.00     0.014 C 
HETATM   52  C33 UNL     1       7.807   2.773   1.515  1.00  0.00     0.001 C 
HETATM   53  C34 UNL     1       7.415   4.161   1.945  1.00  0.00     0.000 C 
HETATM   54  C35 UNL     1       5.951   4.260   2.324  1.00  0.00     0.001 C 
HETATM   55  C36 UNL     1       5.097   3.439   1.365  1.00  0.00     0.014 C 
ENDBRANCH  48  50
ENDBRANCH  37  38
ENDBRANCH  34  37
ENDBRANCH  32  33
ENDBRANCH   1  32
TORSDOF 12
