REMARK  7 active torsions:
REMARK  status: ('A' for Active; 'I' for Inactive)
REMARK    1  A    between atoms: C1_2  and  N1_3 
REMARK    2  A    between atoms: C1_2  and  N3_14 
REMARK    3  A    between atoms: N1_3  and  C2_5 
REMARK    4  A    between atoms: C2_5  and  C3_6 
REMARK    5  A    between atoms: C3_6  and  N2_7 
REMARK    6  A    between atoms: N3_14  and  N4_16 
REMARK    7  A    between atoms: C10_18  and  C11_19 
ROOT
HETATM    1  S1  UNL     1       1.849   1.124  -3.383  1.00  0.00    -0.040 SA
HETATM    2  C1  UNL     1       1.163   1.523  -1.963  1.00  0.00     0.186 C 
ENDROOT
BRANCH   2   3
HETATM    3  N1  UNL     1      -0.219   1.287  -1.791  1.00  0.00    -0.361 N 
ATOM      4  H1  UNL     1      -0.771   0.874  -2.543  1.00  0.00     0.162 HD
BRANCH   3   5
HETATM    5  C2  UNL     1      -0.841   1.640  -0.531  1.00  0.00     0.166 C 
BRANCH   5   6
HETATM    6  C3  UNL     1      -2.300   1.341  -0.484  1.00  0.00     0.082 C 
BRANCH   6   7
HETATM    7  N2  UNL     1      -2.682   0.004  -0.666  1.00  0.00    -0.372 N 
HETATM    8  C4  UNL     1      -2.357  -0.934   0.322  1.00  0.00     0.063 C 
HETATM    9  C5  UNL     1      -3.376  -2.042   0.522  1.00  0.00     0.044 C 
HETATM   10  C6  UNL     1      -4.567  -1.498   1.255  1.00  0.00     0.005 C 
HETATM   11  C7  UNL     1      -5.603  -0.915   0.325  1.00  0.00     0.002 C 
HETATM   12  C8  UNL     1      -5.053   0.208  -0.512  1.00  0.00     0.020 C 
HETATM   13  C9  UNL     1      -3.902  -0.212  -1.387  1.00  0.00     0.127 C 
ENDBRANCH   6   7
ENDBRANCH   5   6
ENDBRANCH   3   5
ENDBRANCH   2   3
BRANCH   2  14
HETATM   14  N3  UNL     1       1.924   2.092  -0.925  1.00  0.00    -0.277 N 
ATOM     15  H3  UNL     1       1.439   2.322  -0.058  1.00  0.00     0.189 HD
BRANCH  14  16
HETATM   16  N4  UNL     1       3.287   2.365  -0.989  1.00  0.00    -0.313 N 
HETATM   17  C10 UNL     1       4.108   1.542  -0.454  1.00  0.00     0.085 C 
ATOM     18  H4  UNL     1       3.626   3.207  -1.454  1.00  0.00     0.185 HD
BRANCH  17  19
HETATM   19  C11 UNL     1       3.618   0.319   0.219  1.00  0.00     0.029 C 
HETATM   20  C12 UNL     1       4.047   0.287   1.661  1.00  0.00     0.036 C 
HETATM   21  C13 UNL     1       5.213  -0.586   1.893  1.00  0.00    -0.030 C 
HETATM   22  C14 UNL     1       5.896  -1.195   0.957  1.00  0.00    -0.031 C 
HETATM   23  C15 UNL     1       5.525  -1.041  -0.476  1.00  0.00     0.027 C 
HETATM   24  C16 UNL     1       4.023  -0.916  -0.552  1.00  0.00     0.014 C 
ENDBRANCH  17  19
ENDBRANCH  14  16
ENDBRANCH   2  14
TORSDOF 7
