REMARK  6 active torsions:
REMARK  status: ('A' for Active; 'I' for Inactive)
REMARK    1  A    between atoms: C2_2  and  O1_3 
REMARK    2  A    between atoms: C2_2  and  C3_5 
REMARK       I    between atoms: C3_5  and  N1_7 
REMARK    3  A    between atoms: C6_10  and  C7_11 
REMARK    4  A    between atoms: C7_11  and  C8_12 
REMARK    5  A    between atoms: C8_12  and  C9_13 
REMARK       I    between atoms: C9_13  and  N2_15 
REMARK    6  A    between atoms: N2_15  and  C10_17 
ROOT
HETATM    1  C3  UNL     1       3.634  -1.131  -1.108  1.00  0.00     0.248 C 
HETATM    2  O2  UNL     1       2.982  -1.855  -1.929  1.00  0.00    -0.270 OA
HETATM    3  N1  UNL     1       3.247   0.219  -0.957  1.00  0.00    -0.350 N 
HETATM    4  C4  UNL     1       2.150   0.789  -1.734  1.00  0.00     0.126 C 
HETATM    5  C5  UNL     1       1.009   1.067  -0.721  1.00  0.00     0.024 C 
HETATM    6  C6  UNL     1       1.567   1.074   0.633  1.00  0.00    -0.011 C 
HETATM    7  C16 UNL     1       2.867   1.894   0.699  1.00  0.00     0.024 C 
HETATM    8  C17 UNL     1       3.924   1.073  -0.029  1.00  0.00     0.126 C 
ENDROOT
BRANCH   6   9
HETATM    9  C7  UNL     1       0.712   1.500   1.744  1.00  0.00     0.014 C 
BRANCH   9  10
HETATM   10  C8  UNL     1      -0.502   0.700   2.000  1.00  0.00     0.103 C 
BRANCH  10  11
HETATM   11  C9  UNL     1      -1.564   0.800   1.015  1.00  0.00     0.217 C 
HETATM   12  O3  UNL     1      -1.722   1.811   0.306  1.00  0.00    -0.274 OA
HETATM   13  N2  UNL     1      -2.467  -0.276   0.834  1.00  0.00    -0.356 N 
ATOM     14  H2  UNL     1      -2.372  -1.123   1.395  1.00  0.00     0.162 HD
BRANCH  13  15
HETATM   15  C10 UNL     1      -3.518  -0.173  -0.142  1.00  0.00     0.084 C 
HETATM   16  C11 UNL     1      -3.373  -1.240  -1.229  1.00  0.00     0.025 C 
HETATM   17  C12 UNL     1      -4.689  -1.364  -1.942  1.00  0.00     0.002 C 
HETATM   18  C13 UNL     1      -5.504  -0.079  -1.848  1.00  0.00     0.000 C 
HETATM   19  C14 UNL     1      -5.955   0.036  -0.403  1.00  0.00     0.002 C 
HETATM   20  C15 UNL     1      -4.853  -0.411   0.530  1.00  0.00     0.025 C 
ENDBRANCH  13  15
ENDBRANCH  10  11
ENDBRANCH   9  10
ENDBRANCH   6   9
BRANCH   1  21
HETATM   21  C2  UNL     1       4.766  -1.672  -0.329  1.00  0.00     0.206 C 
HETATM   22  C1  UNL     1       6.025  -0.942  -0.759  1.00  0.00     0.049 C 
BRANCH  21  23
HETATM   23  O1  UNL     1       4.924  -3.051  -0.581  1.00  0.00    -0.387 OA
ATOM     24  H1  UNL     1       4.136  -3.508  -0.312  1.00  0.00     0.210 HD
ENDBRANCH  21  23
ENDBRANCH   1  21
TORSDOF 6
