REMARK  5 active torsions:
REMARK  status: ('A' for Active; 'I' for Inactive)
REMARK    1  A    between atoms: C1_2  and  C2_4 
REMARK    2  A    between atoms: C2_4  and  C3_5 
REMARK    3  A    between atoms: C3_5  and  C4_6 
REMARK    4  A    between atoms: C4_6  and  N1_7 
REMARK    5  A    between atoms: C16_19  and  C17_20 
ROOT
HETATM    1  N1  UNL     1      -0.144   0.113   0.573  1.00  0.00    -0.403 N 
HETATM    2  C5  UNL     1      -0.729   1.047  -0.288  1.00  0.00     0.080 C 
HETATM    3  C6  UNL     1      -1.257   0.497  -1.597  1.00  0.00     0.025 C 
HETATM    4  C7  UNL     1      -2.045  -0.742  -1.512  1.00  0.00     0.007 C 
HETATM    5  C8  UNL     1      -2.772  -0.991  -0.217  1.00  0.00    -0.012 C 
HETATM    6  C9  UNL     1      -3.512   0.208   0.279  1.00  0.00     0.009 C 
HETATM    7  C10 UNL     1      -2.717   1.078   1.203  1.00  0.00    -0.010 C 
HETATM    8  C11 UNL     1      -1.791   1.925   0.405  1.00  0.00     0.029 C 
HETATM    9  C12 UNL     1      -1.921   0.321   2.209  1.00  0.00     0.029 C 
HETATM   10  C13 UNL     1      -0.987  -0.607   1.448  1.00  0.00     0.080 C 
HETATM   11  C14 UNL     1      -1.856  -1.633   0.766  1.00  0.00     0.029 C 
ENDROOT
BRANCH   1  12
HETATM   12  C4  UNL     1       1.230   0.221   0.906  1.00  0.00     0.128 C 
BRANCH  12  13
HETATM   13  C3  UNL     1       2.189  -0.072  -0.196  1.00  0.00    -0.001 A 
HETATM   14  C15 UNL     1       3.652   0.168   0.133  1.00  0.00     0.029 A 
HETATM   15  C16 UNL     1       2.922   0.868  -1.013  1.00  0.00     0.098 A 
BRANCH  13  16
HETATM   16  C2  UNL     1       2.036  -1.487  -0.785  1.00  0.00     0.125 C 
BRANCH  16  17
HETATM   17  C1  UNL     1       2.290  -2.481   0.256  1.00  0.00     0.173 C 
HETATM   18  O1  UNL     1       2.672  -2.286   1.427  1.00  0.00    -0.648 OA
HETATM   19  O2  UNL     1       2.086  -3.852  -0.067  1.00  0.00    -0.648 OA
ENDBRANCH  16  17
ENDBRANCH  13  16
BRANCH  15  20
HETATM   20  C17 UNL     1       2.998   2.321  -0.900  1.00  0.00     0.177 C 
HETATM   21  O3  UNL     1       3.264   3.050  -1.924  1.00  0.00    -0.648 OA
HETATM   22  O4  UNL     1       2.804   3.047   0.265  1.00  0.00    -0.648 OA
ENDBRANCH  15  20
ENDBRANCH  12  13
ENDBRANCH   1  12
TORSDOF 5
