REMARK  6 active torsions:
REMARK  status: ('A' for Active; 'I' for Inactive)
REMARK    1  A    between atoms: O1_1  and  C1_3 
REMARK    2  A    between atoms: C1_3  and  C2_4 
REMARK    3  A    between atoms: C2_4  and  C3_5 
REMARK    4  A    between atoms: N1_8  and  C6_9 
REMARK    5  A    between atoms: C6_9  and  C7_10 
REMARK    6  A    between atoms: N2_14  and  C11_15 
ROOT
HETATM    1  C7  UNL     1       0.123   0.048   0.158  1.00  0.00     0.042 C 
HETATM    2  C8  UNL     1       0.359  -0.437  -1.250  1.00  0.00     0.016 C 
HETATM    3  C9  UNL     1       1.183   0.570  -1.987  1.00  0.00     0.045 C 
HETATM    4  C10 UNL     1       1.947   1.411  -0.989  1.00  0.00     0.063 C 
HETATM    5  N2  UNL     1       2.422   0.624   0.043  1.00  0.00    -0.369 N 
HETATM    6  C17 UNL     1       1.473  -0.005   0.849  1.00  0.00     0.069 C 
ENDROOT
BRANCH   1   7
HETATM    7  C6  UNL     1      -0.892  -0.792   0.889  1.00  0.00     0.126 C 
BRANCH   7   8
HETATM    8  N1  UNL     1      -2.176  -0.824   0.291  1.00  0.00    -0.412 N 
HETATM    9  C5  UNL     1      -2.928   0.368   0.301  1.00  0.00     0.117 C 
HETATM   10  C4  UNL     1      -3.842   0.306  -0.932  1.00  0.00     0.024 C 
HETATM   11  C3  UNL     1      -4.798  -0.797  -0.689  1.00  0.00    -0.010 C 
HETATM   12  C19 UNL     1      -4.073  -2.113  -0.418  1.00  0.00     0.024 C 
HETATM   13  C18 UNL     1      -2.987  -1.943   0.613  1.00  0.00     0.117 C 
BRANCH  11  14
HETATM   14  C2  UNL     1      -5.849  -0.539   0.334  1.00  0.00     0.031 C 
BRANCH  14  15
HETATM   15  C1  UNL     1      -6.757   0.610   0.031  1.00  0.00     0.164 C 
BRANCH  15  16
HETATM   16  O1  UNL     1      -6.167   1.849  -0.058  1.00  0.00    -0.401 OA
ATOM     17  H1  UNL     1      -6.744   2.579  -0.250  1.00  0.00     0.209 HD
ENDBRANCH  15  16
ENDBRANCH  14  15
ENDBRANCH  11  14
ENDBRANCH   7   8
ENDBRANCH   1   7
BRANCH   5  18
HETATM   18  C11 UNL     1       3.775   0.415   0.268  1.00  0.00     0.088 C 
HETATM   19  C12 UNL     1       4.353  -0.308  -0.958  1.00  0.00     0.026 C 
HETATM   20  C13 UNL     1       5.844  -0.452  -0.859  1.00  0.00     0.002 C 
HETATM   21  C14 UNL     1       6.344  -0.148   0.512  1.00  0.00     0.000 C 
HETATM   22  C15 UNL     1       6.020   1.291   0.838  1.00  0.00     0.002 C 
HETATM   23  C16 UNL     1       4.599   1.649   0.464  1.00  0.00     0.026 C 
ENDBRANCH   5  18
TORSDOF 6
