REMARK  10 active torsions:
REMARK  status: ('A' for Active; 'I' for Inactive)
REMARK    1  A    between atoms: N1_2  and  C2_3 
REMARK    2  A    between atoms: N1_2  and  C11_35 
REMARK    3  A    between atoms: C2_3  and  C3_4 
REMARK    4  A    between atoms: N2_5  and  C4_7 
REMARK    5  A    between atoms: C5_10  and  N4_11 
REMARK    6  A    between atoms: C7_17  and  N6_18 
REMARK       I    between atoms: N6_18  and  C8_20 
REMARK       I    between atoms: C8_20  and  N7_21 
REMARK       I    between atoms: C8_20  and  N8_25 
REMARK    7  A    between atoms: C11_35  and  C12_36 
REMARK    8  A    between atoms: C12_36  and  C13_38 
REMARK    9  A    between atoms: C13_38  and  O1_39 
REMARK   10  A    between atoms: C13_38  and  O2_41 
ROOT
HETATM    1  C4  UNL     1      -1.060  -0.398   0.147  1.00  0.00     0.150 A 
HETATM    2  N3  UNL     1      -0.959  -0.787  -1.125  1.00  0.00    -0.174 N 
ATOM      3  H3  UNL     1      -0.027  -0.903  -1.523  1.00  0.00     0.186 HD
HETATM    4  C5  UNL     1      -2.045  -1.039  -1.926  1.00  0.00     0.678 A 
HETATM    5  N5  UNL     1      -3.300  -0.906  -1.466  1.00  0.00    -0.186 N 
ATOM      6  H5  UNL     1      -4.100  -1.095  -2.070  1.00  0.00     0.184 HD
HETATM    7  C6  UNL     1      -3.474  -0.523  -0.209  1.00  0.00     0.123 A 
HETATM    8  C7  UNL     1      -4.776  -0.400   0.242  1.00  0.00     0.135 A 
HETATM    9  N9  UNL     1      -4.942  -0.018   1.514  1.00  0.00    -0.337 N 
ATOM     10  H9  UNL     1      -5.885   0.086   1.889  1.00  0.00     0.168 HD
HETATM   11  C9  UNL     1      -3.862   0.235   2.319  1.00  0.00     0.182 A 
HETATM   12  N10 UNL     1      -2.593   0.111   1.865  1.00  0.00    -0.347 N 
ATOM     13  H10 UNL     1      -1.802   0.305   2.479  1.00  0.00     0.167 HD
HETATM   14  C10 UNL     1      -2.393  -0.268   0.604  1.00  0.00     0.109 A 
ENDROOT
BRANCH   1  15
HETATM   15  N2  UNL     1      -0.140  -0.152   0.924  1.00  0.00    -0.352 N 
HETATM   16  C3  UNL     1       1.209  -0.081   1.117  1.00  0.00     0.077 C 
ATOM     17  H2  UNL     1      -0.573   0.115   1.808  1.00  0.00     0.166 HD
BRANCH  16  18
HETATM   18  C2  UNL     1       2.082   0.535   0.027  1.00  0.00     0.139 C 
BRANCH  18  19
HETATM   19  N1  UNL     1       3.470   0.552   0.447  1.00  0.00    -0.290 NA
HETATM   20  C1  UNL     1       3.687   1.481   1.485  1.00  0.00     0.116 C 
BRANCH  19  21
HETATM   21  C11 UNL     1       4.373   0.546  -0.611  1.00  0.00     0.086 C 
BRANCH  21  22
HETATM   22  C12 UNL     1       5.743   0.036  -0.477  1.00  0.00     0.088 C 
HETATM   23  N11 UNL     1       5.887  -1.350  -0.070  1.00  0.00    -0.101 NA
BRANCH  22  24
HETATM   24  C13 UNL     1       6.717   0.926   0.205  1.00  0.00     0.303 C 
BRANCH  24  25
HETATM   25  O1  UNL     1       6.685   0.888   1.589  1.00  0.00    -0.366 OA
ATOM     26  H1  UNL     1       7.308   1.457   2.025  1.00  0.00     0.213 HD
ENDBRANCH  24  25
BRANCH  24  27
HETATM   27  O2  UNL     1       8.043   0.527  -0.134  1.00  0.00    -0.366 OA
ATOM     28  H2  UNL     1       8.666   1.096   0.302  1.00  0.00     0.213 HD
ENDBRANCH  24  27
ENDBRANCH  22  24
ENDBRANCH  21  22
ENDBRANCH  19  21
ENDBRANCH  18  19
ENDBRANCH  16  18
ENDBRANCH   1  15
BRANCH   4  29
HETATM   29  N4  UNL     1      -1.904  -1.411  -3.161  1.00  0.00    -0.234 N 
ATOM     30  H42 UNL     1      -0.951  -1.512  -3.510  1.00  0.00     0.174 HD
ATOM     31  H41 UNL     1      -2.711  -1.598  -3.756  1.00  0.00     0.174 HD
ENDBRANCH   4  29
BRANCH   8  32
HETATM   32  N6  UNL     1      -5.775  -0.632  -0.510  1.00  0.00    -0.325 N 
HETATM   33  C8  UNL     1      -7.160  -0.559  -0.221  1.00  0.00     0.481 C 
HETATM   34  N7  UNL     1      -7.515   0.815   0.081  1.00  0.00    -0.033 N 
HETATM   35  N8  UNL     1      -7.585  -1.475   0.818  1.00  0.00    -0.033 N 
ATOM     36  H73 UNL     1      -6.943   1.207   0.829  1.00  0.00     0.278 HD
ATOM     37  H72 UNL     1      -7.241   1.457  -0.662  1.00  0.00     0.278 HD
ATOM     38  H71 UNL     1      -8.512   0.868   0.289  1.00  0.00     0.278 HD
ATOM     39  H83 UNL     1      -7.315  -2.431   0.588  1.00  0.00     0.278 HD
ATOM     40  H82 UNL     1      -7.033  -1.341   1.665  1.00  0.00     0.278 HD
ATOM     41  H81 UNL     1      -8.582  -1.422   1.026  1.00  0.00     0.278 HD
ATOM     42  H6  UNL     1      -5.545  -0.912  -1.463  1.00  0.00     0.165 HD
ENDBRANCH   8  32
TORSDOF 10
