REMARK  9 active torsions:
REMARK  status: ('A' for Active; 'I' for Inactive)
REMARK    1  A    between atoms: C2_2  and  C3_3 
REMARK    2  A    between atoms: C3_3  and  C5_5 
REMARK    3  A    between atoms: C3_3  and  C10_11 
REMARK    4  A    between atoms: C6_6  and  C7_7 
REMARK    5  A    between atoms: C7_7  and  N1_8 
REMARK    6  A    between atoms: C10_11  and  C11_12 
REMARK    7  A    between atoms: C11_12  and  O1_13 
REMARK    8  A    between atoms: C11_12  and  C12_15 
REMARK    9  A    between atoms: C12_15  and  C13_16 
ROOT
HETATM    1  C11 UNL     1      -0.511   0.125  -0.810  1.00  0.00     0.120 C 
ENDROOT
BRANCH   1   2
HETATM    2  C10 UNL     1       0.033  -0.733   0.287  1.00  0.00     0.053 C 
BRANCH   2   3
HETATM    3  C3  UNL     1       1.163  -1.620  -0.049  1.00  0.00     0.022 C 
HETATM    4  C4  UNL     1       1.501  -2.398   1.237  1.00  0.00     0.029 C 
BRANCH   3   5
HETATM    5  C2  UNL     1       0.961  -2.642  -1.104  1.00  0.00     0.018 C 
HETATM    6  C1  UNL     1      -0.146  -3.611  -0.818  1.00  0.00     0.007 C 
ENDBRANCH   3   5
BRANCH   3   7
HETATM    7  C5  UNL     1       2.345  -0.780  -0.351  1.00  0.00    -0.095 C 
HETATM    8  C6  UNL     1       3.295  -0.079  -0.600  1.00  0.00    -0.075 C 
BRANCH   8   9
HETATM    9  C7  UNL     1       4.439   0.799  -0.911  1.00  0.00     0.364 C 
BRANCH   9  10
HETATM   10  N1  UNL     1       4.443   1.967  -0.077  1.00  0.00     0.090 N 
HETATM   11  C8  UNL     1       4.723   1.668   1.310  1.00  0.00     0.310 C 
HETATM   12  C9  UNL     1       5.401   2.923  -0.571  1.00  0.00     0.310 C 
ENDBRANCH   9  10
ENDBRANCH   8   9
ENDBRANCH   3   7
ENDBRANCH   2   3
ENDBRANCH   1   2
BRANCH   1  13
HETATM   13  O1  UNL     1      -0.971  -0.701  -1.831  1.00  0.00    -0.396 OA
ATOM     14  H1  UNL     1      -1.317  -0.156  -2.528  1.00  0.00     0.210 HD
ENDBRANCH   1  13
BRANCH   1  15
HETATM   15  C12 UNL     1      -1.505   1.132  -0.364  1.00  0.00     0.036 C 
BRANCH  15  16
HETATM   16  C13 UNL     1      -2.738   0.661   0.290  1.00  0.00    -0.009 C 
HETATM   17  C14 UNL     1      -3.549   1.924   0.631  1.00  0.00     0.032 C 
HETATM   18  C15 UNL     1      -4.744   1.577   1.462  1.00  0.00     0.232 C 
HETATM   19  N2  UNL     1      -5.612   0.756   0.605  1.00  0.00    -0.075 N 
HETATM   20  C16 UNL     1      -4.924  -0.450   0.242  1.00  0.00     0.232 C 
ATOM     21  H22 UNL     1      -6.516   0.568   1.039  1.00  0.00     0.277 HD
ATOM     22  H21 UNL     1      -5.946   1.270  -0.211  1.00  0.00     0.277 HD
HETATM   23  C17 UNL     1      -3.632  -0.218  -0.510  1.00  0.00     0.032 C 
ENDBRANCH  15  16
ENDBRANCH   1  15
TORSDOF 9
