REMARK  6 active torsions:
REMARK  status: ('A' for Active; 'I' for Inactive)
REMARK       I    between atoms: C1_4  and  N2_5 
REMARK       I    between atoms: C1_4  and  N3_18 
REMARK    1  A    between atoms: N2_5  and  C2_7 
REMARK    2  A    between atoms: C2_7  and  C3_8 
REMARK    3  A    between atoms: C3_8  and  C4_9 
REMARK    4  A    between atoms: C4_9  and  C5_10 
REMARK    5  A    between atoms: C5_10  and  C6_11 
REMARK    6  A    between atoms: C6_11  and  C7_12 
ROOT
HETATM    1  N1  UNL     1      -2.341   1.295   1.553  1.00  0.00    -0.235 N 
ATOM      2  H11 UNL     1      -2.974   1.544   2.313  1.00  0.00     0.174 HD
ATOM      3  H12 UNL     1      -1.359   1.558   1.637  1.00  0.00     0.174 HD
HETATM    4  C1  UNL     1      -2.787   0.668   0.530  1.00  0.00     0.669 C 
HETATM    5  N2  UNL     1      -1.906   0.322  -0.528  1.00  0.00    -0.227 N 
ATOM      6  H2  UNL     1      -1.927   0.822  -1.417  1.00  0.00     0.177 HD
HETATM    7  N3  UNL     1      -4.144   0.304   0.414  1.00  0.00    -0.214 N 
HETATM    8  C12 UNL     1      -4.752   0.196  -0.888  1.00  0.00     0.167 C 
HETATM    9  C13 UNL     1      -6.150   0.751  -0.780  1.00  0.00     0.188 C 
HETATM   10  O2  UNL     1      -6.927   0.161   0.180  1.00  0.00    -0.388 OA
HETATM   11  C14 UNL     1      -6.272  -0.567   1.137  1.00  0.00     0.188 C 
HETATM   12  C15 UNL     1      -4.953   0.031   1.573  1.00  0.00     0.167 C 
ENDROOT
BRANCH   5  13
HETATM   13  C2  UNL     1      -0.977  -0.764  -0.304  1.00  0.00     0.138 C 
BRANCH  13  14
HETATM   14  C3  UNL     1      -0.135  -0.972  -1.519  1.00  0.00     0.020 C 
BRANCH  14  15
HETATM   15  C4  UNL     1       0.643   0.260  -1.830  1.00  0.00     0.002 C 
BRANCH  15  16
HETATM   16  C5  UNL     1       1.570   0.680  -0.721  1.00  0.00     0.002 C 
BRANCH  16  17
HETATM   17  C6  UNL     1       2.554  -0.412  -0.447  1.00  0.00     0.032 C 
BRANCH  17  18
HETATM   18  C7  UNL     1       3.523  -0.051   0.666  1.00  0.00     0.121 C 
HETATM   19  C8  UNL     1       4.458  -1.184   0.871  1.00  0.00     0.032 C 
HETATM   20  C9  UNL     1       5.917  -0.782   0.815  1.00  0.00     0.004 C 
HETATM   21  C10 UNL     1       6.039   0.087  -0.414  1.00  0.00     0.026 C 
HETATM   22  C11 UNL     1       5.213   1.311  -0.205  1.00  0.00     0.168 C 
HETATM   23  O1  UNL     1       4.067   1.176   0.487  1.00  0.00    -0.386 OA
ENDBRANCH  17  18
ENDBRANCH  16  17
ENDBRANCH  15  16
ENDBRANCH  14  15
ENDBRANCH  13  14
ENDBRANCH   5  13
TORSDOF 6
