REMARK  7 active torsions:
REMARK  status: ('A' for Active; 'I' for Inactive)
REMARK    1  A    between atoms: C2_2  and  N1_3 
REMARK    2  A    between atoms: C8_9  and  C9_10 
REMARK    3  A    between atoms: C9_10  and  N2_11 
REMARK    4  A    between atoms: N2_11  and  C10_14 
REMARK    5  A    between atoms: C10_14  and  C11_15 
REMARK    6  A    between atoms: C11_15  and  N3_16 
REMARK    7  A    between atoms: C11_15  and  C12_20 
ROOT
HETATM    1  N2  UNL     1      -0.885   0.509   0.782  1.00  0.00    -0.073 N 
ATOM      2  H21 UNL     1      -0.269   0.383   1.585  1.00  0.00     0.277 HD
ATOM      3  H22 UNL     1      -1.040  -0.468   0.535  1.00  0.00     0.277 HD
ENDROOT
BRANCH   1   4
HETATM    4  C9  UNL     1      -0.214   1.196  -0.267  1.00  0.00     0.237 C 
BRANCH   4   5
HETATM    5  C8  UNL     1       1.164   0.750  -0.569  1.00  0.00     0.016 C 
HETATM    6  C7  UNL     1       1.455  -0.651  -0.971  1.00  0.00     0.047 C 
HETATM    7  C2  UNL     1       2.607  -0.717   0.007  1.00  0.00     0.157 C 
HETATM    8  C1  UNL     1       2.610  -1.959   0.869  1.00  0.00     0.049 C 
HETATM    9  C17 UNL     1       1.886   0.415   0.757  1.00  0.00     0.047 C 
BRANCH   7  10
HETATM   10  N1  UNL     1       3.884  -0.312  -0.384  1.00  0.00     0.097 N 
HETATM   11  C3  UNL     1       4.645  -1.218  -1.195  1.00  0.00     0.273 C 
HETATM   12  C4  UNL     1       5.983  -0.480  -1.324  1.00  0.00     0.032 C 
HETATM   13  C5  UNL     1       5.991   0.595  -0.264  1.00  0.00     0.032 C 
HETATM   14  C6  UNL     1       4.783   0.181   0.597  1.00  0.00     0.273 C 
ENDBRANCH   7  10
ENDBRANCH   4   5
ENDBRANCH   1   4
BRANCH   1  15
HETATM   15  C10 UNL     1      -2.099   1.131   1.169  1.00  0.00     0.265 C 
BRANCH  15  16
HETATM   16  C11 UNL     1      -3.210   1.159   0.180  1.00  0.00     0.213 C 
BRANCH  16  17
HETATM   17  N3  UNL     1      -4.336   1.846   0.820  1.00  0.00    -0.073 N 
ATOM     18  H33 UNL     1      -4.604   1.431   1.712  1.00  0.00     0.274 HD
ATOM     19  H32 UNL     1      -4.092   2.771   1.175  1.00  0.00     0.274 HD
ATOM     20  H31 UNL     1      -5.098   1.865   0.142  1.00  0.00     0.274 HD
ENDBRANCH  16  17
BRANCH  16  21
HETATM   21  C12 UNL     1      -3.640  -0.228  -0.182  1.00  0.00     0.018 C 
HETATM   22  C13 UNL     1      -4.784  -0.195  -1.181  1.00  0.00     0.007 C 
HETATM   23  C14 UNL     1      -5.451  -1.526  -1.010  1.00  0.00     0.000 C 
HETATM   24  C15 UNL     1      -5.172  -1.975   0.392  1.00  0.00     0.000 C 
HETATM   25  C16 UNL     1      -4.199  -0.991   0.983  1.00  0.00     0.007 C 
ENDBRANCH  16  21
ENDBRANCH  15  16
ENDBRANCH   1  15
TORSDOF 7
