REMARK  11 active torsions:
REMARK  status: ('A' for Active; 'I' for Inactive)
REMARK       I    between atoms: C2_2  and  N1_4 
REMARK    1  A    between atoms: N1_4  and  C3_6 
REMARK    2  A    between atoms: C5_8  and  N2_9 
REMARK    3  A    between atoms: C6_11  and  O2_12 
REMARK    4  A    between atoms: C6_11  and  C7_14 
REMARK    5  A    between atoms: C7_14  and  O3_15 
REMARK    6  A    between atoms: C8_17  and  O4_18 
REMARK    7  A    between atoms: C9_20  and  O5_21 
REMARK    8  A    between atoms: C10_23  and  C11_24 
REMARK    9  A    between atoms: C11_24  and  O6_25 
REMARK   10  A    between atoms: O6_25  and  N3_26 
REMARK   11  A    between atoms: N4_29  and  N5_30 
ROOT
HETATM    1  C7  UNL     1      -1.531  -0.030   0.185  1.00  0.00     0.226 C 
HETATM    2  C8  UNL     1      -2.424  -0.031   1.433  1.00  0.00     0.208 C 
HETATM    3  C9  UNL     1      -3.470  -1.035   0.998  1.00  0.00     0.173 C 
HETATM    4  C10 UNL     1      -3.706  -0.641  -0.439  1.00  0.00     0.140 C 
HETATM    5  N4  UNL     1      -2.489  -0.094  -0.917  1.00  0.00    -0.184 NA
ENDROOT
BRANCH   1   6
HETATM    6  C6  UNL     1      -0.827   1.233   0.034  1.00  0.00     0.173 C 
HETATM    7  N2  UNL     1       0.446   1.676  -0.094  1.00  0.00    -0.323 N 
ATOM      8  H2  UNL     1       0.535   2.689  -0.170  1.00  0.00     0.169 HD
BRANCH   7   9
HETATM    9  C5  UNL     1       1.662   0.983  -0.140  1.00  0.00     0.111 A 
HETATM   10  C4  UNL     1       2.873   1.699  -0.271  1.00  0.00     0.097 A 
HETATM   11  C3  UNL     1       4.066   1.015  -0.321  1.00  0.00     0.112 A 
HETATM   12  N7  UNL     1       4.098  -0.331  -0.245  1.00  0.00    -0.332 N 
HETATM   13  C12 UNL     1       2.955  -1.031  -0.120  1.00  0.00     0.080 A 
ATOM     14  H7  UNL     1       4.992  -0.821  -0.282  1.00  0.00     0.168 HD
HETATM   15  N6  UNL     1       1.831  -0.349  -0.076  1.00  0.00    -0.332 N 
HETATM   16  C13 UNL     1       2.982  -2.534  -0.035  1.00  0.00     0.089 C 
ATOM     17  H6  UNL     1       0.979  -0.901   0.019  1.00  0.00     0.168 HD
BRANCH  11  18
HETATM   18  N1  UNL     1       5.257   1.786  -0.454  1.00  0.00    -0.313 N 
HETATM   19  C2  UNL     1       6.520   1.167  -0.512  1.00  0.00     0.219 C 
HETATM   20  C1  UNL     1       6.799  -0.264  -0.450  1.00  0.00     0.117 C 
HETATM   21  O1  UNL     1       7.518   1.965  -0.633  1.00  0.00    -0.274 OA
ATOM     22  H1  UNL     1       5.193   2.803  -0.508  1.00  0.00     0.170 HD
ENDBRANCH  11  18
ENDBRANCH   7   9
BRANCH   6  23
HETATM   23  O2  UNL     1      -1.734   2.228   0.022  1.00  0.00    -0.346 OA
ATOM     24  H2  UNL     1      -2.627   1.917   0.112  1.00  0.00     0.219 HD
ENDBRANCH   6  23
ENDBRANCH   1   6
BRANCH   1  25
HETATM   25  O3  UNL     1      -0.744  -1.117   0.268  1.00  0.00    -0.365 OA
ATOM     26  H3  UNL     1      -1.204  -1.942   0.367  1.00  0.00     0.212 HD
ENDBRANCH   1  25
BRANCH   2  27
HETATM   27  O4  UNL     1      -1.775  -0.531   2.538  1.00  0.00    -0.388 OA
ATOM     28  H4  UNL     1      -2.328  -0.532   3.311  1.00  0.00     0.210 HD
ENDBRANCH   2  27
BRANCH   5  29
HETATM   29  N5  UNL     1      -1.972  -0.702  -2.043  1.00  0.00    -0.360 NA
ATOM     30  H52 UNL     1      -1.096  -0.308  -2.387  1.00  0.00     0.171 HD
ATOM     31  H51 UNL     1      -2.641  -0.747  -2.812  1.00  0.00     0.171 HD
ENDBRANCH   5  29
BRANCH   3  32
HETATM   32  O5  UNL     1      -2.995  -2.341   1.071  1.00  0.00    -0.391 OA
ATOM     33  H5  UNL     1      -3.651  -2.971   0.798  1.00  0.00     0.210 HD
ENDBRANCH   3  32
BRANCH   4  34
HETATM   34  C11 UNL     1      -4.740   0.491  -0.414  1.00  0.00     0.224 C 
BRANCH  34  35
HETATM   35  O6  UNL     1      -5.918  -0.083   0.058  1.00  0.00    -0.286 OA
BRANCH  35  36
HETATM   36  N3  UNL     1      -6.870   0.850   0.107  1.00  0.00    -0.311 N 
ATOM     37  H32 UNL     1      -6.740   1.825  -0.162  1.00  0.00     0.184 HD
ATOM     38  H31 UNL     1      -7.733   0.430   0.453  1.00  0.00     0.184 HD
ENDBRANCH  35  36
ENDBRANCH  34  35
ENDBRANCH   4  34
TORSDOF 11
