REMARK  7 active torsions:
REMARK  status: ('A' for Active; 'I' for Inactive)
REMARK    1  A    between atoms: N1_1  and  C1_5 
REMARK    2  A    between atoms: C1_5  and  C2_6 
REMARK       I    between atoms: C2_6  and  N2_8 
REMARK    3  A    between atoms: N2_8  and  C3_10 
REMARK    4  A    between atoms: C6_18  and  C7_19 
REMARK    5  A    between atoms: N7_25  and  C9_26 
REMARK    6  A    between atoms: C10_29  and  O4_30 
REMARK    7  A    between atoms: C11_32  and  O5_33 
ROOT
HETATM    1  C3  UNL     1      -1.170  -0.515   0.241  1.00  0.00     0.691 A 
HETATM    2  N3  UNL     1      -0.906  -1.838   0.152  1.00  0.00    -0.182 N 
ATOM      3  H3  UNL     1      -1.600  -2.559  -0.046  1.00  0.00     0.184 HD
HETATM    4  C4  UNL     1       0.371  -2.063   0.357  1.00  0.00     0.162 A 
HETATM    5  C5  UNL     1       1.202  -3.163   0.405  1.00  0.00     0.278 A 
HETATM    6  O2  UNL     1       0.641  -4.284   0.189  1.00  0.00    -0.265 OA
HETATM    7  N4  UNL     1       2.513  -3.063   0.661  1.00  0.00    -0.303 N 
ATOM      8  H4  UNL     1       3.095  -3.901   0.686  1.00  0.00     0.171 HD
HETATM    9  C6  UNL     1       3.059  -1.857   0.884  1.00  0.00     0.176 A 
HETATM   10  N6  UNL     1       2.265  -0.763   0.842  1.00  0.00    -0.322 N 
ATOM     11  H6  UNL     1       2.691   0.148   1.014  1.00  0.00     0.169 HD
HETATM   12  C8  UNL     1       0.947  -0.808   0.587  1.00  0.00     0.160 A 
HETATM   13  N7  UNL     1      -0.039   0.141   0.505  1.00  0.00    -0.142 N 
ENDROOT
BRANCH   1  14
HETATM   14  N2  UNL     1      -2.518  -0.086   0.075  1.00  0.00    -0.158 N 
HETATM   15  C2  UNL     1      -3.589  -0.927  -0.241  1.00  0.00     0.261 C 
HETATM   16  O1  UNL     1      -4.751  -0.361  -0.316  1.00  0.00    -0.271 OA
ATOM     17  H2  UNL     1      -2.716   0.907   0.195  1.00  0.00     0.187 HD
BRANCH  15  18
HETATM   18  C1  UNL     1      -3.481  -2.383  -0.489  1.00  0.00     0.332 C 
BRANCH  18  19
HETATM   19  N1  UNL     1      -4.821  -2.907  -0.789  1.00  0.00    -0.071 N 
ATOM     20  H13 UNL     1      -5.500  -2.683  -0.062  1.00  0.00     0.274 HD
ATOM     21  H12 UNL     1      -5.272  -2.412  -1.558  1.00  0.00     0.274 HD
ATOM     22  H11 UNL     1      -4.747  -3.910  -0.960  1.00  0.00     0.274 HD
ENDBRANCH  18  19
ENDBRANCH  15  18
ENDBRANCH   1  14
BRANCH  13  23
HETATM   23  C9  UNL     1       0.120   1.551   0.646  1.00  0.00     0.252 C 
HETATM   24  N8  UNL     1       1.467   2.036   0.445  1.00  0.00    -0.116 NA
HETATM   25  N9  UNL     1       1.267   3.413   0.160  1.00  0.00    -0.112 NA
HETATM   26  C10 UNL     1       0.462   3.213  -1.073  1.00  0.00     0.259 C 
HETATM   27  C11 UNL     1      -0.634   2.324  -0.412  1.00  0.00     0.205 C 
BRANCH  26  28
HETATM   28  O4  UNL     1      -0.052   4.400  -1.526  1.00  0.00    -0.376 OA
ATOM     29  H4  UNL     1      -0.567   4.272  -2.314  1.00  0.00     0.211 HD
ENDBRANCH  26  28
BRANCH  27  30
HETATM   30  O5  UNL     1      -1.477   3.310   0.154  1.00  0.00    -0.388 OA
ATOM     31  H5  UNL     1      -1.951   3.796  -0.511  1.00  0.00     0.210 HD
ENDBRANCH  27  30
ENDBRANCH  13  23
BRANCH   9  32
HETATM   32  C7  UNL     1       4.464  -1.676   1.167  1.00  0.00     0.298 C 
HETATM   33  N5  UNL     1       4.986  -0.389   1.392  1.00  0.00    -0.054 NA
HETATM   34  O3  UNL     1       5.233  -2.660   1.216  1.00  0.00    -0.268 OA
ENDBRANCH   9  32
TORSDOF 7
