REMARK  5 active torsions:
REMARK  status: ('A' for Active; 'I' for Inactive)
REMARK       I    between atoms: C1_2  and  N1_3 
REMARK    1  A    between atoms: C1_2  and  C9_25 
REMARK       I    between atoms: N1_3  and  C2_5 
REMARK       I    between atoms: C2_5  and  N3_10 
REMARK    2  A    between atoms: N2_6  and  O2_8 
REMARK    3  A    between atoms: C4_12  and  C5_13 
REMARK    4  A    between atoms: C5_13  and  O3_14 
REMARK    5  A    between atoms: C7_21  and  C8_22 
ROOT
HETATM    1  O1  UNL     1       2.228   1.262   0.106  1.00  0.00    -0.263 OA
HETATM    2  C1  UNL     1       2.774   0.313  -0.467  1.00  0.00     0.306 C 
HETATM    3  N1  UNL     1       2.036  -0.718  -1.065  1.00  0.00    -0.151 N 
ATOM      4  H1  UNL     1       2.549  -1.472  -1.522  1.00  0.00     0.188 HD
HETATM    5  C2  UNL     1       0.648  -0.774  -1.072  1.00  0.00     0.704 C 
HETATM    6  N2  UNL     1       0.090  -1.838  -1.694  1.00  0.00    -0.099 N 
ATOM      7  H2  UNL     1      -0.926  -1.920  -1.724  1.00  0.00     0.213 HD
HETATM    8  N3  UNL     1      -0.302   0.102  -0.535  1.00  0.00    -0.182 N 
HETATM    9  C3  UNL     1      -0.789   1.444  -0.576  1.00  0.00     0.178 C 
HETATM   10  C4  UNL     1      -2.191   0.914  -0.160  1.00  0.00     0.133 C 
HETATM   11  N4  UNL     1      -2.852   0.345  -1.284  1.00  0.00    -0.120 NA
HETATM   12  N5  UNL     1      -2.990  -1.014  -1.022  1.00  0.00    -0.270 N 
ATOM     13  H5  UNL     1      -3.639  -1.640  -1.499  1.00  0.00     0.185 HD
HETATM   14  C6  UNL     1      -2.097  -1.398   0.002  1.00  0.00     0.275 C 
HETATM   15  O4  UNL     1      -1.867  -2.514   0.523  1.00  0.00    -0.269 OA
HETATM   16  C7  UNL     1      -1.374  -0.159   0.439  1.00  0.00     0.246 C 
ENDROOT
BRANCH   6  17
HETATM   17  O2  UNL     1       0.845  -2.793  -2.275  1.00  0.00    -0.276 OA
ATOM     18  H2  UNL     1       0.453  -3.540  -2.712  1.00  0.00     0.245 HD
ENDBRANCH   6  17
BRANCH   2  19
HETATM   19  C9  UNL     1       4.241   0.329  -0.484  1.00  0.00     0.201 A 
HETATM   20  N6  UNL     1       5.058   1.236   0.039  1.00  0.00    -0.266 N 
HETATM   21  N7  UNL     1       6.302   0.829  -0.226  1.00  0.00    -0.007 NA
ATOM     22  H6  UNL     1       4.788   2.080   0.545  1.00  0.00     0.185 HD
HETATM   23  N8  UNL     1       6.262  -0.310  -0.900  1.00  0.00    -0.007 NA
HETATM   24  N9  UNL     1       4.983  -0.621  -1.061  1.00  0.00    -0.266 N 
ATOM     25  H9  UNL     1       4.626  -1.446  -1.544  1.00  0.00     0.185 HD
ENDBRANCH   2  19
BRANCH  16  26
HETATM   26  C8  UNL     1      -1.023  -0.164   1.834  1.00  0.00     0.215 C 
HETATM   27  O5  UNL     1       0.076   0.013   2.384  1.00  0.00    -0.646 OA
HETATM   28  O6  UNL     1      -2.086  -0.406   2.735  1.00  0.00    -0.646 OA
ENDBRANCH  16  26
BRANCH  10  29
HETATM   29  C5  UNL     1      -2.920   1.865   0.693  1.00  0.00     0.198 C 
BRANCH  29  30
HETATM   30  O3  UNL     1      -4.051   1.270   1.246  1.00  0.00    -0.399 OA
ATOM     31  H3  UNL     1      -4.522   1.884   1.797  1.00  0.00     0.209 HD
ENDBRANCH  29  30
ENDBRANCH  10  29
TORSDOF 5
