REMARK  8 active torsions:
REMARK  status: ('A' for Active; 'I' for Inactive)
REMARK    1  A    between atoms: N1_4  and  C4_5 
REMARK    2  A    between atoms: C4_5  and  C5_6 
REMARK       I    between atoms: C5_6  and  N2_8 
REMARK    3  A    between atoms: N2_8  and  C6_10 
REMARK    4  A    between atoms: C8_12  and  N3_13 
REMARK    5  A    between atoms: N3_13  and  N4_15 
REMARK    6  A    between atoms: C10_24  and  N10_25 
REMARK    7  A    between atoms: N10_25  and  O2_27 
REMARK    8  A    between atoms: C11_31  and  N12_32 
ROOT
HETATM    1  C6  UNL     1       0.591  -0.780   0.576  1.00  0.00     0.127 A 
HETATM    2  C7  UNL     1       1.869  -0.568  -0.005  1.00  0.00     0.099 A 
HETATM    3  C8  UNL     1       2.999  -0.398   0.738  1.00  0.00     0.140 A 
HETATM    4  N9  UNL     1       2.876  -0.436   2.076  1.00  0.00    -0.173 N 
ATOM      5  H9  UNL     1       3.708  -0.311   2.652  1.00  0.00     0.186 HD
HETATM    6  C10 UNL     1       1.691  -0.633   2.678  1.00  0.00     0.705 A 
HETATM    7  N11 UNL     1       0.576  -0.801   1.917  1.00  0.00    -0.175 N 
ATOM      8  H11 UNL     1      -0.316  -0.950   2.390  1.00  0.00     0.186 HD
ENDROOT
BRANCH   1   9
HETATM    9  N2  UNL     1      -0.520  -0.944  -0.263  1.00  0.00    -0.311 N 
HETATM   10  C5  UNL     1      -1.840  -1.161   0.130  1.00  0.00     0.242 C 
HETATM   11  O1  UNL     1      -2.225  -1.246   1.316  1.00  0.00    -0.271 OA
ATOM     12  H2  UNL     1      -0.344  -0.900  -1.267  1.00  0.00     0.170 HD
BRANCH  10  13
HETATM   13  C4  UNL     1      -2.928  -1.313  -0.929  1.00  0.00     0.250 C 
BRANCH  13  14
HETATM   14  N1  UNL     1      -3.857  -0.233  -0.711  1.00  0.00    -0.183 N 
HETATM   15  C3  UNL     1      -4.953  -0.266   0.092  1.00  0.00     0.134 A 
HETATM   16  C2  UNL     1      -5.596   0.941   0.048  1.00  0.00     0.038 A 
HETATM   17  C1  UNL     1      -6.825   1.331   0.769  1.00  0.00     0.070 C 
HETATM   18  N13 UNL     1      -4.902   1.717  -0.777  1.00  0.00    -0.195 N 
HETATM   19  C11 UNL     1      -3.846   0.999  -1.236  1.00  0.00     0.678 A 
ATOM     20  H13 UNL     1      -5.124   2.682  -1.022  1.00  0.00     0.184 HD
BRANCH  19  21
HETATM   21  N12 UNL     1      -2.992   1.491  -2.058  1.00  0.00    -0.234 N 
ATOM     22 2H12 UNL     1      -2.198   0.951  -2.403  1.00  0.00     0.174 HD
ATOM     23 1H12 UNL     1      -2.984   2.429  -2.458  1.00  0.00     0.174 HD
ENDBRANCH  19  21
ENDBRANCH  13  14
ENDBRANCH  10  13
ENDBRANCH   1   9
BRANCH   3  24
HETATM   24  N3  UNL     1       4.126  -0.218   0.214  1.00  0.00    -0.263 N 
ATOM     25  H3  UNL     1       4.879  -0.106   0.893  1.00  0.00     0.190 HD
BRANCH  24  26
HETATM   26  N4  UNL     1       4.543  -0.143  -1.076  1.00  0.00    -0.148 N 
HETATM   27  N5  UNL     1       4.206  -0.826  -2.258  1.00  0.00     0.017 NA
HETATM   28  N6  UNL     1       5.431  -0.861  -2.942  1.00  0.00    -0.004 NA
HETATM   29  N7  UNL     1       6.062   0.318  -2.615  1.00  0.00    -0.257 N 
HETATM   30  C9  UNL     1       5.563   0.788  -1.501  1.00  0.00     0.240 C 
ATOM     31  H7  UNL     1       6.805   0.758  -3.158  1.00  0.00     0.186 HD
HETATM   32  N8  UNL     1       5.991   1.979  -0.894  1.00  0.00    -0.059 NA
ENDBRANCH  24  26
ENDBRANCH   3  24
BRANCH   6  33
HETATM   33  N10 UNL     1       1.574  -0.668   3.973  1.00  0.00    -0.098 N 
ATOM     34  H10 UNL     1       0.666  -0.819   4.412  1.00  0.00     0.213 HD
BRANCH  33  35
HETATM   35  O2  UNL     1       2.707  -0.496   4.736  1.00  0.00    -0.276 OA
ATOM     36  H2  UNL     1       2.622  -0.522   5.682  1.00  0.00     0.245 HD
ENDBRANCH  33  35
ENDBRANCH   6  33
TORSDOF 8
