REMARK  9 active torsions:
REMARK  status: ('A' for Active; 'I' for Inactive)
REMARK       I    between atoms: C2_2  and  N1_4 
REMARK    1  A    between atoms: N1_4  and  C3_6 
REMARK    2  A    between atoms: C4_7  and  O2_8 
REMARK    3  A    between atoms: C6_11  and  C7_12 
REMARK    4  A    between atoms: C7_12  and  N3_14 
REMARK    5  A    between atoms: N3_14  and  C8_16 
REMARK    6  A    between atoms: C8_16  and  C9_17 
REMARK    7  A    between atoms: C8_16  and  C10_20 
REMARK    8  A    between atoms: C10_20  and  O4_22 
REMARK    9  A    between atoms: C12_24  and  C13_25 
ROOT
HETATM    1  C3  UNL     1       2.524   0.651   0.361  1.00  0.00     0.122 C 
HETATM    2  C4  UNL     1       1.689   0.417   1.576  1.00  0.00     0.142 C 
HETATM    3  C5  UNL     1       0.255   0.200   1.114  1.00  0.00     0.046 C 
HETATM    4  C6  UNL     1       0.184   0.635  -0.301  1.00  0.00     0.064 C 
HETATM    5  C12 UNL     1       1.610   0.584  -0.844  1.00  0.00     0.060 C 
ENDROOT
BRANCH   4   6
HETATM    6  C7  UNL     1      -0.749  -0.188  -1.184  1.00  0.00     0.094 C 
HETATM    7  N2  UNL     1      -0.296  -1.516  -1.166  1.00  0.00    -0.087 NA
BRANCH   6   8
HETATM    8  N3  UNL     1      -2.103   0.135  -1.105  1.00  0.00    -0.366 N 
ATOM      9  H3  UNL     1      -2.564   0.487  -1.944  1.00  0.00     0.161 HD
BRANCH   8  10
HETATM   10  C8  UNL     1      -2.863   0.004   0.059  1.00  0.00     0.200 C 
BRANCH  10  11
HETATM   11  C9  UNL     1      -3.014  -1.412   0.459  1.00  0.00     0.256 C 
HETATM   12  N4  UNL     1      -3.203  -1.858   1.783  1.00  0.00    -0.060 NA
HETATM   13  O3  UNL     1      -2.971  -2.302  -0.435  1.00  0.00    -0.274 OA
ENDBRANCH  10  11
BRANCH  10  14
HETATM   14  C10 UNL     1      -4.307   0.491  -0.217  1.00  0.00     0.145 C 
HETATM   15  C11 UNL     1      -5.181   0.350   0.995  1.00  0.00     0.042 C 
BRANCH  14  16
HETATM   16  O4  UNL     1      -4.295   1.821  -0.616  1.00  0.00    -0.393 OA
ATOM     17  H4  UNL     1      -5.181   2.120  -0.785  1.00  0.00     0.210 HD
ENDBRANCH  14  16
ENDBRANCH  10  14
ENDBRANCH   8  10
ENDBRANCH   6   8
ENDBRANCH   4   6
BRANCH   5  18
HETATM   18  C13 UNL     1       1.906   1.667  -1.795  1.00  0.00     0.060 C 
HETATM   19  N5  UNL     1       1.610   1.545  -3.023  1.00  0.00    -0.411 N 
ATOM     20  H52 UNL     1       1.164   0.683  -3.337  1.00  0.00     0.155 HD
ATOM     21  H51 UNL     1       1.815   2.296  -3.682  1.00  0.00     0.155 HD
ENDBRANCH   5  18
BRANCH   2  22
HETATM   22  O2  UNL     1       2.077  -0.697   2.306  1.00  0.00    -0.393 OA
ATOM     23  H2  UNL     1       1.546  -0.846   3.079  1.00  0.00     0.210 HD
ENDBRANCH   2  22
BRANCH   1  24
HETATM   24  N1  UNL     1       3.552  -0.350   0.157  1.00  0.00    -0.354 N 
HETATM   25  C2  UNL     1       4.909   0.009  -0.045  1.00  0.00     0.214 C 
HETATM   26  C1  UNL     1       5.913  -1.053  -0.248  1.00  0.00     0.117 C 
HETATM   27  O1  UNL     1       5.234   1.234  -0.048  1.00  0.00    -0.274 OA
ATOM     28  H1  UNL     1       3.293  -1.337   0.159  1.00  0.00     0.163 HD
ENDBRANCH   1  24
TORSDOF 9
