REMARK  7 active torsions:
REMARK  status: ('A' for Active; 'I' for Inactive)
REMARK       I    between atoms: C1_4  and  N3_6 
REMARK    1  A    between atoms: N3_6  and  C2_8 
REMARK    2  A    between atoms: C4_10  and  C5_11 
REMARK    3  A    between atoms: C6_15  and  C7_16 
REMARK    4  A    between atoms: C7_16  and  N4_17 
REMARK    5  A    between atoms: N4_17  and  C8_20 
REMARK    6  A    between atoms: C8_20  and  C9_21 
REMARK       I    between atoms: C9_21  and  N5_23 
REMARK    7  A    between atoms: N5_23  and  C10_25 
ROOT
HETATM    1  C2  UNL     1      -3.247   0.334  -0.019  1.00  0.00     0.117 C 
HETATM    2  C3  UNL     1      -4.135  -0.780  -0.591  1.00  0.00     0.071 C 
HETATM    3  C4  UNL     1      -3.180  -1.951  -0.527  1.00  0.00     0.224 C 
HETATM    4  O3  UNL     1      -1.917  -1.464  -0.349  1.00  0.00    -0.366 OA
HETATM    5  C6  UNL     1      -1.910  -0.108  -0.528  1.00  0.00     0.171 C 
ENDROOT
BRANCH   5   6
HETATM    6  C7  UNL     1      -0.752   0.499   0.235  1.00  0.00     0.266 C 
BRANCH   6   7
HETATM    7  N4  UNL     1       0.465  -0.087  -0.289  1.00  0.00    -0.064 N 
ATOM      8  H42 UNL     1       0.434  -1.106  -0.251  1.00  0.00     0.277 HD
ATOM      9  H41 UNL     1       0.530   0.032  -1.300  1.00  0.00     0.277 HD
BRANCH   7  10
HETATM   10  C8  UNL     1       1.642   0.433   0.383  1.00  0.00     0.334 C 
BRANCH  10  11
HETATM   11  C9  UNL     1       2.883  -0.173  -0.161  1.00  0.00     0.243 C 
HETATM   12  O4  UNL     1       2.794  -1.016  -1.083  1.00  0.00    -0.272 OA
HETATM   13  N5  UNL     1       4.155   0.174   0.331  1.00  0.00    -0.355 N 
ATOM     14  H5  UNL     1       4.207   0.863   1.082  1.00  0.00     0.162 HD
BRANCH  13  15
HETATM   15  C10 UNL     1       5.385  -0.383  -0.160  1.00  0.00     0.084 C 
HETATM   16  C11 UNL     1       6.443   0.641  -0.453  1.00  0.00     0.025 C 
HETATM   17  C12 UNL     1       7.009   0.403   0.931  1.00  0.00     0.004 C 
HETATM   18  C13 UNL     1       6.300  -0.935   0.932  1.00  0.00     0.025 C 
ENDBRANCH  13  15
ENDBRANCH  10  11
ENDBRANCH   7  10
ENDBRANCH   6   7
ENDBRANCH   5   6
BRANCH   1  19
HETATM   19  N3  UNL     1      -3.652   1.624  -0.505  1.00  0.00    -0.358 N 
HETATM   20  C1  UNL     1      -4.975   2.057  -0.220  1.00  0.00     0.182 C 
HETATM   21  N1  UNL     1      -5.405   2.082   0.990  1.00  0.00    -0.374 N 
HETATM   22  N2  UNL     1      -5.872   2.477  -1.242  1.00  0.00    -0.064 NA
ATOM     23  H12 UNL     1      -6.355   2.393   1.195  1.00  0.00     0.158 HD
ATOM     24  H11 UNL     1      -4.762   1.781   1.722  1.00  0.00     0.158 HD
ATOM     25  H3  UNL     1      -3.010   2.211  -1.038  1.00  0.00     0.162 HD
ENDBRANCH   1  19
BRANCH   3  26
HETATM   26  C5  UNL     1      -3.608  -2.797   0.618  1.00  0.00     0.203 C 
HETATM   27  O1  UNL     1      -2.838  -2.990   1.592  1.00  0.00    -0.646 OA
HETATM   28  O2  UNL     1      -4.859  -3.395   0.649  1.00  0.00    -0.646 OA
ENDBRANCH   3  26
TORSDOF 7
