REMARK  9 active torsions:
REMARK  status: ('A' for Active; 'I' for Inactive)
REMARK    1  A    between atoms: C2_2  and  N1_3 
REMARK    2  A    between atoms: N1_3  and  C3_5 
REMARK    3  A    between atoms: C3_5  and  N2_7 
REMARK    4  A    between atoms: N2_7  and  C4_9 
REMARK    5  A    between atoms: C4_9  and  C5_10 
REMARK    6  A    between atoms: C8_13  and  O1_14 
REMARK    7  A    between atoms: O1_14  and  C9_15 
REMARK    8  A    between atoms: C9_15  and  C10_16 
REMARK       I    between atoms: C10_16  and  N3_18 
REMARK    9  A    between atoms: N3_18  and  N4_20 
REMARK       I    between atoms: N4_20  and  C11_22 
ROOT
HETATM    1  C5  UNL     1      -0.801  -1.209  -1.808  1.00  0.00     0.142 C 
HETATM    2  C6  UNL     1      -0.687  -2.693  -1.592  1.00  0.00     0.038 C 
HETATM    3  C7  UNL     1       0.227  -2.806  -0.387  1.00  0.00     0.063 C 
HETATM    4  C8  UNL     1       0.363  -1.410   0.076  1.00  0.00     0.260 C 
HETATM    5  O3  UNL     1       0.225  -0.611  -1.069  1.00  0.00    -0.354 OA
ENDROOT
BRANCH   4   6
HETATM    6  O1  UNL     1       1.615  -1.191   0.659  1.00  0.00    -0.352 OA
BRANCH   6   7
HETATM    7  C9  UNL     1       1.366  -0.614   1.881  1.00  0.00     0.275 C 
BRANCH   7   8
HETATM    8  C10 UNL     1       2.548  -0.205   2.673  1.00  0.00     0.259 C 
HETATM    9  O2  UNL     1       3.707  -0.339   2.252  1.00  0.00    -0.269 OA
HETATM   10  N3  UNL     1       2.270   0.356   3.945  1.00  0.00    -0.266 N 
ATOM     11  H3  UNL     1       1.288   0.408   4.214  1.00  0.00     0.190 HD
BRANCH  10  12
HETATM   12  N4  UNL     1       3.162   0.828   4.836  1.00  0.00    -0.271 N 
HETATM   13  C11 UNL     1       4.552   0.701   4.981  1.00  0.00     0.200 C 
HETATM   14  N5  UNL     1       5.131  -0.425   4.991  1.00  0.00    -0.372 N 
HETATM   15  N6  UNL     1       5.328   1.913   5.127  1.00  0.00    -0.062 NA
ATOM     16  H52 UNL     1       4.584  -1.280   4.888  1.00  0.00     0.158 HD
ATOM     17  H51 UNL     1       6.141  -0.517   5.096  1.00  0.00     0.158 HD
ATOM     18  H4  UNL     1       2.735   1.402   5.563  1.00  0.00     0.189 HD
ENDBRANCH  10  12
ENDBRANCH   7   8
ENDBRANCH   6   7
ENDBRANCH   4   6
BRANCH   1  19
HETATM   19  C4  UNL     1      -2.157  -0.777  -1.285  1.00  0.00     0.154 C 
BRANCH  19  20
HETATM   20  N2  UNL     1      -2.390   0.638  -1.339  1.00  0.00    -0.365 N 
ATOM     21  H2  UNL     1      -2.408   1.123  -0.442  1.00  0.00     0.161 HD
BRANCH  20  22
HETATM   22  C3  UNL     1      -2.596   1.435  -2.472  1.00  0.00     0.167 C 
HETATM   23  S1  UNL     1      -2.820   3.047  -2.255  1.00  0.00    -0.041 SA
BRANCH  22  24
HETATM   24  N1  UNL     1      -2.622   0.942  -3.770  1.00  0.00    -0.368 N 
ATOM     25  H1  UNL     1      -2.490  -0.062  -3.894  1.00  0.00     0.161 HD
BRANCH  24  26
HETATM   26  C2  UNL     1      -2.822   1.739  -4.961  1.00  0.00     0.117 C 
HETATM   27  C1  UNL     1      -4.213   2.312  -5.052  1.00  0.00     0.026 C 
ENDBRANCH  24  26
ENDBRANCH  22  24
ENDBRANCH  20  22
ENDBRANCH  19  20
ENDBRANCH   1  19
TORSDOF 9
