REMARK  9 active torsions:
REMARK  status: ('A' for Active; 'I' for Inactive)
REMARK       I    between atoms: C1_4  and  N3_6 
REMARK    1  A    between atoms: N3_6  and  N4_8 
REMARK    2  A    between atoms: N4_8  and  C2_9 
REMARK    3  A    between atoms: C2_9  and  C3_10 
REMARK    4  A    between atoms: C2_9  and  C6_18 
REMARK    5  A    between atoms: C3_10  and  N5_11 
REMARK    6  A    between atoms: N5_11  and  C4_13 
REMARK    7  A    between atoms: C4_13  and  O1_14 
REMARK    8  A    between atoms: C4_13  and  C5_16 
REMARK       I    between atoms: C6_18  and  N6_20 
REMARK    9  A    between atoms: N6_20  and  C7_22 
ROOT
HETATM    1  C2  UNL     1      -2.181   0.056   0.656  1.00  0.00     0.208 C 
ENDROOT
BRANCH   1   2
HETATM    2  N4  UNL     1      -2.759   1.389   0.951  1.00  0.00    -0.123 NA
BRANCH   2   3
HETATM    3  N3  UNL     1      -2.369   2.341   0.046  1.00  0.00    -0.277 N 
HETATM    4  C1  UNL     1      -2.281   3.701   0.510  1.00  0.00     0.197 C 
HETATM    5  N1  UNL     1      -1.234   4.152   1.090  1.00  0.00    -0.373 N 
HETATM    6  N2  UNL     1      -3.382   4.586   0.322  1.00  0.00    -0.063 NA
ATOM      7  H12 UNL     1      -1.172   5.116   1.419  1.00  0.00     0.158 HD
ATOM      8  H11 UNL     1      -0.446   3.519   1.225  1.00  0.00     0.158 HD
ATOM      9  H3  UNL     1      -2.149   2.096  -0.919  1.00  0.00     0.185 HD
ENDBRANCH   2   3
ENDBRANCH   1   2
BRANCH   1  10
HETATM   10  C3  UNL     1      -2.670  -0.429  -0.647  1.00  0.00     0.149 C 
BRANCH  10  11
HETATM   11  N5  UNL     1      -2.251  -1.717  -1.066  1.00  0.00    -0.389 N 
ATOM     12  H5  UNL     1      -1.629  -1.828  -1.867  1.00  0.00     0.156 HD
BRANCH  11  13
HETATM   13  C4  UNL     1      -2.716  -2.848  -0.347  1.00  0.00     0.276 C 
BRANCH  13  14
HETATM   14  O1  UNL     1      -2.145  -3.983  -0.984  1.00  0.00    -0.371 OA
ATOM     15  H1  UNL     1      -2.456  -4.740  -0.502  1.00  0.00     0.212 HD
ENDBRANCH  13  14
BRANCH  13  16
HETATM   16  C5  UNL     1      -4.183  -3.004  -0.433  1.00  0.00     0.283 C 
HETATM   17  O2  UNL     1      -4.960  -2.223   0.118  1.00  0.00    -0.302 OA
ENDBRANCH  13  16
ENDBRANCH  11  13
ENDBRANCH  10  11
ENDBRANCH   1  10
BRANCH   1  18
HETATM   18  C6  UNL     1      -0.742   0.139   0.878  1.00  0.00     0.240 C 
HETATM   19  O3  UNL     1      -0.303   0.840   1.877  1.00  0.00    -0.272 OA
HETATM   20  N6  UNL     1       0.224  -0.483   0.083  1.00  0.00    -0.355 N 
ATOM     21  H6  UNL     1      -0.055  -1.046  -0.721  1.00  0.00     0.162 HD
BRANCH  20  22
HETATM   22  C7  UNL     1       1.662  -0.317   0.420  1.00  0.00     0.084 C 
HETATM   23  C8  UNL     1       2.229   0.586  -0.655  1.00  0.00     0.025 C 
HETATM   24  C9  UNL     1       3.495   1.187  -0.078  1.00  0.00     0.002 C 
HETATM   25  C10 UNL     1       4.723   0.425  -0.465  1.00  0.00     0.000 C 
HETATM   26  C11 UNL     1       4.467  -1.062  -0.586  1.00  0.00     0.000 C 
HETATM   27  C12 UNL     1       3.764  -1.640   0.607  1.00  0.00     0.002 C 
HETATM   28  C13 UNL     1       2.263  -1.672   0.473  1.00  0.00     0.025 C 
ENDBRANCH  20  22
ENDBRANCH   1  18
TORSDOF 9
