REMARK  3 active torsions:
REMARK  status: ('A' for Active; 'I' for Inactive)
REMARK    1  A    between atoms: C1_1  and  C12_16 
REMARK    2  A    between atoms: C2_2  and  C3_3 
REMARK    3  A    between atoms: C7_9  and  N2_10 
ROOT
HETATM    1  C3  UNL     1      -1.431  -0.708  -1.900  1.00  0.00     0.062 A 
HETATM    2  C4  UNL     1      -1.549  -1.363  -3.132  1.00  0.00     0.026 A 
HETATM    3  C5  UNL     1      -2.778  -1.392  -3.737  1.00  0.00     0.019 A 
HETATM    4  C6  UNL     1      -3.885  -0.804  -3.175  1.00  0.00     0.090 A 
HETATM    5  N1  UNL     1      -3.725  -0.190  -1.999  1.00  0.00    -0.351 N 
ATOM      6  H1  UNL     1      -4.540   0.251  -1.573  1.00  0.00     0.166 HD
HETATM    7  C7  UNL     1      -2.538  -0.118  -1.335  1.00  0.00     0.122 A 
ENDROOT
BRANCH   1   8
HETATM    8  C2  UNL     1      -0.141  -0.675  -1.261  1.00  0.00    -0.058 C 
HETATM    9  C1  UNL     1       0.963  -0.654  -0.738  1.00  0.00    -0.061 C 
BRANCH   9  10
HETATM   10  C12 UNL     1       2.253  -0.630  -0.102  1.00  0.00     0.021 A 
HETATM   11  C13 UNL     1       2.864  -1.814   0.319  1.00  0.00     0.023 A 
HETATM   12  C14 UNL     1       4.098  -1.808   0.929  1.00  0.00     0.041 A 
HETATM   13  C15 UNL     1       4.766  -0.626   1.142  1.00  0.00     0.105 A 
HETATM   14  C16 UNL     1       4.191   0.571   0.738  1.00  0.00     0.106 A 
HETATM   15  O3  UNL     1       6.011  -0.371   1.733  1.00  0.00    -0.323 OA
HETATM   16  C17 UNL     1       2.949   0.538   0.127  1.00  0.00     0.060 A 
HETATM   17  O2  UNL     1       5.063   1.571   1.071  1.00  0.00    -0.323 OA
HETATM   18  C18 UNL     1       6.243   1.003   1.609  1.00  0.00     0.352 A 
ENDBRANCH   9  10
ENDBRANCH   1   8
BRANCH   7  19
HETATM   19  N2  UNL     1      -2.406   0.536  -0.095  1.00  0.00    -0.362 N 
HETATM   20  C8  UNL     1      -1.970  -0.210   1.053  1.00  0.00     0.150 C 
HETATM   21  C9  UNL     1      -3.051  -0.093   2.133  1.00  0.00     0.187 C 
HETATM   22  O1  UNL     1      -3.885   0.979   1.930  1.00  0.00    -0.388 OA
HETATM   23  C10 UNL     1      -3.249   2.127   1.472  1.00  0.00     0.187 C 
HETATM   24  C11 UNL     1      -2.695   1.934   0.069  1.00  0.00     0.150 C 
ENDBRANCH   7  19
TORSDOF 3
