REMARK  1 active torsions:
REMARK  status: ('A' for Active; 'I' for Inactive)
REMARK    1  A    between atoms: C7_9  and  N2_10 
ROOT
HETATM    1  C1  UNL     1      -1.748   4.241  -1.944  1.00  0.00     0.070 C 
HETATM    2  C2  UNL     1      -1.439   2.881  -1.386  1.00  0.00     0.025 A 
HETATM    3  C3  UNL     1      -2.319   1.818  -1.320  1.00  0.00     0.059 A 
HETATM    4  C4  UNL     1      -1.655   0.759  -0.750  1.00  0.00     0.085 A 
HETATM    5  C5  UNL     1      -2.037  -0.563  -0.441  1.00  0.00    -0.005 A 
HETATM    6  C6  UNL     1      -1.115  -1.379   0.125  1.00  0.00     0.035 A 
HETATM    7  N1  UNL     1       0.138  -0.902   0.377  1.00  0.00    -0.193 N 
ATOM      8  H1  UNL     1       0.818  -1.531   0.804  1.00  0.00     0.184 HD
HETATM    9  C7  UNL     1       0.521   0.349   0.092  1.00  0.00     0.702 A 
HETATM   10  N4  UNL     1      -0.395   1.169  -0.474  1.00  0.00    -0.086 N 
HETATM   11  N5  UNL     1      -0.288   2.442  -0.862  1.00  0.00    -0.284 N 
ATOM     12  H5  UNL     1       0.558   3.005  -0.771  1.00  0.00     0.188 HD
HETATM   13  C13 UNL     1      -1.213  -2.775   0.546  1.00  0.00     0.058 C 
HETATM   14  C14 UNL     1      -2.573  -3.308   0.766  1.00  0.00     0.006 C 
HETATM   15  C15 UNL     1      -3.569  -2.220   1.118  1.00  0.00     0.001 C 
HETATM   16  C16 UNL     1      -4.204  -1.815  -0.176  1.00  0.00     0.005 C 
HETATM   17  C17 UNL     1      -3.420  -0.735  -0.831  1.00  0.00     0.043 C 
ENDROOT
BRANCH   9  18
HETATM   18  N2  UNL     1       1.817   0.850   0.340  1.00  0.00    -0.213 N 
HETATM   19  C8  UNL     1       2.349   0.932   1.682  1.00  0.00     0.160 C 
HETATM   20  C9  UNL     1       3.859   0.945   1.630  1.00  0.00     0.136 C 
HETATM   21  N3  UNL     1       4.449   0.233   0.561  1.00  0.00    -0.414 N 
HETATM   22  C10 UNL     1       4.984  -1.056   0.855  1.00  0.00     0.143 C 
HETATM   23  C11 UNL     1       3.875   0.370  -0.729  1.00  0.00     0.136 C 
HETATM   24  C12 UNL     1       2.699   1.326  -0.720  1.00  0.00     0.160 C 
ENDBRANCH   9  18
TORSDOF 1
