REMARK  6 active torsions:
REMARK  status: ('A' for Active; 'I' for Inactive)
REMARK    1  A    between atoms: C2_5  and  O2_6 
REMARK    2  A    between atoms: C3_8  and  C4_9 
REMARK    3  A    between atoms: C5_12  and  C6_13 
REMARK    4  A    between atoms: C6_13  and  C7_14 
REMARK    5  A    between atoms: C7_14  and  N3_15 
REMARK    6  A    between atoms: C11_19  and  O3_20 
ROOT
HETATM    1  C4  UNL     1      -3.203   0.000  -0.170  1.00  0.00     0.097 A 
HETATM    2  N2  UNL     1      -1.953   0.533  -0.230  1.00  0.00    -0.342 N 
ATOM      3  H2  UNL     1      -1.876   1.550  -0.202  1.00  0.00     0.167 HD
HETATM    4  C5  UNL     1      -0.833  -0.157  -0.321  1.00  0.00     0.085 A 
HETATM    5  N4  UNL     1      -0.900  -1.499  -0.359  1.00  0.00    -0.329 N 
ATOM      6  H4  UNL     1      -0.037  -2.039  -0.429  1.00  0.00     0.168 HD
HETATM    7  C13 UNL     1      -2.074  -2.145  -0.307  1.00  0.00     0.153 A 
HETATM    8  N5  UNL     1      -2.437  -3.442  -0.325  1.00  0.00    -0.269 N 
ATOM      9  H5  UNL     1      -1.803  -4.238  -0.388  1.00  0.00     0.190 HD
HETATM   10  N6  UNL     1      -3.755  -3.507  -0.247  1.00  0.00    -0.240 N 
ATOM     11  H6  UNL     1      -4.314  -4.360  -0.240  1.00  0.00     0.208 HD
HETATM   12  N7  UNL     1      -4.218  -2.280  -0.180  1.00  0.00    -0.280 N 
ATOM     13  H7  UNL     1      -5.209  -2.049  -0.112  1.00  0.00     0.188 HD
HETATM   14  C14 UNL     1      -3.244  -1.372  -0.211  1.00  0.00     0.124 A 
ENDROOT
BRANCH   1  15
HETATM   15  C3  UNL     1      -4.362   0.864  -0.071  1.00  0.00     0.117 A 
HETATM   16  C2  UNL     1      -5.696   0.602   0.002  1.00  0.00     0.174 A 
HETATM   17  N1  UNL     1      -6.315   1.821   0.079  1.00  0.00    -0.287 N 
HETATM   18  C1  UNL     1      -5.420   2.813   0.055  1.00  0.00     0.326 A 
ATOM     19  H1  UNL     1      -7.324   1.954   0.146  1.00  0.00     0.172 HD
HETATM   20  O1  UNL     1      -5.640   4.068   0.109  1.00  0.00    -0.247 OA
HETATM   21  N8  UNL     1      -4.227   2.215  -0.037  1.00  0.00    -0.303 N 
ATOM     22  H8  UNL     1      -3.335   2.708  -0.076  1.00  0.00     0.171 HD
BRANCH  16  23
HETATM   23  O2  UNL     1      -6.343  -0.624   0.003  1.00  0.00    -0.344 OA
ATOM     24  H2  UNL     1      -5.914  -1.470  -0.050  1.00  0.00     0.219 HD
ENDBRANCH  16  23
ENDBRANCH   1  15
BRANCH   4  25
HETATM   25  C6  UNL     1       0.511   0.525  -0.381  1.00  0.00     0.106 C 
BRANCH  25  26
HETATM   26  C7  UNL     1       1.547  -0.542  -0.479  1.00  0.00     0.280 C 
BRANCH  26  27
HETATM   27  N3  UNL     1       2.893  -0.026  -0.548  1.00  0.00     0.091 N 
HETATM   28  C8  UNL     1       3.772  -1.169  -0.647  1.00  0.00     0.272 C 
HETATM   29  C9  UNL     1       5.178  -0.939  -0.258  1.00  0.00     0.033 C 
HETATM   30  C10 UNL     1       5.623   0.477  -0.209  1.00  0.00     0.035 C 
HETATM   31  C11 UNL     1       4.574   1.435   0.290  1.00  0.00     0.146 C 
HETATM   32  C12 UNL     1       3.266   0.741   0.597  1.00  0.00     0.303 C 
BRANCH  31  33
HETATM   33  O3  UNL     1       4.966   2.139   1.420  1.00  0.00    -0.394 OA
ATOM     34  H3  UNL     1       4.304   2.743   1.735  1.00  0.00     0.210 HD
ENDBRANCH  31  33
ENDBRANCH  26  27
ENDBRANCH  25  26
ENDBRANCH   4  25
TORSDOF 6
