REMARK  6 active torsions:
REMARK  status: ('A' for Active; 'I' for Inactive)
REMARK    1  A    between atoms: N1_2  and  C2_4 
REMARK    2  A    between atoms: C3_7  and  N3_8 
REMARK    3  A    between atoms: N3_8  and  C4_10 
REMARK    4  A    between atoms: C8_20  and  C9_21 
REMARK    5  A    between atoms: C10_26  and  C11_27 
REMARK    6  A    between atoms: C11_27  and  C12_28 
ROOT
HETATM    1  C2  UNL     1      -0.601   1.227   0.391  1.00  0.00     0.133 A 
HETATM    2  N2  UNL     1      -1.880   1.648   0.220  1.00  0.00    -0.176 N 
ATOM      3  H2  UNL     1      -2.139   2.624   0.366  1.00  0.00     0.186 HD
HETATM    4  C3  UNL     1      -2.792   0.733  -0.148  1.00  0.00     0.681 A 
HETATM    5  N5  UNL     1      -2.464  -0.542  -0.341  1.00  0.00    -0.178 N 
ATOM      6  H5  UNL     1      -3.191  -1.201  -0.621  1.00  0.00     0.185 HD
HETATM    7  C7  UNL     1      -1.188  -0.999  -0.177  1.00  0.00     0.148 A 
HETATM    8  N6  UNL     1      -0.897  -2.366  -0.395  1.00  0.00    -0.081 NA
HETATM    9  C8  UNL     1      -0.255  -0.089   0.194  1.00  0.00     0.085 A 
ENDROOT
BRANCH   9  10
HETATM   10  C9  UNL     1       1.132  -0.536   0.382  1.00  0.00     0.108 A 
HETATM   11  N7  UNL     1       1.620  -1.762   0.232  1.00  0.00    -0.292 N 
HETATM   12  N8  UNL     1       2.844  -1.979   0.434  1.00  0.00    -0.297 N 
ATOM     13  H7  UNL     1       1.005  -2.526  -0.046  1.00  0.00     0.187 HD
HETATM   14  C10 UNL     1       3.649  -0.987   0.796  1.00  0.00     0.074 A 
ATOM     15  H8  UNL     1       3.219  -2.921   0.319  1.00  0.00     0.187 HD
HETATM   16  S1  UNL     1       2.538   0.324   0.839  1.00  0.00    -0.055 SA
BRANCH  14  17
HETATM   17  C11 UNL     1       5.120  -1.023   1.084  1.00  0.00     0.124 C 
BRANCH  17  18
HETATM   18  C12 UNL     1       5.889  -0.765  -0.141  1.00  0.00     0.031 A 
HETATM   19  C13 UNL     1       6.359  -1.662  -1.077  1.00  0.00     0.114 A 
HETATM   20  N9  UNL     1       7.005  -0.951  -2.019  1.00  0.00    -0.360 N 
HETATM   21  C14 UNL     1       6.960   0.349  -1.715  1.00  0.00     0.180 A 
ATOM     22  H9  UNL     1       7.461  -1.345  -2.842  1.00  0.00     0.166 HD
HETATM   23  N10 UNL     1       6.272   0.451  -0.559  1.00  0.00    -0.354 N 
ATOM     24  H10 UNL     1       6.072   1.325  -0.073  1.00  0.00     0.166 HD
ENDBRANCH  17  18
ENDBRANCH  14  17
ENDBRANCH   9  10
BRANCH   1  25
HETATM   25  N1  UNL     1       0.325   2.038   0.742  1.00  0.00    -0.379 N 
HETATM   26  C1  UNL     1       0.021   3.442   0.965  1.00  0.00     0.147 C 
ATOM     27  H1  UNL     1       1.279   1.698   0.866  1.00  0.00     0.160 HD
ENDBRANCH   1  25
BRANCH   4  28
HETATM   28  N3  UNL     1      -4.003   1.138  -0.310  1.00  0.00    -0.218 N 
ATOM     29  H3  UNL     1      -4.220   2.122  -0.155  1.00  0.00     0.178 HD
BRANCH  28  30
HETATM   30  C4  UNL     1      -5.057   0.245  -0.702  1.00  0.00     0.150 C 
HETATM   31  C5  UNL     1      -5.571  -0.569   0.452  1.00  0.00     0.259 C 
HETATM   32  N4  UNL     1      -6.790   0.215   0.440  1.00  0.00    -0.071 N 
HETATM   33  C6  UNL     1      -6.418   0.895  -0.763  1.00  0.00     0.259 C 
ATOM     34  H42 UNL     1      -7.687  -0.269   0.475  1.00  0.00     0.277 HD
ATOM     35  H41 UNL     1      -7.029   0.767   1.264  1.00  0.00     0.277 HD
ENDBRANCH  28  30
ENDBRANCH   4  28
TORSDOF 6
