REMARK  6 active torsions:
REMARK  status: ('A' for Active; 'I' for Inactive)
REMARK    1  A    between atoms: C3_3  and  N1_4 
REMARK    2  A    between atoms: N3_10  and  C7_12 
REMARK    3  A    between atoms: C7_12  and  C8_13 
REMARK    4  A    between atoms: C8_13  and  C9_14 
REMARK    5  A    between atoms: C14_24  and  N7_25 
REMARK    6  A    between atoms: C15_32  and  N10_33 
ROOT
HETATM    1  C1  UNL     1       4.496   1.970   3.345  1.00  0.00     0.014 C 
HETATM    2  C2  UNL     1       4.835   1.153   2.524  1.00  0.00    -0.097 C 
HETATM    3  C3  UNL     1       5.229   0.157   1.507  1.00  0.00     0.224 C 
ENDROOT
BRANCH   3   4
HETATM    4  N1  UNL     1       4.026  -0.429   0.952  1.00  0.00    -0.316 N 
HETATM    5  C4  UNL     1       3.364  -1.522   1.386  1.00  0.00     0.186 A 
HETATM    6  N2  UNL     1       2.309  -1.691   0.569  1.00  0.00    -0.346 N 
HETATM    7  C5  UNL     1       2.318  -0.719  -0.357  1.00  0.00     0.123 A 
ATOM      8  H2  UNL     1       1.616  -2.436   0.641  1.00  0.00     0.167 HD
HETATM    9  C6  UNL     1       1.494  -0.402  -1.426  1.00  0.00     0.147 A 
HETATM   10  C16 UNL     1       3.404   0.098  -0.131  1.00  0.00     0.155 A 
HETATM   11  N3  UNL     1       0.490  -1.190  -1.602  1.00  0.00    -0.373 N 
HETATM   12  N9  UNL     1       1.747   0.661  -2.212  1.00  0.00    -0.175 N 
ATOM     13  H3  UNL     1       0.380  -1.971  -0.955  1.00  0.00     0.161 HD
HETATM   14  C15 UNL     1       2.822   1.450  -1.971  1.00  0.00     0.679 A 
ATOM     15  H9  UNL     1       1.126   0.874  -2.993  1.00  0.00     0.186 HD
HETATM   16  N11 UNL     1       3.623   1.146  -0.935  1.00  0.00    -0.174 N 
ATOM     17  H11 UNL     1       4.433   1.739  -0.754  1.00  0.00     0.186 HD
BRANCH  11  18
HETATM   18  C7  UNL     1      -0.494  -1.043  -2.657  1.00  0.00     0.129 C 
BRANCH  18  19
HETATM   19  C8  UNL     1      -1.511  -0.042  -2.217  1.00  0.00     0.096 C 
BRANCH  19  20
HETATM   20  C9  UNL     1      -2.218  -0.522  -1.008  1.00  0.00     0.085 A 
HETATM   21  N4  UNL     1      -3.077   0.352  -0.372  1.00  0.00    -0.330 N 
HETATM   22  C10 UNL     1      -3.792   0.051   0.706  1.00  0.00     0.140 A 
ATOM     23  H4  UNL     1      -3.169   1.292  -0.756  1.00  0.00     0.168 HD
HETATM   24  C11 UNL     1      -3.649  -1.225   1.206  1.00  0.00     0.122 A 
HETATM   25  N6  UNL     1      -4.679   0.696   1.501  1.00  0.00    -0.332 N 
HETATM   26  N5  UNL     1      -4.455  -1.317   2.291  1.00  0.00    -0.346 N 
HETATM   27  C14 UNL     1      -2.800  -2.103   0.587  1.00  0.00     0.131 A 
HETATM   28  C12 UNL     1      -5.086  -0.139   2.472  1.00  0.00     0.184 A 
ATOM     29  H5  UNL     1      -4.567  -2.144   2.877  1.00  0.00     0.167 HD
HETATM   30  N8  UNL     1      -2.088  -1.738  -0.525  1.00  0.00    -0.330 N 
ATOM     31  H8  UNL     1      -1.461  -2.405  -0.975  1.00  0.00     0.168 HD
HETATM   32  C13 UNL     1      -5.075   2.074   1.271  1.00  0.00     0.158 C 
BRANCH  27  33
HETATM   33  N7  UNL     1      -2.681  -3.302   1.076  1.00  0.00    -0.383 N 
ATOM     34  H72 UNL     1      -3.211  -3.574   1.904  1.00  0.00     0.157 HD
ATOM     35  H71 UNL     1      -2.049  -3.956   0.615  1.00  0.00     0.157 HD
ENDBRANCH  27  33
ENDBRANCH  19  20
ENDBRANCH  18  19
ENDBRANCH  11  18
BRANCH  14  36
HETATM   36  N10 UNL     1       3.053   2.471  -2.737  1.00  0.00    -0.234 N 
ATOM     37 2H10 UNL     1       2.445   2.702  -3.523  1.00  0.00     0.174 HD
ATOM     38 1H10 UNL     1       3.862   3.065  -2.556  1.00  0.00     0.174 HD
ENDBRANCH  14  36
ENDBRANCH   3   4
TORSDOF 6
