REMARK  7 active torsions:
REMARK  status: ('A' for Active; 'I' for Inactive)
REMARK    1  A    between atoms: N5_15  and  C6_16 
REMARK    2  A    between atoms: C6_16  and  C7_17 
REMARK    3  A    between atoms: C7_17  and  O1_18 
REMARK    4  A    between atoms: O1_18  and  C8_19 
REMARK    5  A    between atoms: C8_19  and  C9_20 
REMARK    6  A    between atoms: C13_30  and  N9_31 
REMARK    7  A    between atoms: N9_31  and  N10_33 
ROOT
HETATM    1  O1  UNL     1      -0.238  -0.753  -1.260  1.00  0.00    -0.385 OA
ENDROOT
BRANCH   1   2
HETATM    2  C7  UNL     1       0.997  -0.837  -0.694  1.00  0.00     0.188 C 
BRANCH   2   3
HETATM    3  C6  UNL     1       1.379   0.451  -0.029  1.00  0.00     0.157 C 
BRANCH   3   4
HETATM    4  N5  UNL     1       2.733   0.238   0.522  1.00  0.00    -0.325 N 
HETATM    5  C3  UNL     1       3.910   0.461  -0.074  1.00  0.00     0.140 A 
HETATM    6  N3  UNL     1       4.231   0.920  -1.284  1.00  0.00    -0.336 N 
HETATM    7  C4  UNL     1       4.947   0.129   0.792  1.00  0.00     0.122 A 
HETATM    8  C2  UNL     1       5.501   1.068  -1.682  1.00  0.00     0.183 A 
ATOM      9  H3  UNL     1       3.482   1.167  -1.930  1.00  0.00     0.168 HD
HETATM   10  N2  UNL     1       6.484   0.740  -0.827  1.00  0.00    -0.337 N 
HETATM   11  C1  UNL     1       6.267   0.269   0.416  1.00  0.00     0.131 A 
ATOM     12  H2  UNL     1       7.449   0.854  -1.137  1.00  0.00     0.168 HD
HETATM   13  N1  UNL     1       7.241  -0.034   1.207  1.00  0.00    -0.383 N 
ATOM     14  H12 UNL     1       8.217   0.070   0.929  1.00  0.00     0.157 HD
ATOM     15  H11 UNL     1       7.077  -0.391   2.148  1.00  0.00     0.157 HD
HETATM   16  N4  UNL     1       4.348  -0.295   1.914  1.00  0.00    -0.346 N 
HETATM   17  C5  UNL     1       3.018  -0.229   1.749  1.00  0.00     0.185 A 
ATOM     18  H4  UNL     1       4.826  -0.616   2.756  1.00  0.00     0.167 HD
ENDBRANCH   3   4
ENDBRANCH   2   3
ENDBRANCH   1   2
BRANCH   1  19
HETATM   19  C8  UNL     1      -1.301  -0.489  -0.420  1.00  0.00     0.208 C 
BRANCH  19  20
HETATM   20  C9  UNL     1      -2.546  -0.455  -1.164  1.00  0.00    -0.001 A 
HETATM   21  C10 UNL     1      -2.676  -0.653  -2.516  1.00  0.00     0.100 A 
HETATM   22  N6  UNL     1      -3.980  -0.549  -2.866  1.00  0.00    -0.351 N 
HETATM   23  C11 UNL     1      -4.701  -0.282  -1.738  1.00  0.00     0.120 A 
ATOM     24  H6  UNL     1      -4.358  -0.652  -3.808  1.00  0.00     0.166 HD
HETATM   25  N7  UNL     1      -6.000  -0.080  -1.469  1.00  0.00    -0.338 N 
HETATM   26  C14 UNL     1      -3.800  -0.225  -0.687  1.00  0.00     0.063 A 
HETATM   27  C12 UNL     1      -6.391   0.170  -0.198  1.00  0.00     0.183 A 
ATOM     28  H7  UNL     1      -6.690  -0.115  -2.220  1.00  0.00     0.168 HD
HETATM   29  N8  UNL     1      -5.520   0.225   0.823  1.00  0.00    -0.337 N 
HETATM   30  C13 UNL     1      -4.211   0.030   0.606  1.00  0.00     0.135 A 
ATOM     31  H8  UNL     1      -5.855   0.416   1.767  1.00  0.00     0.168 HD
BRANCH  30  32
HETATM   32  N9  UNL     1      -3.330   0.073   1.556  1.00  0.00    -0.291 N 
ATOM     33  H9  UNL     1      -2.338  -0.077   1.372  1.00  0.00     0.188 HD
BRANCH  32  34
HETATM   34  N10 UNL     1      -3.803   0.335   2.845  1.00  0.00    -0.344 N 
ATOM     35 2H10 UNL     1      -4.798   0.483   3.013  1.00  0.00     0.176 HD
ATOM     36 1H10 UNL     1      -3.110   0.369   3.592  1.00  0.00     0.176 HD
ENDBRANCH  32  34
ENDBRANCH  30  32
ENDBRANCH  19  20
ENDBRANCH   1  19
TORSDOF 7
