REMARK  8 active torsions:
REMARK  status: ('A' for Active; 'I' for Inactive)
REMARK    1  A    between atoms: C2_2  and  N1_4 
REMARK    2  A    between atoms: N1_4  and  C4_6 
REMARK    3  A    between atoms: C5_9  and  N3_10 
REMARK    4  A    between atoms: N5_20  and  C10_21 
REMARK    5  A    between atoms: N6_23  and  C12_24 
REMARK    6  A    between atoms: C12_24  and  C13_25 
REMARK    7  A    between atoms: C13_25  and  C14_26 
REMARK    8  A    between atoms: C14_26  and  N7_27 
ROOT
HETATM    1  C4  UNL     1      -2.339   0.576  -0.183  1.00  0.00     0.681 A 
HETATM    2  N2  UNL     1      -3.409  -0.131   0.200  1.00  0.00    -0.176 N 
ATOM      3  H2  UNL     1      -4.337   0.230  -0.021  1.00  0.00     0.186 HD
HETATM    4  C5  UNL     1      -3.311  -1.315   0.874  1.00  0.00     0.131 A 
HETATM    5  C6  UNL     1      -2.039  -1.776   1.157  1.00  0.00     0.079 A 
HETATM    6  C7  UNL     1      -1.825  -2.959   1.833  1.00  0.00     0.044 A 
HETATM    7  N4  UNL     1      -2.733  -3.680   2.227  1.00  0.00    -0.398 N 
ATOM      8  H41 UNL     1      -2.575  -4.555   2.727  1.00  0.00     0.156 HD
ATOM      9  H42 UNL     1      -3.705  -3.419   2.062  1.00  0.00     0.156 HD
HETATM   10  C8  UNL     1      -0.472  -3.323   2.063  1.00  0.00     0.048 A 
HETATM   11  C9  UNL     1       0.554  -2.534   1.632  1.00  0.00     0.103 A 
HETATM   12  N5  UNL     1       0.345  -1.385   0.975  1.00  0.00    -0.290 N 
HETATM   13  C15 UNL     1      -0.936  -1.035   0.755  1.00  0.00     0.145 A 
HETATM   14  N10 UNL     1      -1.085   0.140   0.085  1.00  0.00    -0.175 N 
ATOM     15  H10 UNL     1      -0.271   0.680  -0.209  1.00  0.00     0.186 HD
ENDROOT
BRANCH  12  16
HETATM   16  C10 UNL     1       1.437  -0.587   0.541  1.00  0.00     0.146 A 
HETATM   17  C11 UNL     1       2.242  -0.681  -0.573  1.00  0.00     0.162 A 
HETATM   18  N6  UNL     1       3.144   0.343  -0.507  1.00  0.00    -0.285 N 
HETATM   19  N8  UNL     1       2.901   1.018   0.582  1.00  0.00    -0.239 N 
HETATM   20  N9  UNL     1       1.885   0.480   1.224  1.00  0.00    -0.269 N 
ATOM     21  H8  UNL     1       3.420   1.840   0.890  1.00  0.00     0.208 HD
ATOM     22  H9  UNL     1       1.498   0.821   2.104  1.00  0.00     0.190 HD
BRANCH  18  23
HETATM   23  C12 UNL     1       4.156   0.559  -1.520  1.00  0.00     0.151 C 
BRANCH  23  24
HETATM   24  C13 UNL     1       5.423  -0.169  -1.223  1.00  0.00     0.049 C 
BRANCH  24  25
HETATM   25  C14 UNL     1       6.090   0.202   0.058  1.00  0.00     0.231 C 
BRANCH  25  26
HETATM   26  N7  UNL     1       6.439   1.596   0.067  1.00  0.00    -0.079 N 
ATOM     27  H73 UNL     1       7.008   1.848  -0.741  1.00  0.00     0.274 HD
ATOM     28  H72 UNL     1       5.631   2.189  -0.123  1.00  0.00     0.274 HD
ATOM     29  H71 UNL     1       6.895   1.850   0.943  1.00  0.00     0.274 HD
ENDBRANCH  25  26
ENDBRANCH  24  25
ENDBRANCH  23  24
ENDBRANCH  18  23
ENDBRANCH  12  16
BRANCH   4  30
HETATM   30  N3  UNL     1      -4.348  -1.955   1.220  1.00  0.00    -0.384 N 
ATOM     31  H32 UNL     1      -5.287  -1.615   1.011  1.00  0.00     0.157 HD
ATOM     32  H31 UNL     1      -4.275  -2.839   1.723  1.00  0.00     0.157 HD
ENDBRANCH   4  30
BRANCH   1  33
HETATM   33  N1  UNL     1      -2.439   1.678  -0.811  1.00  0.00    -0.222 N 
ATOM     34  H1  UNL     1      -1.551   2.121  -1.048  1.00  0.00     0.178 HD
BRANCH  33  35
HETATM   35  C2  UNL     1      -3.595   2.388  -1.233  1.00  0.00     0.091 C 
HETATM   36  C1  UNL     1      -4.448   1.674  -2.247  1.00  0.00     0.032 C 
HETATM   37  C3  UNL     1      -4.474   2.882  -0.100  1.00  0.00     0.032 C 
ENDBRANCH  33  35
ENDBRANCH   1  33
TORSDOF 8
