REMARK  9 active torsions:
REMARK  status: ('A' for Active; 'I' for Inactive)
REMARK    1  A    between atoms: C2_2  and  O1_3 
REMARK    2  A    between atoms: O1_3  and  C3_4 
REMARK    3  A    between atoms: C3_4  and  O2_5 
REMARK    4  A    between atoms: C3_4  and  C4_7 
REMARK    5  A    between atoms: C6_12  and  C7_13 
REMARK    6  A    between atoms: C7_13  and  C8_14 
REMARK    7  A    between atoms: C10_18  and  N4_19 
REMARK    8  A    between atoms: C11_24  and  N6_25 
REMARK    9  A    between atoms: C14_32  and  O3_33 
ROOT
HETATM    1  C4  UNL     1      -2.323  -0.034   0.104  1.00  0.00     0.050 A 
HETATM    2  C5  UNL     1      -1.616   0.247  -1.084  1.00  0.00     0.122 A 
HETATM    3  N1  UNL     1      -0.354  -0.149  -1.206  1.00  0.00    -0.303 N 
ATOM      4  H1  UNL     1       0.137   0.066  -2.074  1.00  0.00     0.186 HD
HETATM    5  N2  UNL     1       0.298  -0.803  -0.269  1.00  0.00    -0.240 N 
HETATM    6  C6  UNL     1       1.550  -1.289  -0.196  1.00  0.00     0.056 A 
HETATM    7  C12 UNL     1       1.678  -1.904   1.054  1.00  0.00     0.117 A 
HETATM    8  N7  UNL     1       0.503  -1.752   1.658  1.00  0.00    -0.347 N 
ATOM      9  H7  UNL     1       0.281  -2.096   2.592  1.00  0.00     0.167 HD
HETATM   10  C13 UNL     1      -0.341  -1.090   0.874  1.00  0.00     0.161 A 
HETATM   11  C14 UNL     1      -1.675  -0.714   1.096  1.00  0.00     0.126 A 
ENDROOT
BRANCH   6  12
HETATM   12  C7  UNL     1       2.638  -1.195  -1.204  1.00  0.00     0.104 C 
BRANCH  12  13
HETATM   13  C8  UNL     1       3.755  -0.377  -0.662  1.00  0.00     0.008 A 
HETATM   14  C9  UNL     1       4.855  -1.063  -0.105  1.00  0.00     0.117 A 
HETATM   15  N3  UNL     1       5.850  -0.332   0.416  1.00  0.00    -0.202 N 
HETATM   16  C10 UNL     1       5.812   1.003   0.412  1.00  0.00     0.677 A 
ATOM     17  H3  UNL     1       6.655  -0.806   0.825  1.00  0.00     0.183 HD
HETATM   18  N5  UNL     1       4.756   1.661  -0.123  1.00  0.00    -0.177 N 
HETATM   19  C11 UNL     1       3.724   0.987  -0.662  1.00  0.00     0.122 A 
ATOM     20  H5  UNL     1       4.743   2.681  -0.117  1.00  0.00     0.185 HD
BRANCH  16  21
HETATM   21  N4  UNL     1       6.792   1.667   0.930  1.00  0.00    -0.234 N 
ATOM     22  H42 UNL     1       7.587   1.171   1.333  1.00  0.00     0.174 HD
ATOM     23  H41 UNL     1       6.763   2.687   0.927  1.00  0.00     0.174 HD
ENDBRANCH  16  21
BRANCH  19  24
HETATM   24  N6  UNL     1       2.731   1.652  -1.187  1.00  0.00    -0.385 N 
ATOM     25  H62 UNL     1       1.949   1.141  -1.596  1.00  0.00     0.157 HD
ATOM     26  H61 UNL     1       2.708   2.672  -1.187  1.00  0.00     0.157 HD
ENDBRANCH  19  24
ENDBRANCH  12  13
ENDBRANCH   6  12
BRANCH  11  27
HETATM   27  O3  UNL     1      -2.228  -1.060   2.283  1.00  0.00    -0.351 OA
HETATM   28  C15 UNL     1      -2.827  -2.303   2.619  1.00  0.00     0.210 C 
ENDBRANCH  11  27
BRANCH   1  29
HETATM   29  C3  UNL     1      -3.692   0.453   0.253  1.00  0.00     0.295 C 
BRANCH  29  30
HETATM   30  O1  UNL     1      -4.472   0.210  -0.822  1.00  0.00    -0.357 OA
BRANCH  30  31
HETATM   31  C2  UNL     1      -5.250   1.177  -1.339  1.00  0.00     0.167 C 
HETATM   32  C1  UNL     1      -4.669   2.438  -1.837  1.00  0.00     0.033 C 
ENDBRANCH  30  31
ENDBRANCH  29  30
BRANCH  29  33
HETATM   33  O2  UNL     1      -4.335  -0.175   1.357  1.00  0.00    -0.367 OA
ATOM     34  H2  UNL     1      -3.786  -0.004   2.113  1.00  0.00     0.213 HD
ENDBRANCH  29  33
ENDBRANCH   1  29
TORSDOF 9
