REMARK  9 active torsions:
REMARK  status: ('A' for Active; 'I' for Inactive)
REMARK    1  A    between atoms: O1_2  and  C2_3 
REMARK    2  A    between atoms: C3_4  and  C4_5 
REMARK    3  A    between atoms: N1_6  and  N2_8 
REMARK    4  A    between atoms: N2_8  and  C5_10 
REMARK    5  A    between atoms: C6_13  and  N4_14 
REMARK    6  A    between atoms: C7_19  and  N6_20 
REMARK    7  A    between atoms: N6_20  and  N7_22 
REMARK    8  A    between atoms: C11_30  and  O2_31 
REMARK    9  A    between atoms: O2_31  and  C12_32 
ROOT
HETATM    1  C5  UNL     1       3.627   0.671  -0.089  1.00  0.00     0.726 A 
HETATM    2  N3  UNL     1       4.115   0.743  -1.343  1.00  0.00    -0.020 N 
ATOM      3  H3  UNL     1       3.509   1.087  -2.088  1.00  0.00     0.203 HD
HETATM    4  C6  UNL     1       5.373   0.377  -1.647  1.00  0.00     0.705 A 
HETATM    5  N5  UNL     1       6.203  -0.082  -0.693  1.00  0.00    -0.020 N 
ATOM      6  H5  UNL     1       7.159  -0.363  -0.909  1.00  0.00     0.203 HD
HETATM    7  C7  UNL     1       5.714  -0.153   0.559  1.00  0.00     0.725 A 
HETATM    8  N8  UNL     1       4.456   0.212   0.866  1.00  0.00    -0.018 N 
ATOM      9  H8  UNL     1       4.129   0.140   1.829  1.00  0.00     0.203 HD
ENDROOT
BRANCH   1  10
HETATM   10  N2  UNL     1       2.418   1.022   0.206  1.00  0.00    -0.131 N 
ATOM     11  H2  UNL     1       2.120   0.938   1.178  1.00  0.00     0.205 HD
BRANCH  10  12
HETATM   12  N1  UNL     1       1.534   1.487  -0.681  1.00  0.00    -0.297 N 
HETATM   13  C4  UNL     1       0.306   1.390  -0.780  1.00  0.00     0.122 C 
ATOM     14  H1  UNL     1       1.960   2.034  -1.430  1.00  0.00     0.186 HD
BRANCH  13  15
HETATM   15  C3  UNL     1      -0.581   0.681   0.128  1.00  0.00     0.017 A 
HETATM   16  C2  UNL     1      -1.953   0.690  -0.162  1.00  0.00     0.113 A 
HETATM   17  C11 UNL     1      -2.882   0.052   0.628  1.00  0.00     0.103 A 
HETATM   18  C10 UNL     1      -2.449  -0.625   1.750  1.00  0.00     0.040 A 
HETATM   19  C9  UNL     1      -1.108  -0.659   2.070  1.00  0.00     0.004 A 
HETATM   20  C8  UNL     1      -0.198   0.003   1.240  1.00  0.00     0.016 A 
BRANCH  16  21
HETATM   21  O1  UNL     1      -2.445   1.363  -1.289  1.00  0.00    -0.352 OA
HETATM   22  C1  UNL     1      -2.540   0.626  -2.513  1.00  0.00     0.210 C 
ENDBRANCH  16  21
BRANCH  17  23
HETATM   23  O2  UNL     1      -4.228   0.113   0.265  1.00  0.00    -0.344 OA
BRANCH  23  24
HETATM   24  C12 UNL     1      -5.315  -0.441   0.894  1.00  0.00     0.121 C 
HETATM   25  C13 UNL     1      -6.022  -1.448  -0.009  1.00  0.00     0.040 C 
HETATM   26  C14 UNL     1      -6.285   0.700   1.242  1.00  0.00     0.040 C 
ENDBRANCH  23  24
ENDBRANCH  17  23
ENDBRANCH  13  15
ENDBRANCH  10  12
ENDBRANCH   1  10
BRANCH   4  27
HETATM   27  N4  UNL     1       5.838   0.448  -2.855  1.00  0.00    -0.234 N 
ATOM     28  H42 UNL     1       5.209   0.796  -3.578  1.00  0.00     0.174 HD
ATOM     29  H41 UNL     1       6.792   0.170  -3.086  1.00  0.00     0.174 HD
ENDBRANCH   4  27
BRANCH   7  30
HETATM   30  N6  UNL     1       6.479  -0.589   1.507  1.00  0.00    -0.138 N 
ATOM     31  H6  UNL     1       6.105  -0.641   2.454  1.00  0.00     0.205 HD
BRANCH  30  32
HETATM   32  N7  UNL     1       7.787  -0.988   1.285  1.00  0.00    -0.331 N 
ATOM     33  H72 UNL     1       8.145  -0.929   0.332  1.00  0.00     0.177 HD
ATOM     34  H71 UNL     1       8.390  -1.332   2.032  1.00  0.00     0.177 HD
ENDBRANCH  30  32
ENDBRANCH   7  30
TORSDOF 9
