REMARK  8 active torsions:
REMARK  status: ('A' for Active; 'I' for Inactive)
REMARK    1  A    between atoms: N1_2  and  C2_4 
REMARK    2  A    between atoms: C3_7  and  C4_8 
REMARK    3  A    between atoms: C4_8  and  C5_9 
REMARK    4  A    between atoms: C5_9  and  N3_10 
REMARK       I    between atoms: N3_10  and  C6_12 
REMARK    5  A    between atoms: C6_12  and  C7_14 
REMARK    6  A    between atoms: C11_21  and  O2_22 
REMARK    7  A    between atoms: O2_22  and  C12_23 
REMARK    8  A    between atoms: C13_28  and  N6_29 
ROOT
HETATM    1  C7  UNL     1      -0.554  -1.554  -0.135  1.00  0.00     0.100 A 
HETATM    2  S1  UNL     1      -0.463  -0.217  -1.186  1.00  0.00    -0.064 SA
HETATM    3  C8  UNL     1      -2.016   0.453  -0.918  1.00  0.00     0.091 A 
HETATM    4  N4  UNL     1      -2.523   1.578  -1.515  1.00  0.00    -0.350 N 
ATOM      5  H4  UNL     1      -1.971   1.953  -2.286  1.00  0.00     0.166 HD
HETATM    6  C9  UNL     1      -3.649   2.257  -1.224  1.00  0.00     0.058 C 
HETATM    7  C10 UNL     1      -3.979   3.338  -2.187  1.00  0.00     0.072 C 
HETATM    8  C11 UNL     1      -4.497   2.050  -0.151  1.00  0.00     0.171 C 
HETATM    9  N5  UNL     1      -4.602   0.917   0.542  1.00  0.00    -0.321 N 
ATOM     10  H5  UNL     1      -5.368   0.899   1.216  1.00  0.00     0.169 HD
HETATM   11  C13 UNL     1      -3.867  -0.204   0.500  1.00  0.00     0.116 C 
HETATM   12  C14 UNL     1      -2.557  -0.409   0.000  1.00  0.00     0.067 A 
HETATM   13  C15 UNL     1      -1.802  -1.441   0.400  1.00  0.00     0.085 A 
HETATM   14  N7  UNL     1      -2.248  -2.435   1.368  1.00  0.00    -0.100 NA
ENDROOT
BRANCH   1  15
HETATM   15  C6  UNL     1       0.479  -2.554   0.106  1.00  0.00     0.260 C 
HETATM   16  N3  UNL     1       1.736  -2.510  -0.552  1.00  0.00    -0.356 N 
ATOM     17  H3  UNL     1       1.913  -1.752  -1.211  1.00  0.00     0.162 HD
HETATM   18  O1  UNL     1       0.233  -3.475   0.921  1.00  0.00    -0.267 OA
BRANCH  16  19
HETATM   19  C5  UNL     1       2.762  -3.475  -0.335  1.00  0.00     0.130 C 
BRANCH  19  20
HETATM   20  C4  UNL     1       3.978  -3.163  -1.167  1.00  0.00     0.097 C 
BRANCH  20  21
HETATM   21  C3  UNL     1       4.558  -1.823  -0.829  1.00  0.00     0.101 A 
HETATM   22  N2  UNL     1       3.976  -1.084   0.136  1.00  0.00    -0.180 N 
HETATM   23  C2  UNL     1       4.468   0.117   0.463  1.00  0.00     0.681 A 
ATOM     24  H2  UNL     1       3.154  -1.443   0.621  1.00  0.00     0.185 HD
HETATM   25  N9  UNL     1       5.549   0.614  -0.162  1.00  0.00    -0.166 N 
HETATM   26  C16 UNL     1       6.115  -0.145  -1.127  1.00  0.00     0.195 A 
ATOM     27  H9  UNL     1       5.928   1.529   0.082  1.00  0.00     0.186 HD
HETATM   28  N8  UNL     1       5.634  -1.345  -1.462  1.00  0.00    -0.321 N 
HETATM   29 CL1  UNL     1       7.533   0.526  -1.934  1.00  0.00    -0.044 Cl
ATOM     30  H8  UNL     1       6.084  -1.893  -2.195  1.00  0.00     0.169 HD
BRANCH  23  31
HETATM   31  N1  UNL     1       3.877   0.786   1.393  1.00  0.00    -0.230 N 
HETATM   32  C1  UNL     1       4.347   2.096   1.805  1.00  0.00     0.165 C 
ATOM     33  H1  UNL     1       3.059   0.385   1.851  1.00  0.00     0.177 HD
ENDBRANCH  23  31
ENDBRANCH  20  21
ENDBRANCH  19  20
ENDBRANCH  16  19
ENDBRANCH   1  15
BRANCH  11  34
HETATM   34  N6  UNL     1      -4.431  -1.264   0.989  1.00  0.00    -0.385 N 
ATOM     35  H62 UNL     1      -5.374  -1.116   1.349  1.00  0.00     0.157 HD
ATOM     36  H61 UNL     1      -3.872  -2.117   0.957  1.00  0.00     0.157 HD
ENDBRANCH  11  34
BRANCH   8  37
HETATM   37  O2  UNL     1      -5.264   3.147   0.169  1.00  0.00    -0.272 OA
BRANCH  37  38
HETATM   38  C12 UNL     1      -6.201   3.175   1.223  1.00  0.00     0.506 C 
HETATM   39  F1  UNL     1      -7.456   3.464   0.745  1.00  0.00    -0.184 F 
HETATM   40  F2  UNL     1      -5.883   4.086   2.201  1.00  0.00    -0.184 F 
ENDBRANCH  37  38
ENDBRANCH   8  37
TORSDOF 8
