REMARK  9 active torsions:
REMARK  status: ('A' for Active; 'I' for Inactive)
REMARK    1  A    between atoms: N5_14  and  C7_15 
REMARK    2  A    between atoms: C7_15  and  C8_16 
REMARK    3  A    between atoms: C8_16  and  C9_17 
REMARK    4  A    between atoms: C9_17  and  C10_18 
REMARK    5  A    between atoms: C14_28  and  N8_29 
REMARK    6  A    between atoms: N8_29  and  N9_31 
REMARK    7  A    between atoms: N9_31  and  C15_33 
REMARK    8  A    between atoms: C15_33  and  C16_34 
REMARK    9  A    between atoms: C18_40  and  O2_41 
ROOT
HETATM    1  N1  UNL     1       3.443  -2.983  -0.123  1.00  0.00    -0.191 NA
HETATM    2  C1  UNL     1       2.574  -2.301   0.211  1.00  0.00     0.105 C 
HETATM    3  C2  UNL     1       1.480  -1.474   0.635  1.00  0.00     0.115 A 
HETATM    4  C3  UNL     1       0.390  -2.078   1.244  1.00  0.00     0.141 A 
HETATM    5  N2  UNL     1       0.339  -3.485   1.454  1.00  0.00    -0.081 NA
HETATM    6  N3  UNL     1      -0.639  -1.312   1.645  1.00  0.00    -0.328 N 
ATOM      7  H3  UNL     1      -1.435  -1.766   2.093  1.00  0.00     0.168 HD
HETATM    8  C4  UNL     1      -0.673   0.044   1.483  1.00  0.00     0.142 A 
HETATM    9  C5  UNL     1       0.435   0.618   0.870  1.00  0.00     0.108 A 
HETATM   10  C6  UNL     1       0.154   1.980   0.840  1.00  0.00     0.276 A 
HETATM   11  O1  UNL     1       0.940   2.840   0.350  1.00  0.00    -0.266 OA
HETATM   12  N4  UNL     1      -1.046   2.168   1.405  1.00  0.00    -0.262 N 
ATOM     13  H4  UNL     1      -1.499   3.075   1.516  1.00  0.00     0.190 HD
HETATM   14  N5  UNL     1      -1.570   0.998   1.805  1.00  0.00    -0.273 N 
HETATM   15  C14 UNL     1       1.528  -0.110   0.433  1.00  0.00     0.091 A 
ENDROOT
BRANCH  15  16
HETATM   16  N8  UNL     1       2.480   0.506  -0.111  1.00  0.00    -0.298 N 
ATOM     17  H8  UNL     1       2.337   1.514  -0.174  1.00  0.00     0.187 HD
BRANCH  16  18
HETATM   18  N9  UNL     1       3.662   0.086  -0.630  1.00  0.00    -0.309 N 
ATOM     19  H9  UNL     1       3.775  -0.881  -0.933  1.00  0.00     0.186 HD
BRANCH  18  20
HETATM   20  C15 UNL     1       4.640   0.918  -0.737  1.00  0.00     0.141 C 
BRANCH  20  21
HETATM   21  C16 UNL     1       5.914   0.528  -1.280  1.00  0.00     0.101 A 
HETATM   22  N10 UNL     1       6.195  -0.729  -1.721  1.00  0.00    -0.348 N 
HETATM   23  C17 UNL     1       7.455  -0.705  -2.146  1.00  0.00     0.183 A 
ATOM     24  H10 UNL     1       5.564  -1.530  -1.725  1.00  0.00     0.167 HD
HETATM   25  N11 UNL     1       7.989   0.533  -1.990  1.00  0.00    -0.331 N 
HETATM   26  C18 UNL     1       7.044   1.313  -1.452  1.00  0.00     0.169 A 
ATOM     27  H11 UNL     1       8.937   0.817  -2.237  1.00  0.00     0.168 HD
BRANCH  26  28
HETATM   28  O2  UNL     1       7.168   2.637  -1.132  1.00  0.00    -0.344 OA
ATOM     29  H2  UNL     1       7.942   3.175  -1.250  1.00  0.00     0.219 HD
ENDBRANCH  26  28
ENDBRANCH  20  21
ENDBRANCH  18  20
ENDBRANCH  16  18
ENDBRANCH  15  16
BRANCH  14  30
HETATM   30  C7  UNL     1      -2.857   0.808   2.428  1.00  0.00     0.151 C 
BRANCH  30  31
HETATM   31  C8  UNL     1      -3.962   0.726   1.450  1.00  0.00     0.028 C 
BRANCH  31  32
HETATM   32  C9  UNL     1      -3.760  -0.410   0.484  1.00  0.00     0.060 C 
BRANCH  32  33
HETATM   33  C10 UNL     1      -4.928  -0.413  -0.423  1.00  0.00     0.029 A 
HETATM   34  C11 UNL     1      -4.925   0.305  -1.585  1.00  0.00     0.073 A 
HETATM   35  C12 UNL     1      -6.021   0.308  -2.445  1.00  0.00     0.175 A 
HETATM   36  F1  UNL     1      -6.066   0.998  -3.600  1.00  0.00    -0.201 F 
HETATM   37  C13 UNL     1      -7.107  -0.447  -2.066  1.00  0.00     0.241 A 
HETATM   38  F2  UNL     1      -8.218  -0.483  -2.873  1.00  0.00    -0.181 F 
HETATM   39  N6  UNL     1      -7.076  -1.140  -0.917  1.00  0.00    -0.273 N 
HETATM   40  N7  UNL     1      -6.010  -1.131  -0.101  1.00  0.00    -0.303 N 
ATOM     41  H6  UNL     1      -7.892  -1.693  -0.654  1.00  0.00     0.189 HD
ATOM     42  H7  UNL     1      -6.025  -1.671   0.764  1.00  0.00     0.186 HD
ENDBRANCH  32  33
ENDBRANCH  31  32
ENDBRANCH  30  31
ENDBRANCH  14  30
TORSDOF 9
