REMARK  10 active torsions:
REMARK  status: ('A' for Active; 'I' for Inactive)
REMARK    1  A    between atoms: C2_2  and  C5_5 
REMARK    2  A    between atoms: C6_8  and  C7_9 
REMARK    3  A    between atoms: C7_9  and  N2_10 
REMARK    4  A    between atoms: N5_18  and  C10_19 
REMARK    5  A    between atoms: C10_19  and  C11_20 
REMARK    6  A    between atoms: C12_23  and  C13_24 
REMARK    7  A    between atoms: C13_24  and  O1_25 
REMARK    8  A    between atoms: C13_24  and  N6_27 
REMARK    9  A    between atoms: N6_27  and  C14_29 
REMARK   10  A    between atoms: C15_32  and  N8_33 
ROOT
HETATM    1  C14 UNL     1      -2.971   0.200   0.087  1.00  0.00     0.143 A 
HETATM    2  N7  UNL     1      -3.416  -0.095  -1.151  1.00  0.00    -0.175 N 
ATOM      3  H7  UNL     1      -2.742  -0.189  -1.911  1.00  0.00     0.186 HD
HETATM    4  C15 UNL     1      -4.741  -0.271  -1.414  1.00  0.00     0.678 A 
HETATM    5  N9  UNL     1      -5.685  -0.165  -0.469  1.00  0.00    -0.177 N 
ATOM      6  H9  UNL     1      -6.670  -0.303  -0.695  1.00  0.00     0.185 HD
HETATM    7  C16 UNL     1      -5.301   0.126   0.777  1.00  0.00     0.156 A 
HETATM    8  N10 UNL     1      -6.294   0.246   1.812  1.00  0.00    -0.080 NA
HETATM    9  C17 UNL     1      -3.975   0.306   1.060  1.00  0.00     0.130 A 
HETATM   10  C18 UNL     1      -3.598   0.617   2.407  1.00  0.00     0.107 C 
HETATM   11  N11 UNL     1      -3.306   0.878   3.500  1.00  0.00    -0.191 NA
ENDROOT
BRANCH   1  12
HETATM   12  N6  UNL     1      -1.746   0.376   0.395  1.00  0.00    -0.343 N 
ATOM     13  H6  UNL     1      -1.504   0.597   1.361  1.00  0.00     0.164 HD
BRANCH  12  14
HETATM   14  C13 UNL     1      -0.697   0.272  -0.581  1.00  0.00     0.272 C 
BRANCH  14  15
HETATM   15  C12 UNL     1       0.659   0.179  -0.070  1.00  0.00     0.085 A 
HETATM   16  C5  UNL     1       1.352  -1.013   0.077  1.00  0.00     0.045 A 
HETATM   17  N1  UNL     1       2.567  -0.689   0.553  1.00  0.00    -0.345 N 
HETATM   18  C6  UNL     1       2.668   0.667   0.712  1.00  0.00     0.104 A 
ATOM     19  H1  UNL     1       3.307  -1.358   0.765  1.00  0.00     0.167 HD
HETATM   20  N5  UNL     1       1.468   1.185   0.320  1.00  0.00    -0.328 N 
BRANCH  16  21
HETATM   21  C2  UNL     1       0.876  -2.383  -0.243  1.00  0.00    -0.007 C 
HETATM   22  C1  UNL     1       2.023  -3.347   0.130  1.00  0.00     0.021 C 
HETATM   23  C3  UNL     1       0.693  -2.597  -1.742  1.00  0.00     0.021 C 
HETATM   24  C4  UNL     1      -0.310  -2.805   0.553  1.00  0.00     0.021 C 
ENDBRANCH  16  21
BRANCH  18  25
HETATM   25  C7  UNL     1       3.901   1.286   1.182  1.00  0.00     0.228 C 
BRANCH  25  26
HETATM   26  N2  UNL     1       4.808   1.350   0.023  1.00  0.00    -0.259 N 
HETATM   27  N3  UNL     1       4.861   2.375  -0.809  1.00  0.00    -0.291 N 
HETATM   28  C8  UNL     1       5.785   2.134  -1.759  1.00  0.00     0.199 A 
ATOM     29  H3  UNL     1       4.291   3.218  -0.742  1.00  0.00     0.188 HD
HETATM   30  N4  UNL     1       6.308   0.926  -1.494  1.00  0.00    -0.326 N 
HETATM   31  C9  UNL     1       5.698   0.435  -0.381  1.00  0.00     0.197 A 
ATOM     32  H4  UNL     1       7.036   0.458  -2.033  1.00  0.00     0.169 HD
HETATM   33 CL1  UNL     1       6.003  -1.103   0.397  1.00  0.00    -0.043 Cl
ENDBRANCH  25  26
ENDBRANCH  18  25
BRANCH  20  34
HETATM   34  C10 UNL     1       1.163   2.568   0.346  1.00  0.00     0.201 C 
BRANCH  34  35
HETATM   35  C11 UNL     1       0.492   3.060   1.595  1.00  0.00     0.371 C 
HETATM   36  F1  UNL     1       0.259   4.430   1.494  1.00  0.00    -0.213 F 
HETATM   37  F2  UNL     1       1.300   2.867   2.681  1.00  0.00    -0.213 F 
ENDBRANCH  34  35
ENDBRANCH  20  34
ENDBRANCH  14  15
BRANCH  14  38
HETATM   38  O1  UNL     1      -0.897   1.326  -1.506  1.00  0.00    -0.371 OA
ATOM     39  H1  UNL     1      -1.784   1.387  -1.840  1.00  0.00     0.212 HD
ENDBRANCH  14  38
ENDBRANCH  12  14
ENDBRANCH   1  12
BRANCH   4  40
HETATM   40  N8  UNL     1      -5.158  -0.555  -2.613  1.00  0.00    -0.234 N 
ATOM     41  H82 UNL     1      -4.439  -0.636  -3.332  1.00  0.00     0.174 HD
ATOM     42  H81 UNL     1      -6.150  -0.687  -2.810  1.00  0.00     0.174 HD
ENDBRANCH   4  40
TORSDOF 10
