REMARK  10 active torsions:
REMARK  status: ('A' for Active; 'I' for Inactive)
REMARK    1  A    between atoms: C2_2  and  C4_4 
REMARK    2  A    between atoms: C4_4  and  O1_5 
REMARK    3  A    between atoms: C4_4  and  C5_7 
REMARK    4  A    between atoms: C4_4  and  C15_33 
REMARK    5  A    between atoms: C5_7  and  O2_8 
REMARK    6  A    between atoms: O2_8  and  C6_9 
REMARK    7  A    between atoms: C6_9  and  C7_11 
REMARK    8  A    between atoms: C11_18  and  C12_19 
REMARK    9  A    between atoms: C12_19  and  O4_20 
REMARK   10  A    between atoms: C14_29  and  N4_30 
ROOT
HETATM    1  C7  UNL     1       1.542   0.159   0.493  1.00  0.00     0.084 A 
HETATM    2  C8  UNL     1       2.424  -0.886   0.418  1.00  0.00     0.040 A 
HETATM    3  C9  UNL     1       3.728  -0.680   0.051  1.00  0.00     0.048 A 
HETATM    4  C10 UNL     1       4.626  -1.737   0.007  1.00  0.00     0.119 A 
HETATM    5 CL1  UNL     1       4.042  -3.347   0.385  1.00  0.00    -0.063 Cl
HETATM    6  N1  UNL     1       5.894  -1.476  -0.326  1.00  0.00    -0.331 N 
ATOM      7  H1  UNL     1       6.565  -2.243  -0.363  1.00  0.00     0.168 HD
HETATM    8  C11 UNL     1       6.306  -0.242  -0.611  1.00  0.00     0.151 A 
HETATM    9  N2  UNL     1       5.433   0.768  -0.569  1.00  0.00    -0.327 N 
ATOM     10  H2  UNL     1       5.760   1.708  -0.793  1.00  0.00     0.169 HD
HETATM   11  C13 UNL     1       4.138   0.594  -0.243  1.00  0.00     0.121 A 
HETATM   12  N3  UNL     1       3.285   1.622  -0.174  1.00  0.00    -0.327 N 
ATOM     13  H3  UNL     1       3.609   2.563  -0.397  1.00  0.00     0.169 HD
HETATM   14  C14 UNL     1       1.984   1.423   0.193  1.00  0.00     0.116 A 
ENDROOT
BRANCH   1  15
HETATM   15  C6  UNL     1       0.199  -0.115   0.952  1.00  0.00     0.297 C 
HETATM   16  O3  UNL     1       0.034  -0.153   2.228  1.00  0.00    -0.259 OA
BRANCH  15  17
HETATM   17  O2  UNL     1      -0.922  -0.337   0.168  1.00  0.00    -0.314 OA
BRANCH  17  18
HETATM   18  C5  UNL     1      -2.173  -0.575   0.807  1.00  0.00     0.225 C 
BRANCH  18  19
HETATM   19  C4  UNL     1      -3.311  -0.771  -0.118  1.00  0.00     0.143 C 
BRANCH  19  20
HETATM   20  C2  UNL     1      -4.629  -0.900   0.613  1.00  0.00     0.022 C 
HETATM   21  C1  UNL     1      -4.849   0.339   1.493  1.00  0.00     0.013 C 
HETATM   22  C3  UNL     1      -5.813  -0.943  -0.328  1.00  0.00     0.013 C 
ENDBRANCH  19  20
BRANCH  19  23
HETATM   23  O1  UNL     1      -3.120  -1.893  -0.893  1.00  0.00    -0.379 OA
ATOM     24  H1  UNL     1      -2.292  -1.812  -1.352  1.00  0.00     0.211 HD
ENDBRANCH  19  23
BRANCH  19  25
HETATM   25  C15 UNL     1      -3.420   0.368  -1.102  1.00  0.00     0.150 A 
HETATM   26  N5  UNL     1      -4.196   0.331  -2.187  1.00  0.00    -0.270 N 
HETATM   27  N6  UNL     1      -4.079   1.461  -2.827  1.00  0.00    -0.227 N 
ATOM     28  H5  UNL     1      -4.784  -0.453  -2.469  1.00  0.00     0.190 HD
HETATM   29  N7  UNL     1      -3.242   2.232  -2.179  1.00  0.00    -0.227 N 
ATOM     30  H6  UNL     1      -4.561   1.705  -3.692  1.00  0.00     0.210 HD
HETATM   31  N8  UNL     1      -2.834   1.559  -1.115  1.00  0.00    -0.270 N 
ATOM     32  H7  UNL     1      -2.958   3.175  -2.445  1.00  0.00     0.210 HD
ATOM     33  H8  UNL     1      -2.174   1.901  -0.416  1.00  0.00     0.190 HD
ENDBRANCH  19  25
ENDBRANCH  18  19
ENDBRANCH  17  18
ENDBRANCH  15  17
ENDBRANCH   1  15
BRANCH  14  34
HETATM   34  N4  UNL     1       1.191   2.412   0.246  1.00  0.00    -0.385 N 
ATOM     35  H42 UNL     1       0.220   2.263   0.520  1.00  0.00     0.157 HD
ATOM     36  H41 UNL     1       1.520   3.352   0.023  1.00  0.00     0.157 HD
ENDBRANCH  14  34
BRANCH   8  37
HETATM   37  C12 UNL     1       7.758  -0.020  -0.960  1.00  0.00     0.274 C 
HETATM   38 CL2  UNL     1       8.071  -0.685  -2.567  1.00  0.00    -0.062 Cl
HETATM   39 CL3  UNL     1       8.810  -0.827   0.224  1.00  0.00    -0.062 Cl
BRANCH  37  40
HETATM   40  O4  UNL     1       8.004   1.346  -0.899  1.00  0.00    -0.356 OA
ATOM     41  H4  UNL     1       8.918   1.486  -1.119  1.00  0.00     0.213 HD
ENDBRANCH  37  40
ENDBRANCH   8  37
TORSDOF 10
