REMARK  10 active torsions:
REMARK  status: ('A' for Active; 'I' for Inactive)
REMARK    1  A    between atoms: C2_2  and  N1_3 
REMARK    2  A    between atoms: C2_2  and  C7_19 
REMARK    3  A    between atoms: C5_8  and  N2_9 
REMARK    4  A    between atoms: N2_9  and  O1_11 
REMARK    5  A    between atoms: C7_19  and  O2_20 
REMARK    6  A    between atoms: C7_19  and  C8_22 
REMARK    7  A    between atoms: C7_19  and  C11_30 
REMARK    8  A    between atoms: C8_22  and  N5_23 
REMARK    9  A    between atoms: C11_30  and  O3_31 
REMARK   10  A    between atoms: C11_30  and  C12_33 
ROOT
HETATM    1  C7  UNL     1      -0.534   0.716  -0.502  1.00  0.00     0.163 C 
ENDROOT
BRANCH   1   2
HETATM    2  C2  UNL     1       0.494  -0.169  -1.114  1.00  0.00     0.052 C 
HETATM    3  C1  UNL     1       0.435  -0.382  -2.605  1.00  0.00     0.068 C 
BRANCH   2   4
HETATM    4  N1  UNL     1       1.859  -0.135  -0.644  1.00  0.00    -0.140 N 
HETATM    5  C3  UNL     1       2.754   0.755  -1.115  1.00  0.00     0.152 A 
HETATM    6 CL1  UNL     1       2.323   2.024  -2.247  1.00  0.00    -0.061 Cl
HETATM    7  C4  UNL     1       4.069   0.746  -0.722  1.00  0.00     0.119 A 
HETATM    8 CL2  UNL     1       5.243   1.899  -1.361  1.00  0.00    -0.077 Cl
HETATM    9  C5  UNL     1       4.531  -0.173   0.175  1.00  0.00     0.165 A 
HETATM   10  N3  UNL     1       3.657  -1.047   0.644  1.00  0.00    -0.173 N 
HETATM   11  C6  UNL     1       2.341  -1.044   0.255  1.00  0.00     0.685 A 
ATOM     12  H3  UNL     1       3.971  -1.746   1.317  1.00  0.00     0.186 HD
HETATM   13  N4  UNL     1       1.666  -1.957   0.815  1.00  0.00    -0.234 N 
ATOM     14  H42 UNL     1       0.688  -1.955   0.526  1.00  0.00     0.174 HD
ATOM     15  H41 UNL     1       2.026  -2.636   1.486  1.00  0.00     0.174 HD
BRANCH   9  16
HETATM   16  N2  UNL     1       5.781  -0.200   0.568  1.00  0.00    -0.251 N 
ATOM     17  H2  UNL     1       6.463   0.471   0.214  1.00  0.00     0.196 HD
BRANCH  16  18
HETATM   18  O1  UNL     1       6.135  -1.164   1.472  1.00  0.00    -0.288 OA
ATOM     19  H1  UNL     1       7.041  -1.184   1.757  1.00  0.00     0.244 HD
ENDBRANCH  16  18
ENDBRANCH   9  16
ENDBRANCH   2   4
ENDBRANCH   1   2
BRANCH   1  20
HETATM   20  O2  UNL     1      -0.516   1.930  -1.201  1.00  0.00    -0.375 OA
ATOM     21  H2  UNL     1      -1.172   2.495  -0.810  1.00  0.00     0.211 HD
ENDBRANCH   1  20
BRANCH   1  22
HETATM   22  C8  UNL     1       0.123   1.292   0.820  1.00  0.00     0.201 C 
BRANCH  22  23
HETATM   23  N5  UNL     1      -0.583   2.266   1.561  1.00  0.00    -0.283 N 
HETATM   24  C9  UNL     1      -1.349   2.250   2.656  1.00  0.00     0.201 A 
HETATM   25  N6  UNL     1      -1.803   3.490   2.957  1.00  0.00    -0.346 N 
HETATM   26  C10 UNL     1      -1.314   4.314   2.024  1.00  0.00     0.198 A 
ATOM     27  H6  UNL     1      -2.401   3.746   3.742  1.00  0.00     0.167 HD
HETATM   28  N7  UNL     1      -0.592   3.595   1.199  1.00  0.00    -0.293 N 
ATOM     29  H7  UNL     1      -0.099   3.973   0.390  1.00  0.00     0.188 HD
ENDBRANCH  22  23
ENDBRANCH   1  22
BRANCH   1  30
HETATM   30  C11 UNL     1      -1.867   0.251  -0.196  1.00  0.00     0.098 C 
BRANCH  30  31
HETATM   31  O3  UNL     1      -2.683   0.938   0.670  1.00  0.00    -0.360 OA
ATOM     32  H3  UNL     1      -3.560   0.632   0.871  1.00  0.00     0.217 HD
ENDBRANCH  30  31
BRANCH  30  33
HETATM   33  C12 UNL     1      -2.434  -1.071  -0.372  1.00  0.00     0.034 A 
HETATM   34  C13 UNL     1      -2.437  -1.826  -1.514  1.00  0.00     0.103 A 
HETATM   35  N8  UNL     1      -3.119  -3.003  -1.673  1.00  0.00    -0.374 N 
HETATM   36  C14 UNL     1      -3.853  -3.514  -0.703  1.00  0.00     0.089 A 
ATOM     37  H8  UNL     1      -3.058  -3.497  -2.563  1.00  0.00     0.164 HD
HETATM   38  C15 UNL     1      -3.918  -2.825   0.487  1.00  0.00     0.042 A 
HETATM   39  C16 UNL     1      -3.236  -1.660   0.636  1.00  0.00     0.049 A 
HETATM   40 CL3  UNL     1      -3.395  -0.907   2.230  1.00  0.00    -0.083 Cl
ENDBRANCH  30  33
ENDBRANCH   1  30
TORSDOF 10
