REMARK  10 active torsions:
REMARK  status: ('A' for Active; 'I' for Inactive)
REMARK    1  A    between atoms: C3_4  and  S1_5 
REMARK    2  A    between atoms: S1_5  and  S2_6 
REMARK    3  A    between atoms: S2_6  and  C4_7 
REMARK    4  A    between atoms: C6_9  and  O1_10 
REMARK    5  A    between atoms: O1_10  and  C7_11 
REMARK    6  A    between atoms: C7_11  and  C8_12 
REMARK    7  A    between atoms: C9_16  and  N2_17 
REMARK    8  A    between atoms: C10_21  and  C11_22 
REMARK    9  A    between atoms: C11_22  and  O2_23 
REMARK   10  A    between atoms: C12_28  and  N4_29 
ROOT
HETATM    1  N1  UNL     1       5.404  -2.438   1.345  1.00  0.00    -0.191 NA
HETATM    2  C1  UNL     1       4.954  -1.555   0.744  1.00  0.00     0.106 C 
HETATM    3  C2  UNL     1       4.366  -0.455  -0.003  1.00  0.00     0.121 A 
HETATM    4  C3  UNL     1       3.158  -0.592  -0.652  1.00  0.00     0.121 A 
HETATM    5  N3  UNL     1       2.673   0.455  -1.321  1.00  0.00    -0.184 N 
ATOM      6  H3  UNL     1       1.782   0.385  -1.812  1.00  0.00     0.185 HD
HETATM    7  C12 UNL     1       3.382   1.621  -1.342  1.00  0.00     0.678 A 
HETATM    8  N5  UNL     1       4.560   1.741  -0.704  1.00  0.00    -0.177 N 
ATOM      9  H5  UNL     1       5.058   2.630  -0.743  1.00  0.00     0.185 HD
HETATM   10  C13 UNL     1       5.098   0.718  -0.015  1.00  0.00     0.155 A 
HETATM   11  N6  UNL     1       6.342   0.817   0.669  1.00  0.00    -0.080 NA
ENDROOT
BRANCH   4  12
HETATM   12  S1  UNL     1       2.364  -2.184  -0.527  1.00  0.00    -0.035 SA
BRANCH  12  13
HETATM   13  S2  UNL     1       1.158  -2.058   1.213  1.00  0.00    -0.059 SA
BRANCH  13  14
HETATM   14  C4  UNL     1      -0.437  -1.492   0.721  1.00  0.00     0.197 C 
HETATM   15  C5  UNL     1      -0.544  -0.102   0.185  1.00  0.00     0.078 C 
HETATM   16  C6  UNL     1      -2.009   0.288   0.247  1.00  0.00     0.157 C 
HETATM   17  C9  UNL     1      -2.955  -0.835   0.123  1.00  0.00     0.243 C 
HETATM   18  C10 UNL     1      -2.423  -2.203   0.000  1.00  0.00     0.179 C 
HETATM   19  O3  UNL     1      -1.061  -2.313  -0.251  1.00  0.00    -0.365 OA
BRANCH  16  20
HETATM   20  O1  UNL     1      -2.306   1.281  -0.684  1.00  0.00    -0.379 OA
BRANCH  20  21
HETATM   21  C7  UNL     1      -2.640   2.490  -0.069  1.00  0.00     0.227 C 
BRANCH  21  22
HETATM   22  C8  UNL     1      -2.963   3.562  -1.072  1.00  0.00     0.209 C 
HETATM   23 CL1  UNL     1      -1.517   3.799  -2.086  1.00  0.00    -0.081 Cl
HETATM   24 CL2  UNL     1      -4.389   3.167  -2.044  1.00  0.00    -0.081 Cl
HETATM   25 CL3  UNL     1      -3.222   5.078  -0.164  1.00  0.00    -0.081 Cl
ENDBRANCH  21  22
ENDBRANCH  20  21
ENDBRANCH  16  20
BRANCH  17  26
HETATM   26  N2  UNL     1      -3.900  -0.830   1.257  1.00  0.00    -0.070 N 
ATOM     27  H23 UNL     1      -3.418  -0.835   2.156  1.00  0.00     0.274 HD
ATOM     28  H22 UNL     1      -4.380   0.065   1.350  1.00  0.00     0.274 HD
ATOM     29  H21 UNL     1      -4.555  -1.607   1.171  1.00  0.00     0.274 HD
ENDBRANCH  17  26
BRANCH  18  30
HETATM   30  C11 UNL     1      -3.170  -3.012  -1.065  1.00  0.00     0.198 C 
BRANCH  30  31
HETATM   31  O2  UNL     1      -2.798  -4.351  -1.020  1.00  0.00    -0.398 OA
ATOM     32  H2  UNL     1      -3.261  -4.853  -1.680  1.00  0.00     0.209 HD
ENDBRANCH  30  31
ENDBRANCH  18  30
ENDBRANCH  13  14
ENDBRANCH  12  13
ENDBRANCH   4  12
BRANCH   7  33
HETATM   33  N4  UNL     1       2.934   2.649  -1.982  1.00  0.00    -0.234 N 
ATOM     34  H42 UNL     1       2.041   2.558  -2.466  1.00  0.00     0.174 HD
ATOM     35  H41 UNL     1       3.464   3.520  -1.998  1.00  0.00     0.174 HD
ENDBRANCH   7  33
TORSDOF 10
