REMARK  9 active torsions:
REMARK  status: ('A' for Active; 'I' for Inactive)
REMARK    1  A    between atoms: N1_1  and  C1_4 
REMARK    2  A    between atoms: C2_7  and  N3_8 
REMARK    3  A    between atoms: N3_8  and  C3_10 
REMARK    4  A    between atoms: C3_10  and  C4_11 
REMARK    5  A    between atoms: C4_11  and  O1_12 
REMARK    6  A    between atoms: C6_20  and  S2_21 
REMARK    7  A    between atoms: S2_21  and  C7_22 
REMARK    8  A    between atoms: C7_22  and  C8_23 
REMARK    9  A    between atoms: N8_30  and  C11_32 
ROOT
HETATM    1  C1  UNL     1       2.968   1.732  -0.542  1.00  0.00     0.130 A 
HETATM    2  N2  UNL     1       4.226   1.577  -0.123  1.00  0.00    -0.176 N 
ATOM      3  H2  UNL     1       4.782   2.381   0.168  1.00  0.00     0.186 HD
HETATM    4  C2  UNL     1       4.748   0.322  -0.093  1.00  0.00     0.681 A 
HETATM    5  N4  UNL     1       3.996  -0.721  -0.480  1.00  0.00    -0.175 N 
ATOM      6  H4  UNL     1       4.401  -1.657  -0.452  1.00  0.00     0.186 HD
HETATM    7  C5  UNL     1       2.700  -0.574  -0.913  1.00  0.00     0.143 A 
HETATM    8  N5  UNL     1       1.931  -1.596  -1.304  1.00  0.00    -0.310 N 
ATOM      9  H5  UNL     1       2.175  -2.586  -1.338  1.00  0.00     0.176 HD
HETATM   10  S1  UNL     1       0.472  -0.880  -1.727  1.00  0.00    -0.005 SA
HETATM   11  C6  UNL     1       0.869   0.743  -1.392  1.00  0.00     0.076 A 
HETATM   12  C16 UNL     1       2.167   0.650  -0.951  1.00  0.00     0.078 A 
ENDROOT
BRANCH  11  13
HETATM   13  S2  UNL     1      -0.185   2.182  -1.591  1.00  0.00    -0.113 SA
BRANCH  13  14
HETATM   14  C7  UNL     1      -1.146   2.528  -0.118  1.00  0.00     0.157 C 
BRANCH  14  15
HETATM   15  C8  UNL     1      -2.162   1.489   0.189  1.00  0.00     0.107 A 
HETATM   16  N6  UNL     1      -1.881   0.420   0.957  1.00  0.00    -0.341 N 
HETATM   17  C9  UNL     1      -2.820  -0.513   1.229  1.00  0.00     0.199 A 
ATOM     18  H6  UNL     1      -0.942   0.312   1.341  1.00  0.00     0.167 HD
HETATM   19  N7  UNL     1      -4.074  -0.425   0.752  1.00  0.00    -0.188 N 
HETATM   20  C10 UNL     1      -4.358   0.644  -0.017  1.00  0.00     0.684 A 
ATOM     21  H7  UNL     1      -4.777  -1.134   0.962  1.00  0.00     0.185 HD
HETATM   22  N8  UNL     1      -5.557   0.763  -0.490  1.00  0.00    -0.192 N 
HETATM   23  N9  UNL     1      -3.427   1.576  -0.292  1.00  0.00    -0.179 N 
ATOM     24  H8  UNL     1      -5.784   1.568  -1.074  1.00  0.00     0.184 HD
ATOM     25  H9  UNL     1      -3.680   2.371  -0.879  1.00  0.00     0.185 HD
BRANCH  22  26
HETATM   26  C11 UNL     1      -6.565  -0.200  -0.216  1.00  0.00     0.053 A 
HETATM   27  C12 UNL     1      -7.343  -0.295   0.876  1.00  0.00     0.084 A 
HETATM   28  C13 UNL     1      -8.240  -1.442   0.726  1.00  0.00     0.174 A 
HETATM   29  O2  UNL     1      -9.119  -1.861   1.536  1.00  0.00    -0.288 OA
HETATM   30  C14 UNL     1      -7.904  -2.018  -0.581  1.00  0.00     0.057 A 
HETATM   31  C15 UNL     1      -6.921  -1.281  -1.122  1.00  0.00     0.034 A 
ENDBRANCH  22  26
ENDBRANCH  14  15
ENDBRANCH  13  14
ENDBRANCH  11  13
BRANCH   1  32
HETATM   32  N1  UNL     1       2.475   2.937  -0.568  1.00  0.00    -0.384 N 
ATOM     33  H12 UNL     1       3.056   3.721  -0.271  1.00  0.00     0.157 HD
ATOM     34  H11 UNL     1       1.514   3.055  -0.888  1.00  0.00     0.157 HD
ENDBRANCH   1  32
BRANCH   4  35
HETATM   35  N3  UNL     1       5.963   0.141   0.306  1.00  0.00    -0.224 N 
ATOM     36  H3  UNL     1       6.537   0.932   0.600  1.00  0.00     0.177 HD
BRANCH  35  37
HETATM   37  C3  UNL     1       6.493  -1.199   0.328  1.00  0.00     0.164 C 
BRANCH  37  38
HETATM   38  C4  UNL     1       7.913  -1.192   0.870  1.00  0.00     0.184 C 
BRANCH  38  39
HETATM   39  O1  UNL     1       7.901  -0.679   2.162  1.00  0.00    -0.399 OA
ATOM     40  H1  UNL     1       8.789  -0.675   2.501  1.00  0.00     0.209 HD
ENDBRANCH  38  39
ENDBRANCH  37  38
ENDBRANCH  35  37
ENDBRANCH   4  35
TORSDOF 9
