REMARK  9 active torsions:
REMARK  status: ('A' for Active; 'I' for Inactive)
REMARK    1  A    between atoms: N1_2  and  C3_4 
REMARK    2  A    between atoms: C4_7  and  N3_8 
REMARK    3  A    between atoms: C7_17  and  N6_18 
REMARK    4  A    between atoms: N6_18  and  C8_20 
REMARK    5  A    between atoms: C8_20  and  C9_21 
REMARK    6  A    between atoms: C9_21  and  N7_22 
REMARK    7  A    between atoms: C9_21  and  C10_26 
REMARK    8  A    between atoms: C10_26  and  S1_27 
REMARK    9  A    between atoms: S1_27  and  C11_28 
ROOT
HETATM    1  C11 UNL     1       4.743   0.772   0.534  1.00  0.00     0.061 A 
HETATM    2  C12 UNL     1       4.436   2.049   0.464  1.00  0.00     0.139 A 
HETATM    3  C13 UNL     1       3.254   2.695   0.953  1.00  0.00     0.107 C 
HETATM    4  N8  UNL     1       2.322   3.223   1.355  1.00  0.00    -0.191 NA
HETATM    5  C14 UNL     1       5.537   2.821  -0.166  1.00  0.00     0.310 A 
HETATM    6  O1  UNL     1       5.586   4.050  -0.394  1.00  0.00    -0.258 OA
HETATM    7  O2  UNL     1       6.505   1.898  -0.453  1.00  0.00    -0.273 OA
HETATM    8  C15 UNL     1       6.097   0.637  -0.057  1.00  0.00     0.100 A 
HETATM    9  C16 UNL     1       6.754  -0.500  -0.165  1.00  0.00    -0.044 A 
HETATM   10  C17 UNL     1       6.937  -1.963  -0.004  1.00  0.00     0.041 A 
HETATM   11  C18 UNL     1       8.020  -1.212  -0.619  1.00  0.00     0.041 A 
ENDROOT
BRANCH   1  12
HETATM   12  S1  UNL     1       3.875  -0.564   1.215  1.00  0.00    -0.123 SA
BRANCH  12  13
HETATM   13  C10 UNL     1       2.126  -0.529   1.317  1.00  0.00     0.114 C 
BRANCH  13  14
HETATM   14  C9  UNL     1       1.478  -0.770  -0.005  1.00  0.00     0.210 C 
BRANCH  14  15
HETATM   15  C8  UNL     1      -0.056  -0.716   0.102  1.00  0.00     0.154 C 
BRANCH  15  16
HETATM   16  N6  UNL     1      -0.561  -1.212  -1.164  1.00  0.00    -0.373 N 
ATOM     17  H6  UNL     1       0.098  -1.672  -1.792  1.00  0.00     0.161 HD
BRANCH  16  18
HETATM   18  C7  UNL     1      -1.768  -1.112  -1.543  1.00  0.00     0.117 A 
HETATM   19  C6  UNL     1      -2.152  -1.615  -2.764  1.00  0.00     0.138 A 
HETATM   20  N5  UNL     1      -3.445  -1.520  -3.194  1.00  0.00    -0.346 N 
HETATM   21  C5  UNL     1      -4.361  -0.926  -2.414  1.00  0.00     0.151 A 
ATOM     22  H5  UNL     1      -3.713  -1.898  -4.103  1.00  0.00     0.167 HD
HETATM   23  N4  UNL     1      -5.645  -0.809  -2.792  1.00  0.00    -0.174 N 
HETATM   24  C19 UNL     1      -3.994  -0.421  -1.197  1.00  0.00     0.123 A 
HETATM   25  C4  UNL     1      -6.563  -0.214  -2.012  1.00  0.00     0.679 A 
ATOM     26  H4  UNL     1      -5.931  -1.183  -3.697  1.00  0.00     0.186 HD
HETATM   27  N2  UNL     1      -6.203   0.281  -0.818  1.00  0.00    -0.175 N 
HETATM   28  C3  UNL     1      -4.940   0.191  -0.394  1.00  0.00     0.149 A 
ATOM     29  H2  UNL     1      -6.902   0.731  -0.227  1.00  0.00     0.186 HD
HETATM   30  N9  UNL     1      -2.699  -0.523  -0.781  1.00  0.00    -0.336 N 
ATOM     31  H9  UNL     1      -2.434  -0.143   0.128  1.00  0.00     0.168 HD
BRANCH  25  32
HETATM   32  N3  UNL     1      -7.806  -0.110  -2.399  1.00  0.00    -0.234 N 
ATOM     33  H32 UNL     1      -8.503   0.342  -1.807  1.00  0.00     0.174 HD
ATOM     34  H31 UNL     1      -8.080  -0.486  -3.307  1.00  0.00     0.174 HD
ENDBRANCH  25  32
BRANCH  28  35
HETATM   35  N1  UNL     1      -4.520   0.704   0.865  1.00  0.00    -0.374 N 
HETATM   36  C1  UNL     1      -4.043   2.058   0.998  1.00  0.00     0.150 C 
HETATM   37  C2  UNL     1      -4.577  -0.159   2.020  1.00  0.00     0.150 C 
ENDBRANCH  28  35
ENDBRANCH  16  18
ENDBRANCH  15  16
ENDBRANCH  14  15
BRANCH  14  38
HETATM   38  N7  UNL     1       1.880   0.047  -1.080  1.00  0.00    -0.073 N 
ATOM     39  H73 UNL     1       1.418  -0.201  -1.955  1.00  0.00     0.274 HD
ATOM     40  H72 UNL     1       1.526   1.000  -1.001  1.00  0.00     0.274 HD
ATOM     41  H71 UNL     1       2.897   0.011  -1.151  1.00  0.00     0.274 HD
ENDBRANCH  14  38
ENDBRANCH  13  14
ENDBRANCH  12  13
ENDBRANCH   1  12
TORSDOF 9
