REMARK  6 active torsions:
REMARK  status: ('A' for Active; 'I' for Inactive)
REMARK    1  A    between atoms: C2_2  and  C15_17 
REMARK    2  A    between atoms: C3_3  and  C4_4 
REMARK    3  A    between atoms: C4_4  and  C5_5 
REMARK    4  A    between atoms: C5_5  and  C6_6 
REMARK    5  A    between atoms: C6_6  and  C7_7 
REMARK    6  A    between atoms: C7_7  and  C8_8 
ROOT
HETATM    1  C4  UNL     1       1.686   1.563   0.158  1.00  0.00     0.028 C 
ENDROOT
BRANCH   1   2
HETATM    2  C3  UNL     1       2.003   0.309   0.834  1.00  0.00    -0.016 C 
HETATM    3  C2  UNL     1       3.115  -0.356   0.892  1.00  0.00    -0.013 C 
HETATM    4  C1  UNL     1       3.090  -1.634   1.692  1.00  0.00     0.052 C 
BRANCH   3   5
HETATM    5  C15 UNL     1       4.361  -0.006   0.263  1.00  0.00     0.169 A 
HETATM    6  N1  UNL     1       4.671   1.032  -0.507  1.00  0.00    -0.278 N 
HETATM    7  N2  UNL     1       5.936   0.933  -0.851  1.00  0.00    -0.281 N 
ATOM      8  H1  UNL     1       4.035   1.779  -0.784  1.00  0.00     0.189 HD
HETATM    9  C16 UNL     1       6.444  -0.172  -0.302  1.00  0.00     0.136 A 
ATOM     10  H2  UNL     1       6.445   1.592  -1.440  1.00  0.00     0.189 HD
HETATM   11  C17 UNL     1       7.823  -0.732  -0.386  1.00  0.00     0.099 C 
HETATM   12  O1  UNL     1       5.475  -0.723   0.366  1.00  0.00    -0.278 OA
ENDBRANCH   3   5
ENDBRANCH   1   2
BRANCH   1  13
HETATM   13  C5  UNL     1       0.659   1.307  -0.922  1.00  0.00     0.004 C 
BRANCH  13  14
HETATM   14  C6  UNL     1      -0.628   0.732  -0.296  1.00  0.00     0.001 C 
BRANCH  14  15
HETATM   15  C7  UNL     1      -1.575   0.535  -1.399  1.00  0.00     0.009 C 
BRANCH  15  16
HETATM   16  C8  UNL     1      -2.930   0.009  -1.167  1.00  0.00     0.040 C 
HETATM   17  C9  UNL     1      -3.844   0.787  -0.282  1.00  0.00    -0.011 C 
HETATM   18  C10 UNL     1      -3.353   2.111   0.199  1.00  0.00     0.010 C 
HETATM   19  C11 UNL     1      -4.327   0.013   0.937  1.00  0.00     0.005 C 
HETATM   20  C12 UNL     1      -5.013  -1.268   0.538  1.00  0.00     0.004 C 
HETATM   21  C13 UNL     1      -4.531  -1.776  -0.801  1.00  0.00     0.056 C 
HETATM   22  C14 UNL     1      -3.039  -1.490  -0.979  1.00  0.00     0.164 C 
HETATM   23  F1  UNL     1      -2.665  -2.090  -2.164  1.00  0.00    -0.230 F 
HETATM   24 BR1  UNL     1      -2.132  -2.238   0.490  1.00  0.00    -0.048 Br
ENDBRANCH  15  16
ENDBRANCH  14  15
ENDBRANCH  13  14
ENDBRANCH   1  13
TORSDOF 6
