REMARK  6 active torsions:
REMARK  status: ('A' for Active; 'I' for Inactive)
REMARK       I    between atoms: N1_2  and  C2_4 
REMARK       I    between atoms: C2_4  and  N3_8 
REMARK    1  A    between atoms: N4_11  and  C4_12 
REMARK    2  A    between atoms: C4_12  and  C5_13 
REMARK    3  A    between atoms: C5_13  and  C6_14 
REMARK    4  A    between atoms: C6_14  and  C7_15 
REMARK    5  A    between atoms: C7_15  and  C8_16 
REMARK    6  A    between atoms: C8_16  and  S1_17 
ROOT
HETATM    1  C1  UNL     1      -3.739   3.377   0.258  1.00  0.00     0.165 C 
HETATM    2  N1  UNL     1      -4.633   2.356  -0.228  1.00  0.00    -0.231 N 
ATOM      3  H1  UNL     1      -5.610   2.356   0.067  1.00  0.00     0.177 HD
HETATM    4  C2  UNL     1      -4.165   1.354  -1.111  1.00  0.00     0.679 C 
HETATM    5  N2  UNL     1      -4.583   1.313  -2.325  1.00  0.00    -0.234 N 
ATOM      6  H21 UNL     1      -4.246   0.591  -2.961  1.00  0.00     0.174 HD
ATOM      7  H22 UNL     1      -5.254   2.013  -2.641  1.00  0.00     0.174 HD
HETATM    8  N3  UNL     1      -3.215   0.364  -0.664  1.00  0.00    -0.106 N 
HETATM    9  C3  UNL     1      -1.912   0.113  -1.176  1.00  0.00     0.347 C 
HETATM   10  O1  UNL     1      -1.493   0.478  -2.310  1.00  0.00    -0.246 OA
HETATM   11  N4  UNL     1      -1.193  -0.619  -0.172  1.00  0.00    -0.267 N 
HETATM   12  C11 UNL     1      -2.082  -0.797   0.937  1.00  0.00     0.265 C 
HETATM   13  O2  UNL     1      -1.671  -1.094   2.078  1.00  0.00    -0.269 OA
HETATM   14  C12 UNL     1      -3.432  -0.560   0.406  1.00  0.00     0.204 C 
HETATM   15  C13 UNL     1      -4.482  -0.231   1.372  1.00  0.00     0.166 C 
HETATM   16  O3  UNL     1      -4.686   0.487   2.351  1.00  0.00    -0.295 OA
HETATM   17  C14 UNL     1      -5.382  -1.200   0.687  1.00  0.00     0.089 C 
HETATM   18  C15 UNL     1      -4.162  -1.827   0.051  1.00  0.00     0.035 C 
HETATM   19  C16 UNL     1      -3.675  -3.041   0.824  1.00  0.00     0.014 C 
ENDROOT
BRANCH  11  20
HETATM   20  C4  UNL     1       0.159  -1.043  -0.350  1.00  0.00     0.137 C 
BRANCH  20  21
HETATM   21  C5  UNL     1       1.196  -0.082   0.100  1.00  0.00     0.020 C 
BRANCH  21  22
HETATM   22  C6  UNL     1       2.558  -0.688  -0.161  1.00  0.00     0.002 C 
BRANCH  22  23
HETATM   23  C7  UNL     1       3.683   0.228   0.270  1.00  0.00     0.009 C 
BRANCH  23  24
HETATM   24  C8  UNL     1       4.979  -0.489  -0.043  1.00  0.00     0.062 C 
BRANCH  24  25
HETATM   25  S1  UNL     1       6.394   0.479   0.415  1.00  0.00    -0.228 SA
HETATM   26  C9  UNL     1       7.841  -0.488  -0.009  1.00  0.00     0.078 C 
HETATM   27  C10 UNL     1       6.467   1.954  -0.593  1.00  0.00     0.078 C 
ENDBRANCH  24  25
ENDBRANCH  23  24
ENDBRANCH  22  23
ENDBRANCH  21  22
ENDBRANCH  20  21
ENDBRANCH  11  20
TORSDOF 6
