REMARK  9 active torsions:
REMARK  status: ('A' for Active; 'I' for Inactive)
REMARK    1  A    between atoms: C2_2  and  C3_3 
REMARK    2  A    between atoms: C2_2  and  C9_10 
REMARK    3  A    between atoms: C2_2  and  C10_15 
REMARK    4  A    between atoms: C4_4  and  C5_5 
REMARK    5  A    between atoms: C5_5  and  N1_6 
REMARK    6  A    between atoms: C9_10  and  N2_11 
REMARK    7  A    between atoms: C10_15  and  N3_16 
REMARK       I    between atoms: N3_16  and  C11_18 
REMARK       I    between atoms: C11_18  and  N4_20 
REMARK    8  A    between atoms: C13_22  and  C15_25 
REMARK    9  A    between atoms: C15_25  and  N6_26 
ROOT
HETATM    1  N3  UNL     1       0.593  -1.338   0.717  1.00  0.00    -0.321 N 
ATOM      2  H3  UNL     1       0.860  -2.277   0.422  1.00  0.00     0.169 HD
HETATM    3  C11 UNL     1       1.614  -0.408   0.826  1.00  0.00     0.323 C 
HETATM    4  O1  UNL     1       1.492   0.794   1.191  1.00  0.00    -0.247 OA
HETATM    5  N4  UNL     1       2.952  -0.836   0.497  1.00  0.00    -0.305 N 
HETATM    6  C12 UNL     1       3.913  -1.845   0.059  1.00  0.00     0.178 A 
HETATM    7  C13 UNL     1       4.410  -0.531   0.359  1.00  0.00     0.166 A 
HETATM    8  C14 UNL     1       4.978  -0.295   1.704  1.00  0.00     0.094 C 
HETATM    9  N5  UNL     1       5.415  -0.119   2.780  1.00  0.00    -0.194 NA
ENDROOT
BRANCH   7  10
HETATM   10  C15 UNL     1       4.721   0.538  -0.638  1.00  0.00     0.284 C 
BRANCH  10  11
HETATM   11  N6  UNL     1       6.104   0.846  -0.791  1.00  0.00    -0.075 N 
HETATM   12  C16 UNL     1       6.380   2.044   0.017  1.00  0.00     0.271 C 
HETATM   13  C17 UNL     1       6.997  -0.180  -0.361  1.00  0.00     0.271 C 
HETATM   14  C18 UNL     1       6.424   1.157  -2.195  1.00  0.00     0.271 C 
ENDBRANCH  10  11
ENDBRANCH   7  10
BRANCH   1  15
HETATM   15  C10 UNL     1      -0.772  -1.122   0.971  1.00  0.00     0.089 C 
BRANCH  15  16
HETATM   16  C2  UNL     1      -1.566  -0.209   0.126  1.00  0.00     0.075 C 
HETATM   17  C1  UNL     1      -1.626  -0.597  -1.348  1.00  0.00     0.037 C 
BRANCH  16  18
HETATM   18  C3  UNL     1      -3.004  -0.460   0.570  1.00  0.00    -0.088 C 
HETATM   19  C4  UNL     1      -4.135  -0.648   0.939  1.00  0.00    -0.077 C 
BRANCH  19  20
HETATM   20  C5  UNL     1      -5.496  -0.893   1.401  1.00  0.00     0.329 C 
BRANCH  20  21
HETATM   21  N1  UNL     1      -6.436  -0.252   0.505  1.00  0.00    -0.069 N 
HETATM   22  C6  UNL     1      -6.665   1.102   0.926  1.00  0.00     0.272 C 
HETATM   23  C7  UNL     1      -5.861  -0.224  -0.838  1.00  0.00     0.272 C 
HETATM   24  C8  UNL     1      -7.683  -0.970   0.442  1.00  0.00     0.272 C 
ENDBRANCH  20  21
ENDBRANCH  19  20
ENDBRANCH  16  18
BRANCH  16  25
HETATM   25  C9  UNL     1      -1.403   1.256   0.255  1.00  0.00     0.257 C 
BRANCH  25  26
HETATM   26  N2  UNL     1      -2.562   1.948  -0.339  1.00  0.00    -0.077 N 
ATOM     27  H23 UNL     1      -2.721   1.665  -1.306  1.00  0.00     0.274 HD
ATOM     28  H22 UNL     1      -3.444   1.625   0.058  1.00  0.00     0.274 HD
ATOM     29  H21 UNL     1      -2.450   2.958  -0.250  1.00  0.00     0.274 HD
ENDBRANCH  25  26
ENDBRANCH  16  25
ENDBRANCH  15  16
ENDBRANCH   1  15
TORSDOF 9
