REMARK  8 active torsions:
REMARK  status: ('A' for Active; 'I' for Inactive)
REMARK    1  A    between atoms: N1_2  and  C3_4 
REMARK    2  A    between atoms: C3_4  and  C4_5 
REMARK       I    between atoms: C4_5  and  N2_7 
REMARK    3  A    between atoms: C5_9  and  N3_10 
REMARK    4  A    between atoms: C5_9  and  O2_18 
REMARK    5  A    between atoms: N3_10  and  C6_12 
REMARK    6  A    between atoms: C6_12  and  C7_13 
REMARK    7  A    between atoms: C7_13  and  N4_14 
REMARK    8  A    between atoms: O2_18  and  C11_19 
ROOT
HETATM    1  C4  UNL     1      -0.226   2.285   0.807  1.00  0.00     0.253 C 
HETATM    2  O1  UNL     1       0.474   2.239   1.841  1.00  0.00    -0.271 OA
HETATM    3  N2  UNL     1      -0.841   1.150   0.277  1.00  0.00    -0.291 N 
ATOM      4  H2  UNL     1      -1.858   1.108   0.335  1.00  0.00     0.172 HD
HETATM    5  C5  UNL     1      -0.269   0.183  -0.260  1.00  0.00     0.222 C 
ENDROOT
BRANCH   5   6
HETATM    6  N3  UNL     1       1.147   0.050  -0.437  1.00  0.00    -0.354 N 
ATOM      7  H3  UNL     1       1.635   0.563  -1.172  1.00  0.00     0.163 HD
BRANCH   6   8
HETATM    8  C6  UNL     1       1.865  -0.834   0.458  1.00  0.00     0.151 C 
BRANCH   8   9
HETATM    9  C7  UNL     1       3.284  -1.082   0.108  1.00  0.00     0.255 C 
BRANCH   9  10
HETATM   10  N4  UNL     1       4.164   0.032   0.050  1.00  0.00    -0.077 N 
HETATM   11  C8  UNL     1       5.490  -0.343   0.583  1.00  0.00     0.271 C 
HETATM   12  C9  UNL     1       4.358   0.395  -1.349  1.00  0.00     0.271 C 
HETATM   13  C10 UNL     1       3.746   1.213   0.739  1.00  0.00     0.271 C 
ENDBRANCH   9  10
ENDBRANCH   8   9
ENDBRANCH   6   8
ENDBRANCH   5   6
BRANCH   5  14
HETATM   14  O2  UNL     1      -1.113  -0.851  -0.722  1.00  0.00    -0.316 OA
BRANCH  14  15
HETATM   15  C11 UNL     1      -2.409  -1.053  -0.189  1.00  0.00     0.141 C 
HETATM   16  C12 UNL     1      -2.275  -1.333   1.276  1.00  0.00     0.034 C 
HETATM   17  C13 UNL     1      -2.313  -2.832   1.429  1.00  0.00     0.009 C 
HETATM   18  C14 UNL     1      -2.764  -3.376   0.112  1.00  0.00     0.005 A 
HETATM   19  C15 UNL     1      -4.148  -2.999  -0.373  1.00  0.00    -0.033 A 
HETATM   20  C18 UNL     1      -2.970  -2.284  -0.845  1.00  0.00    -0.006 A 
HETATM   21  C16 UNL     1      -5.125  -2.394   0.607  1.00  0.00     0.016 C 
HETATM   22  C17 UNL     1      -4.733  -4.016  -1.339  1.00  0.00     0.016 C 
HETATM   23  C19 UNL     1      -2.589  -2.422  -2.312  1.00  0.00     0.019 C 
ENDBRANCH  14  15
ENDBRANCH   5  14
BRANCH   1  24
HETATM   24  C3  UNL     1      -0.400   3.601   0.136  1.00  0.00     0.373 C 
BRANCH  24  25
HETATM   25  N1  UNL     1       0.266   4.692   0.790  1.00  0.00     0.088 N 
HETATM   26  C1  UNL     1      -0.035   5.900   0.029  1.00  0.00     0.310 C 
HETATM   27  C2  UNL     1       1.699   4.526   0.733  1.00  0.00     0.310 C 
ENDBRANCH  24  25
ENDBRANCH   1  24
TORSDOF 8
