REMARK  10 active torsions:
REMARK  status: ('A' for Active; 'I' for Inactive)
REMARK    1  A    between atoms: S1_2  and  C2_3 
REMARK    2  A    between atoms: N3_9  and  S2_11 
REMARK    3  A    between atoms: S2_11  and  N4_14 
REMARK       I    between atoms: N4_14  and  C4_16 
REMARK    4  A    between atoms: C4_16  and  C5_18 
REMARK    5  A    between atoms: C5_18  and  C6_19 
REMARK    6  A    between atoms: C5_18  and  C7_24 
REMARK    7  A    between atoms: C6_19  and  N5_20 
REMARK    8  A    between atoms: C7_24  and  O4_25 
REMARK    9  A    between atoms: C7_24  and  O5_27 
REMARK   10  A    between atoms: O5_27  and  C8_28 
ROOT
HETATM    1  N4  UNL     1      -0.118  -0.630   0.595  1.00  0.00    -0.237 N 
ATOM      2  H4  UNL     1      -0.231  -0.081   1.447  1.00  0.00     0.183 HD
HETATM    3  C4  UNL     1      -1.237  -1.103  -0.120  1.00  0.00     0.242 C 
HETATM    4  O3  UNL     1      -1.043  -1.781  -1.160  1.00  0.00    -0.272 OA
ENDROOT
BRANCH   1   5
HETATM    5  S2  UNL     1       1.467  -1.014  -0.026  1.00  0.00     0.327 S 
HETATM    6  O1  UNL     1       1.587  -2.511  -0.053  1.00  0.00    -0.182 OA
HETATM    7  O2  UNL     1       1.541  -0.502  -1.459  1.00  0.00    -0.182 OA
BRANCH   5   8
HETATM    8  N3  UNL     1       2.633  -0.264   0.969  1.00  0.00    -0.245 N 
HETATM    9  C3  UNL     1       3.903  -0.240   0.625  1.00  0.00     0.176 A 
HETATM   10  N2  UNL     1       4.463  -0.756  -0.474  1.00  0.00    -0.278 N 
HETATM   11  S3  UNL     1       5.257   0.439   1.419  1.00  0.00    -0.026 SA
HETATM   12  N1  UNL     1       5.712  -0.630  -0.638  1.00  0.00    -0.286 N 
ATOM     13  H2  UNL     1       3.894  -1.242  -1.167  1.00  0.00     0.189 HD
HETATM   14  C2  UNL     1       6.451  -0.004   0.253  1.00  0.00     0.129 A 
ATOM     15  H1  UNL     1       6.152  -1.019  -1.472  1.00  0.00     0.188 HD
ATOM     16  H3  UNL     1       2.341   0.172   1.844  1.00  0.00     0.182 HD
BRANCH  14  17
HETATM   17  S1  UNL     1       8.230   0.305   0.254  1.00  0.00    -0.108 SA
HETATM   18  C1  UNL     1       8.448   1.911  -0.606  1.00  0.00     0.097 C 
ENDBRANCH  14  17
ENDBRANCH   5   8
ENDBRANCH   1   5
BRANCH   3  19
HETATM   19  C5  UNL     1      -2.666  -0.856   0.268  1.00  0.00     0.159 C 
BRANCH  19  20
HETATM   20  C6  UNL     1      -3.525  -1.707  -0.605  1.00  0.00     0.248 C 
BRANCH  20  21
HETATM   21  N5  UNL     1      -4.926  -1.588  -0.332  1.00  0.00    -0.078 N 
ATOM     22  H53 UNL     1      -5.117  -1.776   0.652  1.00  0.00     0.274 HD
ATOM     23  H52 UNL     1      -5.220  -0.612  -0.381  1.00  0.00     0.274 HD
ATOM     24  H51 UNL     1      -5.513  -2.170  -0.929  1.00  0.00     0.274 HD
ENDBRANCH  20  21
ENDBRANCH  19  20
BRANCH  19  25
HETATM   25  C7  UNL     1      -2.999   0.590   0.173  1.00  0.00     0.282 C 
BRANCH  25  26
HETATM   26  O4  UNL     1      -2.166   1.311   1.055  1.00  0.00    -0.370 OA
ATOM     27  H4  UNL     1      -2.379   2.235   0.994  1.00  0.00     0.212 HD
ENDBRANCH  25  26
BRANCH  25  28
HETATM   28  O5  UNL     1      -4.321   0.831   0.585  1.00  0.00    -0.274 OA
BRANCH  28  29
HETATM   29  C8  UNL     1      -5.221   1.531  -0.252  1.00  0.00     0.375 C 
HETATM   30  N6  UNL     1      -6.561   1.781   0.146  1.00  0.00    -0.032 NA
HETATM   31  O6  UNL     1      -4.792   1.928  -1.371  1.00  0.00    -0.242 OA
ENDBRANCH  28  29
ENDBRANCH  25  28
ENDBRANCH  19  25
ENDBRANCH   3  19
TORSDOF 10
