REMARK  8 active torsions:
REMARK  status: ('A' for Active; 'I' for Inactive)
REMARK    1  A    between atoms: C3_4  and  O1_5 
REMARK    2  A    between atoms: O1_5  and  C4_6 
REMARK    3  A    between atoms: C4_6  and  C5_7 
REMARK    4  A    between atoms: C5_7  and  O2_8 
REMARK    5  A    between atoms: O2_8  and  C6_9 
REMARK    6  A    between atoms: C6_9  and  C7_10 
REMARK    7  A    between atoms: C7_10  and  O3_11 
REMARK    8  A    between atoms: C8_15  and  N3_16 
ROOT
HETATM    1  N1  UNL     1       2.026   3.355  -3.940  1.00  0.00    -0.191 NA
HETATM    2  C1  UNL     1       1.345   2.846  -3.152  1.00  0.00     0.105 C 
HETATM    3  C2  UNL     1       0.484   2.225  -2.171  1.00  0.00     0.112 A 
HETATM    4  C3  UNL     1       1.021   1.375  -1.190  1.00  0.00     0.166 A 
HETATM    5  N2  UNL     1       0.178   0.824  -0.303  1.00  0.00    -0.320 N 
ATOM      6  H2  UNL     1       0.581   0.209   0.404  1.00  0.00     0.169 HD
HETATM    7  C8  UNL     1      -1.148   1.014  -0.268  1.00  0.00     0.131 A 
HETATM    8  C13 UNL     1      -1.694   1.843  -1.220  1.00  0.00     0.022 A 
HETATM    9  C14 UNL     1      -0.871   2.431  -2.151  1.00  0.00     0.068 A 
HETATM   10  C15 UNL     1      -1.700   3.250  -3.031  1.00  0.00     0.254 A 
HETATM   11  O5  UNL     1      -1.262   3.929  -3.996  1.00  0.00    -0.268 OA
HETATM   12  N7  UNL     1      -3.033   3.138  -2.605  1.00  0.00    -0.352 N 
ATOM     13  H7  UNL     1      -3.832   3.604  -3.035  1.00  0.00     0.163 HD
HETATM   14  C16 UNL     1      -3.095   2.257  -1.460  1.00  0.00     0.166 A 
ENDROOT
BRANCH   4  15
HETATM   15  O1  UNL     1       2.374   1.186  -1.229  1.00  0.00    -0.332 OA
BRANCH  15  16
HETATM   16  C4  UNL     1       3.174   0.392  -0.383  1.00  0.00     0.203 C 
BRANCH  16  17
HETATM   17  C5  UNL     1       2.840  -1.073  -0.414  1.00  0.00     0.194 C 
BRANCH  17  18
HETATM   18  O2  UNL     1       3.526  -1.872   0.360  1.00  0.00    -0.387 OA
BRANCH  18  19
HETATM   19  C6  UNL     1       4.778  -2.204   0.466  1.00  0.00     0.193 C 
BRANCH  19  20
HETATM   20  C7  UNL     1       5.846  -1.230   0.835  1.00  0.00     0.190 C 
BRANCH  20  21
HETATM   21  O3  UNL     1       7.107  -1.906   0.885  1.00  0.00    -0.399 OA
ATOM     22  H3  UNL     1       7.787  -1.286   1.120  1.00  0.00     0.209 HD
ENDBRANCH  20  21
ENDBRANCH  19  20
ENDBRANCH  18  19
ENDBRANCH  17  18
ENDBRANCH  16  17
ENDBRANCH  15  16
ENDBRANCH   4  15
BRANCH   7  23
HETATM   23  N3  UNL     1      -1.984   0.396   0.703  1.00  0.00    -0.261 N 
HETATM   24  C9  UNL     1      -3.098  -0.515   0.524  1.00  0.00     0.188 C 
HETATM   25  C10 UNL     1      -3.175  -1.225   1.851  1.00  0.00     0.162 A 
HETATM   26  C11 UNL     1      -3.367  -2.717   1.766  1.00  0.00     0.162 A 
HETATM   27  C12 UNL     1      -4.423  -1.095   2.589  1.00  0.00     0.247 A 
HETATM   28  N5  UNL     1      -1.966  -0.795   2.507  1.00  0.00    -0.102 NA
HETATM   29  N4  UNL     1      -4.642  -2.485   2.451  1.00  0.00    -0.357 N 
ATOM     30  H4  UNL     1      -5.407  -3.101   2.727  1.00  0.00     0.162 HD
HETATM   31  O4  UNL     1      -5.058  -0.170   3.128  1.00  0.00    -0.271 OA
HETATM   32  N6  UNL     1      -1.896   0.550   2.112  1.00  0.00    -0.026 NA
ENDBRANCH   7  23
TORSDOF 8
