REMARK  6 active torsions:
REMARK  status: ('A' for Active; 'I' for Inactive)
REMARK    1  A    between atoms: C2_2  and  C5_5 
REMARK    2  A    between atoms: C8_8  and  N1_9 
REMARK    3  A    between atoms: N2_12  and  S1_13 
REMARK    4  A    between atoms: S1_13  and  C11_16 
REMARK    5  A    between atoms: C13_18  and  C14_19 
REMARK    6  A    between atoms: C14_19  and  N3_20 
ROOT
HETATM    1  N1  UNL     1      -0.435   0.102  -0.642  1.00  0.00    -0.406 N 
HETATM    2  C9  UNL     1       0.146   1.348  -0.382  1.00  0.00     0.132 C 
HETATM    3  C10 UNL     1       1.527   1.117   0.241  1.00  0.00     0.127 C 
HETATM    4  N2  UNL     1       1.512  -0.040   1.099  1.00  0.00    -0.202 NA
HETATM    5  C16 UNL     1       1.257  -1.256   0.399  1.00  0.00     0.127 C 
HETATM    6  C17 UNL     1       0.389  -1.034  -0.795  1.00  0.00     0.132 C 
ENDROOT
BRANCH   4   7
HETATM    7  S1  UNL     1       2.897  -0.151   2.084  1.00  0.00     0.259 S 
HETATM    8  O1  UNL     1       2.769  -1.278   3.062  1.00  0.00    -0.204 OA
HETATM    9  O2  UNL     1       2.956   1.125   2.912  1.00  0.00    -0.204 OA
BRANCH   7  10
HETATM   10  C11 UNL     1       4.357  -0.297   1.129  1.00  0.00     0.144 A 
HETATM   11  C12 UNL     1       5.144   0.752   0.664  1.00  0.00     0.053 A 
HETATM   12  C13 UNL     1       6.216   0.247  -0.054  1.00  0.00    -0.015 A 
HETATM   13  C15 UNL     1       6.064  -1.127  -0.015  1.00  0.00     0.097 A 
HETATM   14  N4  UNL     1       4.952  -1.426   0.693  1.00  0.00    -0.355 N 
ATOM     15  H4  UNL     1       4.612  -2.371   0.872  1.00  0.00     0.166 HD
BRANCH  12  16
HETATM   16  C14 UNL     1       7.281   1.059  -0.708  1.00  0.00     0.269 C 
BRANCH  16  17
HETATM   17  N3  UNL     1       8.230   0.199  -1.350  1.00  0.00    -0.075 N 
ATOM     18  H33 UNL     1       8.617  -0.491  -0.706  1.00  0.00     0.274 HD
ATOM     19  H32 UNL     1       7.782  -0.442  -2.005  1.00  0.00     0.274 HD
ATOM     20  H31 UNL     1       8.959   0.755  -1.798  1.00  0.00     0.274 HD
ENDBRANCH  16  17
ENDBRANCH  12  16
ENDBRANCH   7  10
ENDBRANCH   4   7
BRANCH   1  21
HETATM   21  C8  UNL     1      -1.748  -0.171  -0.229  1.00  0.00     0.079 C 
HETATM   22  C7  UNL     1      -2.030  -0.140   1.238  1.00  0.00     0.025 C 
HETATM   23  C6  UNL     1      -3.465   0.287   1.368  1.00  0.00     0.007 C 
HETATM   24  C5  UNL     1      -3.962   0.753   0.046  1.00  0.00    -0.005 C 
HETATM   25  C18 UNL     1      -2.807   0.703  -0.887  1.00  0.00     0.030 C 
BRANCH  24  26
HETATM   26  C2  UNL     1      -5.175  -0.005  -0.434  1.00  0.00    -0.048 C 
HETATM   27  C1  UNL     1      -6.291   0.175   0.576  1.00  0.00     0.015 C 
HETATM   28  C3  UNL     1      -5.658   0.530  -1.748  1.00  0.00     0.015 C 
HETATM   29  C4  UNL     1      -4.927  -1.478  -0.580  1.00  0.00     0.015 C 
ENDBRANCH  24  26
ENDBRANCH   1  21
TORSDOF 6
