REMARK  8 active torsions:
REMARK  status: ('A' for Active; 'I' for Inactive)
REMARK    1  A    between atoms: C2_2  and  C3_3 
REMARK    2  A    between atoms: C3_3  and  O1_4 
REMARK    3  A    between atoms: C3_3  and  C4_6 
REMARK    4  A    between atoms: C5_11  and  S1_12 
REMARK    5  A    between atoms: S1_12  and  C6_13 
REMARK    6  A    between atoms: C6_13  and  N3_15 
REMARK    7  A    between atoms: C9_18  and  N4_19 
REMARK    8  A    between atoms: N4_19  and  N5_20 
ROOT
HETATM    1  C4  UNL     1      -2.010  -0.436   0.062  1.00  0.00     0.123 A 
HETATM    2  N1  UNL     1      -1.579  -1.156   1.100  1.00  0.00    -0.294 N 
ATOM      3  H1  UNL     1      -2.162  -1.772   1.666  1.00  0.00     0.187 HD
HETATM    4  N2  UNL     1      -0.276  -0.953   1.289  1.00  0.00    -0.290 N 
ATOM      5  H2  UNL     1       0.290  -1.390   2.016  1.00  0.00     0.187 HD
HETATM    6  C5  UNL     1       0.175  -0.084   0.374  1.00  0.00     0.137 A 
HETATM    7  C9  UNL     1      -0.920   0.249  -0.410  1.00  0.00     0.196 A 
ENDROOT
BRANCH   6   8
HETATM    8  S1  UNL     1       1.780   0.589   0.043  1.00  0.00    -0.038 SA
BRANCH   8   9
HETATM    9  C6  UNL     1       3.124  -0.502   0.304  1.00  0.00     0.142 C 
HETATM   10  S2  UNL     1       2.951  -2.040   0.737  1.00  0.00    -0.052 SA
BRANCH   9  11
HETATM   11  N3  UNL     1       4.454   0.017   0.096  1.00  0.00    -0.375 N 
HETATM   12  C7  UNL     1       4.615   1.413  -0.305  1.00  0.00     0.150 C 
HETATM   13  C8  UNL     1       5.608  -0.828   0.254  1.00  0.00     0.150 C 
ENDBRANCH   9  11
ENDBRANCH   8   9
ENDBRANCH   6   8
BRANCH   7  14
HETATM   14  N4  UNL     1      -0.928   1.118  -1.450  1.00  0.00    -0.328 NA
BRANCH  14  15
HETATM   15  N5  UNL     1      -0.964   1.836  -2.324  1.00  0.00    -0.280 N 
ATOM     16  H52 UNL     1      -1.738   1.249  -2.012  1.00  0.00     0.191 HD
ATOM     17  H51 UNL     1      -0.970   2.490  -3.107  1.00  0.00     0.191 HD
ENDBRANCH  14  15
ENDBRANCH   7  14
BRANCH   1  18
HETATM   18  C3  UNL     1      -3.345  -0.424  -0.550  1.00  0.00     0.074 C 
BRANCH  18  19
HETATM   19  C2  UNL     1      -4.488  -0.719   0.397  1.00  0.00     0.062 C 
HETATM   20  C1  UNL     1      -4.898   0.529   1.158  1.00  0.00     0.012 C 
ENDBRANCH  18  19
BRANCH  18  21
HETATM   21  O1  UNL     1      -3.578   0.535  -1.493  1.00  0.00    -0.362 OA
ATOM     22  H1  UNL     1      -2.860   0.720  -2.087  1.00  0.00     0.217 HD
ENDBRANCH  18  21
ENDBRANCH   1  18
TORSDOF 8
