REMARK  4 active torsions:
REMARK  status: ('A' for Active; 'I' for Inactive)
REMARK    1  A    between atoms: C2_2  and  N1_3 
REMARK    2  A    between atoms: C3_4  and  C4_5 
REMARK    3  A    between atoms: C6_9  and  N3_10 
REMARK    4  A    between atoms: C9_19  and  C10_20 
ROOT
HETATM    1  N1  UNL     1      -0.469   0.971   0.075  1.00  0.00    -0.321 N 
HETATM    2  C3  UNL     1       0.349  -0.032  -0.104  1.00  0.00     0.122 A 
HETATM    3  N5  UNL     1      -0.444  -1.097  -0.425  1.00  0.00    -0.339 N 
ATOM      4  H5  UNL     1      -0.094  -2.033  -0.628  1.00  0.00     0.167 HD
HETATM    5  C9  UNL     1      -1.741  -0.755  -0.439  1.00  0.00     0.074 A 
HETATM    6  C13 UNL     1      -1.780   0.575  -0.121  1.00  0.00     0.134 A 
HETATM    7 CL1  UNL     1      -3.239   1.507  -0.002  1.00  0.00    -0.062 Cl
ENDROOT
BRANCH   2   8
HETATM    8  C4  UNL     1       1.775  -0.230   0.130  1.00  0.00     0.047 A 
HETATM    9  C5  UNL     1       2.116  -1.185   1.157  1.00  0.00     0.123 A 
HETATM   10  N2  UNL     1       3.394  -1.426   1.331  1.00  0.00    -0.201 N 
HETATM   11  C6  UNL     1       4.368  -0.840   0.626  1.00  0.00     0.675 A 
ATOM     12  H2  UNL     1       3.661  -2.101   2.047  1.00  0.00     0.183 HD
HETATM   13  N4  UNL     1       4.071   0.057  -0.339  1.00  0.00    -0.195 N 
HETATM   14  C7  UNL     1       2.763   0.361  -0.587  1.00  0.00     0.038 A 
ATOM     15  H4  UNL     1       4.815   0.502  -0.876  1.00  0.00     0.184 HD
HETATM   16  C8  UNL     1       2.477   1.321  -1.722  1.00  0.00     0.070 C 
BRANCH  11  17
HETATM   17  N3  UNL     1       5.612  -1.117   0.827  1.00  0.00    -0.234 N 
ATOM     18  H32 UNL     1       5.836  -1.794   1.556  1.00  0.00     0.174 HD
ATOM     19  H31 UNL     1       6.355  -0.670   0.289  1.00  0.00     0.174 HD
ENDBRANCH  11  17
ENDBRANCH   2   8
BRANCH   1  20
HETATM   20  C2  UNL     1      -0.232   2.349   0.470  1.00  0.00     0.127 C 
HETATM   21  C1  UNL     1      -0.510   2.527   1.967  1.00  0.00     0.027 C 
ENDBRANCH   1  20
BRANCH   5  22
HETATM   22  C10 UNL     1      -2.927  -1.668  -0.570  1.00  0.00    -0.058 C 
HETATM   23  C11 UNL     1      -3.423  -1.828  -1.956  1.00  0.00     0.045 C 
HETATM   24  C12 UNL     1      -3.923  -1.570   0.538  1.00  0.00     0.045 C 
ENDBRANCH   5  22
TORSDOF 4
