REMARK  3 active torsions:
REMARK  status: ('A' for Active; 'I' for Inactive)
REMARK    1  A    between atoms: C3_4  and  N1_5 
REMARK    2  A    between atoms: N1_5  and  C4_7 
REMARK    3  A    between atoms: C4_7  and  C5_8 
ROOT
HETATM    1  C1  UNL     1       4.648  -1.045   0.584  1.00  0.00     0.057 C 
HETATM    2  C2  UNL     1       3.181  -0.769   0.268  1.00  0.00    -0.012 A 
HETATM    3  S1  UNL     1       1.890  -1.825   0.195  1.00  0.00    -0.075 SA
HETATM    4  C3  UNL     1       0.615  -0.723  -0.251  1.00  0.00     0.095 A 
HETATM    5  C8  UNL     1       1.274   0.460  -0.317  1.00  0.00     0.085 A 
HETATM    6  C9  UNL     1       0.540   1.738  -0.520  1.00  0.00     0.103 C 
HETATM    7  N4  UNL     1      -0.029   2.762  -0.630  1.00  0.00    -0.191 NA
HETATM    8  C10 UNL     1       2.635   0.437  -0.047  1.00  0.00    -0.026 A 
HETATM    9  C11 UNL     1       3.511   1.656  -0.242  1.00  0.00     0.051 C 
ENDROOT
BRANCH   4  10
HETATM   10  N1  UNL     1      -0.710  -1.149  -0.476  1.00  0.00    -0.357 N 
ATOM     11  H1  UNL     1      -0.884  -2.066  -0.064  1.00  0.00     0.166 HD
BRANCH  10  12
HETATM   12  C4  UNL     1      -1.851  -0.648  -1.115  1.00  0.00     0.121 C 
BRANCH  12  13
HETATM   13  C5  UNL     1      -2.918  -0.282  -0.147  1.00  0.00     0.090 A 
HETATM   14  N2  UNL     1      -3.098   0.842   0.542  1.00  0.00    -0.295 N 
HETATM   15  N3  UNL     1      -4.329   0.789   1.095  1.00  0.00    -0.265 N 
ATOM     16  H2  UNL     1      -2.428   1.605   0.636  1.00  0.00     0.187 HD
HETATM   17  C6  UNL     1      -4.936  -0.353   0.770  1.00  0.00     0.283 A 
ATOM     18  H3  UNL     1      -4.737   1.519   1.679  1.00  0.00     0.190 HD
HETATM   19  O1  UNL     1      -6.098  -0.753   1.105  1.00  0.00    -0.265 OA
HETATM   20  C7  UNL     1      -4.080  -1.065  -0.015  1.00  0.00     0.132 A 
HETATM   21 CL1  UNL     1      -4.207  -2.671  -0.697  1.00  0.00    -0.076 Cl
ENDBRANCH  12  13
ENDBRANCH  10  12
ENDBRANCH   4  10
TORSDOF 3
