REMARK  3 active torsions:
REMARK  status: ('A' for Active; 'I' for Inactive)
REMARK    1  A    between atoms: C2_2  and  C4_4 
REMARK    2  A    between atoms: C4_4  and  N1_5 
REMARK       I    between atoms: N1_5  and  C5_7 
REMARK       I    between atoms: C5_7  and  N2_9 
REMARK    3  A    between atoms: N2_9  and  C6_11 
ROOT
HETATM    1  C6  UNL     1       2.783  -0.404   0.141  1.00  0.00     0.104 A 
HETATM    2  S1  UNL     1       3.215   0.735   1.337  1.00  0.00    -0.049 SA
HETATM    3  C7  UNL     1       4.877   0.380   1.469  1.00  0.00     0.130 A 
HETATM    4  N3  UNL     1       6.067   0.677   2.083  1.00  0.00    -0.233 N 
ATOM      5  H3  UNL     1       6.241   1.384   2.798  1.00  0.00     0.197 HD
HETATM    6  O2  UNL     1       6.915  -0.135   1.556  1.00  0.00    -0.155 OA
HETATM    7  N4  UNL     1       6.380  -0.912   0.672  1.00  0.00    -0.237 N 
ATOM      8  H4  UNL     1       6.874  -1.626   0.137  1.00  0.00     0.197 HD
HETATM    9  C8  UNL     1       5.046  -0.626   0.568  1.00  0.00     0.117 A 
HETATM   10  C9  UNL     1       3.964  -1.038  -0.125  1.00  0.00     0.099 A 
HETATM   11 CL1  UNL     1       3.988  -2.341  -1.346  1.00  0.00    -0.079 Cl
ENDROOT
BRANCH   1  12
HETATM   12  N2  UNL     1       1.480  -0.626  -0.434  1.00  0.00    -0.301 N 
HETATM   13  C5  UNL     1       0.407   0.198   0.042  1.00  0.00     0.321 C 
HETATM   14  N1  UNL     1      -0.887   0.014  -0.496  1.00  0.00    -0.343 N 
HETATM   15  O1  UNL     1       0.593   1.066   0.912  1.00  0.00    -0.247 OA
ATOM     16  H1  UNL     1      -1.042  -0.697  -1.211  1.00  0.00     0.164 HD
ATOM     17  H2  UNL     1       1.328  -1.338  -1.148  1.00  0.00     0.171 HD
BRANCH  14  18
HETATM   18  C4  UNL     1      -1.998   0.830  -0.038  1.00  0.00     0.128 C 
BRANCH  18  19
HETATM   19  C2  UNL     1      -3.253   0.434  -0.763  1.00  0.00    -0.005 C 
HETATM   20  C1  UNL     1      -3.547  -1.018  -0.484  1.00  0.00     0.011 C 
HETATM   21  C3  UNL     1      -4.387   1.294  -0.291  1.00  0.00     0.011 C 
ENDBRANCH  18  19
ENDBRANCH  14  18
ENDBRANCH   1  12
TORSDOF 3
