REMARK  2 active torsions:
REMARK  status: ('A' for Active; 'I' for Inactive)
REMARK       I    between atoms: C2_4  and  N2_5 
REMARK       I    between atoms: C2_4  and  N6_16 
REMARK    1  A    between atoms: N2_5  and  C3_7 
REMARK    2  A    between atoms: N6_16  and  C6_18 
ROOT
HETATM    1  C1  UNL     1       1.645   1.546  -2.149  1.00  0.00     0.165 C 
HETATM    2  N1  UNL     1       1.958   1.112  -0.823  1.00  0.00    -0.230 N 
ATOM      3  H1  UNL     1       2.771   1.534  -0.375  1.00  0.00     0.177 HD
HETATM    4  C2  UNL     1       1.305   0.239  -0.149  1.00  0.00     0.688 C 
HETATM    5  N2  UNL     1       1.778  -0.063   1.170  1.00  0.00    -0.021 N 
ATOM      6  H2  UNL     1       1.139  -0.068   1.965  1.00  0.00     0.203 HD
HETATM    7  N6  UNL     1       0.158  -0.445  -0.605  1.00  0.00    -0.213 N 
ATOM      8  H6  UNL     1       0.178  -0.964  -1.483  1.00  0.00     0.178 HD
ENDROOT
BRANCH   5   9
HETATM    9  C3  UNL     1       3.033  -0.329   1.329  1.00  0.00     0.712 A 
HETATM   10  N3  UNL     1       4.001  -0.362   0.375  1.00  0.00    -0.178 N 
HETATM   11  C4  UNL     1       5.178  -0.678   0.939  1.00  0.00     0.108 A 
ATOM     12  H3  UNL     1       3.856  -0.175  -0.617  1.00  0.00     0.185 HD
HETATM   13  C5  UNL     1       6.496  -0.823   0.269  1.00  0.00     0.091 C 
HETATM   14  N4  UNL     1       4.931  -0.841   2.252  1.00  0.00    -0.275 N 
HETATM   15  N5  UNL     1       3.628  -0.628   2.484  1.00  0.00    -0.130 N 
ATOM     16  H4  UNL     1       5.625  -1.087   2.958  1.00  0.00     0.189 HD
ATOM     17  H5  UNL     1       3.168  -0.685   3.393  1.00  0.00     0.205 HD
ENDBRANCH   5   9
BRANCH   7  18
HETATM   18  C6  UNL     1      -1.043  -0.397   0.191  1.00  0.00     0.207 C 
HETATM   19  C7  UNL     1      -1.447   1.065   0.310  1.00  0.00     0.034 C 
HETATM   20  C8  UNL     1      -2.113   1.423  -1.019  1.00  0.00     0.036 C 
HETATM   21  C12 UNL     1      -2.542   1.208   1.366  1.00  0.00     0.090 C 
HETATM   22  C9  UNL     1      -3.419   0.674  -1.149  1.00  0.00     0.245 C 
HETATM   23  N7  UNL     1      -3.402  -0.435  -0.229  1.00  0.00    -0.002 N 
HETATM   24  C10 UNL     1      -4.502  -1.358  -0.441  1.00  0.00     0.280 C 
HETATM   25  C11 UNL     1      -3.495   0.048   1.140  1.00  0.00     0.260 C 
HETATM   26  C13 UNL     1      -2.171  -1.182  -0.422  1.00  0.00     0.428 C 
HETATM   27  F1  UNL     1      -2.262  -2.399   0.229  1.00  0.00    -0.172 F 
HETATM   28  F2  UNL     1      -1.983  -1.421  -1.755  1.00  0.00    -0.172 F 
HETATM   29 BR1  UNL     1      -1.823   1.229   3.143  1.00  0.00    -0.089 Br
ENDBRANCH   7  18
TORSDOF 2
