REMARK  1 active torsions:
REMARK  status: ('A' for Active; 'I' for Inactive)
REMARK    1  A    between atoms: C1_2  and  C2_4 
REMARK       I    between atoms: N2_10  and  C8_11 
REMARK       I    between atoms: C8_11  and  N3_13 
REMARK       I    between atoms: N4_16  and  C9_17 
REMARK       I    between atoms: C9_17  and  N5_19 
ROOT
HETATM    1  C2  UNL     1      -2.938  -0.288  -0.346  1.00  0.00     0.201 C 
HETATM    2  C3  UNL     1      -1.543   0.077  -0.733  1.00  0.00     0.121 C 
HETATM    3  C4  UNL     1      -1.624   0.995  -1.950  1.00  0.00     0.030 C 
HETATM    4  C5  UNL     1      -2.069   2.287  -1.301  1.00  0.00     0.029 C 
HETATM    5  C6  UNL     1      -1.725   2.169   0.171  1.00  0.00     0.107 C 
HETATM    6  C7  UNL     1      -2.951   1.824   0.995  1.00  0.00     0.154 C 
HETATM    7  N2  UNL     1      -3.660   0.732   0.366  1.00  0.00    -0.315 N 
HETATM    8  C8  UNL     1      -5.074   0.665   0.453  1.00  0.00     0.346 C 
HETATM    9  O2  UNL     1      -5.684   1.591   1.089  1.00  0.00    -0.245 OA
HETATM   10  N3  UNL     1      -5.858  -0.356  -0.114  1.00  0.00    -0.173 N 
ATOM     11  H3  UNL     1      -5.397  -1.108  -0.627  1.00  0.00     0.204 HD
HETATM   12  F1  UNL     1      -7.197  -0.370   0.000  1.00  0.00    -0.097 F 
HETATM   13  N4  UNL     1      -0.897   0.960   0.219  1.00  0.00    -0.320 N 
HETATM   14  C9  UNL     1       0.248   0.746   1.017  1.00  0.00     0.337 C 
HETATM   15  O3  UNL     1       0.633   1.663   1.781  1.00  0.00    -0.246 OA
HETATM   16  N5  UNL     1       0.974  -0.450   0.991  1.00  0.00    -0.141 N 
ATOM     17  H5  UNL     1       0.499  -1.338   1.154  1.00  0.00     0.189 HD
HETATM   18  C10 UNL     1       2.237  -0.432   0.762  1.00  0.00     0.686 A 
HETATM   19  N6  UNL     1       2.975  -1.578   0.729  1.00  0.00    -0.193 N 
ATOM     20  H6  UNL     1       2.627  -2.526   0.875  1.00  0.00     0.184 HD
HETATM   21  C11 UNL     1       4.247  -1.228   0.469  1.00  0.00     0.049 A 
HETATM   22  C12 UNL     1       4.332   0.139   0.333  1.00  0.00     0.049 A 
HETATM   23  N7  UNL     1       3.072   0.588   0.521  1.00  0.00    -0.193 N 
ATOM     24  H7  UNL     1       2.794   1.569   0.485  1.00  0.00     0.184 HD
HETATM   25  C13 UNL     1       5.738   0.495   0.048  1.00  0.00     0.060 C 
HETATM   26  C14 UNL     1       6.300  -0.775  -0.547  1.00  0.00     0.012 C 
HETATM   27  C15 UNL     1       5.596  -1.841   0.279  1.00  0.00     0.060 C 
ENDROOT
BRANCH   1  28
HETATM   28  C1  UNL     1      -2.933  -1.567   0.422  1.00  0.00     0.256 C 
HETATM   29  N1  UNL     1      -2.288  -2.735  -0.062  1.00  0.00    -0.060 NA
HETATM   30  O1  UNL     1      -3.517  -1.591   1.518  1.00  0.00    -0.274 OA
ENDBRANCH   1  28
TORSDOF 1
