REMARK  6 active torsions:
REMARK  status: ('A' for Active; 'I' for Inactive)
REMARK    1  A    between atoms: C1_4  and  C2_5 
REMARK    2  A    between atoms: C1_4  and  N2_13 
REMARK    3  A    between atoms: C2_5  and  S1_6 
REMARK    4  A    between atoms: S1_6  and  C3_7 
REMARK    5  A    between atoms: C3_7  and  C4_8 
REMARK    6  A    between atoms: N2_13  and  C9_15 
ROOT
HETATM    1  F1  UNL     1      -2.253   1.504  -3.167  1.00  0.00    -0.100 F 
HETATM    2  N1  UNL     1      -2.711   0.657  -2.232  1.00  0.00    -0.212 N 
ATOM      3  H1  UNL     1      -3.709   0.460  -2.160  1.00  0.00     0.201 HD
HETATM    4  C1  UNL     1      -1.881   0.097  -1.429  1.00  0.00     0.112 C 
ENDROOT
BRANCH   4   5
HETATM    5  C2  UNL     1      -0.436   0.418  -1.579  1.00  0.00     0.151 C 
BRANCH   5   6
HETATM    6  S1  UNL     1       0.241   1.160  -0.077  1.00  0.00    -0.161 SA
BRANCH   6   7
HETATM    7  C3  UNL     1       1.981   1.516  -0.337  1.00  0.00     0.078 C 
BRANCH   7   8
HETATM    8  C4  UNL     1       2.824   0.275  -0.510  1.00  0.00    -0.005 C 
HETATM    9  C5  UNL     1       2.774  -0.641   0.679  1.00  0.00     0.005 C 
HETATM   10  C6  UNL     1       4.183  -0.694   1.246  1.00  0.00     0.000 C 
HETATM   11  C7  UNL     1       4.700   0.685   0.865  1.00  0.00     0.000 C 
HETATM   12  C8  UNL     1       4.277   0.762  -0.594  1.00  0.00     0.005 C 
ENDBRANCH   7   8
ENDBRANCH   6   7
ENDBRANCH   5   6
ENDBRANCH   4   5
BRANCH   4  13
HETATM   13  N2  UNL     1      -2.330  -0.808  -0.423  1.00  0.00    -0.373 N 
ATOM     14  H2  UNL     1      -1.648  -1.373   0.084  1.00  0.00     0.161 HD
BRANCH  13  15
HETATM   15  C9  UNL     1      -3.715  -0.937  -0.113  1.00  0.00     0.082 C 
HETATM   16  C10 UNL     1      -4.388   0.351   0.373  1.00  0.00     0.025 C 
HETATM   17  C11 UNL     1      -5.205  -0.537   1.312  1.00  0.00     0.004 C 
HETATM   18  C12 UNL     1      -4.044  -1.536   1.228  1.00  0.00     0.025 C 
ENDBRANCH  13  15
ENDBRANCH   4  13
TORSDOF 6
