REMARK  6 active torsions:
REMARK  status: ('A' for Active; 'I' for Inactive)
REMARK    1  A    between atoms: C2_2  and  O1_3 
REMARK    2  A    between atoms: C2_2  and  C11_17 
REMARK    3  A    between atoms: O1_3  and  C3_4 
REMARK    4  A    between atoms: C3_4  and  C4_5 
REMARK    5  A    between atoms: C7_8  and  C8_9 
REMARK    6  A    between atoms: C8_9  and  N1_10 
ROOT
HETATM    1  C4  UNL     1      -0.997  -0.580   0.055  1.00  0.00     0.012 C 
HETATM    2  C5  UNL     1      -1.725   0.398  -0.827  1.00  0.00     0.007 C 
HETATM    3  C6  UNL     1      -2.958  -0.213  -1.455  1.00  0.00     0.009 C 
HETATM    4  C7  UNL     1      -3.958  -0.574  -0.376  1.00  0.00     0.045 C 
HETATM    5  C9  UNL     1      -3.249  -1.208   0.747  1.00  0.00     0.176 C 
HETATM    6  F1  UNL     1      -2.936  -0.385   1.795  1.00  0.00    -0.249 F 
HETATM    7  C10 UNL     1      -1.929  -1.776   0.239  1.00  0.00     0.044 C 
ENDROOT
BRANCH   1   8
HETATM    8  C3  UNL     1       0.295  -1.058  -0.522  1.00  0.00     0.172 C 
BRANCH   8   9
HETATM    9  O1  UNL     1       1.225  -0.089  -0.774  1.00  0.00    -0.386 OA
BRANCH   9  10
HETATM   10  C2  UNL     1       1.652   0.647   0.295  1.00  0.00     0.121 C 
HETATM   11  C1  UNL     1       1.334   2.131   0.174  1.00  0.00     0.040 C 
BRANCH  10  12
HETATM   12  C11 UNL     1       3.131   0.531   0.563  1.00  0.00     0.014 C 
HETATM   13  C12 UNL     1       3.582  -0.902   0.704  1.00  0.00     0.007 C 
HETATM   14  C13 UNL     1       5.088  -0.749   0.653  1.00  0.00     0.000 C 
HETATM   15  C14 UNL     1       5.359   0.499  -0.169  1.00  0.00     0.000 C 
HETATM   16  C15 UNL     1       3.987   1.034  -0.553  1.00  0.00     0.007 C 
ENDBRANCH  10  12
ENDBRANCH   9  10
ENDBRANCH   8   9
ENDBRANCH   1   8
BRANCH   4  17
HETATM   17  C8  UNL     1      -4.824   0.597  -0.038  1.00  0.00     0.237 C 
BRANCH  17  18
HETATM   18  N1  UNL     1      -5.799   0.372   0.963  1.00  0.00    -0.079 N 
ATOM     19  H13 UNL     1      -6.379  -0.428   0.710  1.00  0.00     0.274 HD
ATOM     20  H12 UNL     1      -5.354   0.014   1.808  1.00  0.00     0.274 HD
ATOM     21  H11 UNL     1      -6.390   1.171   1.194  1.00  0.00     0.274 HD
ENDBRANCH  17  18
ENDBRANCH   4  17
TORSDOF 6
