REMARK  6 active torsions:
REMARK  status: ('A' for Active; 'I' for Inactive)
REMARK    1  A    between atoms: C5_6  and  O1_7 
REMARK    2  A    between atoms: O1_7  and  C6_8 
REMARK    3  A    between atoms: C6_8  and  C7_9 
REMARK    4  A    between atoms: C7_9  and  C8_10 
REMARK    5  A    between atoms: C8_10  and  C9_11 
REMARK    6  A    between atoms: C9_11  and  N1_12 
ROOT
HETATM    1  C7  UNL     1      -1.206  -0.444  -0.216  1.00  0.00    -0.017 C 
HETATM    2  C10 UNL     1      -2.542  -1.166  -0.471  1.00  0.00     0.012 C 
HETATM    3  C11 UNL     1      -2.934  -1.680   0.872  1.00  0.00     0.001 C 
HETATM    4  C12 UNL     1      -2.152  -0.920   1.914  1.00  0.00     0.001 C 
HETATM    5  C13 UNL     1      -0.835  -0.731   1.174  1.00  0.00     0.012 C 
ENDROOT
BRANCH   1   6
HETATM    6  C6  UNL     1      -0.257  -1.047  -1.214  1.00  0.00     0.177 C 
BRANCH   6   7
HETATM    7  O1  UNL     1       0.963  -0.554  -1.294  1.00  0.00    -0.385 OA
BRANCH   7   8
HETATM    8  C5  UNL     1       1.899  -0.577  -0.359  1.00  0.00     0.128 C 
HETATM    9  C2  UNL     1       2.646   0.751  -0.253  1.00  0.00     0.029 C 
HETATM   10  C1  UNL     1       3.402   0.927   1.038  1.00  0.00     0.014 C 
HETATM   11  C3  UNL     1       3.555   0.230  -1.359  1.00  0.00     0.091 C 
HETATM   12 CL1  UNL     1       5.263   0.588  -1.049  1.00  0.00    -0.124 Cl
HETATM   13  C4  UNL     1       3.203  -1.191  -0.967  1.00  0.00     0.053 C 
ENDBRANCH   7   8
ENDBRANCH   6   7
ENDBRANCH   1   6
BRANCH   1  14
HETATM   14  C8  UNL     1      -1.343   1.009  -0.531  1.00  0.00     0.039 C 
BRANCH  14  15
HETATM   15  C9  UNL     1      -2.232   1.812   0.346  1.00  0.00     0.230 C 
BRANCH  15  16
HETATM   16  N1  UNL     1      -2.221   3.182  -0.195  1.00  0.00    -0.079 N 
ATOM     17  H13 UNL     1      -1.283   3.573  -0.288  1.00  0.00     0.274 HD
ATOM     18  H12 UNL     1      -2.475   3.230  -1.182  1.00  0.00     0.274 HD
ATOM     19  H11 UNL     1      -2.832   3.734   0.408  1.00  0.00     0.274 HD
ENDBRANCH  15  16
ENDBRANCH  14  15
ENDBRANCH   1  14
TORSDOF 6
