REMARK  6 active torsions:
REMARK  status: ('A' for Active; 'I' for Inactive)
REMARK    1  A    between atoms: C2_2  and  O1_3 
REMARK    2  A    between atoms: C2_2  and  C3_6 
REMARK    3  A    between atoms: C3_6  and  C4_7 
REMARK    4  A    between atoms: C4_7  and  C5_8 
REMARK    5  A    between atoms: C5_8  and  C6_9 
REMARK    6  A    between atoms: C6_9  and  N1_10 
ROOT
HETATM    1  C6  UNL     1      -0.309  -1.317  -0.440  1.00  0.00     0.273 C 
ENDROOT
BRANCH   1   2
HETATM    2  C5  UNL     1       1.026  -0.974  -0.938  1.00  0.00     0.030 C 
BRANCH   2   3
HETATM    3  C4  UNL     1       1.990  -0.486   0.158  1.00  0.00     0.006 C 
BRANCH   3   4
HETATM    4  C3  UNL     1       3.280  -0.207  -0.584  1.00  0.00     0.054 C 
BRANCH   4   5
HETATM    5  C2  UNL     1       4.392   0.293   0.266  1.00  0.00     0.131 C 
HETATM    6  C1  UNL     1       3.970   1.592   0.913  1.00  0.00     0.064 C 
HETATM    7 CL1  UNL     1       5.818   0.603  -0.759  1.00  0.00    -0.089 Cl
BRANCH   5   8
HETATM    8  O1  UNL     1       4.747  -0.669   1.200  1.00  0.00    -0.375 OA
ATOM      9  H1  UNL     1       5.012  -1.486   0.793  1.00  0.00     0.212 HD
ENDBRANCH   5   8
ENDBRANCH   4   5
ENDBRANCH   3   4
ENDBRANCH   2   3
ENDBRANCH   1   2
BRANCH   1  10
HETATM   10  N1  UNL     1      -1.082  -0.340   0.203  1.00  0.00     0.097 N 
HETATM   11  C7  UNL     1      -1.567   0.748  -0.572  1.00  0.00     0.223 C 
HETATM   12  C8  UNL     1      -2.340   1.714   0.281  1.00  0.00     0.036 C 
HETATM   13  C13 UNL     1      -2.483   0.084  -1.568  1.00  0.00     0.038 C 
HETATM   14  C9  UNL     1      -3.447   1.099   1.064  1.00  0.00     0.004 C 
HETATM   15  C10 UNL     1      -3.104  -0.265   1.616  1.00  0.00     0.036 C 
HETATM   16  C11 UNL     1      -2.340  -1.005   0.584  1.00  0.00     0.223 C 
HETATM   17  C12 UNL     1      -3.081  -1.034  -0.720  1.00  0.00     0.038 C 
ENDBRANCH   1  10
TORSDOF 6
