REMARK  9 active torsions:
REMARK  status: ('A' for Active; 'I' for Inactive)
REMARK    1  A    between atoms: N1_2  and  C3_4 
REMARK    2  A    between atoms: C3_4  and  C4_5 
REMARK    3  A    between atoms: C4_5  and  O1_6 
REMARK    4  A    between atoms: O1_6  and  N2_7 
REMARK    5  A    between atoms: C5_9  and  C6_10 
REMARK    6  A    between atoms: C5_9  and  C13_28 
REMARK    7  A    between atoms: C7_13  and  N4_14 
REMARK    8  A    between atoms: C8_19  and  N6_20 
REMARK    9  A    between atoms: N6_20  and  C9_22 
ROOT
HETATM    1  C6  UNL     1      -0.211   0.945  -0.091  1.00  0.00     0.161 A 
HETATM    2  N3  UNL     1       0.150  -0.253   0.420  1.00  0.00    -0.174 N 
ATOM      3  H3  UNL     1       1.144  -0.450   0.536  1.00  0.00     0.186 HD
HETATM    4  C7  UNL     1      -0.727  -1.189   0.780  1.00  0.00     0.692 A 
HETATM    5  N5  UNL     1      -2.045  -0.964   0.641  1.00  0.00    -0.023 N 
ATOM      6  H5  UNL     1      -2.723  -1.675   0.915  1.00  0.00     0.203 HD
HETATM    7  C8  UNL     1      -2.455   0.205   0.139  1.00  0.00     0.695 A 
HETATM    8  N7  UNL     1      -1.527   1.138  -0.217  1.00  0.00    -0.174 N 
ATOM      9  H7  UNL     1      -1.853   2.026  -0.598  1.00  0.00     0.186 HD
ENDROOT
BRANCH   1  10
HETATM   10  C5  UNL     1       0.776   1.943  -0.468  1.00  0.00     0.081 C 
HETATM   11  N2  UNL     1       2.015   1.706  -0.304  1.00  0.00    -0.267 N 
ATOM     12  H2  UNL     1       2.700   2.412  -0.572  1.00  0.00     0.194 HD
BRANCH  11  13
HETATM   13  O1  UNL     1       2.441   0.526   0.223  1.00  0.00    -0.278 OA
BRANCH  13  14
HETATM   14  C4  UNL     1       3.757   0.027   0.048  1.00  0.00     0.231 C 
BRANCH  14  15
HETATM   15  C3  UNL     1       3.940  -1.301   0.744  1.00  0.00     0.299 C 
BRANCH  15  16
HETATM   16  N1  UNL     1       5.284  -1.763   0.538  1.00  0.00     0.082 N 
HETATM   17  C1  UNL     1       5.564  -3.020   1.159  1.00  0.00     0.309 C 
HETATM   18  C2  UNL     1       6.286  -0.783   0.843  1.00  0.00     0.309 C 
ENDBRANCH  15  16
ENDBRANCH  14  15
ENDBRANCH  13  14
ENDBRANCH  11  13
BRANCH  10  19
HETATM   19  C13 UNL     1       0.373   3.223  -1.046  1.00  0.00     0.041 A 
HETATM   20  C14 UNL     1      -0.358   3.395  -2.299  1.00  0.00     0.011 A 
HETATM   21  C15 UNL     1       1.106   3.674  -2.291  1.00  0.00     0.011 A 
ENDBRANCH  10  19
ENDBRANCH   1  10
BRANCH   4  22
HETATM   22  N4  UNL     1      -0.364  -2.330   1.268  1.00  0.00    -0.234 N 
ATOM     23  H42 UNL     1       0.636  -2.501   1.373  1.00  0.00     0.174 HD
ATOM     24  H41 UNL     1      -1.035  -3.047   1.544  1.00  0.00     0.174 HD
ENDBRANCH   4  22
BRANCH   7  25
HETATM   25  N6  UNL     1      -3.692   0.479  -0.018  1.00  0.00    -0.217 N 
ATOM     26  H6  UNL     1      -3.880   1.402  -0.409  1.00  0.00     0.178 HD
BRANCH  25  27
HETATM   27  C9  UNL     1      -4.844  -0.293   0.264  1.00  0.00     0.036 C 
HETATM   28  C10 UNL     1      -6.073   0.528  -0.129  1.00  0.00     0.038 C 
HETATM   29  C11 UNL     1      -4.939  -1.589  -0.516  1.00  0.00     0.038 C 
HETATM   30  C12 UNL     1      -4.996  -0.607   1.724  1.00  0.00     0.038 C 
ENDBRANCH  25  27
ENDBRANCH   7  25
TORSDOF 9
