REMARK  8 active torsions:
REMARK  status: ('A' for Active; 'I' for Inactive)
REMARK    1  A    between atoms: N1_1  and  C1_5 
REMARK    2  A    between atoms: C1_5  and  C2_6 
REMARK    3  A    between atoms: C2_6  and  C3_7 
REMARK    4  A    between atoms: C3_7  and  N2_8 
REMARK    5  A    between atoms: C6_11  and  C7_12 
REMARK    6  A    between atoms: C7_12  and  N3_13 
REMARK    7  A    between atoms: N3_13  and  C8_15 
REMARK    8  A    between atoms: C11_21  and  C12_22 
ROOT
HETATM    1  C8  UNL     1      -1.972  -0.141   0.036  1.00  0.00     0.682 A 
HETATM    2  N4  UNL     1      -1.407   0.835  -0.660  1.00  0.00    -0.199 N 
ATOM      3  H4  UNL     1      -0.411   1.015  -0.536  1.00  0.00     0.183 HD
HETATM    4  C9  UNL     1      -2.098   1.592  -1.519  1.00  0.00     0.150 A 
HETATM    5  C10 UNL     1      -3.459   1.372  -1.707  1.00  0.00     0.157 A 
HETATM    6  F1  UNL     1      -4.187   2.134  -2.542  1.00  0.00    -0.203 F 
HETATM    7  C11 UNL     1      -4.045   0.348  -0.971  1.00  0.00     0.097 A 
HETATM    8  N6  UNL     1      -3.303  -0.371  -0.136  1.00  0.00    -0.190 N 
ATOM      9  H6  UNL     1      -3.746  -1.121   0.395  1.00  0.00     0.184 HD
ENDROOT
BRANCH   1  10
HETATM   10  N3  UNL     1      -1.280  -0.804   0.899  1.00  0.00    -0.205 N 
ATOM     11  H3  UNL     1      -1.759  -1.547   1.407  1.00  0.00     0.183 HD
BRANCH  10  12
HETATM   12  C7  UNL     1       0.051  -0.597   1.195  1.00  0.00     0.083 C 
BRANCH  12  13
HETATM   13  C6  UNL     1       1.207  -1.316   0.638  1.00  0.00     0.028 C 
HETATM   14  C5  UNL     1       1.518  -1.270  -0.794  1.00  0.00     0.040 C 
HETATM   15  C4  UNL     1       3.060  -1.266  -0.955  1.00  0.00     0.273 C 
HETATM   16  N2  UNL     1       3.589   0.031  -0.515  1.00  0.00     0.088 N 
HETATM   17  C17 UNL     1       2.970   0.440   0.692  1.00  0.00     0.273 C 
HETATM   18  C16 UNL     1       2.448  -0.791   1.393  1.00  0.00     0.040 C 
BRANCH  16  19
HETATM   19  C3  UNL     1       5.019   0.060  -0.457  1.00  0.00     0.274 C 
BRANCH  19  20
HETATM   20  C2  UNL     1       5.517   1.399  -0.033  1.00  0.00     0.057 C 
BRANCH  20  21
HETATM   21  C1  UNL     1       7.050   1.466  -0.034  1.00  0.00     0.231 C 
BRANCH  21  22
HETATM   22  N1  UNL     1       7.568   0.496   0.872  1.00  0.00    -0.079 N 
ATOM     23  H13 UNL     1       7.178   0.597   1.809  1.00  0.00     0.274 HD
ATOM     24  H12 UNL     1       7.223  -0.443   0.671  1.00  0.00     0.274 HD
ATOM     25  H11 UNL     1       8.587   0.541   0.871  1.00  0.00     0.274 HD
ENDBRANCH  21  22
ENDBRANCH  20  21
ENDBRANCH  19  20
ENDBRANCH  16  19
ENDBRANCH  12  13
ENDBRANCH  10  12
ENDBRANCH   1  10
BRANCH   7  26
HETATM   26  C12 UNL     1      -5.504   0.113  -1.236  1.00  0.00     0.239 C 
HETATM   27  C13 UNL     1      -6.246   0.912  -0.175  1.00  0.00     0.041 C 
HETATM   28  C14 UNL     1      -7.339   0.036   0.343  1.00  0.00     0.030 C 
HETATM   29  C15 UNL     1      -6.913  -1.369  -0.072  1.00  0.00     0.233 C 
HETATM   30  N5  UNL     1      -5.727  -1.275  -0.859  1.00  0.00    -0.065 N 
ATOM     31  H52 UNL     1      -5.751  -1.895  -1.668  1.00  0.00     0.278 HD
ATOM     32  H51 UNL     1      -4.919  -1.681  -0.388  1.00  0.00     0.278 HD
ENDBRANCH   7  26
TORSDOF 8
