REMARK  7 active torsions:
REMARK  status: ('A' for Active; 'I' for Inactive)
REMARK    1  A    between atoms: N1_1  and  C1_4 
REMARK    2  A    between atoms: C2_7  and  N3_8 
REMARK    3  A    between atoms: N3_8  and  C3_9 
REMARK    4  A    between atoms: N3_8  and  C9_17 
REMARK    5  A    between atoms: C3_9  and  C4_10 
REMARK    6  A    between atoms: C4_10  and  N4_11 
REMARK    7  A    between atoms: C9_17  and  C10_18 
ROOT
HETATM    1  C1  UNL     1      -3.428  -1.719   1.290  1.00  0.00     0.680 A 
HETATM    2  N2  UNL     1      -2.579  -0.749   0.853  1.00  0.00    -0.175 N 
ATOM      3  H2  UNL     1      -2.618   0.186   1.259  1.00  0.00     0.186 HD
HETATM    4  C2  UNL     1      -1.697  -1.024  -0.107  1.00  0.00     0.146 A 
HETATM    5  C13 UNL     1      -1.672  -2.289  -0.631  1.00  0.00     0.146 A 
HETATM    6 CL1  UNL     1      -0.540  -2.753  -1.901  1.00  0.00    -0.074 Cl
HETATM    7  C14 UNL     1      -2.541  -3.291  -0.187  1.00  0.00     0.285 A 
HETATM    8  O2  UNL     1      -2.503  -4.466  -0.685  1.00  0.00    -0.266 OA
HETATM    9  N5  UNL     1      -3.405  -2.968   0.774  1.00  0.00    -0.155 N 
ATOM     10  H5  UNL     1      -4.056  -3.671   1.124  1.00  0.00     0.187 HD
ENDROOT
BRANCH   4  11
HETATM   11  N3  UNL     1      -0.743  -0.067  -0.633  1.00  0.00    -0.363 N 
BRANCH  11  12
HETATM   12  C3  UNL     1       0.602  -0.219  -0.193  1.00  0.00     0.143 C 
BRANCH  12  13
HETATM   13  C4  UNL     1       1.114   0.766   0.783  1.00  0.00     0.136 C 
BRANCH  13  14
HETATM   14  N4  UNL     1       2.482   0.539   1.164  1.00  0.00    -0.407 N 
HETATM   15  C5  UNL     1       2.806  -0.618   1.876  1.00  0.00     0.143 C 
HETATM   16  C6  UNL     1       3.962  -1.311   1.125  1.00  0.00     0.187 C 
HETATM   17  O1  UNL     1       3.888  -1.110  -0.242  1.00  0.00    -0.388 OA
HETATM   18  C7  UNL     1       4.093   0.197  -0.643  1.00  0.00     0.187 C 
HETATM   19  C8  UNL     1       3.483   1.155   0.378  1.00  0.00     0.143 C 
ENDBRANCH  13  14
ENDBRANCH  12  13
ENDBRANCH  11  12
BRANCH  11  20
HETATM   20  C9  UNL     1      -1.269   0.901  -1.518  1.00  0.00     0.129 C 
BRANCH  20  21
HETATM   21  C10 UNL     1      -1.367   2.323  -1.125  1.00  0.00     0.004 A 
HETATM   22  C11 UNL     1      -1.972   3.182  -2.247  1.00  0.00     0.007 A 
HETATM   23  C12 UNL     1      -2.697   3.013  -0.936  1.00  0.00     0.007 A 
ENDBRANCH  20  21
ENDBRANCH  11  20
ENDBRANCH   4  11
BRANCH   1  24
HETATM   24  N1  UNL     1      -4.270  -1.433   2.216  1.00  0.00    -0.234 N 
ATOM     25  H12 UNL     1      -4.287  -0.490   2.605  1.00  0.00     0.174 HD
ATOM     26  H11 UNL     1      -4.906  -2.160   2.543  1.00  0.00     0.174 HD
ENDBRANCH   1  24
TORSDOF 7
