REMARK  7 active torsions:
REMARK  status: ('A' for Active; 'I' for Inactive)
REMARK    1  A    between atoms: N1_1  and  C1_4 
REMARK    2  A    between atoms: N3_8  and  C3_10 
REMARK    3  A    between atoms: C3_10  and  C4_11 
REMARK    4  A    between atoms: C4_11  and  N4_12 
REMARK    5  A    between atoms: N6_22  and  C12_23 
REMARK    6  A    between atoms: C12_23  and  C13_24 
REMARK    7  A    between atoms: C13_24  and  C14_25 
ROOT
HETATM    1  C1  UNL     1      -1.663  -2.094  -0.264  1.00  0.00     0.679 A 
HETATM    2  N2  UNL     1      -0.600  -1.443   0.229  1.00  0.00    -0.175 N 
ATOM      3  H2  UNL     1       0.340  -1.802   0.063  1.00  0.00     0.186 HD
HETATM    4  C2  UNL     1      -0.774  -0.314   0.944  1.00  0.00     0.147 A 
HETATM    5  N3  UNL     1       0.172   0.369   1.455  1.00  0.00    -0.372 N 
ATOM      6  H3  UNL     1      -0.088   1.207   1.975  1.00  0.00     0.161 HD
HETATM    7  C10 UNL     1      -2.086   0.112   1.127  1.00  0.00     0.123 A 
HETATM    8  N5  UNL     1      -2.524   1.191   1.807  1.00  0.00    -0.346 N 
ATOM      9  H5  UNL     1      -1.948   1.878   2.293  1.00  0.00     0.167 HD
HETATM   10  C11 UNL     1      -3.848   1.187   1.722  1.00  0.00     0.185 A 
HETATM   11  N6  UNL     1      -4.295   0.133   1.002  1.00  0.00    -0.327 N 
HETATM   12  C15 UNL     1      -3.184  -0.537   0.632  1.00  0.00     0.155 A 
HETATM   13  N7  UNL     1      -2.925  -1.670  -0.080  1.00  0.00    -0.174 N 
ATOM     14  H7  UNL     1      -3.698  -2.203  -0.478  1.00  0.00     0.186 HD
ENDROOT
BRANCH   5  15
HETATM   15  C3  UNL     1       1.579   0.063   1.363  1.00  0.00     0.140 C 
BRANCH  15  16
HETATM   16  C4  UNL     1       2.118   0.599   0.056  1.00  0.00     0.136 C 
BRANCH  16  17
HETATM   17  N4  UNL     1       3.504   0.312  -0.043  1.00  0.00    -0.411 N 
HETATM   18  C5  UNL     1       4.346   1.025   0.864  1.00  0.00     0.117 C 
HETATM   19  C6  UNL     1       5.570   1.610   0.151  1.00  0.00     0.019 C 
HETATM   20  C7  UNL     1       6.325   0.529  -0.585  1.00  0.00     0.003 C 
HETATM   21  C8  UNL     1       5.412  -0.514  -1.183  1.00  0.00     0.019 C 
HETATM   22  C9  UNL     1       4.041   0.157  -1.350  1.00  0.00     0.117 C 
ENDBRANCH  16  17
ENDBRANCH  15  16
ENDBRANCH   5  15
BRANCH   1  23
HETATM   23  N1  UNL     1      -1.418  -3.181  -0.946  1.00  0.00    -0.234 N 
ATOM     24  H12 UNL     1      -0.460  -3.503  -1.086  1.00  0.00     0.174 HD
ATOM     25  H11 UNL     1      -2.227  -3.676  -1.321  1.00  0.00     0.174 HD
ENDBRANCH   1  23
BRANCH  11  26
HETATM   26  C12 UNL     1      -5.622  -0.232   0.660  1.00  0.00     0.134 C 
BRANCH  26  27
HETATM   27  C13 UNL     1      -6.278   0.388  -0.494  1.00  0.00     0.051 C 
BRANCH  27  28
HETATM   28  C14 UNL     1      -5.639   0.245  -1.839  1.00  0.00     0.224 C 
HETATM   29  F1  UNL     1      -4.405   0.800  -1.970  1.00  0.00    -0.255 F 
ENDBRANCH  27  28
ENDBRANCH  26  27
ENDBRANCH  11  26
TORSDOF 7
