REMARK  8 active torsions:
REMARK  status: ('A' for Active; 'I' for Inactive)
REMARK    1  A    between atoms: C2_2  and  C3_3 
REMARK    2  A    between atoms: C3_3  and  C4_4 
REMARK    3  A    between atoms: C4_4  and  N1_5 
REMARK    4  A    between atoms: N1_5  and  C5_7 
REMARK    5  A    between atoms: C6_10  and  S1_11 
REMARK    6  A    between atoms: S1_11  and  C7_12 
REMARK    7  A    between atoms: C7_12  and  C8_13 
REMARK    8  A    between atoms: C8_13  and  N3_14 
ROOT
HETATM    1  C5  UNL     1      -0.288  -0.329  -0.142  1.00  0.00     0.681 A 
HETATM    2  N2  UNL     1       0.784  -1.165  -0.153  1.00  0.00    -0.184 N 
ATOM      3  H2  UNL     1       0.766  -1.999   0.434  1.00  0.00     0.185 HD
HETATM    4  C6  UNL     1       1.882  -0.924  -0.923  1.00  0.00     0.109 A 
HETATM    5  C9  UNL     1       1.909   0.196  -1.712  1.00  0.00     0.113 A 
HETATM    6 BR1  UNL     1       3.373   0.576  -2.853  1.00  0.00    -0.042 Br
HETATM    7  C10 UNL     1       0.842   1.033  -1.703  1.00  0.00     0.279 A 
HETATM    8  O1  UNL     1       0.831   2.069  -2.412  1.00  0.00    -0.266 OA
HETATM    9  N4  UNL     1      -0.218   0.757  -0.930  1.00  0.00    -0.155 N 
ATOM     10  H4  UNL     1      -1.008   1.402  -0.941  1.00  0.00     0.187 HD
ENDROOT
BRANCH   4  11
HETATM   11  S1  UNL     1       3.256  -2.044  -0.953  1.00  0.00    -0.109 SA
BRANCH  11  12
HETATM   12  C7  UNL     1       4.359  -1.937   0.436  1.00  0.00     0.108 C 
BRANCH  12  13
HETATM   13  C8  UNL     1       5.093  -0.658   0.634  1.00  0.00     0.240 C 
BRANCH  13  14
HETATM   14  N3  UNL     1       4.273   0.495   0.878  1.00  0.00    -0.079 N 
ATOM     15  H33 UNL     1       3.586   0.599   0.131  1.00  0.00     0.274 HD
ATOM     16  H32 UNL     1       3.654   0.322   1.670  1.00  0.00     0.274 HD
ATOM     17  H31 UNL     1       4.776   1.372   1.014  1.00  0.00     0.274 HD
ENDBRANCH  13  14
ENDBRANCH  12  13
ENDBRANCH  11  12
ENDBRANCH   4  11
BRANCH   1  18
HETATM   18  N1  UNL     1      -1.310  -0.575   0.589  1.00  0.00    -0.226 N 
ATOM     19  H1  UNL     1      -1.297  -1.418   1.163  1.00  0.00     0.177 HD
BRANCH  18  20
HETATM   20  C4  UNL     1      -2.460   0.255   0.648  1.00  0.00     0.138 C 
BRANCH  20  21
HETATM   21  C3  UNL     1      -3.459  -0.023  -0.482  1.00  0.00     0.020 C 
BRANCH  21  22
HETATM   22  C2  UNL     1      -4.611   0.955  -0.254  1.00  0.00    -0.003 C 
HETATM   23  C1  UNL     1      -5.247   0.714   1.114  1.00  0.00     0.005 C 
ENDBRANCH  21  22
ENDBRANCH  20  21
ENDBRANCH  18  20
ENDBRANCH   1  18
TORSDOF 8
