REMARK  8 active torsions:
REMARK  status: ('A' for Active; 'I' for Inactive)
REMARK    1  A    between atoms: C2_2  and  C3_3 
REMARK    2  A    between atoms: C3_3  and  N1_4 
REMARK    3  A    between atoms: N1_4  and  C4_6 
REMARK    4  A    between atoms: C5_9  and  C6_10 
REMARK    5  A    between atoms: C6_10  and  C7_11 
REMARK    6  A    between atoms: C7_11  and  C8_12 
REMARK    7  A    between atoms: C9_14  and  C10_15 
REMARK    8  A    between atoms: C10_15  and  O2_16 
ROOT
HETATM    1  C4  UNL     1       3.709  -1.604   0.289  1.00  0.00     0.681 A 
HETATM    2  N2  UNL     1       2.586  -0.888   0.169  1.00  0.00    -0.192 N 
ATOM      3  H2  UNL     1       2.636   0.127   0.252  1.00  0.00     0.184 HD
HETATM    4  C5  UNL     1       1.378  -1.473  -0.060  1.00  0.00     0.071 A 
HETATM    5  C14 UNL     1       1.367  -2.841  -0.162  1.00  0.00     0.207 A 
HETATM    6  F1  UNL     1       0.223  -3.491  -0.386  1.00  0.00    -0.198 F 
HETATM    7  C15 UNL     1       2.533  -3.583  -0.038  1.00  0.00     0.300 A 
HETATM    8  O4  UNL     1       2.531  -4.846  -0.131  1.00  0.00    -0.264 OA
HETATM    9  N3  UNL     1       3.678  -2.967   0.184  1.00  0.00    -0.154 N 
ATOM     10  H3  UNL     1       4.539  -3.506   0.277  1.00  0.00     0.187 HD
ENDROOT
BRANCH   4  11
HETATM   11  C6  UNL     1       0.226  -0.593  -0.173  1.00  0.00     0.066 C 
BRANCH  11  12
HETATM   12  C7  UNL     1      -1.091  -1.223  -0.437  1.00  0.00     0.067 C 
BRANCH  12  13
HETATM   13  C8  UNL     1      -2.112  -0.072  -0.506  1.00  0.00     0.261 C 
HETATM   14  O1  UNL     1      -2.158   0.639   0.668  1.00  0.00    -0.351 OA
HETATM   15  C9  UNL     1      -3.463   1.149   0.708  1.00  0.00     0.182 C 
HETATM   16  C11 UNL     1      -4.254   0.054   0.068  1.00  0.00     0.085 C 
HETATM   17  C12 UNL     1      -4.876  -0.777   1.166  1.00  0.00     0.048 C 
HETATM   18  C13 UNL     1      -5.365   0.554  -0.818  1.00  0.00     0.048 C 
HETATM   19  O3  UNL     1      -3.353  -0.655  -0.702  1.00  0.00    -0.348 OA
BRANCH  15  20
HETATM   20  C10 UNL     1      -3.503   2.438  -0.078  1.00  0.00     0.199 C 
BRANCH  20  21
HETATM   21  O2  UNL     1      -2.632   3.355   0.473  1.00  0.00    -0.398 OA
ATOM     22  H2  UNL     1      -2.657   4.166  -0.021  1.00  0.00     0.209 HD
ENDBRANCH  20  21
ENDBRANCH  15  20
ENDBRANCH  12  13
ENDBRANCH  11  12
ENDBRANCH   4  11
BRANCH   1  23
HETATM   23  N1  UNL     1       4.874  -1.116   0.504  1.00  0.00    -0.226 N 
ATOM     24  H1  UNL     1       5.672  -1.747   0.580  1.00  0.00     0.177 HD
BRANCH  23  25
HETATM   25  C3  UNL     1       5.083   0.303   0.641  1.00  0.00     0.137 C 
BRANCH  25  26
HETATM   26  C2  UNL     1       5.200   0.930  -0.743  1.00  0.00     0.016 C 
HETATM   27  C1  UNL     1       5.415   2.401  -0.591  1.00  0.00     0.006 C 
ENDBRANCH  25  26
ENDBRANCH  23  25
ENDBRANCH   1  23
TORSDOF 8
