REMARK  2 active torsions:
REMARK  status: ('A' for Active; 'I' for Inactive)
REMARK    1  A    between atoms: C5_5  and  C6_6 
REMARK    2  A    between atoms: C6_6  and  N1_7 
ROOT
HETATM    1  C1  UNL     1      -3.080  -0.395  -0.024  1.00  0.00    -0.107 C 
HETATM    2  C2  UNL     1      -2.528  -1.353  -0.170  1.00  0.00    -0.107 C 
HETATM    3  C3  UNL     1      -1.750  -2.507  -0.392  1.00  0.00     0.094 C 
HETATM    4  C4  UNL     1      -0.334  -2.109  -0.852  1.00  0.00     0.018 C 
HETATM    5  C5  UNL     1       0.086  -0.784  -0.321  1.00  0.00     0.015 C 
HETATM    6  C10 UNL     1      -0.588   0.433  -0.829  1.00  0.00     0.006 C 
HETATM    7  C11 UNL     1      -1.259   1.270   0.228  1.00  0.00     0.001 C 
HETATM    8  C12 UNL     1      -2.560   1.882  -0.240  1.00  0.00     0.012 C 
HETATM    9  C13 UNL     1      -3.696   0.876   0.128  1.00  0.00     0.094 C 
ENDROOT
BRANCH   5  10
HETATM   10  C6  UNL     1       1.615  -0.720  -0.489  1.00  0.00     0.277 C 
BRANCH  10  11
HETATM   11  N1  UNL     1       2.131   0.537  -0.001  1.00  0.00     0.088 N 
HETATM   12  C7  UNL     1       3.551   0.681  -0.119  1.00  0.00     0.274 C 
HETATM   13  C8  UNL     1       3.657   0.660   1.378  1.00  0.00     0.060 C 
HETATM   14  C9  UNL     1       2.150   0.665   1.445  1.00  0.00     0.274 C 
ENDBRANCH  10  11
ENDBRANCH   5  10
TORSDOF 2
