REMARK  2 active torsions:
REMARK  status: ('A' for Active; 'I' for Inactive)
REMARK       I    between atoms: C1_2  and  N1_3 
REMARK    1  A    between atoms: C1_2  and  C11_14 
REMARK    2  A    between atoms: N1_3  and  C2_5 
ROOT
HETATM    1  C2  UNL     1      -0.418  -0.096   0.091  1.00  0.00     0.037 C 
HETATM    2  C3  UNL     1      -0.918   1.335   0.067  1.00  0.00     0.036 C 
HETATM    3  C4  UNL     1      -2.401   1.066  -0.232  1.00  0.00    -0.011 C 
HETATM    4  C5  UNL     1      -3.042   0.233   0.832  1.00  0.00     0.009 C 
HETATM    5  C6  UNL     1      -2.252  -0.968   1.223  1.00  0.00    -0.011 C 
HETATM    6  C7  UNL     1      -2.078  -1.839  -0.029  1.00  0.00     0.012 C 
HETATM    7  C8  UNL     1      -1.269  -0.863  -0.896  1.00  0.00     0.014 C 
HETATM    8  C9  UNL     1      -2.213   0.175  -1.463  1.00  0.00     0.012 C 
HETATM    9  C10 UNL     1      -0.773  -0.632   1.466  1.00  0.00     0.036 C 
ENDROOT
BRANCH   1  10
HETATM   10  N1  UNL     1       0.966  -0.233  -0.243  1.00  0.00    -0.351 N 
HETATM   11  C1  UNL     1       2.027   0.363   0.467  1.00  0.00     0.222 C 
HETATM   12  O1  UNL     1       1.789   1.073   1.468  1.00  0.00    -0.273 OA
ATOM     13  H1  UNL     1       1.202  -0.804  -1.055  1.00  0.00     0.163 HD
BRANCH  11  14
HETATM   14  C11 UNL     1       3.420   0.160   0.042  1.00  0.00     0.078 A 
HETATM   15  C12 UNL     1       4.447   1.197   0.298  1.00  0.00     0.015 A 
HETATM   16  C13 UNL     1       4.463  -0.116   1.091  1.00  0.00     0.015 A 
ENDBRANCH  11  14
ENDBRANCH   1  10
TORSDOF 2
