REMARK  2 active torsions:
REMARK  status: ('A' for Active; 'I' for Inactive)
REMARK    1  A    between atoms: C8_8  and  C9_9 
REMARK       I    between atoms: C9_9  and  N1_11 
REMARK    2  A    between atoms: N1_11  and  C10_13 
ROOT
HETATM    1  C9  UNL     1       0.166  -1.248   0.959  1.00  0.00     0.257 C 
HETATM    2  O1  UNL     1       0.039  -2.492   1.018  1.00  0.00    -0.267 OA
HETATM    3  N1  UNL     1       1.467  -0.737   1.236  1.00  0.00    -0.316 N 
ATOM      4  H1  UNL     1       1.679  -0.376   2.166  1.00  0.00     0.169 HD
ENDROOT
BRANCH   1   5
HETATM    5  C8  UNL     1      -0.952  -0.381   0.627  1.00  0.00     0.039 A 
HETATM    6  C6  UNL     1      -2.218  -0.849   0.354  1.00  0.00    -0.040 A 
HETATM    7  C4  UNL     1      -3.263   0.006   0.041  1.00  0.00    -0.055 A 
HETATM    8  C7  UNL     1      -2.478  -2.293   0.394  1.00  0.00     0.050 C 
HETATM    9  C3  UNL     1      -3.065   1.362  -0.008  1.00  0.00     0.014 A 
HETATM   10  C5  UNL     1      -4.631  -0.533  -0.251  1.00  0.00     0.049 C 
HETATM   11  C2  UNL     1      -1.812   1.871   0.259  1.00  0.00    -0.060 A 
HETATM   12  C1  UNL     1      -1.560   3.334   0.215  1.00  0.00     0.048 C 
HETATM   13  C14 UNL     1      -0.784   1.009   0.568  1.00  0.00     0.024 A 
ENDBRANCH   1   5
BRANCH   3  14
HETATM   14  C10 UNL     1       2.392  -0.725   0.313  1.00  0.00     0.095 A 
HETATM   15  C11 UNL     1       3.677  -0.264   0.445  1.00  0.00     0.063 A 
HETATM   16  C12 UNL     1       4.459  -0.353  -0.649  1.00  0.00     0.014 A 
HETATM   17  C13 UNL     1       5.903   0.123  -0.633  1.00  0.00     0.068 C 
HETATM   18  N2  UNL     1       3.933  -0.872  -1.754  1.00  0.00    -0.329 N 
HETATM   19  S1  UNL     1       2.355  -1.246  -1.308  1.00  0.00     0.004 SA
ATOM     20  H2  UNL     1       4.381  -1.011  -2.660  1.00  0.00     0.174 HD
ENDBRANCH   3  14
TORSDOF 2
