REMARK  1 active torsions:
REMARK  status: ('A' for Active; 'I' for Inactive)
REMARK    1  A    between atoms: C2_2  and  C4_4 
ROOT
HETATM    1  C4  UNL     1      -1.558  -0.276   1.083  1.00  0.00     0.190 C 
HETATM    2  C5  UNL     1      -0.263  -0.311   0.431  1.00  0.00    -0.025 A 
HETATM    3  C6  UNL     1       0.231  -1.551  -0.012  1.00  0.00     0.016 A 
HETATM    4  C7  UNL     1       1.449  -1.658  -0.647  1.00  0.00    -0.056 A 
HETATM    5  C8  UNL     1       1.968  -2.949  -1.111  1.00  0.00     0.049 C 
HETATM    6  C9  UNL     1       2.219  -0.522  -0.862  1.00  0.00    -0.056 A 
HETATM    7  C10 UNL     1       3.521  -0.679  -1.547  1.00  0.00     0.049 C 
HETATM    8  C11 UNL     1       1.751   0.701  -0.435  1.00  0.00     0.017 A 
HETATM    9  C12 UNL     1       0.512   0.782   0.207  1.00  0.00    -0.027 A 
HETATM   10  C13 UNL     1       0.120   2.137   0.627  1.00  0.00     0.122 C 
HETATM   11  C14 UNL     1       1.186   3.159   0.481  1.00  0.00     0.038 C 
HETATM   12  N1  UNL     1      -0.316   2.067   2.036  1.00  0.00    -0.310 N 
ATOM     13  H1  UNL     1       0.158   2.417   2.869  1.00  0.00     0.172 HD
HETATM   14  S1  UNL     1      -1.830   1.244   1.921  1.00  0.00     0.239 S 
HETATM   15  O1  UNL     1      -2.718   2.165   1.087  1.00  0.00    -0.205 OA
HETATM   16  O2  UNL     1      -2.435   1.045   3.283  1.00  0.00    -0.205 OA
ENDROOT
BRANCH   1  17
HETATM   17  C2  UNL     1      -2.688  -0.656   0.199  1.00  0.00    -0.069 C 
HETATM   18  C1  UNL     1      -3.442  -1.677   0.501  1.00  0.00     0.015 C 
HETATM   19  C3  UNL     1      -3.012   0.088  -1.044  1.00  0.00     0.044 C 
ENDBRANCH   1  17
TORSDOF 1
