REMARK  7 active torsions:
REMARK  status: ('A' for Active; 'I' for Inactive)
REMARK    1  A    between atoms: C2_2  and  C3_3 
REMARK    2  A    between atoms: C2_2  and  O2_6 
REMARK    3  A    between atoms: C3_3  and  O1_4 
REMARK    4  A    between atoms: O2_6  and  C4_7 
REMARK    5  A    between atoms: C4_7  and  C5_8 
REMARK    6  A    between atoms: C6_9  and  C7_10 
REMARK    7  A    between atoms: C17_26  and  C18_27 
ROOT
HETATM    1  C5  UNL     1      -1.588  -1.061  -0.405  1.00  0.00     0.008 A 
HETATM    2  C6  UNL     1      -1.696  -2.382  -0.945  1.00  0.00     0.024 A 
HETATM    3  C10 UNL     1      -0.562  -2.950  -1.475  1.00  0.00     0.102 A 
HETATM    4  N2  UNL     1       0.586  -2.319  -1.493  1.00  0.00    -0.368 N 
ATOM      5  H2  UNL     1       1.406  -2.774  -1.895  1.00  0.00     0.165 HD
HETATM    6  C11 UNL     1       0.697  -1.053  -0.976  1.00  0.00     0.017 A 
HETATM    7  C12 UNL     1      -0.382  -0.396  -0.420  1.00  0.00    -0.022 A 
HETATM    8  C13 UNL     1      -0.454   0.901   0.204  1.00  0.00     0.046 C 
HETATM    9  C14 UNL     1       0.810   1.622   0.535  1.00  0.00    -0.009 C 
HETATM   10  C15 UNL     1       1.431   1.002   1.770  1.00  0.00     0.006 C 
HETATM   11  C16 UNL     1       2.217  -0.141   1.190  1.00  0.00     0.018 C 
HETATM   12  C17 UNL     1       2.625   0.342  -0.171  1.00  0.00     0.030 C 
HETATM   13  C22 UNL     1       2.070  -0.629  -1.173  1.00  0.00     0.075 C 
HETATM   14  C23 UNL     1       1.893   1.641  -0.448  1.00  0.00     0.023 C 
ENDROOT
BRANCH   1  15
HETATM   15  C4  UNL     1      -2.844  -0.546   0.103  1.00  0.00     0.148 C 
BRANCH  15  16
HETATM   16  O2  UNL     1      -2.971   0.710   0.598  1.00  0.00    -0.355 OA
BRANCH  16  17
HETATM   17  C2  UNL     1      -4.287   0.939   1.004  1.00  0.00     0.147 C 
HETATM   18  C1  UNL     1      -4.935   2.027   0.161  1.00  0.00     0.042 C 
BRANCH  17  19
HETATM   19  C3  UNL     1      -4.318   1.342   2.443  1.00  0.00     0.196 C 
BRANCH  19  20
HETATM   20  O1  UNL     1      -5.668   1.550   2.787  1.00  0.00    -0.398 OA
ATOM     21  H1  UNL     1      -5.688   1.806   3.702  1.00  0.00     0.209 HD
ENDBRANCH  19  20
ENDBRANCH  17  19
ENDBRANCH  16  17
ENDBRANCH  15  16
ENDBRANCH   1  15
BRANCH   2  22
HETATM   22  C7  UNL     1      -2.961  -3.089  -0.932  1.00  0.00     0.110 A 
HETATM   23  N1  UNL     1      -3.719  -3.395   0.115  1.00  0.00    -0.342 N 
HETATM   24  C8  UNL     1      -4.826  -4.059  -0.297  1.00  0.00     0.237 A 
ATOM     25  H1  UNL     1      -3.500  -3.165   1.084  1.00  0.00     0.167 HD
HETATM   26  O3  UNL     1      -4.742  -4.161  -1.618  1.00  0.00    -0.278 OA
HETATM   27  C9  UNL     1      -3.632  -3.586  -2.022  1.00  0.00     0.259 A 
HETATM   28  F1  UNL     1      -3.194  -3.482  -3.295  1.00  0.00    -0.175 F 
ENDBRANCH   2  22
BRANCH  12  29
HETATM   29  C18 UNL     1       4.091   0.451  -0.333  1.00  0.00     0.122 C 
HETATM   30  N3  UNL     1       4.959   0.068   0.544  1.00  0.00    -0.374 N 
HETATM   31  C19 UNL     1       6.380   0.188   0.352  1.00  0.00     0.123 C 
ATOM     32  H3  UNL     1       4.620  -0.340   1.416  1.00  0.00     0.161 HD
HETATM   33  C20 UNL     1       6.802   1.351  -0.486  1.00  0.00     0.046 C 
HETATM   34  C21 UNL     1       5.786   1.795  -1.492  1.00  0.00     0.178 C 
HETATM   35  O4  UNL     1       4.622   0.998  -1.499  1.00  0.00    -0.339 OA
ENDBRANCH  12  29
TORSDOF 7
