REMARK  6 active torsions:
REMARK  status: ('A' for Active; 'I' for Inactive)
REMARK    1  A    between atoms: N1_2  and  C3_4 
REMARK    2  A    between atoms: C4_5  and  C5_7 
REMARK    3  A    between atoms: C9_11  and  N2_12 
REMARK    4  A    between atoms: N2_12  and  C10_14 
REMARK    5  A    between atoms: C11_17  and  N4_18 
REMARK    6  A    between atoms: C18_27  and  N6_28 
ROOT
HETATM    1  C10 UNL     1      -0.312  -0.533   1.195  1.00  0.00     0.711 A 
HETATM    2  N3  UNL     1      -1.518  -1.008   1.553  1.00  0.00    -0.021 N 
ATOM      3  H3  UNL     1      -1.605  -1.629   2.357  1.00  0.00     0.203 HD
HETATM    4  C11 UNL     1      -2.608  -0.662   0.849  1.00  0.00     0.709 A 
HETATM    5  N5  UNL     1      -2.475   0.153  -0.200  1.00  0.00    -0.021 N 
ATOM      6  H5  UNL     1      -3.311   0.408  -0.725  1.00  0.00     0.203 HD
HETATM    7  C18 UNL     1      -1.297   0.653  -0.597  1.00  0.00     0.709 A 
HETATM    8  N7  UNL     1      -0.213   0.285   0.132  1.00  0.00    -0.021 N 
ATOM      9  H7  UNL     1       0.705   0.640  -0.135  1.00  0.00     0.203 HD
ENDROOT
BRANCH   1  10
HETATM   10  N2  UNL     1       0.766  -0.842   1.845  1.00  0.00    -0.191 N 
ATOM     11  H2  UNL     1       0.700  -1.463   2.652  1.00  0.00     0.184 HD
BRANCH  10  12
HETATM   12  C9  UNL     1       2.043  -0.335   1.460  1.00  0.00     0.050 A 
HETATM   13  C8  UNL     1       2.422   0.898   1.942  1.00  0.00     0.030 A 
HETATM   14  C7  UNL     1       3.645   1.426   1.596  1.00  0.00     0.003 A 
HETATM   15  C6  UNL     1       4.476   0.673   0.751  1.00  0.00     0.014 A 
HETATM   16  C5  UNL     1       4.159  -0.550   0.244  1.00  0.00     0.006 A 
HETATM   17  C23 UNL     1       2.890  -1.031   0.638  1.00  0.00     0.044 A 
BRANCH  16  18
HETATM   18  C4  UNL     1       4.959  -1.383  -0.626  1.00  0.00     0.141 C 
HETATM   19  C3  UNL     1       6.129  -1.175  -1.106  1.00  0.00     0.128 C 
HETATM   20  F1  UNL     1       4.384  -2.610  -1.018  1.00  0.00    -0.204 F 
BRANCH  19  21
HETATM   21  N1  UNL     1       7.065  -0.138  -1.004  1.00  0.00    -0.396 N 
HETATM   22  C1  UNL     1       8.062  -0.184   0.046  1.00  0.00     0.148 C 
HETATM   23  C2  UNL     1       7.108   0.962  -1.943  1.00  0.00     0.148 C 
ENDBRANCH  19  21
ENDBRANCH  16  18
ENDBRANCH  10  12
ENDBRANCH   1  10
BRANCH   4  24
HETATM   24  N4  UNL     1      -3.870  -1.165   1.233  1.00  0.00    -0.217 N 
HETATM   25  C12 UNL     1      -3.858  -2.011   2.384  1.00  0.00     0.141 C 
HETATM   26  C13 UNL     1      -4.781  -3.193   2.281  1.00  0.00     0.020 C 
HETATM   27  C14 UNL     1      -6.042  -2.929   1.533  1.00  0.00     0.002 C 
HETATM   28  C15 UNL     1      -6.702  -1.629   1.921  1.00  0.00     0.002 C 
HETATM   29  C16 UNL     1      -6.149  -0.435   1.218  1.00  0.00     0.020 C 
HETATM   30  C17 UNL     1      -4.955  -0.713   0.364  1.00  0.00     0.141 C 
ENDBRANCH   4  24
BRANCH   7  31
HETATM   31  N6  UNL     1      -1.158   1.518  -1.712  1.00  0.00    -0.217 N 
HETATM   32  C19 UNL     1      -2.244   1.972  -2.555  1.00  0.00     0.141 C 
HETATM   33  C20 UNL     1      -1.897   3.449  -2.710  1.00  0.00     0.022 C 
HETATM   34  C21 UNL     1      -0.397   3.359  -2.987  1.00  0.00     0.022 C 
HETATM   35  C22 UNL     1       0.042   2.118  -2.239  1.00  0.00     0.141 C 
ENDBRANCH   7  31
TORSDOF 6
