REMARK  6 active torsions:
REMARK  status: ('A' for Active; 'I' for Inactive)
REMARK    1  A    between atoms: C3_5  and  N2_6 
REMARK    2  A    between atoms: C13_18  and  C14_19 
REMARK    3  A    between atoms: C14_19  and  O1_20 
REMARK    4  A    between atoms: C14_19  and  C15_22 
REMARK       I    between atoms: C15_22  and  N4_24 
REMARK    5  A    between atoms: N4_24  and  C16_26 
REMARK    6  A    between atoms: N5_30  and  C20_31 
ROOT
HETATM    1  C1  UNL     1      -2.082  -3.000  -2.473  1.00  0.00     0.070 C 
HETATM    2  C2  UNL     1      -2.024  -1.997  -1.390  1.00  0.00     0.037 A 
HETATM    3  N1  UNL     1      -3.173  -1.593  -0.771  1.00  0.00    -0.195 N 
ATOM      4  H1  UNL     1      -4.060  -2.006  -1.059  1.00  0.00     0.184 HD
HETATM    5  C3  UNL     1      -3.172  -0.672   0.201  1.00  0.00     0.682 A 
HETATM    6  N3  UNL     1      -2.026  -0.100   0.613  1.00  0.00    -0.175 N 
ATOM      7  H3  UNL     1      -2.038   0.601   1.354  1.00  0.00     0.186 HD
HETATM    8  C9  UNL     1      -0.864  -0.460   0.039  1.00  0.00     0.137 A 
HETATM    9  C10 UNL     1      -0.845  -1.408  -0.963  1.00  0.00     0.040 A 
HETATM   10  C11 UNL     1       0.442  -1.595  -1.342  1.00  0.00    -0.016 A 
HETATM   11  C12 UNL     1       0.971  -2.522  -2.338  1.00  0.00     0.052 C 
HETATM   12  C13 UNL     1       1.256  -0.727  -0.549  1.00  0.00     0.082 A 
HETATM   13  N5  UNL     1       0.449  -0.062   0.259  1.00  0.00    -0.323 N 
ENDROOT
BRANCH  12  14
HETATM   14  C14 UNL     1       2.678  -0.607  -0.751  1.00  0.00     0.162 C 
BRANCH  14  15
HETATM   15  O1  UNL     1       3.164  -0.990  -1.919  1.00  0.00    -0.354 OA
ATOM     16  H1  UNL     1       4.101  -0.911  -2.052  1.00  0.00     0.218 HD
ENDBRANCH  14  15
BRANCH  14  17
HETATM   17  C15 UNL     1       3.721  -0.142   0.115  1.00  0.00     0.277 C 
HETATM   18  O2  UNL     1       3.522   0.020   1.339  1.00  0.00    -0.265 OA
HETATM   19  N4  UNL     1       5.032   0.152  -0.402  1.00  0.00    -0.351 N 
ATOM     20  H4  UNL     1       5.203   0.022  -1.399  1.00  0.00     0.163 HD
BRANCH  19  21
HETATM   21  C16 UNL     1       6.102   0.617   0.416  1.00  0.00     0.084 C 
HETATM   22  C17 UNL     1       7.372  -0.163   0.140  1.00  0.00     0.025 C 
HETATM   23  C18 UNL     1       7.673   0.862  -0.952  1.00  0.00     0.004 C 
HETATM   24  C19 UNL     1       6.846   1.838  -0.141  1.00  0.00     0.025 C 
ENDBRANCH  19  21
ENDBRANCH  14  17
ENDBRANCH  12  14
BRANCH  13  25
HETATM   25  C20 UNL     1       0.690   1.001   1.180  1.00  0.00     0.112 A 
HETATM   26  C21 UNL     1       1.287   2.318   0.836  1.00  0.00     0.049 A 
HETATM   27  C22 UNL     1      -0.188   2.239   1.129  1.00  0.00     0.107 A 
HETATM   28 CL1  UNL     1      -1.147   2.650  -0.311  1.00  0.00    -0.123 Cl
ENDBRANCH  13  25
BRANCH   5  29
HETATM   29  N2  UNL     1      -4.398  -0.303   0.798  1.00  0.00    -0.218 N 
HETATM   30  C4  UNL     1      -5.652  -0.910   0.380  1.00  0.00     0.141 C 
HETATM   31  C5  UNL     1      -6.444   0.154  -0.347  1.00  0.00     0.020 C 
HETATM   32  C6  UNL     1      -6.454   1.422   0.468  1.00  0.00     0.003 C 
HETATM   33  C7  UNL     1      -5.916   1.192   1.875  1.00  0.00     0.020 C 
HETATM   34  C8  UNL     1      -4.491   0.694   1.854  1.00  0.00     0.141 C 
ENDBRANCH   5  29
TORSDOF 6
