REMARK  6 active torsions:
REMARK  status: ('A' for Active; 'I' for Inactive)
REMARK    1  A    between atoms: C3_3  and  C5_5 
REMARK    2  A    between atoms: C5_5  and  O1_6 
REMARK    3  A    between atoms: O1_6  and  C6_7 
REMARK    4  A    between atoms: C7_8  and  O2_9 
REMARK    5  A    between atoms: O2_9  and  C8_10 
REMARK    6  A    between atoms: C12_15  and  N1_16 
ROOT
HETATM    1  C6  UNL     1       0.308   0.843  -0.402  1.00  0.00     0.181 C 
HETATM    2  C7  UNL     1       0.220   2.268  -0.907  1.00  0.00     0.163 C 
HETATM    3  C10 UNL     1       0.472   3.144   0.241  1.00  0.00     0.037 C 
HETATM    4  C11 UNL     1       0.859   2.184   1.382  1.00  0.00     0.031 C 
HETATM    5  C12 UNL     1       1.418   0.991   0.647  1.00  0.00     0.127 C 
ENDROOT
BRANCH   5   6
HETATM    6  N1  UNL     1       1.670  -0.095   1.495  1.00  0.00    -0.291 N 
HETATM    7  C13 UNL     1       1.257  -0.152   2.799  1.00  0.00     0.330 A 
HETATM    8  O4  UNL     1       0.682   0.774   3.390  1.00  0.00    -0.246 OA
HETATM    9  N2  UNL     1       1.478  -1.254   3.514  1.00  0.00    -0.274 N 
HETATM   10  C14 UNL     1       2.083  -2.340   3.060  1.00  0.00     0.265 A 
ATOM     11  H2  UNL     1       1.157  -1.261   4.482  1.00  0.00     0.173 HD
HETATM   12  O5  UNL     1       2.290  -3.376   3.726  1.00  0.00    -0.267 OA
HETATM   13  C15 UNL     1       2.505  -2.281   1.742  1.00  0.00     0.098 A 
HETATM   14  C16 UNL     1       3.180  -3.381   1.205  1.00  0.00     0.134 A 
HETATM   15  C20 UNL     1       2.322  -1.182   0.927  1.00  0.00     0.058 A 
HETATM   16  F1  UNL     1       3.377  -4.473   1.987  1.00  0.00    -0.205 F 
HETATM   17  C17 UNL     1       3.651  -3.380  -0.084  1.00  0.00     0.043 A 
HETATM   18  C18 UNL     1       3.458  -2.271  -0.868  1.00  0.00     0.005 A 
HETATM   19  C19 UNL     1       2.795  -1.171  -0.367  1.00  0.00     0.031 A 
ENDBRANCH   5   6
BRANCH   1  20
HETATM   20  O1  UNL     1      -0.752   0.167  -0.042  1.00  0.00    -0.341 OA
BRANCH  20  21
HETATM   21  C5  UNL     1      -1.954  -0.336  -0.507  1.00  0.00     0.076 C 
HETATM   22  C21 UNL     1      -2.144  -0.739  -1.736  1.00  0.00    -0.054 C 
HETATM   23  C22 UNL     1      -1.074  -0.696  -2.809  1.00  0.00     0.046 C 
HETATM   24  C23 UNL     1      -3.407  -1.310  -2.234  1.00  0.00     0.046 C 
BRANCH  21  25
HETATM   25  C3  UNL     1      -3.031  -0.396   0.507  1.00  0.00    -0.033 C 
HETATM   26  C2  UNL     1      -2.706   0.047   1.749  1.00  0.00    -0.022 C 
HETATM   27  C1  UNL     1      -3.634   0.070   2.881  1.00  0.00     0.036 C 
HETATM   28  C4  UNL     1      -4.392  -0.855   0.377  1.00  0.00     0.050 C 
ENDBRANCH  21  25
ENDBRANCH  20  21
ENDBRANCH   1  20
BRANCH   2  29
HETATM   29  O2  UNL     1       1.333   2.418  -1.801  1.00  0.00    -0.314 OA
BRANCH  29  30
HETATM   30  C8  UNL     1       1.269   2.762  -3.107  1.00  0.00     0.255 C 
HETATM   31  C9  UNL     1       2.545   2.856  -3.869  1.00  0.00     0.126 C 
HETATM   32  O3  UNL     1       0.178   2.986  -3.647  1.00  0.00    -0.266 OA
ENDBRANCH  29  30
ENDBRANCH   2  29
TORSDOF 6
