REMARK  4 active torsions:
REMARK  status: ('A' for Active; 'I' for Inactive)
REMARK    1  A    between atoms: N1_1  and  N2_4 
REMARK    2  A    between atoms: N2_4  and  N3_5 
REMARK    3  A    between atoms: N3_5  and  C1_6 
REMARK    4  A    between atoms: C3_8  and  C4_9 
ROOT
HETATM    1  C1  UNL     1      -0.210  -0.201   0.372  1.00  0.00     0.110 A 
HETATM    2  C2  UNL     1       0.338  -0.960  -0.777  1.00  0.00     0.039 A 
HETATM    3  C3  UNL     1       1.106   0.246  -0.236  1.00  0.00     0.097 A 
ENDROOT
BRANCH   1   4
HETATM    4  N3  UNL     1      -1.374   0.649   0.209  1.00  0.00    -0.121 NA
BRANCH   4   5
HETATM    5  N2  UNL     1      -2.487  -0.064  -0.222  1.00  0.00    -0.038 NA
BRANCH   5   6
HETATM    6  N1  UNL     1      -3.668   0.333   0.415  1.00  0.00    -0.332 N 
ATOM      7  H12 UNL     1      -3.693   1.070   1.120  1.00  0.00     0.173 HD
ATOM      8  H11 UNL     1      -4.485  -0.190   0.099  1.00  0.00     0.173 HD
ENDBRANCH   5   6
ENDBRANCH   4   5
ENDBRANCH   1   4
BRANCH   3   9
HETATM    9  C4  UNL     1       2.371  -0.117   0.450  1.00  0.00     0.237 C 
HETATM   10  N4  UNL     1       3.530   0.682   0.447  1.00  0.00    -0.062 NA
HETATM   11  O1  UNL     1       2.413  -1.210   1.074  1.00  0.00    -0.276 OA
ENDBRANCH   3   9
TORSDOF 4
