REMARK  3 active torsions:
REMARK  status: ('A' for Active; 'I' for Inactive)
REMARK    1  A    between atoms: C1_2  and  C2_4 
REMARK    2  A    between atoms: C2_4  and  N2_5 
REMARK    3  A    between atoms: C2_4  and  C3_9 
ROOT
HETATM    1  C3  UNL     1       0.604  -0.481  -0.123  1.00  0.00     0.425 A 
HETATM    2  N3  UNL     1       1.198   0.251  -1.205  1.00  0.00    -0.020 N 
ATOM      3  H31 UNL     1       0.799   1.142  -1.500  1.00  0.00     0.281 HD
ATOM      4  H32 UNL     1       1.122  -0.097  -2.161  1.00  0.00     0.281 HD
HETATM    5  C4  UNL     1       2.473   0.218  -0.519  1.00  0.00     0.468 A 
HETATM    6  N4  UNL     1       1.909  -0.574   0.550  1.00  0.00    -0.020 N 
ATOM      7  H41 UNL     1       2.307  -1.482   0.791  1.00  0.00     0.281 HD
ATOM      8  H42 UNL     1       2.015  -0.286   1.523  1.00  0.00     0.281 HD
ENDROOT
BRANCH   1   9
HETATM    9  C2  UNL     1      -0.320   0.315   0.779  1.00  0.00     0.329 C 
BRANCH   9  10
HETATM   10  C1  UNL     1      -1.460   0.887   0.048  1.00  0.00     0.265 C 
HETATM   11  N1  UNL     1      -2.787   0.501   0.352  1.00  0.00    -0.060 NA
HETATM   12  O1  UNL     1      -1.247   1.729  -0.858  1.00  0.00    -0.274 OA
ENDBRANCH   9  10
BRANCH   9  13
HETATM   13  N2  UNL     1      -0.844  -0.618   1.757  1.00  0.00    -0.063 N 
ATOM     14  H23 UNL     1      -1.538  -0.196   2.374  1.00  0.00     0.275 HD
ATOM     15  H22 UNL     1      -1.446  -1.330   1.342  1.00  0.00     0.275 HD
ATOM     16  H21 UNL     1      -0.053  -1.015   2.264  1.00  0.00     0.275 HD
ENDBRANCH   9  13
ENDBRANCH   1   9
TORSDOF 3
