REMARK  2 active torsions:
REMARK  status: ('A' for Active; 'I' for Inactive)
REMARK    1  A    between atoms: C2_2  and  N1_3 
REMARK    2  A    between atoms: C2_2  and  C4_8 
REMARK       I    between atoms: N1_3  and  C3_5 
ROOT
HETATM    1  C1  UNL     1      -0.188  -0.524   1.923  1.00  0.00     0.041 C 
HETATM    2  C2  UNL     1      -0.019  -0.344   0.643  1.00  0.00     0.041 C 
ENDROOT
BRANCH   2   3
HETATM    3  N1  UNL     1      -0.986  -0.030  -0.291  1.00  0.00    -0.313 N 
HETATM    4  C3  UNL     1      -2.360   0.163  -0.067  1.00  0.00     0.333 C 
HETATM    5  N2  UNL     1      -3.258   0.490  -1.153  1.00  0.00    -0.040 NA
HETATM    6  O1  UNL     1      -2.940   0.079   1.042  1.00  0.00    -0.251 OA
ATOM      7  H1  UNL     1      -0.667   0.074  -1.254  1.00  0.00     0.170 HD
ENDBRANCH   2   3
BRANCH   2   8
HETATM    8  C4  UNL     1       1.415  -0.511   0.168  1.00  0.00     0.255 C 
HETATM    9  N3  UNL     1       1.922   0.682  -0.485  1.00  0.00    -0.101 NA
HETATM   10  N4  UNL     1       3.114   0.500   0.230  1.00  0.00    -0.036 NA
HETATM   11  N5  UNL     1       2.334  -0.118   1.218  1.00  0.00    -0.101 NA
ENDBRANCH   2   8
TORSDOF 2
