REMARK  4 active torsions:
REMARK  status: ('A' for Active; 'I' for Inactive)
REMARK       I    between atoms: C1_4  and  N3_6 
REMARK    1  A    between atoms: N3_6  and  N4_8 
REMARK    2  A    between atoms: N4_8  and  C2_10 
REMARK    3  A    between atoms: N5_11  and  N6_13 
REMARK    4  A    between atoms: N6_13  and  O1_15 
ROOT
HETATM    1  N4  UNL     1       0.166   0.673   0.889  1.00  0.00    -0.292 N 
ATOM      2  H4  UNL     1       0.025   1.161   1.773  1.00  0.00     0.187 HD
ENDROOT
BRANCH   1   3
HETATM    3  N3  UNL     1      -0.733   0.913  -0.145  1.00  0.00    -0.273 N 
HETATM    4  C1  UNL     1      -1.486  -0.108  -0.764  1.00  0.00     0.200 C 
HETATM    5  N1  UNL     1      -1.236  -0.425  -1.977  1.00  0.00    -0.372 N 
HETATM    6  N2  UNL     1      -2.507  -0.774  -0.049  1.00  0.00    -0.062 NA
ATOM      7  H12 UNL     1      -1.780  -1.163  -2.424  1.00  0.00     0.158 HD
ATOM      8  H11 UNL     1      -0.499   0.056  -2.493  1.00  0.00     0.158 HD
ATOM      9  H3  UNL     1      -0.854   1.872  -0.471  1.00  0.00     0.189 HD
ENDBRANCH   1   3
BRANCH   1  10
HETATM   10  C2  UNL     1       1.270  -0.216   0.780  1.00  0.00     0.215 C 
HETATM   11  N5  UNL     1       2.461   0.273   0.768  1.00  0.00    -0.276 N 
ATOM     12  H5  UNL     1       2.595   1.282   0.837  1.00  0.00     0.189 HD
BRANCH  11  13
HETATM   13  N6  UNL     1       3.569  -0.566   0.662  1.00  0.00    -0.209 N 
ATOM     14  H6  UNL     1       3.586  -1.448   1.173  1.00  0.00     0.215 HD
BRANCH  13  15
HETATM   15  O1  UNL     1       4.551  -0.242  -0.062  1.00  0.00    -0.274 OA
ATOM     16  H1  UNL     1       5.306  -0.814  -0.134  1.00  0.00     0.246 HD
ENDBRANCH  13  15
ENDBRANCH  11  13
ENDBRANCH   1  10
TORSDOF 4
