REMARK  7 active torsions:
REMARK  status: ('A' for Active; 'I' for Inactive)
REMARK    1  A    between atoms: N1_2  and  C2_4 
REMARK    2  A    between atoms: C2_4  and  C3_5 
REMARK    3  A    between atoms: C3_5  and  N2_6 
REMARK    4  A    between atoms: C4_8  and  N3_9 
REMARK    5  A    between atoms: N3_9  and  C5_11 
REMARK    6  A    between atoms: C5_11  and  C6_12 
REMARK    7  A    between atoms: C6_12  and  N4_13 
ROOT
HETATM    1  N3  UNL     1       0.778   0.855  -0.514  1.00  0.00    -0.385 N 
ATOM      2  H3  UNL     1       1.450   0.322  -1.066  1.00  0.00     0.160 HD
ENDROOT
BRANCH   1   3
HETATM    3  C4  UNL     1       1.209   1.640   0.566  1.00  0.00     0.171 C 
HETATM    4  N2  UNL     1       2.342   1.396   1.169  1.00  0.00    -0.385 N 
ATOM      5  H2  UNL     1       2.622   1.987   1.951  1.00  0.00     0.160 HD
BRANCH   4   6
HETATM    6  C3  UNL     1       3.203   0.325   0.767  1.00  0.00     0.139 C 
BRANCH   6   7
HETATM    7  C2  UNL     1       4.261   0.810  -0.233  1.00  0.00     0.137 C 
BRANCH   7   8
HETATM    8  N1  UNL     1       5.100  -0.293  -0.607  1.00  0.00    -0.406 N 
HETATM    9  C1  UNL     1       6.071  -0.694   0.110  1.00  0.00     0.112 C 
ATOM     10  H1  UNL     1       4.909  -0.776  -1.485  1.00  0.00     0.158 HD
ENDBRANCH   7   8
ENDBRANCH   6   7
ENDBRANCH   4   6
ENDBRANCH   1   3
BRANCH   1  11
HETATM   11  C5  UNL     1      -0.638   0.811  -0.836  1.00  0.00     0.148 C 
BRANCH  11  12
HETATM   12  C6  UNL     1      -1.339   0.092   0.284  1.00  0.00     0.259 C 
BRANCH  12  13
HETATM   13  N4  UNL     1      -2.765  -0.013   0.077  1.00  0.00    -0.032 N 
HETATM   14  C7  UNL     1      -3.285  -0.594  -1.115  1.00  0.00     0.468 C 
HETATM   15  N5  UNL     1      -4.499  -1.308  -0.753  1.00  0.00    -0.049 N 
HETATM   16  C8  UNL     1      -4.226  -1.705   0.609  1.00  0.00     0.269 C 
ATOM     17  H52 UNL     1      -5.363  -0.782  -0.883  1.00  0.00     0.279 HD
ATOM     18  H51 UNL     1      -4.754  -2.070  -1.381  1.00  0.00     0.279 HD
HETATM   19  C9  UNL     1      -3.482  -0.557   1.198  1.00  0.00     0.244 A 
HETATM   20  C10 UNL     1      -3.668   0.824   0.825  1.00  0.00     0.275 A 
ENDBRANCH  12  13
ENDBRANCH  11  12
ENDBRANCH   1  11
TORSDOF 7
