REMARK  7 active torsions:
REMARK  status: ('A' for Active; 'I' for Inactive)
REMARK    1  A    between atoms: C2_2  and  C3_3 
REMARK    2  A    between atoms: C2_2  and  N3_11 
REMARK    3  A    between atoms: C3_3  and  C4_4 
REMARK    4  A    between atoms: N3_11  and  C8_13 
REMARK    5  A    between atoms: C8_13  and  C9_14 
REMARK    6  A    between atoms: C9_14  and  N4_15 
REMARK    7  A    between atoms: N4_15  and  C10_17 
ROOT
HETATM    1  C1  UNL     1      -0.693  -3.006  -0.150  1.00  0.00     0.063 C 
HETATM    2  C2  UNL     1       0.114  -1.818   0.271  1.00  0.00    -0.013 C 
ENDROOT
BRANCH   2   3
HETATM    3  C3  UNL     1       1.105  -1.488  -0.841  1.00  0.00     0.110 C 
BRANCH   3   4
HETATM    4  C4  UNL     1       1.934  -0.302  -0.430  1.00  0.00     0.032 A 
HETATM    5  C5  UNL     1       3.120  -0.350   0.302  1.00  0.00     0.045 A 
HETATM    6  C6  UNL     1       3.545   0.949   0.442  1.00  0.00     0.111 A 
HETATM    7  N1  UNL     1       2.670   1.762  -0.170  1.00  0.00    -0.308 N 
HETATM    8  C7  UNL     1       2.761   3.226  -0.248  1.00  0.00     0.177 C 
HETATM    9  N2  UNL     1       1.725   0.994  -0.679  1.00  0.00    -0.303 N 
ATOM     10  H2  UNL     1       0.926   1.350  -1.203  1.00  0.00     0.186 HD
ENDBRANCH   3   4
ENDBRANCH   2   3
BRANCH   2  11
HETATM   11  N3  UNL     1      -0.498  -0.737   0.869  1.00  0.00    -0.375 N 
ATOM     12  H3  UNL     1      -0.202  -0.517   1.820  1.00  0.00     0.164 HD
BRANCH  11  13
HETATM   13  C8  UNL     1      -1.470   0.084   0.321  1.00  0.00     0.080 C 
BRANCH  13  14
HETATM   14  C9  UNL     1      -2.828  -0.550   0.185  1.00  0.00     0.166 C 
BRANCH  14  15
HETATM   15  N4  UNL     1      -3.827   0.338  -0.380  1.00  0.00    -0.363 N 
ATOM     16  H4  UNL     1      -4.273   0.091  -1.263  1.00  0.00     0.162 HD
BRANCH  15  17
HETATM   17  C10 UNL     1      -4.190   1.523   0.260  1.00  0.00     0.348 C 
HETATM   18  O1  UNL     1      -3.681   1.866   1.340  1.00  0.00    -0.284 OA
ENDBRANCH  15  17
ENDBRANCH  14  15
ENDBRANCH  13  14
ENDBRANCH  11  13
ENDBRANCH   2  11
TORSDOF 7
