REMARK  8 active torsions:
REMARK  status: ('A' for Active; 'I' for Inactive)
REMARK    1  A    between atoms: N1_2  and  C2_3 
REMARK    2  A    between atoms: N1_2  and  C3_7 
REMARK    3  A    between atoms: C3_7  and  S1_8 
REMARK    4  A    between atoms: S1_8  and  C4_9 
REMARK    5  A    between atoms: S1_8  and  C5_13 
REMARK    6  A    between atoms: C4_9  and  N3_10 
REMARK    7  A    between atoms: C5_13  and  C6_14 
REMARK    8  A    between atoms: C6_14  and  N4_15 
ROOT
HETATM    1  S1  UNL     1      -0.423  -0.543  -0.658  1.00  0.00    -0.162 SA
ENDROOT
BRANCH   1   2
HETATM    2  C3  UNL     1      -1.535   0.218   0.458  1.00  0.00     0.192 C 
BRANCH   2   3
HETATM    3  N1  UNL     1      -2.868  -0.123   0.124  1.00  0.00    -0.373 N 
HETATM    4  C1  UNL     1      -3.240  -1.489   0.173  1.00  0.00     0.151 C 
BRANCH   3   5
HETATM    5  C2  UNL     1      -3.853   0.799   0.466  1.00  0.00     0.171 C 
HETATM    6  N2  UNL     1      -3.751   1.999  -0.023  1.00  0.00    -0.395 N 
ATOM      7  H22 UNL     1      -2.971   2.240  -0.634  1.00  0.00     0.156 HD
ATOM      8  H21 UNL     1      -4.473   2.675   0.228  1.00  0.00     0.156 HD
ENDBRANCH   3   5
ENDBRANCH   2   3
ENDBRANCH   1   2
BRANCH   1   9
HETATM    9  C4  UNL     1      -0.449  -2.253  -0.718  1.00  0.00     0.117 C 
BRANCH   9  10
HETATM   10  N3  UNL     1      -0.399  -2.827  -1.887  1.00  0.00    -0.403 N 
ATOM     11  H32 UNL     1      -0.346  -2.259  -2.732  1.00  0.00     0.155 HD
ATOM     12  H31 UNL     1      -0.414  -3.846  -1.923  1.00  0.00     0.155 HD
ENDBRANCH   9  10
ENDBRANCH   1   9
BRANCH   1  13
HETATM   13  C5  UNL     1       1.165   0.182  -0.709  1.00  0.00     0.092 C 
BRANCH  13  14
HETATM   14  C6  UNL     1       1.887   0.156   0.622  1.00  0.00     0.161 C 
BRANCH  14  15
HETATM   15  N4  UNL     1       3.176   0.788   0.413  1.00  0.00    -0.272 N 
HETATM   16  C7  UNL     1       3.673   2.056   0.491  1.00  0.00     0.219 A 
HETATM   17  N5  UNL     1       4.877   1.617   0.136  1.00  0.00    -0.280 N 
HETATM   18  N6  UNL     1       4.390   0.396   0.062  1.00  0.00    -0.239 N 
ATOM     19  H5  UNL     1       5.791   2.045  -0.015  1.00  0.00     0.189 HD
ATOM     20  H6  UNL     1       4.795  -0.509  -0.176  1.00  0.00     0.208 HD
ENDBRANCH  14  15
ENDBRANCH  13  14
ENDBRANCH   1  13
TORSDOF 8
