REMARK  15 active torsions:
REMARK  status: ('A' for Active; 'I' for Inactive)
REMARK    1  A    between atoms: C4_4  and  C5_5 
REMARK    2  A    between atoms: C5_5  and  C6_6 
REMARK    3  A    between atoms: C6_6  and  C7_11 
REMARK    4  A    between atoms: N1_7  and  O1_9 
REMARK    5  A    between atoms: C7_11  and  N2_12 
REMARK    6  A    between atoms: C7_11  and  C10_20 
REMARK    7  A    between atoms: N2_12  and  C8_14 
REMARK    8  A    between atoms: C8_14  and  C9_15 
REMARK    9  A    between atoms: C9_15  and  N3_16 
REMARK   10  A    between atoms: C10_20  and  N4_21 
REMARK   11  A    between atoms: C10_20  and  N5_24 
REMARK   12  A    between atoms: N5_24  and  C11_26 
REMARK   13  A    between atoms: C12_28  and  S2_29 
REMARK   14  A    between atoms: C18_39  and  O3_40 
REMARK   15  A    between atoms: O3_40  and  C19_41 
ROOT
HETATM    1  C7  UNL     1      -1.278  -1.499  -0.259  1.00  0.00     0.097 C 
ENDROOT
BRANCH   1   2
HETATM    2  C6  UNL     1       0.139  -1.168  -0.203  1.00  0.00     0.066 C 
HETATM    3  N1  UNL     1       1.037  -2.075  -0.292  1.00  0.00    -0.271 N 
ATOM      4  H1  UNL     1       2.022  -1.812  -0.276  1.00  0.00     0.194 HD
BRANCH   2   5
HETATM    5  C5  UNL     1       0.553   0.289  -0.080  1.00  0.00     0.100 C 
BRANCH   5   6
HETATM    6  C4  UNL     1       2.041   0.391  -0.023  1.00  0.00    -0.049 A 
HETATM    7  C3  UNL     1       2.688   0.424   1.199  1.00  0.00     0.017 A 
HETATM    8  C2  UNL     1       4.056   0.517   1.290  1.00  0.00    -0.025 A 
HETATM    9  C1  UNL     1       4.660   0.543   2.663  1.00  0.00     0.051 C 
HETATM   10  C18 UNL     1       4.831   0.582   0.158  1.00  0.00     0.113 A 
HETATM   11  C17 UNL     1       4.202   0.551  -1.066  1.00  0.00     0.150 A 
HETATM   12  C16 UNL     1       2.813   0.456  -1.161  1.00  0.00     0.052 A 
HETATM   13  F1  UNL     1       4.957   0.614  -2.206  1.00  0.00    -0.203 F 
BRANCH  10  14
HETATM   14  O3  UNL     1       6.200   0.677   0.278  1.00  0.00    -0.343 OA
BRANCH  14  15
HETATM   15  C19 UNL     1       6.923   1.889   0.348  1.00  0.00     0.121 C 
HETATM   16  C20 UNL     1       7.620   2.101   1.666  1.00  0.00     0.040 C 
HETATM   17  C21 UNL     1       7.925   2.038  -0.746  1.00  0.00     0.040 C 
ENDBRANCH  14  15
ENDBRANCH  10  14
ENDBRANCH   5   6
ENDBRANCH   2   5
BRANCH   3  18
HETATM   18  O1  UNL     1       0.694  -3.384  -0.407  1.00  0.00    -0.290 OA
ATOM     19  H1  UNL     1       1.361  -4.057  -0.473  1.00  0.00     0.244 HD
ENDBRANCH   3  18
ENDBRANCH   1   2
BRANCH   1  20
HETATM   20  N2  UNL     1      -1.574  -2.750   0.372  1.00  0.00    -0.384 N 
ATOM     21  H2  UNL     1      -1.914  -3.574  -0.124  1.00  0.00     0.159 HD
BRANCH  20  22
HETATM   22  C8  UNL     1      -1.331  -2.705   1.806  1.00  0.00     0.147 C 
BRANCH  22  23
HETATM   23  C9  UNL     1      -1.699  -3.982   2.514  1.00  0.00     0.249 C 
BRANCH  23  24
HETATM   24  N3  UNL     1      -0.997  -5.142   2.080  1.00  0.00    -0.078 N 
ATOM     25  H33 UNL     1      -1.101  -5.258   1.072  1.00  0.00     0.274 HD
ATOM     26  H32 UNL     1       0.009  -4.986   2.140  1.00  0.00     0.274 HD
ATOM     27  H31 UNL     1      -1.246  -6.007   2.560  1.00  0.00     0.274 HD
ENDBRANCH  23  24
ENDBRANCH  22  23
ENDBRANCH  20  22
ENDBRANCH   1  20
BRANCH   1  28
HETATM   28  C10 UNL     1      -1.961  -1.232  -1.535  1.00  0.00     0.129 C 
BRANCH  28  29
HETATM   29  N4  UNL     1      -1.250  -0.926  -2.565  1.00  0.00    -0.384 N 
ATOM     30  H42 UNL     1      -0.235  -0.846  -2.498  1.00  0.00     0.157 HD
ATOM     31  H41 UNL     1      -1.723  -0.741  -3.449  1.00  0.00     0.157 HD
ENDBRANCH  28  29
BRANCH  28  32
HETATM   32  N5  UNL     1      -3.324  -1.339  -1.625  1.00  0.00    -0.321 N 
ATOM     33  H5  UNL     1      -3.641  -2.308  -1.648  1.00  0.00     0.169 HD
BRANCH  32  34
HETATM   34  C11 UNL     1      -4.294  -0.500  -1.687  1.00  0.00     0.154 A 
HETATM   35  S1  UNL     1      -5.980  -0.949  -1.801  1.00  0.00    -0.041 SA
HETATM   36  C12 UNL     1      -6.648   0.608  -1.842  1.00  0.00     0.116 A 
HETATM   37  C14 UNL     1      -5.539   1.404  -1.766  1.00  0.00     0.146 A 
HETATM   38  N6  UNL     1      -5.733   2.856  -1.778  1.00  0.00    -0.080 NA
HETATM   39  N7  UNL     1      -4.368   0.827  -1.689  1.00  0.00    -0.318 N 
HETATM   40  C15 UNL     1      -3.112   1.624  -1.607  1.00  0.00     0.159 C 
BRANCH  36  41
HETATM   41  S2  UNL     1      -8.344   1.111  -1.956  1.00  0.00     0.056 S 
HETATM   42  C13 UNL     1      -9.048   1.263  -0.333  1.00  0.00     0.133 C 
HETATM   43  O2  UNL     1      -8.476   2.541  -2.819  1.00  0.00    -0.252 OA
ENDBRANCH  36  41
ENDBRANCH  32  34
ENDBRANCH  28  32
ENDBRANCH   1  28
TORSDOF 15
