REMARK  11 active torsions:
REMARK  status: ('A' for Active; 'I' for Inactive)
REMARK    1  A    between atoms: C2_2  and  N1_3 
REMARK    2  A    between atoms: N1_3  and  C3_4 
REMARK    3  A    between atoms: N1_3  and  C5_6 
REMARK    4  A    between atoms: C5_6  and  C6_7 
REMARK    5  A    between atoms: C6_7  and  N2_8 
REMARK    6  A    between atoms: C6_7  and  C8_12 
REMARK    7  A    between atoms: C9_15  and  C10_16 
REMARK       I    between atoms: C10_16  and  N5_18 
REMARK    8  A    between atoms: N5_18  and  N6_20 
REMARK       I    between atoms: N6_20  and  C11_22 
REMARK    9  A    between atoms: C11_22  and  C12_24 
REMARK   10  A    between atoms: C20_36  and  N10_37 
REMARK   11  A    between atoms: C21_42  and  C22_43 
ROOT
HETATM    1  N2  UNL     1      -3.981   0.781  -3.114  1.00  0.00    -0.290 N 
ATOM      2  H2  UNL     1      -3.433   0.309  -3.833  1.00  0.00     0.178 HD
HETATM    3  C7  UNL     1      -4.921   1.746  -3.485  1.00  0.00     0.182 C 
HETATM    4  N3  UNL     1      -5.686   2.545  -3.815  1.00  0.00    -0.172 NA
ENDROOT
BRANCH   1   5
HETATM    5  C6  UNL     1      -3.779   0.449  -1.747  1.00  0.00     0.085 C 
BRANCH   5   6
HETATM    6  C5  UNL     1      -4.893   0.705  -0.818  1.00  0.00     0.118 C 
BRANCH   6   7
HETATM    7  N1  UNL     1      -4.725   0.437   0.530  1.00  0.00    -0.389 N 
BRANCH   7   8
HETATM    8  C2  UNL     1      -3.948   1.303   1.344  1.00  0.00     0.118 C 
HETATM    9  C1  UNL     1      -4.753   2.611   1.613  1.00  0.00     0.026 C 
ENDBRANCH   7   8
BRANCH   7  10
HETATM   10  C3  UNL     1      -5.871  -0.076   1.221  1.00  0.00     0.118 C 
HETATM   11  C4  UNL     1      -5.495  -1.064   2.333  1.00  0.00     0.026 C 
ENDBRANCH   7  10
ENDBRANCH   6   7
ENDBRANCH   5   6
BRANCH   5  12
HETATM   12  C8  UNL     1      -2.836  -0.650  -1.450  1.00  0.00     0.086 A 
HETATM   13  N4  UNL     1      -1.663  -0.460  -0.752  1.00  0.00    -0.345 N 
HETATM   14  C9  UNL     1      -0.702  -1.354  -0.606  1.00  0.00     0.147 A 
ATOM     15  H4  UNL     1      -1.525   0.449  -0.310  1.00  0.00     0.166 HD
HETATM   16  C20 UNL     1      -0.865  -2.604  -1.193  1.00  0.00     0.132 A 
HETATM   17  N11 UNL     1      -1.973  -2.834  -1.866  1.00  0.00    -0.341 N 
HETATM   18  C21 UNL     1      -2.976  -1.889  -2.014  1.00  0.00     0.054 A 
ATOM     19  H11 UNL     1      -2.099  -3.749  -2.298  1.00  0.00     0.167 HD
BRANCH  14  20
HETATM   20  C10 UNL     1       0.508  -1.141   0.180  1.00  0.00     0.290 C 
HETATM   21  O1  UNL     1       0.455  -0.560   1.292  1.00  0.00    -0.264 OA
HETATM   22  N5  UNL     1       1.790  -1.563  -0.258  1.00  0.00    -0.262 N 
ATOM     23  H5  UNL     1       1.843  -2.005  -1.176  1.00  0.00     0.190 HD
BRANCH  22  24
HETATM   24  N6  UNL     1       2.973  -1.430   0.444  1.00  0.00    -0.265 N 
HETATM   25  C11 UNL     1       3.939  -0.432   0.073  1.00  0.00     0.266 C 
HETATM   26  O2  UNL     1       3.667   0.326  -0.908  1.00  0.00    -0.269 OA
ATOM     27  H6  UNL     1       3.163  -2.047   1.234  1.00  0.00     0.190 HD
BRANCH  25  28
HETATM   28  C12 UNL     1       5.200  -0.320   0.820  1.00  0.00     0.190 C 
HETATM   29  C13 UNL     1       5.783  -1.659   1.009  1.00  0.00     0.087 C 
HETATM   30  N7  UNL     1       6.260  -2.705   1.144  1.00  0.00    -0.195 NA
HETATM   31  C14 UNL     1       4.932   0.321   2.178  1.00  0.00     0.063 C 
HETATM   32  C15 UNL     1       6.374   0.678   2.569  1.00  0.00     0.132 C 
HETATM   33  N8  UNL     1       6.888   1.191   1.303  1.00  0.00    -0.343 N 
HETATM   34  C16 UNL     1       7.782   2.014   0.758  1.00  0.00     0.116 A 
HETATM   35  C19 UNL     1       6.185   0.618   0.273  1.00  0.00     0.116 A 
HETATM   36  C17 UNL     1       7.672   1.983  -0.616  1.00  0.00     0.022 A 
HETATM   37  C18 UNL     1       8.536   2.802  -1.506  1.00  0.00     0.069 C 
HETATM   38  N9  UNL     1       6.685   1.119  -0.887  1.00  0.00    -0.346 N 
ATOM     39  H9  UNL     1       6.358   0.874  -1.822  1.00  0.00     0.167 HD
ENDBRANCH  25  28
ENDBRANCH  22  24
ENDBRANCH  14  20
BRANCH  16  40
HETATM   40  N10 UNL     1      -0.001  -3.559  -1.098  1.00  0.00    -0.383 N 
ATOM     41 2H10 UNL     1       0.857  -3.381  -0.577  1.00  0.00     0.157 HD
ATOM     42 1H10 UNL     1      -0.121  -4.476  -1.529  1.00  0.00     0.157 HD
ENDBRANCH  16  40
BRANCH  18  43
HETATM   43  C22 UNL     1      -4.175  -2.328  -2.704  1.00  0.00     0.174 C 
HETATM   44 CL1  UNL     1      -4.331  -2.150  -4.429  1.00  0.00    -0.124 Cl
ENDBRANCH  18  43
ENDBRANCH   5  12
ENDBRANCH   1   5
TORSDOF 11
