REMARK  11 active torsions:
REMARK  status: ('A' for Active; 'I' for Inactive)
REMARK    1  A    between atoms: C2_2  and  N1_3 
REMARK       I    between atoms: N1_3  and  C3_5 
REMARK       I    between atoms: C3_5  and  N2_7 
REMARK    2  A    between atoms: N2_7  and  S1_9 
REMARK    3  A    between atoms: S1_9  and  C4_11 
REMARK    4  A    between atoms: C4_11  and  C5_12 
REMARK    5  A    between atoms: C4_11  and  C11_27 
REMARK    6  A    between atoms: C7_17  and  N4_18 
REMARK       I    between atoms: N4_18  and  C8_20 
REMARK    7  A    between atoms: C13_29  and  C14_30 
REMARK    8  A    between atoms: C14_30  and  N7_32 
REMARK    9  A    between atoms: N7_32  and  C15_35 
REMARK   10  A    between atoms: C15_35  and  C16_36 
REMARK   11  A    between atoms: C16_36  and  O5_37 
ROOT
HETATM    1  C4  UNL     1      -0.424  -0.573  -0.587  1.00  0.00     0.208 C 
ENDROOT
BRANCH   1   2
HETATM    2  S1  UNL     1      -1.482  -1.291  -1.853  1.00  0.00     0.135 S 
HETATM    3  O2  UNL     1      -0.732  -2.304  -2.700  1.00  0.00    -0.234 OA
BRANCH   2   4
HETATM    4  N2  UNL     1      -2.827  -2.125  -1.116  1.00  0.00    -0.257 N 
HETATM    5  C3  UNL     1      -3.006  -3.528  -1.299  1.00  0.00     0.327 C 
HETATM    6  N1  UNL     1      -4.125  -4.132  -0.669  1.00  0.00    -0.343 N 
HETATM    7  O1  UNL     1      -2.191  -4.205  -2.002  1.00  0.00    -0.246 OA
ATOM      8  H1  UNL     1      -4.771  -3.577  -0.108  1.00  0.00     0.164 HD
ATOM      9  H2  UNL     1      -3.493  -1.602  -0.547  1.00  0.00     0.181 HD
BRANCH   6  10
HETATM   10  C2  UNL     1      -4.326  -5.555  -0.843  1.00  0.00     0.120 C 
HETATM   11  C1  UNL     1      -4.495  -5.887  -2.323  1.00  0.00     0.026 C 
ENDBRANCH   6  10
ENDBRANCH   2   4
ENDBRANCH   1   2
BRANCH   1  12
HETATM   12  C5  UNL     1      -1.245   0.383   0.197  1.00  0.00     0.108 A 
HETATM   13  N3  UNL     1      -0.914   0.783   1.422  1.00  0.00    -0.310 N 
HETATM   14  C6  UNL     1      -1.712   1.661   2.088  1.00  0.00     0.277 A 
ATOM     15  H3  UNL     1      -0.063   0.432   1.861  1.00  0.00     0.170 HD
HETATM   16  O3  UNL     1      -1.423   2.051   3.237  1.00  0.00    -0.266 OA
HETATM   17  C7  UNL     1      -2.866   2.153   1.522  1.00  0.00     0.145 A 
HETATM   18  C10 UNL     1      -3.189   1.727   0.256  1.00  0.00     0.150 A 
HETATM   19  N5  UNL     1      -4.380   2.215  -0.345  1.00  0.00    -0.080 NA
HETATM   20  N6  UNL     1      -2.377   0.866  -0.358  1.00  0.00    -0.331 N 
ATOM     21  H6  UNL     1      -2.624   0.556  -1.298  1.00  0.00     0.168 HD
BRANCH  17  22
HETATM   22  N4  UNL     1      -3.671   3.064   2.234  1.00  0.00    -0.320 N 
HETATM   23  C8  UNL     1      -3.491   4.462   2.125  1.00  0.00     0.218 C 
HETATM   24  C9  UNL     1      -4.308   5.452   2.850  1.00  0.00     0.117 C 
HETATM   25  O4  UNL     1      -2.582   4.895   1.365  1.00  0.00    -0.274 OA
ATOM     26  H4  UNL     1      -4.404   2.705   2.845  1.00  0.00     0.169 HD
ENDBRANCH  17  22
ENDBRANCH   1  12
BRANCH   1  27
HETATM   27  C11 UNL     1       0.761   0.101  -1.218  1.00  0.00     0.008 A 
HETATM   28  C12 UNL     1       2.058   0.123  -0.779  1.00  0.00     0.028 A 
HETATM   29  C13 UNL     1       2.952   0.798  -1.512  1.00  0.00     0.010 A 
HETATM   30  C18 UNL     1       2.490   1.415  -2.647  1.00  0.00     0.061 A 
HETATM   31  S2  UNL     1       0.826   1.027  -2.647  1.00  0.00    -0.104 SA
BRANCH  29  32
HETATM   32  C14 UNL     1       4.401   0.890  -1.131  1.00  0.00     0.401 C 
HETATM   33  F1  UNL     1       5.111   1.307  -2.230  1.00  0.00    -0.214 F 
BRANCH  32  34
HETATM   34  N7  UNL     1       4.842  -0.444  -0.726  1.00  0.00    -0.038 N 
ATOM     35  H72 UNL     1       4.269  -0.801   0.039  1.00  0.00     0.281 HD
ATOM     36  H71 UNL     1       4.615  -1.135  -1.441  1.00  0.00     0.281 HD
BRANCH  34  37
HETATM   37  C15 UNL     1       6.237  -0.495  -0.388  1.00  0.00     0.262 C 
BRANCH  37  38
HETATM   38  C16 UNL     1       6.506   0.265   0.863  1.00  0.00     0.194 C 
BRANCH  38  39
HETATM   39  O5  UNL     1       7.889   0.181   1.149  1.00  0.00    -0.394 OA
HETATM   40  C17 UNL     1       8.108   0.895   2.312  1.00  0.00     0.201 C 
ENDBRANCH  38  39
ENDBRANCH  37  38
ENDBRANCH  34  37
ENDBRANCH  32  34
ENDBRANCH  29  32
ENDBRANCH   1  27
TORSDOF 11
