REMARK  14 active torsions:
REMARK  status: ('A' for Active; 'I' for Inactive)
REMARK    1  A    between atoms: C2_2  and  O1_3 
REMARK    2  A    between atoms: O1_3  and  C3_4 
REMARK    3  A    between atoms: C3_4  and  C4_6 
REMARK    4  A    between atoms: C6_8  and  C7_9 
REMARK    5  A    between atoms: C7_9  and  N1_10 
REMARK    6  A    between atoms: N1_10  and  N2_11 
REMARK       I    between atoms: N2_11  and  C8_13 
REMARK    7  A    between atoms: C8_13  and  C9_15 
REMARK    8  A    between atoms: C9_15  and  C10_16 
REMARK    9  A    between atoms: C9_15  and  N4_20 
REMARK   10  A    between atoms: C10_16  and  C11_17 
REMARK   11  A    between atoms: N4_20  and  N5_22 
REMARK   12  A    between atoms: N5_22  and  C12_24 
REMARK   13  A    between atoms: C12_24  and  C13_26 
REMARK       I    between atoms: C13_26  and  N6_28 
REMARK   14  A    between atoms: N6_28  and  C14_30 
ROOT
HETATM    1  C9  UNL     1      -0.737   1.411  -1.953  1.00  0.00     0.103 C 
ENDROOT
BRANCH   1   2
HETATM    2  C8  UNL     1       0.219   0.868  -0.933  1.00  0.00     0.294 C 
HETATM    3  N2  UNL     1       1.110   1.720  -0.219  1.00  0.00    -0.198 N 
ATOM      4  H2  UNL     1       1.076   2.721  -0.410  1.00  0.00     0.205 HD
HETATM    5  O3  UNL     1       0.258  -0.358  -0.684  1.00  0.00    -0.264 OA
BRANCH   3   6
HETATM    6  N1  UNL     1       1.963   1.292   0.661  1.00  0.00    -0.335 NA
BRANCH   6   7
HETATM    7  C7  UNL     1       2.793   0.904   1.424  1.00  0.00     0.223 C 
BRANCH   7   8
HETATM    8  C6  UNL     1       4.245   0.704   1.078  1.00  0.00     0.027 A 
HETATM    9  C5  UNL     1       5.150   0.251   1.958  1.00  0.00     0.041 A 
HETATM   10  C4  UNL     1       6.439   0.102   1.529  1.00  0.00     0.082 A 
HETATM   11  S1  UNL     1       6.362   0.597  -0.097  1.00  0.00    -0.068 SA
HETATM   12  C20 UNL     1       4.688   0.982  -0.185  1.00  0.00     0.100 A 
HETATM   13  N7  UNL     1       3.962   1.475  -1.335  1.00  0.00    -0.093 NA
BRANCH  10  14
HETATM   14  C3  UNL     1       7.609  -0.370   2.278  1.00  0.00     0.300 C 
HETATM   15  O2  UNL     1       7.525  -0.698   3.466  1.00  0.00    -0.259 OA
BRANCH  14  16
HETATM   16  O1  UNL     1       8.824  -0.445   1.627  1.00  0.00    -0.317 OA
BRANCH  16  17
HETATM   17  C2  UNL     1       9.966  -0.886   2.296  1.00  0.00     0.174 C 
HETATM   18  C1  UNL     1      10.355  -0.045   3.484  1.00  0.00     0.034 C 
ENDBRANCH  16  17
ENDBRANCH  14  16
ENDBRANCH  10  14
ENDBRANCH   7   8
ENDBRANCH   6   7
ENDBRANCH   3   6
ENDBRANCH   1   2
BRANCH   1  19
HETATM   19  C10 UNL     1      -0.689   2.874  -2.164  1.00  0.00     0.164 C 
BRANCH  19  20
HETATM   20  C11 UNL     1      -1.540   3.424  -3.193  1.00  0.00     0.236 C 
HETATM   21  N3  UNL     1      -2.856   3.896  -2.860  1.00  0.00    -0.062 NA
HETATM   22  O4  UNL     1      -1.147   3.502  -4.406  1.00  0.00    -0.277 OA
ENDBRANCH  19  20
ENDBRANCH   1  19
BRANCH   1  23
HETATM   23  N4  UNL     1      -1.479   0.643  -2.536  1.00  0.00    -0.301 N 
ATOM     24  H4  UNL     1      -1.269  -0.285  -2.168  1.00  0.00     0.186 HD
BRANCH  23  25
HETATM   25  N5  UNL     1      -2.440   0.471  -3.437  1.00  0.00    -0.308 N 
ATOM     26  H5  UNL     1      -2.647   1.189  -4.131  1.00  0.00     0.182 HD
BRANCH  25  27
HETATM   27  C12 UNL     1      -3.207  -0.812  -3.397  1.00  0.00     0.286 C 
HETATM   28 CL1  UNL     1      -4.071  -1.031  -4.924  1.00  0.00    -0.091 Cl
BRANCH  27  29
HETATM   29  C13 UNL     1      -4.161  -0.708  -2.259  1.00  0.00     0.257 C 
HETATM   30  O5  UNL     1      -4.646   0.465  -2.084  1.00  0.00    -0.270 OA
HETATM   31  N6  UNL     1      -4.565  -1.716  -1.396  1.00  0.00    -0.354 N 
ATOM     32  H6  UNL     1      -4.165  -2.642  -1.547  1.00  0.00     0.163 HD
BRANCH  31  33
HETATM   33  C14 UNL     1      -5.492  -1.578  -0.313  1.00  0.00     0.084 C 
HETATM   34  C15 UNL     1      -4.645  -1.392   0.944  1.00  0.00     0.025 C 
HETATM   35  C16 UNL     1      -5.500  -1.460   2.188  1.00  0.00     0.002 C 
HETATM   36  C17 UNL     1      -6.321  -2.706   2.265  1.00  0.00     0.000 C 
HETATM   37  C18 UNL     1      -7.229  -2.732   1.026  1.00  0.00     0.002 C 
HETATM   38  C19 UNL     1      -6.282  -2.841  -0.165  1.00  0.00     0.025 C 
ENDBRANCH  31  33
ENDBRANCH  27  29
ENDBRANCH  25  27
ENDBRANCH  23  25
ENDBRANCH   1  23
TORSDOF 14
