REMARK  11 active torsions:
REMARK  status: ('A' for Active; 'I' for Inactive)
REMARK    1  A    between atoms: C3_5  and  N2_6 
REMARK    2  A    between atoms: C10_15  and  N4_16 
REMARK    3  A    between atoms: N4_16  and  C11_18 
REMARK    4  A    between atoms: C11_18  and  C12_19 
REMARK    5  A    between atoms: C12_19  and  N5_20 
REMARK    6  A    between atoms: N5_20  and  C14_22 
REMARK    7  A    between atoms: C14_22  and  C15_23 
REMARK    8  A    between atoms: C15_23  and  C16_24 
REMARK    9  A    between atoms: C16_24  and  N6_25 
REMARK   10  A    between atoms: N6_25  and  C17_27 
REMARK   11  A    between atoms: C22_43  and  N12_44 
ROOT
HETATM    1  C12 UNL     1       0.271  -0.076   0.741  1.00  0.00     0.291 C 
ENDROOT
BRANCH   1   2
HETATM    2  C11 UNL     1       0.266   1.390   0.480  1.00  0.00     0.150 C 
BRANCH   2   3
HETATM    3  N4  UNL     1      -0.863   1.783  -0.301  1.00  0.00    -0.384 N 
ATOM      4  H4  UNL     1      -0.657   2.163  -1.225  1.00  0.00     0.159 HD
BRANCH   3   5
HETATM    5  C10 UNL     1      -2.238   1.711   0.049  1.00  0.00     0.106 A 
HETATM    6  C9  UNL     1      -2.961   0.588  -0.265  1.00  0.00     0.189 A 
HETATM    7  C3  UNL     1      -4.325   0.452   0.030  1.00  0.00     0.145 A 
HETATM    8  F1  UNL     1      -2.424  -0.494  -0.921  1.00  0.00    -0.200 F 
HETATM    9  N1  UNL     1      -4.911   1.507   0.655  1.00  0.00    -0.342 N 
HETATM   10  C2  UNL     1      -4.248   2.607   0.974  1.00  0.00     0.042 A 
ATOM     11  H1  UNL     1      -5.902   1.449   0.888  1.00  0.00     0.167 HD
HETATM   12  C1  UNL     1      -4.957   3.717   1.655  1.00  0.00     0.071 C 
HETATM   13  C22 UNL     1      -2.904   2.745   0.685  1.00  0.00     0.154 A 
BRANCH   7  14
HETATM   14  N2  UNL     1      -5.053  -0.708  -0.303  1.00  0.00    -0.361 N 
HETATM   15  C4  UNL     1      -5.175  -1.160  -1.670  1.00  0.00     0.154 C 
HETATM   16  C5  UNL     1      -6.583  -1.764  -1.839  1.00  0.00     0.291 C 
HETATM   17  N3  UNL     1      -7.505  -1.150  -0.924  1.00  0.00     0.087 N 
HETATM   18  C6  UNL     1      -8.841  -1.634  -1.206  1.00  0.00     0.310 C 
HETATM   19  C7  UNL     1      -7.211  -1.322   0.462  1.00  0.00     0.291 C 
HETATM   20  C8  UNL     1      -5.713  -1.476   0.719  1.00  0.00     0.154 C 
ENDBRANCH   7  14
BRANCH  13  21
HETATM   21  N12 UNL     1      -2.234   3.938   1.033  1.00  0.00    -0.111 N 
HETATM   22  O1  UNL     1      -2.370   4.933   0.307  1.00  0.00    -0.532 OA
HETATM   23  O2  UNL     1      -1.453   4.009   2.137  1.00  0.00    -0.532 OA
ENDBRANCH  13  21
ENDBRANCH   3   5
ENDBRANCH   2   3
ENDBRANCH   1   2
BRANCH   1  24
HETATM   24  N5  UNL     1       1.411  -0.486   1.560  1.00  0.00     0.085 N 
HETATM   25  C13 UNL     1       1.254   0.041   2.908  1.00  0.00     0.309 C 
BRANCH  24  26
HETATM   26  C14 UNL     1       2.676  -0.035   1.028  1.00  0.00     0.273 C 
BRANCH  26  27
HETATM   27  C15 UNL     1       3.043  -0.704  -0.255  1.00  0.00     0.050 C 
BRANCH  27  28
HETATM   28  C16 UNL     1       4.379  -0.211  -0.793  1.00  0.00     0.140 C 
BRANCH  28  29
HETATM   29  N6  UNL     1       5.431  -0.474   0.161  1.00  0.00    -0.226 N 
ATOM     30  H6  UNL     1       5.182  -0.635   1.137  1.00  0.00     0.177 HD
BRANCH  29  31
HETATM   31  C17 UNL     1       6.671  -0.512  -0.179  1.00  0.00     0.681 A 
HETATM   32  N7  UNL     1       7.625  -0.765   0.763  1.00  0.00    -0.175 N 
HETATM   33  C18 UNL     1       8.924  -0.823   0.488  1.00  0.00     0.145 A 
ATOM     34  H7  UNL     1       7.326  -0.917   1.726  1.00  0.00     0.186 HD
HETATM   35  N8  UNL     1       9.836  -1.062   1.372  1.00  0.00    -0.383 N 
HETATM   36  C19 UNL     1       9.362  -0.621  -0.814  1.00  0.00     0.122 A 
ATOM     37  H82 UNL     1       9.514  -1.210   2.328  1.00  0.00     0.157 HD
ATOM     38  H81 UNL     1      10.833  -1.107   1.161  1.00  0.00     0.157 HD
HETATM   39  N9  UNL     1      10.584  -0.625  -1.358  1.00  0.00    -0.346 N 
HETATM   40  C21 UNL     1       8.411  -0.364  -1.779  1.00  0.00     0.152 A 
HETATM   41  C20 UNL     1      10.397  -0.368  -2.679  1.00  0.00     0.182 A 
ATOM     42  H9  UNL     1      11.471  -0.787  -0.881  1.00  0.00     0.167 HD
HETATM   43  N10 UNL     1       9.078  -0.210  -2.932  1.00  0.00    -0.336 N 
ATOM     44  H10 UNL     1       8.663  -0.009  -3.842  1.00  0.00     0.168 HD
HETATM   45  N11 UNL     1       7.116  -0.318  -1.438  1.00  0.00    -0.174 N 
ATOM     46  H11 UNL     1       6.431  -0.126  -2.169  1.00  0.00     0.186 HD
ENDBRANCH  29  31
ENDBRANCH  28  29
ENDBRANCH  27  28
ENDBRANCH  26  27
ENDBRANCH  24  26
ENDBRANCH   1  24
TORSDOF 11
