REMARK  9 active torsions:
REMARK  status: ('A' for Active; 'I' for Inactive)
REMARK    1  A    between atoms: C2_2  and  C3_3 
REMARK    2  A    between atoms: C5_5  and  C6_6 
REMARK    3  A    between atoms: C6_6  and  C8_8 
REMARK    4  A    between atoms: C6_6  and  C10_11 
REMARK    5  A    between atoms: C10_11  and  O3_13 
REMARK    6  A    between atoms: O3_13  and  C11_14 
REMARK    7  A    between atoms: C11_14  and  C12_15 
REMARK    8  A    between atoms: C13_16  and  O4_17 
REMARK    9  A    between atoms: C15_20  and  O5_21 
ROOT
HETATM    1  C10 UNL     1      -0.572   0.316   0.616  1.00  0.00     0.278 C 
HETATM    2  O2  UNL     1      -0.715  -0.537   1.499  1.00  0.00    -0.264 OA
ENDROOT
BRANCH   1   3
HETATM    3  C6  UNL     1      -1.779   1.164   0.268  1.00  0.00     0.122 C 
HETATM    4  C7  UNL     1      -1.474   2.392   1.237  1.00  0.00     0.039 C 
BRANCH   3   5
HETATM    5  C5  UNL     1      -2.982   0.589   0.833  1.00  0.00     0.003 C 
HETATM    6  C3  UNL     1      -3.759  -0.540   0.407  1.00  0.00    -0.086 C 
HETATM    7  C4  UNL     1      -3.335  -1.940   0.798  1.00  0.00     0.043 C 
BRANCH   6   8
HETATM    8  C2  UNL     1      -4.400  -0.548  -0.961  1.00  0.00     0.029 C 
HETATM    9  C1  UNL     1      -5.668  -1.443  -0.920  1.00  0.00     0.010 C 
ENDBRANCH   6   8
ENDBRANCH   3   5
BRANCH   3  10
HETATM   10  C8  UNL     1      -1.701   1.706  -1.063  1.00  0.00     0.144 C 
HETATM   11  C9  UNL     1      -1.764   1.041  -2.382  1.00  0.00     0.092 C 
HETATM   12  O1  UNL     1      -1.554   2.948  -1.193  1.00  0.00    -0.297 OA
ENDBRANCH   3  10
ENDBRANCH   1   3
BRANCH   1  13
HETATM   13  O3  UNL     1       0.649   0.458   0.004  1.00  0.00    -0.320 OA
BRANCH  13  14
HETATM   14  C11 UNL     1       1.700  -0.392   0.420  1.00  0.00     0.186 C 
BRANCH  14  15
HETATM   15  C12 UNL     1       2.962  -0.131  -0.324  1.00  0.00     0.045 C 
HETATM   16  C13 UNL     1       3.426   1.306  -0.112  1.00  0.00     0.127 C 
HETATM   17  C14 UNL     1       4.866   1.196  -0.630  1.00  0.00     0.064 C 
HETATM   18  C15 UNL     1       5.337  -0.134  -0.080  1.00  0.00     0.124 C 
HETATM   19  C16 UNL     1       4.097  -0.903   0.307  1.00  0.00     0.019 C 
HETATM   20  C17 UNL     1       4.156  -2.320  -0.164  1.00  0.00     0.013 C 
BRANCH  16  21
HETATM   21  O4  UNL     1       3.514   1.525   1.248  1.00  0.00    -0.395 OA
ATOM     22  H4  UNL     1       3.803   2.420   1.380  1.00  0.00     0.210 HD
ENDBRANCH  16  21
BRANCH  18  23
HETATM   23  O5  UNL     1       6.005  -0.799  -1.098  1.00  0.00    -0.395 OA
ATOM     24  H5  UNL     1       6.300  -1.633  -0.753  1.00  0.00     0.210 HD
ENDBRANCH  18  23
ENDBRANCH  14  15
ENDBRANCH  13  14
ENDBRANCH   1  13
TORSDOF 9
