REMARK  9 active torsions:
REMARK  status: ('A' for Active; 'I' for Inactive)
REMARK    1  A    between atoms: C2_2  and  C3_3 
REMARK    2  A    between atoms: C7_9  and  C8_10 
REMARK    3  A    between atoms: C8_10  and  C9_11 
REMARK    4  A    between atoms: C9_11  and  C10_12 
REMARK    5  A    between atoms: C10_12  and  C11_13 
REMARK    6  A    between atoms: C11_13  and  C12_14 
REMARK    7  A    between atoms: C12_14  and  C13_15 
REMARK    8  A    between atoms: C13_15  and  C14_16 
REMARK    9  A    between atoms: C14_16  and  O3_17 
ROOT
HETATM    1  C3  UNL     1      -1.928   0.394  -0.222  1.00  0.00    -0.048 C 
HETATM    2  C4  UNL     1      -1.068  -0.127  -1.088  1.00  0.00     0.057 C 
HETATM    3  C5  UNL     1      -0.172   0.437  -2.083  1.00  0.00     0.292 C 
HETATM    4  O1  UNL     1      -0.012   1.653  -2.327  1.00  0.00    -0.259 OA
HETATM    5  O2  UNL     1       0.509  -0.618  -2.751  1.00  0.00    -0.314 OA
HETATM    6  C6  UNL     1      -0.372  -1.712  -2.583  1.00  0.00     0.222 C 
HETATM    7  C7  UNL     1      -0.877  -1.590  -1.186  1.00  0.00     0.118 C 
HETATM    8  O4  UNL     1      -2.161  -2.207  -1.190  1.00  0.00    -0.347 OA
HETATM    9  C15 UNL     1      -2.928  -1.870  -0.132  1.00  0.00     0.242 C 
HETATM   10  N1  UNL     1      -4.235  -1.397  -0.551  1.00  0.00    -0.333 N 
ATOM     11  H1  UNL     1      -4.918  -1.639  -1.269  1.00  0.00     0.165 HD
HETATM   12  C16 UNL     1      -4.125  -0.426   0.515  1.00  0.00     0.232 C 
HETATM   13  O5  UNL     1      -5.008   0.247   1.096  1.00  0.00    -0.273 OA
HETATM   14  C17 UNL     1      -2.656  -0.582   0.590  1.00  0.00     0.156 C 
ENDROOT
BRANCH   7  15
HETATM   15  C8  UNL     1      -0.123  -2.212  -0.131  1.00  0.00     0.046 C 
BRANCH  15  16
HETATM   16  C9  UNL     1       1.232  -1.934   0.300  1.00  0.00     0.003 C 
BRANCH  16  17
HETATM   17  C10 UNL     1       1.524  -0.608   0.921  1.00  0.00     0.000 C 
BRANCH  17  18
HETATM   18  C11 UNL     1       3.016  -0.526   1.328  1.00  0.00     0.000 C 
BRANCH  18  19
HETATM   19  C12 UNL     1       3.238   0.818   1.937  1.00  0.00     0.002 C 
BRANCH  19  20
HETATM   20  C13 UNL     1       3.000   2.009   1.109  1.00  0.00     0.026 C 
BRANCH  20  21
HETATM   21  C14 UNL     1       3.884   2.111  -0.090  1.00  0.00     0.164 C 
BRANCH  21  22
HETATM   22  O3  UNL     1       3.741   1.065  -0.971  1.00  0.00    -0.401 OA
ATOM     23  H3  UNL     1       4.303   1.130  -1.734  1.00  0.00     0.209 HD
ENDBRANCH  21  22
ENDBRANCH  20  21
ENDBRANCH  19  20
ENDBRANCH  18  19
ENDBRANCH  17  18
ENDBRANCH  16  17
ENDBRANCH  15  16
ENDBRANCH   7  15
BRANCH   1  24
HETATM   24  C2  UNL     1      -2.094   1.830  -0.154  1.00  0.00     0.031 C 
HETATM   25  C1  UNL     1      -3.431   2.325  -0.647  1.00  0.00     0.010 C 
ENDBRANCH   1  24
TORSDOF 9
