REMARK  9 active torsions:
REMARK  status: ('A' for Active; 'I' for Inactive)
REMARK    1  A    between atoms: O1_2  and  N1_3 
REMARK    2  A    between atoms: C2_5  and  C3_6 
REMARK    3  A    between atoms: C2_5  and  C9_16 
REMARK    4  A    between atoms: C3_6  and  N2_7 
REMARK    5  A    between atoms: C3_6  and  C6_13 
REMARK    6  A    between atoms: N2_7  and  C4_9 
REMARK    7  A    between atoms: C4_9  and  C5_10 
REMARK    8  A    between atoms: C9_16  and  C12_19 
REMARK    9  A    between atoms: C13_20  and  C14_21 
ROOT
HETATM    1  N1  UNL     1      -1.725  -0.820  -1.644  1.00  0.00    -0.272 N 
ATOM      2  H1  UNL     1      -2.629  -0.392  -1.443  1.00  0.00     0.193 HD
HETATM    3  C2  UNL     1      -0.775   0.012  -1.563  1.00  0.00     0.052 C 
ENDROOT
BRANCH   3   4
HETATM    4  C3  UNL     1      -1.122   1.405  -1.206  1.00  0.00     0.130 C 
BRANCH   4   5
HETATM    5  N2  UNL     1      -0.666   1.777   0.118  1.00  0.00    -0.402 N 
ATOM      6  H2  UNL     1       0.040   2.498   0.267  1.00  0.00     0.154 HD
BRANCH   5   7
HETATM    7  C4  UNL     1      -1.265   1.074   1.192  1.00  0.00     0.228 C 
BRANCH   7   8
HETATM    8  C5  UNL     1      -0.743   1.491   2.523  1.00  0.00     0.190 C 
HETATM    9  O2  UNL     1       0.138   2.374   2.659  1.00  0.00    -0.647 OA
HETATM   10  O3  UNL     1      -1.234   0.894   3.671  1.00  0.00    -0.647 OA
ENDBRANCH   7   8
ENDBRANCH   5   7
ENDBRANCH   4   5
BRANCH   4  11
HETATM   11  C6  UNL     1      -2.552   1.789  -1.302  1.00  0.00     0.014 A 
HETATM   12  C7  UNL     1      -3.154   1.638  -2.671  1.00  0.00     0.007 A 
HETATM   13  C8  UNL     1      -3.762   1.021  -1.389  1.00  0.00     0.007 A 
ENDBRANCH   4  11
ENDBRANCH   3   4
BRANCH   3  14
HETATM   14  C9  UNL     1       0.593  -0.450  -1.807  1.00  0.00     0.059 C 
HETATM   15  C10 UNL     1       0.623  -1.855  -2.449  1.00  0.00     0.035 C 
HETATM   16  C11 UNL     1       1.283   0.536  -2.763  1.00  0.00     0.035 C 
BRANCH  14  17
HETATM   17  C12 UNL     1       1.357  -0.548  -0.567  1.00  0.00    -0.091 C 
HETATM   18  C13 UNL     1       2.030  -0.668   0.457  1.00  0.00    -0.101 C 
BRANCH  18  19
HETATM   19  C14 UNL     1       2.845  -0.826   1.657  1.00  0.00     0.065 C 
HETATM   20  C15 UNL     1       3.553   0.441   2.043  1.00  0.00     0.017 C 
HETATM   21  C16 UNL     1       3.603   0.377   3.575  1.00  0.00     0.001 C 
HETATM   22  C17 UNL     1       2.371  -0.379   3.990  1.00  0.00     0.001 C 
HETATM   23  C18 UNL     1       2.011  -1.250   2.817  1.00  0.00     0.017 C 
ENDBRANCH  18  19
ENDBRANCH  14  17
ENDBRANCH   3  14
BRANCH   1  24
HETATM   24  O1  UNL     1      -1.835  -2.102  -1.924  1.00  0.00    -0.285 OA
HETATM   25  C1  UNL     1      -2.858  -2.767  -2.597  1.00  0.00     0.237 C 
ENDBRANCH   1  24
TORSDOF 9
