REMARK  7 active torsions:
REMARK  status: ('A' for Active; 'I' for Inactive)
REMARK    1  A    between atoms: C2_2  and  C3_3 
REMARK    2  A    between atoms: C3_3  and  S1_4 
REMARK    3  A    between atoms: S1_4  and  C4_5 
REMARK    4  A    between atoms: N3_14  and  O1_16 
REMARK    5  A    between atoms: C10_18  and  C11_19 
REMARK    6  A    between atoms: C11_19  and  C12_20 
REMARK       I    between atoms: C12_20  and  N4_22 
REMARK    7  A    between atoms: N4_22  and  C14_24 
ROOT
HETATM    1  C4  UNL     1       0.781   0.661   0.593  1.00  0.00     0.033 A 
HETATM    2  C5  UNL     1       1.520   1.544   1.334  1.00  0.00     0.084 A 
HETATM    3  C6  UNL     1       2.395   1.092   2.369  1.00  0.00     0.103 C 
HETATM    4  N1  UNL     1       3.083   0.740   3.222  1.00  0.00    -0.191 NA
HETATM    5  C7  UNL     1       1.389   2.911   1.139  1.00  0.00     0.029 A 
HETATM    6  C8  UNL     1       2.204   3.870   1.952  1.00  0.00     0.070 C 
HETATM    7  N2  UNL     1       0.522   3.337   0.214  1.00  0.00    -0.343 N 
ATOM      8  H2  UNL     1       0.424   4.342   0.070  1.00  0.00     0.167 HD
HETATM    9  C9  UNL     1      -0.224   2.512  -0.533  1.00  0.00     0.133 A 
HETATM   10  N3  UNL     1      -1.059   2.930  -1.423  1.00  0.00    -0.253 N 
ATOM     11  H3  UNL     1      -1.590   2.237  -1.950  1.00  0.00     0.196 HD
HETATM   12  C10 UNL     1      -0.121   1.149  -0.369  1.00  0.00     0.015 A 
ENDROOT
BRANCH   1  13
HETATM   13  S1  UNL     1       0.924  -1.108   0.708  1.00  0.00    -0.128 SA
BRANCH  13  14
HETATM   14  C3  UNL     1       2.065  -1.723  -0.529  1.00  0.00     0.079 C 
BRANCH  14  15
HETATM   15  C2  UNL     1       3.479  -1.430  -0.193  1.00  0.00     0.006 C 
HETATM   16  C1  UNL     1       3.867  -2.169   1.085  1.00  0.00     0.006 C 
ENDBRANCH  14  15
ENDBRANCH  13  14
ENDBRANCH   1  13
BRANCH  12  17
HETATM   17  C11 UNL     1      -0.936   0.199  -1.133  1.00  0.00     0.146 C 
BRANCH  17  18
HETATM   18  C12 UNL     1      -2.067  -0.318  -0.316  1.00  0.00     0.223 C 
HETATM   19  O2  UNL     1      -2.180   0.103   0.863  1.00  0.00    -0.273 OA
HETATM   20  N4  UNL     1      -2.967  -1.254  -0.883  1.00  0.00    -0.357 N 
HETATM   21  C13 UNL     1      -2.764  -1.693  -2.247  1.00  0.00     0.152 C 
BRANCH  20  22
HETATM   22  C14 UNL     1      -4.087  -1.790  -0.154  1.00  0.00     0.120 C 
HETATM   23  C15 UNL     1      -3.782  -3.044   0.609  1.00  0.00     0.026 C 
ENDBRANCH  20  22
ENDBRANCH  17  18
ENDBRANCH  12  17
BRANCH  10  24
HETATM   24  O1  UNL     1      -1.271   4.256  -1.698  1.00  0.00    -0.288 OA
ATOM     25  H1  UNL     1      -1.886   4.564  -2.353  1.00  0.00     0.244 HD
ENDBRANCH  10  24
TORSDOF 7
