REMARK  2 active torsions:
REMARK  status: ('A' for Active; 'I' for Inactive)
REMARK    1  A    between atoms: S1_2  and  N1_5 
REMARK    2  A    between atoms: N1_5  and  C1_7 
ROOT
HETATM    1  N1  UNL     1       0.687   0.786  -0.233  1.00  0.00    -0.296 N 
ATOM      2  H1  UNL     1       0.313   1.509  -0.847  1.00  0.00     0.175 HD
ENDROOT
BRANCH   1   3
HETATM    3  S1  UNL     1       2.339   0.683   0.157  1.00  0.00     0.204 S 
HETATM    4  O1  UNL     1       2.954   2.069   0.133  1.00  0.00    -0.578 OA
HETATM    5  O2  UNL     1       2.465   0.063   1.519  1.00  0.00    -0.578 OA
HETATM    6  O3  UNL     1       3.184  -0.289  -0.943  1.00  0.00    -0.578 OA
ENDBRANCH   1   3
BRANCH   1   7
HETATM    7  C1  UNL     1      -0.134  -0.212   0.362  1.00  0.00     0.095 C 
HETATM    8  C2  UNL     1      -1.367   0.309   1.059  1.00  0.00     0.026 C 
HETATM    9  C3  UNL     1      -2.170  -0.127  -0.163  1.00  0.00     0.004 C 
HETATM   10  C4  UNL     1      -1.017  -1.013  -0.553  1.00  0.00     0.026 C 
ENDBRANCH   1   7
TORSDOF 2
