REMARK  2 active torsions:
REMARK  status: ('A' for Active; 'I' for Inactive)
REMARK    1  A    between atoms: C2_2  and  C3_4 
REMARK    2  A    between atoms: C5_6  and  C6_7 
ROOT
HETATM    1  C3  UNL     1      -1.562  -0.279   0.805  1.00  0.00     0.193 C 
HETATM    2  C4  UNL     1      -0.693  -0.266  -0.462  1.00  0.00     0.072 C 
HETATM    3  C5  UNL     1       0.295  -0.719   0.591  1.00  0.00     0.129 C 
HETATM    4  O2  UNL     1      -0.386   0.098   1.488  1.00  0.00    -0.372 OA
ENDROOT
BRANCH   3   5
HETATM    5  C6  UNL     1       1.728  -0.395   0.353  1.00  0.00     0.015 C 
HETATM    6  C7  UNL     1       2.334  -0.967  -0.910  1.00  0.00     0.007 C 
HETATM    7  C8  UNL     1       3.179   0.313  -0.974  1.00  0.00     0.001 C 
HETATM    8  C9  UNL     1       2.054   0.965  -0.155  1.00  0.00     0.007 C 
ENDBRANCH   3   5
BRANCH   1   9
HETATM    9  C2  UNL     1      -2.614   0.758   0.820  1.00  0.00     0.151 C 
HETATM   10  C1  UNL     1      -3.899   0.480   0.135  1.00  0.00     0.093 C 
HETATM   11  O1  UNL     1      -2.383   1.807   1.399  1.00  0.00    -0.296 OA
ENDBRANCH   1   9
TORSDOF 2
