REMARK  9 active torsions:
REMARK  status: ('A' for Active; 'I' for Inactive)
REMARK    1  A    between atoms: C2_2  and  C3_3 
REMARK    2  A    between atoms: C3_3  and  C4_4 
REMARK    3  A    between atoms: C4_4  and  C5_5 
REMARK    4  A    between atoms: C7_7  and  C8_8 
REMARK    5  A    between atoms: C8_8  and  O1_9 
REMARK    6  A    between atoms: O1_9  and  C9_10 
REMARK    7  A    between atoms: C10_11  and  C11_12 
REMARK    8  A    between atoms: C11_12  and  O2_13 
REMARK    9  A    between atoms: C13_16  and  O3_17 
ROOT
HETATM    1  C5  UNL     1      -1.511  -0.572   0.162  1.00  0.00     0.127 C 
HETATM    2  C6  UNL     1      -0.154  -0.816  -0.484  1.00  0.00     0.072 C 
HETATM    3  C7  UNL     1       0.782   0.224   0.139  1.00  0.00     0.090 C 
HETATM    4  C12 UNL     1       1.172   1.254  -0.891  1.00  0.00     0.073 C 
HETATM    5  C13 UNL     1       0.942   2.614  -0.287  1.00  0.00     0.133 C 
HETATM    6  C14 UNL     1      -0.527   2.770  -0.003  1.00  0.00     0.028 C 
HETATM    7  C15 UNL     1      -1.353   2.840  -1.255  1.00  0.00     0.022 C 
HETATM    8  C16 UNL     1      -0.808   4.044   0.787  1.00  0.00     0.022 C 
HETATM    9  C17 UNL     1      -0.969   1.553   0.784  1.00  0.00     0.271 C 
HETATM   10  O4  UNL     1      -1.840   0.758   0.046  1.00  0.00    -0.355 OA
HETATM   11  O5  UNL     1       0.114   0.800   1.210  1.00  0.00    -0.347 OA
ENDROOT
BRANCH   3  12
HETATM   12  C8  UNL     1       1.994  -0.518   0.641  1.00  0.00     0.212 C 
BRANCH  12  13
HETATM   13  O1  UNL     1       2.634  -1.083  -0.491  1.00  0.00    -0.360 OA
BRANCH  13  14
HETATM   14  C9  UNL     1       3.781  -1.818  -0.281  1.00  0.00     0.132 C 
HETATM   15  C10 UNL     1       4.957  -1.229  -0.418  1.00  0.00     0.023 C 
BRANCH  15  16
HETATM   16  C11 UNL     1       6.237  -1.980  -0.202  1.00  0.00     0.193 C 
BRANCH  16  17
HETATM   17  O2  UNL     1       6.972  -1.950  -1.364  1.00  0.00    -0.397 OA
ATOM     18  H2  UNL     1       7.783  -2.426  -1.227  1.00  0.00     0.209 HD
ENDBRANCH  16  17
ENDBRANCH  15  16
ENDBRANCH  13  14
ENDBRANCH  12  13
ENDBRANCH   3  12
BRANCH   1  19
HETATM   19  C4  UNL     1      -2.547  -1.422  -0.542  1.00  0.00     0.032 C 
BRANCH  19  20
HETATM   20  C3  UNL     1      -3.874  -1.116   0.169  1.00  0.00     0.002 C 
BRANCH  20  21
HETATM   21  C2  UNL     1      -4.952  -1.942  -0.496  1.00  0.00    -0.004 C 
HETATM   22  C1  UNL     1      -4.554  -3.405  -0.334  1.00  0.00     0.005 C 
ENDBRANCH  20  21
ENDBRANCH  19  20
ENDBRANCH   1  19
BRANCH   5  23
HETATM   23  O3  UNL     1       1.465   3.647  -1.043  1.00  0.00    -0.395 OA
ATOM     24  H3  UNL     1       1.320   4.505  -0.662  1.00  0.00     0.210 HD
ENDBRANCH   5  23
TORSDOF 9
