REMARK  1 active torsions:
REMARK  status: ('A' for Active; 'I' for Inactive)
REMARK    1  A    between atoms: N1_2  and  C2_4 
ROOT
HETATM    1  C2  UNL     1       0.571  -0.383   0.043  1.00  0.00     0.094 C 
HETATM    2  C3  UNL     1      -0.080  -0.187  -1.311  1.00  0.00     0.026 C 
HETATM    3  C4  UNL     1      -1.514  -0.678  -1.284  1.00  0.00     0.002 C 
HETATM    4  C5  UNL     1      -2.241   0.199  -0.289  1.00  0.00     0.002 C 
HETATM    5  C6  UNL     1      -1.666   0.111   1.095  1.00  0.00     0.022 C 
HETATM    6  C7  UNL     1      -0.184   0.268   1.160  1.00  0.00     0.104 C 
HETATM    7 CL1  UNL     1       0.334   1.971   1.237  1.00  0.00    -0.123 Cl
ENDROOT
BRANCH   1   8
HETATM    8  N1  UNL     1       1.871   0.154  -0.006  1.00  0.00    -0.420 N 
HETATM    9  C1  UNL     1       2.954  -0.641   0.392  1.00  0.00     0.140 C 
ATOM     10  H1  UNL     1       2.023   1.110  -0.327  1.00  0.00     0.153 HD
ENDBRANCH   1   8
TORSDOF 1
