REMARK  3 active torsions:
REMARK  status: ('A' for Active; 'I' for Inactive)
REMARK    1  A    between atoms: N1_1  and  C1_5 
REMARK    2  A    between atoms: C1_5  and  C2_6 
REMARK    3  A    between atoms: C8_12  and  N2_13 
ROOT
HETATM    1  C2  UNL     1       0.786  -0.133   0.063  1.00  0.00     0.041 C 
HETATM    2  C3  UNL     1       0.149  -1.300  -0.658  1.00  0.00     0.008 C 
HETATM    3  C4  UNL     1      -1.332  -1.112  -0.857  1.00  0.00     0.000 C 
HETATM    4  C5  UNL     1      -2.047  -0.909   0.438  1.00  0.00     0.000 C 
HETATM    5  C6  UNL     1      -1.695   0.349   1.155  1.00  0.00     0.002 C 
HETATM    6  C7  UNL     1      -1.152   1.434   0.278  1.00  0.00     0.033 C 
HETATM    7  C8  UNL     1       0.118   1.121  -0.409  1.00  0.00     0.189 C 
ENDROOT
BRANCH   1   8
HETATM    8  C1  UNL     1       2.265  -0.155  -0.295  1.00  0.00     0.236 C 
BRANCH   8   9
HETATM    9  N1  UNL     1       2.780  -1.443   0.169  1.00  0.00    -0.079 N 
ATOM     10  H13 UNL     1       2.600  -1.619   1.157  1.00  0.00     0.274 HD
ATOM     11  H12 UNL     1       2.263  -2.242  -0.197  1.00  0.00     0.274 HD
ATOM     12  H11 UNL     1       3.771  -1.458  -0.071  1.00  0.00     0.274 HD
ENDBRANCH   8   9
ENDBRANCH   1   8
BRANCH   7  13
HETATM   13  N2  UNL     1       1.014   2.283  -0.289  1.00  0.00    -0.075 N 
ATOM     14  H23 UNL     1       1.371   2.384   0.661  1.00  0.00     0.274 HD
ATOM     15  H22 UNL     1       1.898   2.125  -0.773  1.00  0.00     0.274 HD
ATOM     16  H21 UNL     1       0.559   3.137  -0.611  1.00  0.00     0.274 HD
ENDBRANCH   7  13
TORSDOF 3
