REMARK  1 active torsions:
REMARK  status: ('A' for Active; 'I' for Inactive)
REMARK    1  A    between atoms: C1_4  and  C2_5 
ROOT
HETATM    1  C2  UNL     1       0.804   0.530   0.123  1.00  0.00     0.069 C 
HETATM    2  C3  UNL     1       0.118   0.498  -1.191  1.00  0.00     0.015 C 
HETATM    3  C4  UNL     1      -1.207  -0.147  -1.227  1.00  0.00     0.028 C 
HETATM    4  C5  UNL     1      -2.039   0.017   0.006  1.00  0.00     0.234 C 
HETATM    5  N2  UNL     1      -1.245  -0.378   1.144  1.00  0.00    -0.057 N 
ATOM      6  H21 UNL     1      -0.998  -1.366   1.091  1.00  0.00     0.279 HD
ATOM      7  H22 UNL     1      -1.809  -0.393   1.994  1.00  0.00     0.279 HD
HETATM    8  C6  UNL     1      -0.094   0.422   1.316  1.00  0.00     0.289 C 
HETATM    9 CL1  UNL     1       0.883  -0.275   2.656  1.00  0.00    -0.094 Cl
ENDROOT
BRANCH   1  10
HETATM   10  C1  UNL     1       1.892  -0.477   0.167  1.00  0.00     0.060 C 
HETATM   11  N1  UNL     1       3.113  -0.234   0.443  1.00  0.00    -0.411 N 
ATOM     12  H12 UNL     1       3.343   0.738   0.648  1.00  0.00     0.155 HD
ATOM     13  H11 UNL     1       3.861  -0.927   0.473  1.00  0.00     0.155 HD
ENDBRANCH   1  10
TORSDOF 1
