REMARK  2 active torsions:
REMARK  status: ('A' for Active; 'I' for Inactive)
REMARK    1  A    between atoms: N1_1  and  C1_5 
REMARK    2  A    between atoms: C4_9  and  C5_10 
ROOT
HETATM    1  C1  UNL     1      -1.314   0.166  -0.829  1.00  0.00     0.188 C 
HETATM    2  C2  UNL     1      -1.852  -0.722   0.240  1.00  0.00     0.059 C 
HETATM    3  C3  UNL     1      -0.712  -1.581   0.755  1.00  0.00     0.170 C 
HETATM    4  O1  UNL     1       0.254  -0.691   1.229  1.00  0.00    -0.382 OA
HETATM    5  C4  UNL     1       0.978  -0.217   0.141  1.00  0.00     0.147 C 
HETATM    6  C7  UNL     1       0.148   0.064  -1.063  1.00  0.00     0.068 C 
ENDROOT
BRANCH   1   7
HETATM    7  N1  UNL     1      -1.730   1.559  -0.609  1.00  0.00    -0.075 N 
ATOM      8  H13 UNL     1      -2.743   1.641  -0.524  1.00  0.00     0.274 HD
ATOM      9  H12 UNL     1      -1.471   1.888   0.321  1.00  0.00     0.274 HD
ATOM     10  H11 UNL     1      -1.362   2.167  -1.341  1.00  0.00     0.274 HD
ENDBRANCH   1   7
BRANCH   5  11
HETATM   11  C5  UNL     1       1.837   0.936   0.523  1.00  0.00     0.017 C 
HETATM   12  C6  UNL     1       3.144   0.827   0.705  1.00  0.00     0.083 C 
HETATM   13 CL1  UNL     1       3.924  -0.729   0.493  1.00  0.00    -0.097 Cl
ENDBRANCH   5  11
TORSDOF 2
