REMARK  3 active torsions:
REMARK  status: ('A' for Active; 'I' for Inactive)
REMARK    1  A    between atoms: N1_1  and  C1_5 
REMARK    2  A    between atoms: C3_7  and  N2_8 
REMARK    3  A    between atoms: N2_8  and  C4_10 
ROOT
HETATM    1  N2  UNL     1      -0.827  -0.180  -1.049  1.00  0.00    -0.411 N 
ATOM      2  H2  UNL     1      -0.780   0.048  -2.042  1.00  0.00     0.154 HD
ENDROOT
BRANCH   1   3
HETATM    3  C3  UNL     1      -1.934  -0.878  -0.504  1.00  0.00     0.109 A 
HETATM    4  C1  UNL     1      -2.776  -0.210   0.507  1.00  0.00     0.207 A 
HETATM    5  C2  UNL     1      -3.323  -0.528  -0.874  1.00  0.00     0.061 A 
BRANCH   4   6
HETATM    6  N1  UNL     1      -2.648   1.187   0.804  1.00  0.00    -0.073 N 
ATOM      7  H13 UNL     1      -2.086   1.648   0.089  1.00  0.00     0.274 HD
ATOM      8  H12 UNL     1      -3.541   1.660   0.662  1.00  0.00     0.274 HD
ATOM      9  H11 UNL     1      -2.281   1.401   1.731  1.00  0.00     0.274 HD
ENDBRANCH   4   6
ENDBRANCH   1   3
BRANCH   1  10
HETATM   10  C4  UNL     1       0.208   0.187  -0.162  1.00  0.00     0.077 C 
HETATM   11  C5  UNL     1       0.909  -0.994   0.479  1.00  0.00     0.024 C 
HETATM   12  C6  UNL     1       2.041  -0.470   1.336  1.00  0.00     0.002 C 
HETATM   13  C7  UNL     1       3.128   0.152   0.472  1.00  0.00     0.000 C 
HETATM   14  C8  UNL     1       2.598   0.342  -0.921  1.00  0.00     0.002 C 
HETATM   15  C9  UNL     1       1.234   0.989  -0.959  1.00  0.00     0.024 C 
ENDBRANCH   1  10
TORSDOF 3
