REMARK  4 active torsions:
REMARK  status: ('A' for Active; 'I' for Inactive)
REMARK    1  A    between atoms: C2_2  and  C4_5 
REMARK    2  A    between atoms: C4_5  and  N2_6 
REMARK    3  A    between atoms: C4_5  and  N3_10 
REMARK    4  A    between atoms: N3_10  and  C5_13 
ROOT
HETATM    1  C1  UNL     1      -2.820  -1.010   0.912  1.00  0.00     0.029 C 
HETATM    2  C2  UNL     1      -2.177  -0.221  -0.223  1.00  0.00     0.146 C 
HETATM    3  C3  UNL     1      -3.142   0.723  -0.728  1.00  0.00     0.067 C 
HETATM    4  N1  UNL     1      -3.931   1.479  -1.112  1.00  0.00    -0.197 NA
ENDROOT
BRANCH   2   5
HETATM    5  C4  UNL     1      -0.921   0.475   0.247  1.00  0.00     0.397 C 
BRANCH   5   6
HETATM    6  N2  UNL     1      -0.371   1.209  -0.895  1.00  0.00    -0.049 N 
ATOM      7  H23 UNL     1      -0.216   0.617  -1.711  1.00  0.00     0.276 HD
ATOM      8  H22 UNL     1      -1.044   1.847  -1.319  1.00  0.00     0.276 HD
ATOM      9  H21 UNL     1       0.477   1.679  -0.578  1.00  0.00     0.276 HD
ENDBRANCH   5   6
BRANCH   5  10
HETATM   10  N3  UNL     1       0.016  -0.545   0.675  1.00  0.00    -0.041 N 
ATOM     11  H32 UNL     1       0.052  -0.618   1.692  1.00  0.00     0.280 HD
ATOM     12  H31 UNL     1      -0.327  -1.482   0.463  1.00  0.00     0.280 HD
BRANCH  10  13
HETATM   13  C5  UNL     1       1.330  -0.320   0.111  1.00  0.00     0.188 C 
HETATM   14  C6  UNL     1       1.989   0.961   0.613  1.00  0.00     0.033 C 
HETATM   15  C7  UNL     1       3.280   0.176   0.670  1.00  0.00     0.004 C 
HETATM   16  C8  UNL     1       2.392  -1.080   0.842  1.00  0.00     0.033 C 
ENDBRANCH  10  13
ENDBRANCH   5  10
ENDBRANCH   2   5
TORSDOF 4
