REMARK  3 active torsions:
REMARK  status: ('A' for Active; 'I' for Inactive)
REMARK    1  A    between atoms: N1_2  and  N2_3 
REMARK    2  A    between atoms: C6_8  and  C7_9 
REMARK    3  A    between atoms: C7_9  and  N3_11 
ROOT
HETATM    1  N2  UNL     1       0.447   0.450  -0.151  1.00  0.00    -0.229 NA
HETATM    2  C2  UNL     1       1.808   0.184   0.203  1.00  0.00     0.110 C 
HETATM    3  C3  UNL     1       2.175  -1.281   0.128  1.00  0.00     0.016 C 
HETATM    4  C4  UNL     1       1.008  -2.062  -0.454  1.00  0.00     0.003 C 
HETATM    5  C5  UNL     1      -0.168  -1.794   0.455  1.00  0.00     0.023 C 
HETATM    6  C6  UNL     1      -0.428  -0.335   0.651  1.00  0.00     0.106 C 
ENDROOT
BRANCH   6   7
HETATM    7  C7  UNL     1      -1.889  -0.107   0.403  1.00  0.00     0.198 C 
HETATM    8  C8  UNL     1      -2.306  -0.407  -1.012  1.00  0.00     0.041 C 
BRANCH   7   9
HETATM    9  N3  UNL     1      -2.368   1.172   0.823  1.00  0.00    -0.074 N 
ATOM     10  H33 UNL     1      -2.146   1.329   1.806  1.00  0.00     0.274 HD
ATOM     11  H32 UNL     1      -1.815   1.916   0.397  1.00  0.00     0.274 HD
ATOM     12  H31 UNL     1      -3.362   1.327   0.654  1.00  0.00     0.274 HD
ENDBRANCH   7   9
ENDBRANCH   6   7
BRANCH   1  13
HETATM   13  N1  UNL     1       0.221   1.801  -0.148  1.00  0.00    -0.169 NA
HETATM   14  C1  UNL     1       1.426   2.610  -0.140  1.00  0.00     0.152 C 
ENDBRANCH   1  13
TORSDOF 3
