REMARK  1 active torsions:
REMARK  status: ('A' for Active; 'I' for Inactive)
REMARK    1  A    between atoms: C3_3  and  C4_4 
ROOT
HETATM    1  C4  UNL     1       1.686  -0.301   0.008  1.00  0.00     0.117 A 
HETATM    2  N1  UNL     1       2.128  -0.151  -1.250  1.00  0.00    -0.272 N 
ATOM      3  H1  UNL     1       1.573   0.149  -2.052  1.00  0.00     0.190 HD
HETATM    4  N2  UNL     1       3.412  -0.462  -1.262  1.00  0.00    -0.227 N 
ATOM      5  H2  UNL     1       4.008  -0.438  -2.089  1.00  0.00     0.210 HD
HETATM    6  N3  UNL     1       3.814  -0.808  -0.056  1.00  0.00    -0.227 N 
ATOM      7  H3  UNL     1       4.753  -1.094   0.221  1.00  0.00     0.210 HD
HETATM    8  N4  UNL     1       2.752  -0.708   0.718  1.00  0.00    -0.272 N 
ATOM      9  H4  UNL     1       2.741  -0.911   1.717  1.00  0.00     0.190 HD
ENDROOT
BRANCH   1  10
HETATM   10  C3  UNL     1       0.291  -0.062   0.502  1.00  0.00     0.059 C 
HETATM   11  C2  UNL     1      -0.144   1.347   0.238  1.00  0.00     0.040 C 
HETATM   12  C1  UNL     1      -1.645   1.485   0.192  1.00  0.00     0.233 C 
HETATM   13  N5  UNL     1      -2.183   0.320   0.907  1.00  0.00    -0.075 N 
HETATM   14  C6  UNL     1      -2.057  -0.803   0.027  1.00  0.00     0.233 C 
ATOM     15  H52 UNL     1      -1.745   0.169   1.816  1.00  0.00     0.277 HD
ATOM     16  H51 UNL     1      -3.135   0.461   1.244  1.00  0.00     0.277 HD
HETATM   17  C5  UNL     1      -0.596  -1.080  -0.181  1.00  0.00     0.040 C 
ENDBRANCH   1  10
TORSDOF 1
