REMARK  2 active torsions:
REMARK  status: ('A' for Active; 'I' for Inactive)
REMARK    1  A    between atoms: N1_1  and  C1_5 
REMARK    2  A    between atoms: C1_5  and  C2_6 
ROOT
HETATM    1  C2  UNL     1      -1.204   0.751  -0.931  1.00  0.00     0.109 A 
HETATM    2  S1  UNL     1      -0.243   2.313  -0.768  1.00  0.00    -0.074 SA
HETATM    3  N2  UNL     1       0.906   1.045  -0.895  1.00  0.00    -0.249 NA
HETATM    4  C3  UNL     1       1.947   0.948   0.063  1.00  0.00     0.122 C 
HETATM    5  C4  UNL     1       2.552  -0.443  -0.061  1.00  0.00     0.129 C 
HETATM    6  N3  UNL     1       1.596  -1.384   0.409  1.00  0.00    -0.418 N 
ATOM      7  H3  UNL     1       1.867  -2.202   0.955  1.00  0.00     0.153 HD
HETATM    8  C5  UNL     1       0.237  -1.119   0.073  1.00  0.00     0.135 C 
HETATM    9  C6  UNL     1       0.006  -0.069  -0.947  1.00  0.00     0.103 A 
ENDROOT
BRANCH   1  10
HETATM   10  C1  UNL     1      -2.186   0.682   0.184  1.00  0.00     0.247 C 
BRANCH  10  11
HETATM   11  N1  UNL     1      -2.995  -0.528   0.134  1.00  0.00    -0.078 N 
ATOM     12  H13 UNL     1      -3.457  -0.625  -0.770  1.00  0.00     0.274 HD
ATOM     13  H12 UNL     1      -2.409  -1.362   0.107  1.00  0.00     0.274 HD
ATOM     14  H11 UNL     1      -3.668  -0.575   0.899  1.00  0.00     0.274 HD
ENDBRANCH  10  11
ENDBRANCH   1  10
TORSDOF 2
