REMARK  2 active torsions:
REMARK  status: ('A' for Active; 'I' for Inactive)
REMARK    1  A    between atoms: C4_4  and  N1_5 
REMARK    2  A    between atoms: N1_5  and  C5_7 
ROOT
HETATM    1  N1  UNL     1       1.003   0.622  -0.116  1.00  0.00    -0.349 N 
ATOM      2  H1  UNL     1       0.950   1.548  -0.541  1.00  0.00     0.163 HD
ENDROOT
BRANCH   1   3
HETATM    3  C4  UNL     1      -0.142   0.131   0.584  1.00  0.00     0.085 C 
HETATM    4  C3  UNL     1      -1.019  -0.726  -0.313  1.00  0.00     0.025 C 
HETATM    5  C2  UNL     1      -2.390  -0.104  -0.269  1.00  0.00     0.002 C 
HETATM    6  C1  UNL     1      -2.392   0.548   1.096  1.00  0.00     0.002 C 
HETATM    7  C6  UNL     1      -1.037   1.258   1.035  1.00  0.00     0.025 C 
ENDBRANCH   1   3
BRANCH   1   8
HETATM    8  C5  UNL     1       2.112  -0.052  -0.239  1.00  0.00     0.254 A 
HETATM    9  N2  UNL     1       2.421  -1.270   0.224  1.00  0.00    -0.249 N 
HETATM   10  N3  UNL     1       3.662  -1.532  -0.151  1.00  0.00     0.001 NA
ATOM     11  H2  UNL     1       1.812  -1.883   0.766  1.00  0.00     0.187 HD
HETATM   12  N4  UNL     1       4.115  -0.493  -0.835  1.00  0.00     0.043 NA
HETATM   13  O1  UNL     1       3.172   0.382  -0.876  1.00  0.00    -0.188 OA
ENDBRANCH   1   8
TORSDOF 2
