REMARK  2 active torsions:
REMARK  status: ('A' for Active; 'I' for Inactive)
REMARK    1  A    between atoms: N1_2  and  N2_5 
REMARK    2  A    between atoms: N2_5  and  C3_7 
ROOT
HETATM    1  C3  UNL     1      -0.437  -0.557  -0.455  1.00  0.00     0.700 C 
HETATM    2  N3  UNL     1      -1.322  -0.387  -1.391  1.00  0.00    -0.225 N 
ATOM      3  H3  UNL     1      -1.045  -0.525  -2.363  1.00  0.00     0.177 HD
HETATM    4  C4  UNL     1      -2.688  -0.008  -1.100  1.00  0.00     0.139 C 
HETATM    5  C5  UNL     1      -2.708   0.974   0.067  1.00  0.00     0.040 C 
HETATM    6  C6  UNL     1      -2.058   0.317   1.238  1.00  0.00     0.139 C 
HETATM    7  N4  UNL     1      -0.819  -0.366   0.901  1.00  0.00    -0.225 N 
ATOM      8  H4  UNL     1      -0.216  -0.713   1.647  1.00  0.00     0.177 HD
ENDROOT
BRANCH   1   9
HETATM    9  N2  UNL     1       0.907  -0.927  -0.717  1.00  0.00     0.003 N 
ATOM     10  H2  UNL     1       1.081  -1.874  -1.054  1.00  0.00     0.222 HD
BRANCH   9  11
HETATM   11  N1  UNL     1       1.994  -0.099  -0.549  1.00  0.00     0.115 N 
HETATM   12  C1  UNL     1       3.178  -0.905  -0.326  1.00  0.00     0.389 C 
HETATM   13  C2  UNL     1       1.867   0.790   0.589  1.00  0.00     0.389 C 
HETATM   14  O1  UNL     1       2.245   0.677  -1.627  1.00  0.00    -0.043 OA
ENDBRANCH   9  11
ENDBRANCH   1   9
TORSDOF 2
