REMARK  2 active torsions:
REMARK  status: ('A' for Active; 'I' for Inactive)
REMARK    1  A    between atoms: C2_3  and  C3_4 
REMARK    2  A    between atoms: C6_7  and  O1_8 
ROOT
HETATM    1  N1  UNL     1       4.270   0.564   1.048  1.00  0.00    -0.197 NA
HETATM    2  C1  UNL     1       3.459   0.075   0.380  1.00  0.00     0.061 C 
HETATM    3  C2  UNL     1       2.427  -0.521  -0.456  1.00  0.00     0.151 C 
ENDROOT
BRANCH   3   4
HETATM    4  C3  UNL     1       1.165   0.288  -0.486  1.00  0.00     0.129 C 
HETATM    5  C4  UNL     1       0.115  -0.428  -1.407  1.00  0.00     0.110 C 
HETATM    6  C5  UNL     1      -1.113  -0.416  -0.708  1.00  0.00    -0.147 C 
HETATM    7  C6  UNL     1      -2.214  -0.267   0.158  1.00  0.00     0.210 C 
HETATM    8  C7  UNL     1      -1.659   0.426   1.464  1.00  0.00     0.244 C 
HETATM    9  O2  UNL     1      -0.432   1.064   1.129  1.00  0.00    -0.281 OA
HETATM   10  N2  UNL     1       0.621   0.406   0.879  1.00  0.00    -0.296 N 
ATOM     11  H2  UNL     1       1.108  -0.057   1.646  1.00  0.00     0.188 HD
BRANCH   7  12
HETATM   12  O1  UNL     1      -3.299   0.548  -0.269  1.00  0.00    -0.382 OA
ATOM     13  H1  UNL     1      -4.042   0.648   0.315  1.00  0.00     0.211 HD
ENDBRANCH   7  12
ENDBRANCH   3   4
TORSDOF 2
