REMARK  3 active torsions:
REMARK  status: ('A' for Active; 'I' for Inactive)
REMARK    1  A    between atoms: N1_1  and  N2_4 
REMARK    2  A    between atoms: C1_6  and  N3_7 
REMARK    3  A    between atoms: N3_7  and  C2_9 
ROOT
HETATM    1  C2  UNL     1       0.084   1.234  -0.613  1.00  0.00     0.109 C 
HETATM    2  N4  UNL     1      -0.736   1.734   0.241  1.00  0.00    -0.378 N 
ATOM      3  H4  UNL     1      -0.798   2.725   0.474  1.00  0.00     0.160 HD
HETATM    4  C3  UNL     1      -1.568   0.687   0.832  1.00  0.00     0.128 C 
HETATM    5  C4  UNL     1      -1.519  -0.403  -0.236  1.00  0.00     0.043 C 
HETATM    6  C5  UNL     1      -1.554  -1.777   0.337  1.00  0.00     0.036 C 
HETATM    7  C6  UNL     1      -0.138  -2.040   0.763  1.00  0.00     0.233 C 
HETATM    8  N5  UNL     1       0.658  -0.941   0.308  1.00  0.00    -0.064 N 
ATOM      9  H51 UNL     1       1.580  -1.231  -0.017  1.00  0.00     0.278 HD
ATOM     10  H52 UNL     1       0.965  -0.336   1.070  1.00  0.00     0.278 HD
HETATM   11  C7  UNL     1      -0.090  -0.230  -0.701  1.00  0.00     0.258 C 
ENDROOT
BRANCH   1  12
HETATM   12  N3  UNL     1       1.062   1.935  -1.402  1.00  0.00    -0.340 N 
ATOM     13  H3  UNL     1       0.765   2.730  -1.967  1.00  0.00     0.168 HD
BRANCH  12  14
HETATM   14  C1  UNL     1       2.427   1.552  -1.416  1.00  0.00     0.198 C 
HETATM   15  N2  UNL     1       3.274   1.966  -0.538  1.00  0.00    -0.303 N 
ATOM     16  H2  UNL     1       4.252   1.679  -0.564  1.00  0.00     0.187 HD
BRANCH  15  17
HETATM   17  N1  UNL     1       2.790   2.827   0.452  1.00  0.00    -0.344 N 
ATOM     18  H12 UNL     1       1.809   3.105   0.464  1.00  0.00     0.176 HD
ATOM     19  H11 UNL     1       3.461   3.155   1.147  1.00  0.00     0.176 HD
ENDBRANCH  15  17
ENDBRANCH  12  14
ENDBRANCH   1  12
TORSDOF 3
