REMARK  1 active torsions:
REMARK  status: ('A' for Active; 'I' for Inactive)
REMARK    1  A    between atoms: C2_2  and  C4_4 
ROOT
HETATM    1  C4  UNL     1      -0.296  -0.228  -0.446  1.00  0.00     0.113 C 
HETATM    2  C5  UNL     1       0.408  -1.526  -0.254  1.00  0.00     0.259 C 
HETATM    3  N1  UNL     1       1.690  -1.419  -0.970  1.00  0.00    -0.058 N 
ATOM      4  H11 UNL     1       1.633  -0.763  -1.749  1.00  0.00     0.279 HD
ATOM      5  H12 UNL     1       1.899  -2.267  -1.497  1.00  0.00     0.279 HD
HETATM    6  C6  UNL     1       2.756  -1.079  -0.066  1.00  0.00     0.356 C 
HETATM    7  N2  UNL     1       2.722   0.294   0.389  1.00  0.00    -0.342 N 
ATOM      8  H2  UNL     1       3.625   0.733   0.570  1.00  0.00     0.163 HD
HETATM    9  C7  UNL     1       1.671   1.033   0.594  1.00  0.00     0.185 C 
HETATM   10  N3  UNL     1       1.911   2.372   1.048  1.00  0.00    -0.064 NA
HETATM   11  N4  UNL     1       0.287   0.752   0.447  1.00  0.00    -0.358 N 
ATOM     12  H4  UNL     1      -0.358   1.291   1.025  1.00  0.00     0.162 HD
ENDROOT
BRANCH   1  13
HETATM   13  C2  UNL     1      -1.790  -0.315  -0.263  1.00  0.00     0.002 C 
HETATM   14  C1  UNL     1      -2.341   1.096  -0.495  1.00  0.00     0.011 C 
HETATM   15  C3  UNL     1      -2.210  -0.809   1.077  1.00  0.00     0.011 C 
ENDBRANCH   1  13
TORSDOF 1
