REMARK  1 active torsions:
REMARK  status: ('A' for Active; 'I' for Inactive)
REMARK    1  A    between atoms: C3_5  and  C4_6 
ROOT
HETATM    1  C1  UNL     1      -2.521  -0.001   1.503  1.00  0.00     0.140 C 
HETATM    2  C2  UNL     1      -3.088  -0.335   0.146  1.00  0.00     0.140 C 
HETATM    3  N1  UNL     1      -1.942  -0.135  -0.714  1.00  0.00    -0.376 N 
ATOM      4  H1  UNL     1      -1.965   0.057  -1.715  1.00  0.00     0.160 HD
HETATM    5  C3  UNL     1      -0.773  -0.256   0.095  1.00  0.00     0.114 C 
HETATM    6  N3  UNL     1      -1.097  -0.181   1.338  1.00  0.00    -0.376 N 
ATOM      7  H3  UNL     1      -0.432  -0.241   2.109  1.00  0.00     0.160 HD
ENDROOT
BRANCH   5   8
HETATM    8  C4  UNL     1       0.590  -0.438  -0.415  1.00  0.00     0.313 C 
HETATM    9  N2  UNL     1       1.541  -0.525   0.651  1.00  0.00    -0.054 N 
HETATM   10  C5  UNL     1       2.849  -0.265   0.155  1.00  0.00     0.244 C 
ATOM     11  H22 UNL     1       1.299   0.086   1.431  1.00  0.00     0.279 HD
ATOM     12  H21 UNL     1       1.487  -1.418   1.140  1.00  0.00     0.279 HD
HETATM   13  C6  UNL     1       2.856   1.101  -0.496  1.00  0.00     0.104 C 
HETATM   14  S1  UNL     1       1.173   1.102  -1.237  1.00  0.00    -0.127 SA
ENDBRANCH   5   8
TORSDOF 1
