REMARK  2 active torsions:
REMARK  status: ('A' for Active; 'I' for Inactive)
REMARK    1  A    between atoms: C2_8  and  N4_9 
REMARK    2  A    between atoms: N4_9  and  C3_11 
ROOT
HETATM    1  N4  UNL     1       0.817  -1.211   0.177  1.00  0.00    -0.365 N 
ATOM      2  H4  UNL     1       0.547  -2.186   0.046  1.00  0.00     0.162 HD
ENDROOT
BRANCH   1   3
HETATM    3  C2  UNL     1       2.186  -0.867   0.058  1.00  0.00     0.134 A 
HETATM    4  C1  UNL     1       2.788   0.358   0.199  1.00  0.00     0.158 A 
HETATM    5  N1  UNL     1       4.113   0.205  -0.005  1.00  0.00    -0.294 N 
HETATM    6  N2  UNL     1       4.320  -1.061  -0.261  1.00  0.00    -0.241 N 
ATOM      7  H1  UNL     1       4.820   0.939   0.033  1.00  0.00     0.187 HD
HETATM    8  N3  UNL     1       3.176  -1.727  -0.229  1.00  0.00    -0.270 N 
ATOM      9  H2  UNL     1       5.231  -1.475  -0.457  1.00  0.00     0.208 HD
ATOM     10  H3  UNL     1       3.065  -2.727  -0.395  1.00  0.00     0.190 HD
ENDBRANCH   1   3
BRANCH   1  11
HETATM   11  C3  UNL     1      -0.218  -0.242   0.476  1.00  0.00     0.122 C 
HETATM   12  C4  UNL     1      -1.524  -0.988   0.599  1.00  0.00     0.036 C 
HETATM   13  C5  UNL     1      -2.619   0.086   0.538  1.00  0.00     0.047 C 
HETATM   14  C6  UNL     1      -2.623   0.485  -0.923  1.00  0.00     0.060 C 
HETATM   15  N5  UNL     1      -1.410   1.116  -1.240  1.00  0.00    -0.380 N 
HETATM   16  C7  UNL     1      -0.247   0.870  -0.509  1.00  0.00     0.085 C 
ATOM     17  H5  UNL     1      -1.378   1.769  -2.023  1.00  0.00     0.164 HD
ENDBRANCH   1  11
TORSDOF 2
