REMARK  4 active torsions:
REMARK  status: ('A' for Active; 'I' for Inactive)
REMARK    1  A    between atoms: N1_2  and  C2_4 
REMARK    2  A    between atoms: C2_4  and  C3_5 
REMARK    3  A    between atoms: C3_5  and  O1_7 
REMARK    4  A    between atoms: C9_13  and  N2_14 
ROOT
HETATM    1  C2  UNL     1       0.126   0.265  -0.013  1.00  0.00     0.082 C 
HETATM    2  C5  UNL     1      -0.443  -0.304  -1.302  1.00  0.00     0.036 C 
HETATM    3  C6  UNL     1      -1.847  -0.665  -1.377  1.00  0.00     0.003 C 
HETATM    4  C7  UNL     1      -2.549  -1.031  -0.101  1.00  0.00     0.002 C 
HETATM    5  C8  UNL     1      -1.477  -1.426   0.903  1.00  0.00     0.035 C 
HETATM    6  C9  UNL     1      -0.760  -0.103   1.170  1.00  0.00     0.213 C 
ENDROOT
BRANCH   1   7
HETATM    7  N1  UNL     1       0.218   1.654  -0.020  1.00  0.00    -0.395 N 
HETATM    8  C1  UNL     1       0.902   2.492  -0.843  1.00  0.00     0.113 C 
ATOM      9  H1  UNL     1      -0.316   2.120   0.714  1.00  0.00     0.159 HD
ENDBRANCH   1   7
BRANCH   1  10
HETATM   10  C3  UNL     1       1.468  -0.362   0.281  1.00  0.00     0.144 C 
HETATM   11  C4  UNL     1       2.438  -0.554  -0.788  1.00  0.00     0.042 C 
BRANCH  10  12
HETATM   12  O1  UNL     1       2.063   0.103   1.446  1.00  0.00    -0.393 OA
ATOM     13  H1  UNL     1       2.907  -0.291   1.631  1.00  0.00     0.210 HD
ENDBRANCH  10  12
ENDBRANCH   1  10
BRANCH   6  14
HETATM   14  N2  UNL     1      -0.072  -0.126   2.417  1.00  0.00    -0.073 N 
ATOM     15  H23 UNL     1       0.739  -0.743   2.369  1.00  0.00     0.274 HD
ATOM     16  H22 UNL     1       0.400   0.763   2.584  1.00  0.00     0.274 HD
ATOM     17  H21 UNL     1      -0.665  -0.372   3.209  1.00  0.00     0.274 HD
ENDBRANCH   6  14
TORSDOF 4
