REMARK  12 active torsions:
REMARK  status: ('A' for Active; 'I' for Inactive)
REMARK    1  A    between atoms: N1_2  and  N2_4 
REMARK    2  A    between atoms: N2_4  and  C3_6 
REMARK    3  A    between atoms: C3_6  and  O1_7 
REMARK    4  A    between atoms: C3_6  and  C4_9 
REMARK    5  A    between atoms: C5_12  and  C6_13 
REMARK    6  A    between atoms: C6_13  and  O2_14 
REMARK    7  A    between atoms: C6_13  and  O3_16 
REMARK    8  A    between atoms: C7_18  and  O4_19 
REMARK    9  A    between atoms: O4_19  and  N4_20 
REMARK   10  A    between atoms: N4_20  and  O5_24 
REMARK   11  A    between atoms: C8_26  and  O6_28 
REMARK   12  A    between atoms: C10_30  and  N6_31 
ROOT
HETATM    1  C4  UNL     1       0.472  -0.426   0.801  1.00  0.00     0.185 C 
HETATM    2  N3  UNL     1       0.028  -0.605  -0.595  1.00  0.00    -0.397 N 
ATOM      3  H3  UNL     1       0.699  -0.645  -1.363  1.00  0.00     0.154 HD
HETATM    4  C5  UNL     1      -1.336  -0.717  -0.824  1.00  0.00     0.167 C 
HETATM    5  C7  UNL     1      -2.261  -0.306   0.267  1.00  0.00     0.220 C 
HETATM    6  C8  UNL     1      -1.740   0.806   1.108  1.00  0.00     0.114 C 
HETATM    7  C9  UNL     1      -2.409   0.707   2.480  1.00  0.00     0.051 C 
HETATM    8  C10 UNL     1      -0.273   0.830   1.297  1.00  0.00     0.222 C 
ENDROOT
BRANCH   1   9
HETATM    9  C3  UNL     1       1.881   0.006   0.667  1.00  0.00     0.151 C 
BRANCH   9  10
HETATM   10  N2  UNL     1       2.892  -0.530  -0.128  1.00  0.00    -0.302 N 
ATOM     11  H2  UNL     1       2.735  -1.381  -0.667  1.00  0.00     0.182 HD
BRANCH  10  12
HETATM   12  N1  UNL     1       4.132   0.127  -0.171  1.00  0.00    -0.238 NA
HETATM   13  C1  UNL     1       4.423   0.619  -1.500  1.00  0.00     0.135 C 
HETATM   14  C2  UNL     1       5.138  -0.715   0.395  1.00  0.00     0.135 C 
ENDBRANCH  10  12
ENDBRANCH   9  10
BRANCH   9  15
HETATM   15  O1  UNL     1       2.216   1.087   1.367  1.00  0.00    -0.347 OA
ATOM     16  H1  UNL     1       1.527   1.452   1.909  1.00  0.00     0.219 HD
ENDBRANCH   9  15
ENDBRANCH   1   9
BRANCH   8  17
HETATM   17  N6  UNL     1       0.257   2.027   0.607  1.00  0.00    -0.145 N 
HETATM   18  O7  UNL     1       0.324   3.075   1.282  1.00  0.00    -0.536 OA
HETATM   19  O8  UNL     1       0.610   2.001  -0.728  1.00  0.00    -0.536 OA
ENDBRANCH   8  17
BRANCH   4  20
HETATM   20  C6  UNL     1      -1.759  -2.095  -1.284  1.00  0.00     0.278 C 
BRANCH  20  21
HETATM   21  O2  UNL     1      -1.221  -2.464  -2.508  1.00  0.00    -0.369 OA
ATOM     22  H2  UNL     1      -1.487  -3.329  -2.797  1.00  0.00     0.212 HD
ENDBRANCH  20  21
BRANCH  20  23
HETATM   23  O3  UNL     1      -1.419  -3.069  -0.327  1.00  0.00    -0.369 OA
ATOM     24  H3  UNL     1      -1.685  -3.934  -0.616  1.00  0.00     0.212 HD
ENDBRANCH  20  23
ENDBRANCH   4  20
BRANCH   6  25
HETATM   25  O6  UNL     1      -2.126   2.086   0.632  1.00  0.00    -0.385 OA
ATOM     26  H6  UNL     1      -1.793   2.796   1.169  1.00  0.00     0.210 HD
ENDBRANCH   6  25
BRANCH   5  27
HETATM   27  O4  UNL     1      -3.519  -0.092  -0.335  1.00  0.00    -0.228 OA
BRANCH  27  28
HETATM   28  N4  UNL     1      -3.940   1.046  -0.958  1.00  0.00    -0.061 N 
HETATM   29  N5  UNL     1      -4.789   1.765  -0.387  1.00  0.00    -0.298 N 
ATOM     30  H52 UNL     1      -5.100   1.559   0.562  1.00  0.00     0.181 HD
ATOM     31  H51 UNL     1      -5.104   2.616  -0.853  1.00  0.00     0.181 HD
BRANCH  28  32
HETATM   32  O5  UNL     1      -3.521   1.324  -2.238  1.00  0.00    -0.248 OA
ATOM     33  H5  UNL     1      -3.814   2.117  -2.672  1.00  0.00     0.249 HD
ENDBRANCH  28  32
ENDBRANCH  27  28
ENDBRANCH   5  27
TORSDOF 12
