REMARK  11 active torsions:
REMARK  status: ('A' for Active; 'I' for Inactive)
REMARK    1  A    between atoms: O1_2  and  C2_3 
REMARK    2  A    between atoms: C3_5  and  C4_6 
REMARK    3  A    between atoms: C4_6  and  O3_7 
REMARK    4  A    between atoms: O3_7  and  C5_8 
REMARK    5  A    between atoms: C6_10  and  O5_11 
REMARK    6  A    between atoms: C7_13  and  O6_14 
REMARK    7  A    between atoms: C8_16  and  O7_17 
REMARK    8  A    between atoms: C8_16  and  O8_19 
REMARK    9  A    between atoms: C9_21  and  O9_22 
REMARK   10  A    between atoms: C11_24  and  O10_25 
REMARK   11  A    between atoms: C13_28  and  O11_29 
ROOT
HETATM    1  C5  UNL     1       1.641  -0.620   0.091  1.00  0.00     0.297 C 
HETATM    2  O4  UNL     1       1.825  -1.212   1.344  1.00  0.00    -0.326 OA
HETATM    3  C6  UNL     1       2.982  -1.966   1.374  1.00  0.00     0.294 C 
HETATM    4  C7  UNL     1       4.152  -1.008   1.339  1.00  0.00     0.238 C 
HETATM    5  C8  UNL     1       3.692   0.395   0.940  1.00  0.00     0.222 C 
HETATM    6  C9  UNL     1       2.764   0.332  -0.260  1.00  0.00     0.240 C 
ENDROOT
BRANCH   1   7
HETATM    7  O3  UNL     1       0.402   0.023   0.129  1.00  0.00    -0.356 OA
BRANCH   7   8
HETATM    8  C4  UNL     1      -0.499  -0.570  -0.771  1.00  0.00     0.205 C 
BRANCH   8   9
HETATM    9  C3  UNL     1      -1.800   0.227  -0.625  1.00  0.00     0.177 C 
HETATM   10  O2  UNL     1      -2.177   0.073   0.727  1.00  0.00    -0.349 OA
HETATM   11  C2  UNL     1      -3.506   0.484   0.819  1.00  0.00     0.288 C 
HETATM   12  C13 UNL     1      -4.454  -0.549   0.216  1.00  0.00     0.175 C 
HETATM   13  C12 UNL     1      -3.647  -1.355  -0.780  1.00  0.00     0.071 C 
HETATM   14  C11 UNL     1      -2.809  -0.343  -1.566  1.00  0.00     0.151 C 
BRANCH  11  15
HETATM   15  O1  UNL     1      -3.612   1.708   0.162  1.00  0.00    -0.363 OA
HETATM   16  C1  UNL     1      -3.968   2.734   1.034  1.00  0.00     0.204 C 
ENDBRANCH  11  15
BRANCH  12  17
HETATM   17  O11 UNL     1      -5.025  -1.356   1.196  1.00  0.00    -0.391 OA
ATOM     18  H11 UNL     1      -5.615  -1.999   0.821  1.00  0.00     0.210 HD
ENDBRANCH  12  17
BRANCH  14  19
HETATM   19  O10 UNL     1      -2.237  -0.939  -2.685  1.00  0.00    -0.393 OA
ATOM     20  H10 UNL     1      -2.879  -1.302  -3.284  1.00  0.00     0.210 HD
ENDBRANCH  14  19
ENDBRANCH   8   9
ENDBRANCH   7   8
ENDBRANCH   1   7
BRANCH   6  21
HETATM   21  O9  UNL     1       2.234   1.584  -0.463  1.00  0.00    -0.380 OA
HETATM   22  C10 UNL     1       2.503   2.094  -1.731  1.00  0.00     0.202 C 
ENDBRANCH   6  21
BRANCH   3  23
HETATM   23  O5  UNL     1       3.044  -2.913   0.353  1.00  0.00    -0.368 OA
ATOM     24  H5  UNL     1       3.840  -3.432   0.374  1.00  0.00     0.212 HD
ENDBRANCH   3  23
BRANCH   5  25
HETATM   25  O7  UNL     1       4.848   1.124   0.668  1.00  0.00    -0.361 OA
ATOM     26  H7  UNL     1       4.562   1.995   0.420  1.00  0.00     0.213 HD
ENDBRANCH   5  25
BRANCH   5  27
HETATM   27  O8  UNL     1       2.972   0.994   1.974  1.00  0.00    -0.361 OA
ATOM     28  H8  UNL     1       2.686   1.865   1.726  1.00  0.00     0.213 HD
ENDBRANCH   5  27
BRANCH   4  29
HETATM   29  O6  UNL     1       5.104  -1.393   0.406  1.00  0.00    -0.385 OA
ATOM     30  H6  UNL     1       5.839  -0.791   0.384  1.00  0.00     0.210 HD
ENDBRANCH   4  29
TORSDOF 11
