REMARK  10 active torsions:
REMARK  status: ('A' for Active; 'I' for Inactive)
REMARK    1  A    between atoms: O1_2  and  C2_3 
REMARK    2  A    between atoms: C3_5  and  O3_6 
REMARK    3  A    between atoms: O3_6  and  C4_7 
REMARK    4  A    between atoms: C5_9  and  S1_10 
REMARK    5  A    between atoms: C7_12  and  O5_13 
REMARK    6  A    between atoms: C8_15  and  O6_16 
REMARK    7  A    between atoms: C9_18  and  O7_19 
REMARK    8  A    between atoms: C10_21  and  O8_22 
REMARK    9  A    between atoms: C11_24  and  O9_25 
REMARK   10  A    between atoms: C12_27  and  O10_28 
ROOT
HETATM    1  O3  UNL     1      -0.221  -0.738  -1.463  1.00  0.00    -0.326 OA
ENDROOT
BRANCH   1   2
HETATM    2  C3  UNL     1      -1.263  -0.478  -0.541  1.00  0.00     0.297 C 
HETATM    3  O2  UNL     1      -1.995   0.570  -1.089  1.00  0.00    -0.326 OA
HETATM    4  C2  UNL     1      -3.005   1.008  -0.239  1.00  0.00     0.293 C 
HETATM    5  C12 UNL     1      -3.726  -0.137   0.436  1.00  0.00     0.204 C 
HETATM    6  C11 UNL     1      -3.572  -1.428  -0.355  1.00  0.00     0.185 C 
HETATM    7  C10 UNL     1      -2.082  -1.730  -0.383  1.00  0.00     0.204 C 
BRANCH   4   8
HETATM    8  O1  UNL     1      -2.558   1.869   0.736  1.00  0.00    -0.363 OA
HETATM    9  C1  UNL     1      -3.140   3.128   0.663  1.00  0.00     0.204 C 
ENDBRANCH   4   8
BRANCH   5  10
HETATM   10  O10 UNL     1      -5.059   0.148   0.675  1.00  0.00    -0.388 OA
ATOM     11  H10 UNL     1      -5.512  -0.571   1.099  1.00  0.00     0.210 HD
ENDBRANCH   5  10
BRANCH   6  12
HETATM   12  O9  UNL     1      -4.207  -2.422   0.392  1.00  0.00    -0.390 OA
ATOM     13  H9  UNL     1      -5.138  -2.233   0.409  1.00  0.00     0.210 HD
ENDBRANCH   6  12
BRANCH   7  14
HETATM   14  O8  UNL     1      -1.790  -2.296   0.880  1.00  0.00    -0.388 OA
ATOM     15  H8  UNL     1      -2.307  -3.087   0.980  1.00  0.00     0.210 HD
ENDBRANCH   7  14
ENDBRANCH   1   2
BRANCH   1  16
HETATM   16  C4  UNL     1       1.013  -0.464  -0.929  1.00  0.00     0.295 C 
HETATM   17  O4  UNL     1       1.621   0.540  -1.677  1.00  0.00    -0.340 OA
HETATM   18  C5  UNL     1       2.756   1.044  -1.048  1.00  0.00     0.217 C 
HETATM   19  C7  UNL     1       3.802  -0.019  -0.832  1.00  0.00     0.188 C 
HETATM   20  C8  UNL     1       3.246  -1.294  -0.296  1.00  0.00     0.183 C 
HETATM   21  C9  UNL     1       1.914  -1.661  -0.914  1.00  0.00     0.204 C 
BRANCH  18  22
HETATM   22  S1  UNL     1       2.329   1.882   0.498  1.00  0.00    -0.139 SA
HETATM   23  C6  UNL     1       3.783   2.555   1.318  1.00  0.00     0.092 C 
ENDBRANCH  18  22
BRANCH  19  24
HETATM   24  O5  UNL     1       4.791   0.474   0.013  1.00  0.00    -0.389 OA
ATOM     25  H5  UNL     1       5.450  -0.196   0.149  1.00  0.00     0.210 HD
ENDBRANCH  19  24
BRANCH  20  26
HETATM   26  O6  UNL     1       4.143  -2.325  -0.632  1.00  0.00    -0.390 OA
ATOM     27  H6  UNL     1       3.789  -3.138  -0.290  1.00  0.00     0.210 HD
ENDBRANCH  20  26
BRANCH  21  28
HETATM   28  O7  UNL     1       1.403  -2.726  -0.202  1.00  0.00    -0.388 OA
ATOM     29  H7  UNL     1       1.974  -3.485  -0.192  1.00  0.00     0.210 HD
ENDBRANCH  21  28
ENDBRANCH   1  16
TORSDOF 10
