REMARK  1 active torsions:
REMARK  status: ('A' for Active; 'I' for Inactive)
REMARK    1  A    between atoms: C2_2  and  N1_3 
REMARK       I    between atoms: N2_6  and  C5_7 
REMARK       I    between atoms: N4_9  and  C6_11 
ROOT
HETATM    1  N1  UNL     1      -1.276   0.470  -0.561  1.00  0.00     0.107 N 
HETATM    2  C3  UNL     1      -1.346  -0.779  -1.283  1.00  0.00     0.294 C 
HETATM    3  C4  UNL     1      -0.818  -1.758  -0.261  1.00  0.00     0.157 C 
HETATM    4  N2  UNL     1       0.282  -0.974   0.326  1.00  0.00    -0.328 N 
HETATM    5  C5  UNL     1       1.572  -1.420   0.644  1.00  0.00     0.194 C 
HETATM    6  N3  UNL     1       1.729  -2.513   1.526  1.00  0.00    -0.063 NA
HETATM    7  N4  UNL     1       2.610  -0.870   0.162  1.00  0.00    -0.305 N 
ATOM      8  H4  UNL     1       3.496  -1.277   0.462  1.00  0.00     0.171 HD
HETATM    9  C6  UNL     1       2.718   0.206  -0.715  1.00  0.00     0.188 C 
HETATM   10  N5  UNL     1       2.254   0.236  -1.909  1.00  0.00    -0.373 N 
ATOM     11  H51 UNL     1       2.333   1.024  -2.551  1.00  0.00     0.158 HD
ATOM     12  H52 UNL     1       1.764  -0.591  -2.251  1.00  0.00     0.158 HD
HETATM   13  N6  UNL     1       3.411   1.375  -0.231  1.00  0.00    -0.064 NA
HETATM   14  C7  UNL     1      -0.319   0.355   0.487  1.00  0.00     0.400 C 
ENDROOT
BRANCH   1  15
HETATM   15  C2  UNL     1      -2.553   0.883  -0.064  1.00  0.00     0.270 C 
HETATM   16  C1  UNL     1      -2.501   2.182   0.671  1.00  0.00     0.037 C 
ENDBRANCH   1  15
TORSDOF 1
