REMARK  4 active torsions:
REMARK  status: ('A' for Active; 'I' for Inactive)
REMARK    1  A    between atoms: C2_4  and  N2_5 
REMARK    2  A    between atoms: C2_4  and  C3_10 
REMARK    3  A    between atoms: N2_5  and  N3_7 
REMARK    4  A    between atoms: C3_10  and  C5_12 
REMARK       I    between atoms: C5_12  and  N4_14 
ROOT
HETATM    1  C1  UNL     1      -2.069   2.078   1.742  1.00  0.00     0.147 C 
HETATM    2  N1  UNL     1      -1.117   1.221   1.061  1.00  0.00    -0.382 N 
ATOM      3  H1  UNL     1      -0.122   1.414   1.177  1.00  0.00     0.160 HD
HETATM    4  C2  UNL     1      -1.464   0.234   0.321  1.00  0.00     0.103 C 
ENDROOT
BRANCH   4   5
HETATM    5  N2  UNL     1      -2.842  -0.066   0.135  1.00  0.00    -0.295 N 
ATOM      6  H2  UNL     1      -3.484   0.636  -0.232  1.00  0.00     0.187 HD
BRANCH   5   7
HETATM    7  N3  UNL     1      -3.289  -1.328   0.462  1.00  0.00    -0.344 N 
ATOM      8  H32 UNL     1      -2.634  -2.019   0.828  1.00  0.00     0.176 HD
ATOM      9  H31 UNL     1      -4.277  -1.543   0.329  1.00  0.00     0.176 HD
ENDBRANCH   5   7
ENDBRANCH   4   5
BRANCH   4  10
HETATM   10  C3  UNL     1      -0.398  -0.557  -0.319  1.00  0.00     0.143 C 
HETATM   11  C4  UNL     1      -0.533  -0.451  -1.830  1.00  0.00     0.028 C 
BRANCH  10  12
HETATM   12  C5  UNL     1       0.956  -0.310   0.146  1.00  0.00     0.234 C 
HETATM   13  O1  UNL     1       1.197   0.521   1.053  1.00  0.00    -0.272 OA
HETATM   14  N4  UNL     1       2.057  -1.017  -0.427  1.00  0.00    -0.303 N 
HETATM   15  C6  UNL     1       3.241  -0.514  -0.403  1.00  0.00     0.203 C 
ATOM     16  H4  UNL     1       1.903  -1.928  -0.859  1.00  0.00     0.171 HD
HETATM   17  N5  UNL     1       4.304  -1.270  -0.994  1.00  0.00    -0.066 NA
HETATM   18  N6  UNL     1       3.514   0.752   0.185  1.00  0.00    -0.066 NA
ENDBRANCH  10  12
ENDBRANCH   4  10
TORSDOF 4
