REMARK  4 active torsions:
REMARK  status: ('A' for Active; 'I' for Inactive)
REMARK    1  A    between atoms: N1_1  and  C1_4 
REMARK    2  A    between atoms: C2_5  and  O1_6 
REMARK    3  A    between atoms: O1_6  and  N2_7 
REMARK       I    between atoms: C3_9  and  N4_11 
REMARK    4  A    between atoms: N4_11  and  C4_13 
ROOT
HETATM    1  N2  UNL     1       1.055  -0.745   1.249  1.00  0.00    -0.223 N 
ATOM      2  H2  UNL     1       0.841   0.133   1.722  1.00  0.00     0.198 HD
HETATM    3  C3  UNL     1       0.102  -1.543   0.920  1.00  0.00     0.215 C 
HETATM    4  N3  UNL     1       0.442  -2.758   0.262  1.00  0.00    -0.061 NA
HETATM    5  N4  UNL     1      -1.269  -1.259   1.187  1.00  0.00    -0.314 N 
ATOM      6  H4  UNL     1      -1.759  -1.827   1.878  1.00  0.00     0.170 HD
ENDROOT
BRANCH   1   7
HETATM    7  O1  UNL     1       2.335  -1.063   0.972  1.00  0.00    -0.181 OA
BRANCH   7   8
HETATM    8  C2  UNL     1       3.170  -0.165   0.355  1.00  0.00     0.107 C 
HETATM    9  C1  UNL     1       3.922   0.615  -0.197  1.00  0.00     0.036 C 
BRANCH   9  10
HETATM   10  N1  UNL     1       4.784   1.501  -0.854  1.00  0.00    -0.357 N 
ATOM     11  H12 UNL     1       4.213   0.690  -1.093  1.00  0.00     0.166 HD
ATOM     12  H11 UNL     1       5.415   2.155  -1.317  1.00  0.00     0.166 HD
ENDBRANCH   9  10
ENDBRANCH   7   8
ENDBRANCH   1   7
BRANCH   5  13
HETATM   13  C4  UNL     1      -1.915  -0.319   0.595  1.00  0.00     0.123 A 
HETATM   14  C5  UNL     1      -3.238  -0.124   0.923  1.00  0.00     0.136 A 
HETATM   15  N5  UNL     1      -3.996   0.849   0.343  1.00  0.00    -0.371 N 
HETATM   16  C6  UNL     1      -3.436   1.647  -0.581  1.00  0.00     0.104 A 
ATOM     17  H5  UNL     1      -4.974   0.969   0.607  1.00  0.00     0.164 HD
HETATM   18  C7  UNL     1      -2.131   1.478  -0.927  1.00  0.00     0.106 A 
HETATM   19  N6  UNL     1      -1.387   0.498  -0.335  1.00  0.00    -0.350 N 
ATOM     20  H6  UNL     1      -0.410   0.383  -0.603  1.00  0.00     0.166 HD
ENDBRANCH   5  13
TORSDOF 4
