REMARK  2 active torsions:
REMARK  status: ('A' for Active; 'I' for Inactive)
REMARK       I    between atoms: N1_2  and  C3_4 
REMARK       I    between atoms: C3_4  and  N4_9 
REMARK    1  A    between atoms: N4_9  and  N5_11 
REMARK    2  A    between atoms: N5_11  and  C5_13 
ROOT
HETATM    1  C1  UNL     1      -2.362  -0.013  -1.168  1.00  0.00     0.168 C 
HETATM    2  N1  UNL     1      -1.449  -0.428  -0.116  1.00  0.00    -0.225 N 
HETATM    3  C2  UNL     1      -1.643  -1.791   0.387  1.00  0.00     0.168 C 
HETATM    4  C3  UNL     1      -0.437   0.422   0.394  1.00  0.00     0.703 C 
HETATM    5  N2  UNL     1      -0.759   1.538   0.971  1.00  0.00    -0.125 N 
ATOM      6  H2  UNL     1      -0.013   2.134   1.331  1.00  0.00     0.197 HD
HETATM    7  C4  UNL     1      -2.071   1.957   1.120  1.00  0.00     0.196 C 
HETATM    8  N3  UNL     1      -3.166   2.293   1.250  1.00  0.00    -0.171 NA
HETATM    9  N4  UNL     1       0.932   0.059   0.277  1.00  0.00    -0.130 N 
ATOM     10  H4  UNL     1       1.180  -0.905   0.055  1.00  0.00     0.205 HD
ENDROOT
BRANCH   9  11
HETATM   11  N5  UNL     1       1.934   0.998   0.460  1.00  0.00    -0.264 N 
ATOM     12  H5  UNL     1       1.693   1.897   0.877  1.00  0.00     0.189 HD
BRANCH  11  13
HETATM   13  C5  UNL     1       3.280   0.758   0.090  1.00  0.00     0.200 C 
HETATM   14  N6  UNL     1       3.662  -0.491  -0.500  1.00  0.00    -0.068 NA
HETATM   15  S1  UNL     1       4.468   1.851   0.298  1.00  0.00    -0.043 SA
ENDBRANCH  11  13
ENDBRANCH   9  11
TORSDOF 2
