REMARK  4 active torsions:
REMARK  status: ('A' for Active; 'I' for Inactive)
REMARK    1  A    between atoms: N1_2  and  C2_4 
REMARK    2  A    between atoms: C3_5  and  N2_6 
REMARK    3  A    between atoms: N3_12  and  O1_13 
REMARK    4  A    between atoms: C6_15  and  O2_16 
ROOT
HETATM    1  C2  UNL     1      -1.030   0.517  -0.019  1.00  0.00     0.120 C 
HETATM    2  C3  UNL     1      -1.910  -0.504   0.608  1.00  0.00     0.211 C 
HETATM    3  C4  UNL     1      -1.031  -1.333   1.503  1.00  0.00     0.090 C 
HETATM    4  C5  UNL     1       0.348  -1.031   1.004  1.00  0.00     0.028 C 
HETATM    5  N3  UNL     1       1.544  -1.085   0.694  1.00  0.00    -0.238 N 
HETATM    6  C6  UNL     1       1.542   0.202   0.091  1.00  0.00     0.260 C 
HETATM    7  C8  UNL     1       0.266   0.411   0.698  1.00  0.00     0.109 C 
ENDROOT
BRANCH   2   8
HETATM    8  N2  UNL     1      -2.969   0.092   1.413  1.00  0.00    -0.073 N 
ATOM      9  H23 UNL     1      -2.585   0.726   2.114  1.00  0.00     0.274 HD
ATOM     10  H22 UNL     1      -3.513   0.761   0.868  1.00  0.00     0.274 HD
ATOM     11  H21 UNL     1      -3.573  -0.609   1.843  1.00  0.00     0.274 HD
ENDBRANCH   2   8
BRANCH   1  12
HETATM   12  N1  UNL     1      -1.034   0.559  -1.425  1.00  0.00    -0.418 N 
HETATM   13  C1  UNL     1      -0.625  -0.579  -2.159  1.00  0.00     0.140 C 
ATOM     14  H1  UNL     1      -1.330   1.405  -1.912  1.00  0.00     0.153 HD
ENDBRANCH   1  12
BRANCH   6  15
HETATM   15  O2  UNL     1       2.519   1.085   0.611  1.00  0.00    -0.368 OA
HETATM   16  C7  UNL     1       3.292   1.633  -0.401  1.00  0.00     0.204 C 
ENDBRANCH   6  15
BRANCH   5  17
HETATM   17  O1  UNL     1       2.465  -2.134   0.857  1.00  0.00    -0.285 OA
ATOM     18  H1  UNL     1       3.384  -2.175   0.619  1.00  0.00     0.245 HD
ENDBRANCH   5  17
TORSDOF 4
