REMARK  3 active torsions:
REMARK  status: ('A' for Active; 'I' for Inactive)
REMARK    1  A    between atoms: S1_3  and  C4_6 
REMARK    2  A    between atoms: C4_6  and  N1_8 
REMARK    3  A    between atoms: N1_8  and  N2_10 
ROOT
HETATM    1  C1  UNL     1      -4.082  -0.053  -1.466  1.00  0.00     0.027 C 
HETATM    2  C2  UNL     1      -3.064   0.099  -0.863  1.00  0.00    -0.020 C 
HETATM    3  S1  UNL     1      -1.605   0.317   0.032  1.00  0.00     0.052 S 
HETATM    4  C3  UNL     1      -1.278  -1.082   1.040  1.00  0.00     0.134 C 
HETATM    5  O1  UNL     1      -1.725   1.542   0.918  1.00  0.00    -0.252 OA
ENDROOT
BRANCH   3   6
HETATM    6  C4  UNL     1      -0.411   0.775  -0.882  1.00  0.00     0.088 C 
HETATM    7  C5  UNL     1      -0.725   1.379  -2.163  1.00  0.00     0.080 C 
BRANCH   6   8
HETATM    8  N1  UNL     1       0.869   0.628  -0.408  1.00  0.00    -0.294 N 
ATOM      9  H1  UNL     1       1.656   0.952  -0.971  1.00  0.00     0.187 HD
BRANCH   8  10
HETATM   10  N2  UNL     1       1.107   0.035   0.847  1.00  0.00    -0.275 N 
HETATM   11  C6  UNL     1       2.264  -0.429   1.172  1.00  0.00     0.215 C 
HETATM   12  N3  UNL     1       2.400  -1.008   2.463  1.00  0.00    -0.065 NA
HETATM   13  N4  UNL     1       3.391  -0.384   0.300  1.00  0.00    -0.065 NA
ATOM     14  H2  UNL     1       0.341  -0.029   1.518  1.00  0.00     0.189 HD
ENDBRANCH   8  10
ENDBRANCH   6   8
ENDBRANCH   3   6
TORSDOF 3
