REMARK  5 active torsions:
REMARK  status: ('A' for Active; 'I' for Inactive)
REMARK    1  A    between atoms: C4_5  and  C5_6 
REMARK    2  A    between atoms: C6_7  and  C7_8 
REMARK    3  A    between atoms: C7_8  and  N2_9 
REMARK    4  A    between atoms: C7_8  and  C8_13 
REMARK    5  A    between atoms: C8_13  and  N3_14 
ROOT
HETATM    1  C5  UNL     1       0.609   0.153   0.032  1.00  0.00    -0.047 C 
HETATM    2  C6  UNL     1       1.815   0.244  -0.051  1.00  0.00    -0.065 C 
ENDROOT
BRANCH   2   3
HETATM    3  C7  UNL     1       3.280   0.372  -0.149  1.00  0.00     0.287 C 
BRANCH   3   4
HETATM    4  N2  UNL     1       3.697   1.749   0.111  1.00  0.00    -0.063 N 
ATOM      5  H23 UNL     1       3.218   2.411  -0.500  1.00  0.00     0.275 HD
ATOM      6  H22 UNL     1       3.347   2.087   1.007  1.00  0.00     0.275 HD
ATOM      7  H21 UNL     1       4.711   1.838   0.043  1.00  0.00     0.275 HD
ENDBRANCH   3   4
BRANCH   3   8
HETATM    8  C8  UNL     1       3.845  -0.452   1.001  1.00  0.00     0.275 C 
BRANCH   8   9
HETATM    9  N3  UNL     1       3.415  -1.825   0.838  1.00  0.00    -0.076 N 
ATOM     10  H33 UNL     1       2.402  -1.911   0.756  1.00  0.00     0.274 HD
ATOM     11  H32 UNL     1       3.662  -2.207  -0.075  1.00  0.00     0.274 HD
ATOM     12  H31 UNL     1       3.793  -2.377   1.608  1.00  0.00     0.274 HD
ENDBRANCH   8   9
ENDBRANCH   3   8
ENDBRANCH   2   3
BRANCH   1  13
HETATM   13  C4  UNL     1      -0.825   0.055   0.116  1.00  0.00     0.088 A 
HETATM   14  C3  UNL     1      -1.662   0.804  -0.690  1.00  0.00     0.056 A 
HETATM   15  C2  UNL     1      -3.033   0.722  -0.622  1.00  0.00     0.094 A 
HETATM   16  N1  UNL     1      -3.583  -0.120   0.263  1.00  0.00    -0.357 N 
HETATM   17  C1  UNL     1      -5.035  -0.208   0.336  1.00  0.00     0.156 C 
HETATM   18  C9  UNL     1      -2.777  -0.849   1.047  1.00  0.00     0.183 A 
HETATM   19  N4  UNL     1      -1.427  -0.780   0.992  1.00  0.00    -0.345 N 
ATOM     20  H4  UNL     1      -0.862  -1.359   1.613  1.00  0.00     0.167 HD
ENDBRANCH   1  13
TORSDOF 5
