REMARK  4 active torsions:
REMARK  status: ('A' for Active; 'I' for Inactive)
REMARK    1  A    between atoms: C2_2  and  C3_3 
REMARK    2  A    between atoms: C3_3  and  S1_4 
REMARK    3  A    between atoms: S1_4  and  C4_5 
REMARK    4  A    between atoms: C12_19  and  O1_20 
ROOT
HETATM    1  C4  UNL     1       0.549   0.656  -0.981  1.00  0.00     0.106 A 
HETATM    2  N1  UNL     1      -0.426   0.563  -1.909  1.00  0.00    -0.339 N 
ATOM      3  H1  UNL     1      -0.167   0.722  -2.883  1.00  0.00     0.167 HD
HETATM    4  C5  UNL     1      -1.713   0.277  -1.648  1.00  0.00     0.114 A 
HETATM    5  S2  UNL     1      -2.815   0.188  -2.837  1.00  0.00    -0.059 SA
HETATM    6  C6  UNL     1      -2.125   0.052  -0.361  1.00  0.00     0.039 A 
HETATM    7  C7  UNL     1      -3.466  -0.246  -0.096  1.00  0.00    -0.028 A 
HETATM    8  C8  UNL     1      -4.525  -0.350  -1.086  1.00  0.00     0.050 C 
HETATM    9  C9  UNL     1      -3.707  -0.446   1.276  1.00  0.00     0.033 A 
HETATM   10 BR1  UNL     1      -5.494  -0.865   1.833  1.00  0.00    -0.049 Br
HETATM   11  C10 UNL     1      -2.768  -0.364   2.244  1.00  0.00     0.108 A 
HETATM   12  N2  UNL     1      -1.519  -0.079   1.934  1.00  0.00    -0.361 N 
ATOM     13  H2  UNL     1      -0.810  -0.017   2.665  1.00  0.00     0.165 HD
HETATM   14  C11 UNL     1      -1.188   0.128   0.659  1.00  0.00     0.082 A 
HETATM   15  C12 UNL     1       0.122   0.430   0.306  1.00  0.00     0.127 A 
ENDROOT
BRANCH   1  16
HETATM   16  S1  UNL     1       2.196   1.080  -1.450  1.00  0.00    -0.109 SA
BRANCH  16  17
HETATM   17  C3  UNL     1       3.465   0.891  -0.253  1.00  0.00     0.080 C 
BRANCH  17  18
HETATM   18  C2  UNL     1       3.887  -0.507   0.080  1.00  0.00     0.006 C 
HETATM   19  C1  UNL     1       4.983  -0.463   1.148  1.00  0.00     0.006 C 
ENDBRANCH  17  18
ENDBRANCH  16  17
ENDBRANCH   1  16
BRANCH  15  20
HETATM   20  O1  UNL     1       1.032   0.505   1.334  1.00  0.00    -0.356 OA
ATOM     21  H1  UNL     1       0.737   0.349   2.223  1.00  0.00     0.218 HD
ENDBRANCH  15  20
TORSDOF 4
