REMARK  4 active torsions:
REMARK  status: ('A' for Active; 'I' for Inactive)
REMARK    1  A    between atoms: C7_7  and  C8_8 
REMARK    2  A    between atoms: N2_13  and  C10_14 
REMARK    3  A    between atoms: C10_14  and  C11_15 
REMARK    4  A    between atoms: C15_20  and  O1_21 
ROOT
HETATM    1  C8  UNL     1      -0.132  -0.910  -0.020  1.00  0.00     0.075 A 
HETATM    2  N1  UNL     1       0.465  -1.754  -0.918  1.00  0.00    -0.332 N 
ATOM      3  H1  UNL     1       0.006  -2.133  -1.746  1.00  0.00     0.168 HD
HETATM    4  C9  UNL     1       1.727  -2.017  -0.568  1.00  0.00     0.180 A 
HETATM    5  S1  UNL     1       2.744  -3.011  -1.422  1.00  0.00    -0.040 SA
HETATM    6  N2  UNL     1       1.967  -1.348   0.560  1.00  0.00    -0.298 N 
HETATM    7  C15 UNL     1       0.846  -0.674   0.903  1.00  0.00     0.169 A 
ENDROOT
BRANCH   1   8
HETATM    8  C7  UNL     1      -1.487  -0.466  -0.185  1.00  0.00     0.044 C 
HETATM    9  C2  UNL     1      -1.779   0.986  -0.361  1.00  0.00    -0.028 C 
HETATM   10  C1  UNL     1      -1.178   1.550  -1.633  1.00  0.00     0.016 C 
HETATM   11  C3  UNL     1      -1.498   1.894   0.783  1.00  0.00     0.016 C 
HETATM   12  C4  UNL     1      -3.315   0.835  -0.541  1.00  0.00    -0.003 C 
HETATM   13  C5  UNL     1      -3.376  -0.160  -1.640  1.00  0.00     0.007 C 
HETATM   14  C17 UNL     1      -3.614   0.105   0.751  1.00  0.00     0.044 C 
HETATM   15  C6  UNL     1      -2.152  -1.029  -1.437  1.00  0.00     0.020 C 
HETATM   16  C16 UNL     1      -2.419  -0.812   0.959  1.00  0.00     0.185 C 
HETATM   17  F1  UNL     1      -2.821  -2.121   0.799  1.00  0.00    -0.248 F 
ENDBRANCH   1   8
BRANCH   7  18
HETATM   18  O1  UNL     1       0.732   0.139   2.047  1.00  0.00    -0.344 OA
ATOM     19  H1  UNL     1       1.412   0.303   2.689  1.00  0.00     0.219 HD
ENDBRANCH   7  18
BRANCH   6  20
HETATM   20  C10 UNL     1       3.198  -1.339   1.293  1.00  0.00     0.172 C 
BRANCH  20  21
HETATM   21  C11 UNL     1       4.122  -0.223   0.850  1.00  0.00    -0.033 A 
HETATM   22  C12 UNL     1       4.057   1.022   1.337  1.00  0.00     0.016 A 
HETATM   23  C13 UNL     1       4.955   1.938   0.859  1.00  0.00     0.050 A 
HETATM   24  S2  UNL     1       5.866   1.031  -0.258  1.00  0.00    -0.113 SA
HETATM   25  C14 UNL     1       5.087  -0.477  -0.089  1.00  0.00     0.058 A 
ENDBRANCH  20  21
ENDBRANCH   6  20
TORSDOF 4
