REMARK  5 active torsions:
REMARK  status: ('A' for Active; 'I' for Inactive)
REMARK    1  A    between atoms: N1_5  and  O1_7 
REMARK    2  A    between atoms: C7_12  and  N2_13 
REMARK    3  A    between atoms: C10_16  and  O2_17 
REMARK    4  A    between atoms: O2_17  and  C11_18 
REMARK    5  A    between atoms: C11_18  and  C12_19 
ROOT
HETATM    1  N2  UNL     1      -1.329  -0.782   0.772  1.00  0.00    -0.406 N 
HETATM    2  C8  UNL     1      -0.975   0.563   0.557  1.00  0.00     0.119 C 
HETATM    3  C9  UNL     1       0.493   0.696   0.977  1.00  0.00     0.051 C 
HETATM    4  C10 UNL     1       1.285   0.122  -0.167  1.00  0.00     0.124 C 
HETATM    5  C18 UNL     1       0.674  -1.167  -0.589  1.00  0.00     0.051 C 
HETATM    6  C19 UNL     1      -0.289  -1.735   0.462  1.00  0.00     0.119 C 
ENDROOT
BRANCH   1   7
HETATM    7  C7  UNL     1      -2.638  -1.236   0.546  1.00  0.00     0.108 C 
HETATM    8  C2  UNL     1      -3.711  -0.620   1.404  1.00  0.00     0.093 C 
HETATM    9  C1  UNL     1      -4.921  -1.559   1.318  1.00  0.00     0.041 C 
HETATM   10 CL1  UNL     1      -3.213  -0.511   3.098  1.00  0.00    -0.111 Cl
HETATM   11  C3  UNL     1      -4.122   0.667   0.850  1.00  0.00     0.035 C 
HETATM   12  N1  UNL     1      -4.509   1.575   1.683  1.00  0.00    -0.275 N 
HETATM   13  C4  UNL     1      -4.120   0.974  -0.579  1.00  0.00     0.057 C 
ATOM     14  H1  UNL     1      -4.517   1.374   2.683  1.00  0.00     0.193 HD
HETATM   15  C5  UNL     1      -3.559  -0.041  -1.483  1.00  0.00     0.008 C 
HETATM   16  C6  UNL     1      -3.079  -1.310  -0.885  1.00  0.00     0.028 C 
BRANCH  12  17
HETATM   17  O1  UNL     1      -4.904   2.792   1.240  1.00  0.00    -0.290 OA
ATOM     18  H1  UNL     1      -5.189   3.460   1.853  1.00  0.00     0.244 HD
ENDBRANCH  12  17
ENDBRANCH   1   7
BRANCH   4  19
HETATM   19  O2  UNL     1       2.641   0.044   0.099  1.00  0.00    -0.381 OA
BRANCH  19  20
HETATM   20  C11 UNL     1       3.418   0.852  -0.694  1.00  0.00     0.206 C 
BRANCH  20  21
HETATM   21  C12 UNL     1       4.838   0.656  -0.288  1.00  0.00    -0.035 A 
HETATM   22  C13 UNL     1       5.340   1.472   0.708  1.00  0.00     0.009 A 
HETATM   23  C14 UNL     1       6.656   1.316   1.108  1.00  0.00     0.001 A 
HETATM   24  C15 UNL     1       7.438   0.365   0.518  1.00  0.00     0.000 A 
HETATM   25  C16 UNL     1       6.939  -0.445  -0.472  1.00  0.00     0.001 A 
HETATM   26  C17 UNL     1       5.631  -0.311  -0.889  1.00  0.00     0.009 A 
ENDBRANCH  20  21
ENDBRANCH  19  20
ENDBRANCH   4  19
TORSDOF 5
