REMARK  5 active torsions:
REMARK  status: ('A' for Active; 'I' for Inactive)
REMARK    1  A    between atoms: O1_2  and  C2_3 
REMARK    2  A    between atoms: C7_8  and  O2_9 
REMARK    3  A    between atoms: O2_9  and  C8_10 
REMARK    4  A    between atoms: C11_13  and  O3_14 
REMARK    5  A    between atoms: N1_22  and  O4_23 
ROOT
HETATM    1  C2  UNL     1       0.530  -0.479   0.835  1.00  0.00     0.102 A 
HETATM    2  C3  UNL     1      -0.771  -0.557   1.318  1.00  0.00     0.049 A 
HETATM    3  C4  UNL     1      -1.840   0.039   0.700  1.00  0.00    -0.025 A 
HETATM    4  C5  UNL     1      -1.584   0.745  -0.456  1.00  0.00    -0.045 A 
HETATM    5  C6  UNL     1      -0.309   0.826  -0.936  1.00  0.00     0.047 A 
HETATM    6  C7  UNL     1       0.807   0.217  -0.312  1.00  0.00     0.103 A 
HETATM    7  C14 UNL     1      -2.726   1.424  -1.181  1.00  0.00     0.066 C 
HETATM    8  C15 UNL     1      -4.028   0.726  -0.993  1.00  0.00     0.036 C 
HETATM    9  C16 UNL     1      -5.171   1.746  -0.888  1.00  0.00     0.034 C 
HETATM   10  C17 UNL     1      -4.325  -0.011  -2.312  1.00  0.00     0.034 C 
HETATM   11  N1  UNL     1      -4.078  -0.246   0.038  1.00  0.00    -0.177 NA
HETATM   12  C18 UNL     1      -3.235  -0.013   1.167  1.00  0.00     0.059 C 
HETATM   13  C19 UNL     1      -3.548   1.213   1.946  1.00  0.00     0.040 C 
HETATM   14  C20 UNL     1      -3.406  -1.211   2.110  1.00  0.00     0.040 C 
ENDROOT
BRANCH   6  15
HETATM   15  O2  UNL     1       2.030   0.350  -0.858  1.00  0.00    -0.343 OA
BRANCH  15  16
HETATM   16  C8  UNL     1       3.270  -0.093  -0.523  1.00  0.00     0.129 C 
HETATM   17  C9  UNL     1       3.909  -0.889  -1.656  1.00  0.00     0.035 C 
HETATM   18  C10 UNL     1       5.355  -1.090  -1.539  1.00  0.00     0.034 C 
HETATM   19  C11 UNL     1       6.140  -0.085  -0.774  1.00  0.00     0.118 C 
HETATM   20  C12 UNL     1       5.408   0.575   0.345  1.00  0.00     0.034 C 
HETATM   21  C13 UNL     1       4.132   1.150  -0.230  1.00  0.00     0.035 C 
BRANCH  19  22
HETATM   22  O3  UNL     1       7.284  -0.700  -0.213  1.00  0.00    -0.396 OA
ATOM     23  H3  UNL     1       7.785  -0.058   0.276  1.00  0.00     0.210 HD
ENDBRANCH  19  22
ENDBRANCH  15  16
ENDBRANCH   6  15
BRANCH   1  24
HETATM   24  O1  UNL     1       1.486  -1.138   1.581  1.00  0.00    -0.353 OA
HETATM   25  C1  UNL     1       1.225  -1.851   2.750  1.00  0.00     0.210 C 
ENDBRANCH   1  24
BRANCH  11  26
HETATM   26  O4  UNL     1      -3.714  -1.462  -0.484  1.00  0.00    -0.311 OA
ATOM     27  H4  UNL     1      -3.748  -2.113   0.207  1.00  0.00     0.237 HD
ENDBRANCH  11  26
TORSDOF 5
