REMARK  4 active torsions:
REMARK  status: ('A' for Active; 'I' for Inactive)
REMARK    1  A    between atoms: C2_2  and  N1_4 
REMARK    2  A    between atoms: C2_2  and  C4_8 
REMARK    3  A    between atoms: C4_8  and  C5_9 
REMARK    4  A    between atoms: C11_16  and  N2_17 
ROOT
HETATM    1  N2  UNL     1       4.593  -0.415  -0.556  1.00  0.00    -0.338 N 
HETATM    2  C12 UNL     1       5.694  -1.190  -0.651  1.00  0.00     0.095 A 
HETATM    3  C13 UNL     1       6.764  -0.460  -0.147  1.00  0.00     0.041 A 
HETATM    4  C14 UNL     1       6.305   0.766   0.256  1.00  0.00     0.061 A 
HETATM    5  C15 UNL     1       7.042   1.851   0.838  1.00  0.00     0.101 C 
HETATM    6  N3  UNL     1       7.647   2.717   1.312  1.00  0.00    -0.191 NA
HETATM    7  C16 UNL     1       4.937   0.762  -0.015  1.00  0.00     0.115 A 
ENDROOT
BRANCH   1   8
HETATM    8  C11 UNL     1       3.266  -0.813  -0.977  1.00  0.00     0.231 C 
HETATM    9  O1  UNL     1       3.068  -2.158  -0.812  1.00  0.00    -0.365 OA
HETATM   10  C10 UNL     1       1.766  -2.382  -0.439  1.00  0.00     0.176 C 
HETATM   11  C9  UNL     1       1.253  -1.128   0.234  1.00  0.00     0.023 C 
HETATM   12  C8  UNL     1      -0.188  -0.942   0.043  1.00  0.00     0.001 C 
HETATM   13  C17 UNL     1       2.175  -0.084  -0.226  1.00  0.00     0.041 C 
HETATM   14  C7  UNL     1      -0.957  -0.988   1.373  1.00  0.00     0.006 C 
HETATM   15  C20 UNL     1      -0.663   0.281  -0.627  1.00  0.00    -0.036 C 
HETATM   16  C6  UNL     1      -1.494   0.444   1.530  1.00  0.00     0.006 C 
HETATM   17  C5  UNL     1      -1.921   0.747   0.152  1.00  0.00    -0.004 C 
HETATM   18  C19 UNL     1       0.258   1.435  -0.673  1.00  0.00     0.010 C 
HETATM   19  C21 UNL     1      -1.094  -0.022  -2.067  1.00  0.00     0.016 C 
HETATM   20  C18 UNL     1       1.622   0.971  -1.105  1.00  0.00     0.010 C 
BRANCH  17  21
HETATM   21  C4  UNL     1      -3.138   0.150  -0.407  1.00  0.00     0.043 C 
BRANCH  21  22
HETATM   22  C2  UNL     1      -4.441   0.444   0.230  1.00  0.00     0.117 C 
HETATM   23  C1  UNL     1      -5.576  -0.273  -0.570  1.00  0.00     0.045 C 
HETATM   24  C3  UNL     1      -4.639  -0.027   1.643  1.00  0.00     0.045 C 
BRANCH  22  25
HETATM   25  N1  UNL     1      -4.795   1.853   0.191  1.00  0.00    -0.071 N 
ATOM     26  H13 UNL     1      -4.934   2.220  -0.750  1.00  0.00     0.275 HD
ATOM     27  H12 UNL     1      -5.735   2.054   0.533  1.00  0.00     0.275 HD
ATOM     28  H11 UNL     1      -4.054   2.321   0.713  1.00  0.00     0.275 HD
ENDBRANCH  22  25
ENDBRANCH  21  22
ENDBRANCH  17  21
ENDBRANCH   1   8
TORSDOF 4
