REMARK  5 active torsions:
REMARK  status: ('A' for Active; 'I' for Inactive)
REMARK    1  A    between atoms: O1_1  and  N1_3 
REMARK    2  A    between atoms: C5_9  and  C6_10 
REMARK    3  A    between atoms: C6_10  and  N2_11 
REMARK    4  A    between atoms: C9_14  and  N3_15 
REMARK    5  A    between atoms: C13_19  and  O2_20 
ROOT
HETATM    1  N2  UNL     1       1.508  -0.382   0.785  1.00  0.00    -0.393 N 
HETATM    2  C7  UNL     1       1.103  -0.660  -0.516  1.00  0.00     0.123 C 
HETATM    3  C8  UNL     1      -0.390  -1.044  -0.499  1.00  0.00     0.045 C 
HETATM    4  C9  UNL     1      -1.139   0.200  -0.129  1.00  0.00     0.094 C 
HETATM    5  C18 UNL     1      -0.690   0.616   1.242  1.00  0.00     0.045 C 
HETATM    6  C19 UNL     1       0.446  -0.228   1.757  1.00  0.00     0.123 C 
ENDROOT
BRANCH   1   7
HETATM    7  C6  UNL     1       2.678   0.318   1.089  1.00  0.00     0.063 C 
BRANCH   7   8
HETATM    8  C5  UNL     1       3.939  -0.433   0.810  1.00  0.00     0.029 C 
HETATM    9  C4  UNL     1       4.149  -0.799  -0.611  1.00  0.00     0.010 C 
HETATM   10  C3  UNL     1       5.603  -0.658  -1.064  1.00  0.00     0.006 C 
HETATM   11  C2  UNL     1       6.039   0.769  -0.901  1.00  0.00     0.054 C 
HETATM   12  C1  UNL     1       5.812   1.188   0.492  1.00  0.00     0.010 C 
HETATM   13  N1  UNL     1       6.183   2.350   0.894  1.00  0.00    -0.277 N 
HETATM   14  C20 UNL     1       5.150   0.247   1.429  1.00  0.00     0.064 C 
ATOM     15  H1  UNL     1       6.021   2.633   1.861  1.00  0.00     0.193 HD
BRANCH  13  16
HETATM   16  O1  UNL     1       6.797   3.209   0.020  1.00  0.00    -0.290 OA
ATOM     17  H1  UNL     1       7.071   4.069   0.317  1.00  0.00     0.244 HD
ENDBRANCH  13  16
ENDBRANCH   7   8
ENDBRANCH   1   7
BRANCH   4  18
HETATM   18  N3  UNL     1      -2.571   0.030  -0.247  1.00  0.00    -0.332 N 
HETATM   19  C10 UNL     1      -3.359   0.540  -1.209  1.00  0.00     0.101 A 
HETATM   20  C11 UNL     1      -4.664   0.148  -0.996  1.00  0.00    -0.032 A 
HETATM   21  C12 UNL     1      -4.592  -0.630   0.161  1.00  0.00     0.001 A 
HETATM   22  C17 UNL     1      -5.992   0.305  -1.597  1.00  0.00     0.040 C 
HETATM   23  C13 UNL     1      -3.296  -0.687   0.601  1.00  0.00     0.149 A 
HETATM   24  C14 UNL     1      -5.878  -1.203   0.643  1.00  0.00     0.043 C 
HETATM   25  C15 UNL     1      -6.920  -0.118   0.699  1.00  0.00     0.005 C 
HETATM   26  C16 UNL     1      -6.935   0.778  -0.492  1.00  0.00     0.005 C 
BRANCH  23  27
HETATM   27  O2  UNL     1      -2.899  -1.385   1.731  1.00  0.00    -0.346 OA
ATOM     28  H2  UNL     1      -3.418  -1.899   2.338  1.00  0.00     0.219 HD
ENDBRANCH  23  27
ENDBRANCH   4  18
TORSDOF 5
