REMARK  5 active torsions:
REMARK  status: ('A' for Active; 'I' for Inactive)
REMARK    1  A    between atoms: C2_3  and  C3_4 
REMARK    2  A    between atoms: C3_4  and  C4_5 
REMARK    3  A    between atoms: C9_10  and  O1_11 
REMARK    4  A    between atoms: C11_15  and  O2_16 
REMARK    5  A    between atoms: C12_18  and  C13_19 
ROOT
HETATM    1  C1  UNL     1      -0.427  -0.910   1.294  1.00  0.00     0.312 C 
HETATM    2  N1  UNL     1      -0.269  -1.075  -0.132  1.00  0.00     0.107 N 
HETATM    3  C2  UNL     1      -1.429  -0.511  -0.791  1.00  0.00     0.262 C 
HETATM    4  C7  UNL     1      -1.345   0.909  -0.318  1.00  0.00     0.039 A 
HETATM    5  C8  UNL     1       0.025   1.179  -0.186  1.00  0.00     0.044 A 
HETATM    6  C9  UNL     1       0.139   2.478   0.245  1.00  0.00     0.153 A 
HETATM    7  N2  UNL     1      -1.078   2.984   0.374  1.00  0.00    -0.312 N 
HETATM    8  C10 UNL     1      -1.470   4.333   0.805  1.00  0.00     0.160 C 
HETATM    9  C11 UNL     1      -2.002   2.064   0.041  1.00  0.00     0.153 A 
HETATM   10  C12 UNL     1       0.703  -0.054  -0.569  1.00  0.00     0.301 C 
ENDROOT
BRANCH  10  11
HETATM   11  C13 UNL     1       2.040  -0.259   0.014  1.00  0.00     0.021 A 
HETATM   12  C14 UNL     1       3.206  -0.191  -0.696  1.00  0.00     0.025 A 
HETATM   13  C15 UNL     1       4.354  -0.407  -0.015  1.00  0.00    -0.044 A 
HETATM   14  C16 UNL     1       4.277  -0.672   1.308  1.00  0.00    -0.010 A 
HETATM   15  C18 UNL     1       5.865  -0.536   0.128  1.00  0.00     0.045 A 
HETATM   16  S1  UNL     1       2.598  -0.616   1.579  1.00  0.00    -0.096 SA
HETATM   17  C17 UNL     1       5.741  -0.828   1.598  1.00  0.00     0.051 A 
ENDBRANCH  10  11
BRANCH   3  18
HETATM   18  C3  UNL     1      -2.726  -1.152  -0.485  1.00  0.00     0.045 C 
BRANCH  18  19
HETATM   19  C4  UNL     1      -2.747  -2.591  -0.858  1.00  0.00    -0.012 A 
HETATM   20  C5  UNL     1      -3.957  -3.402  -0.630  1.00  0.00     0.005 A 
HETATM   21  C6  UNL     1      -3.647  -2.961  -2.028  1.00  0.00     0.005 A 
ENDBRANCH  18  19
ENDBRANCH   3  18
BRANCH   6  22
HETATM   22  O1  UNL     1       1.308   3.174   0.512  1.00  0.00    -0.345 OA
ATOM     23  H1  UNL     1       1.387   4.073   0.810  1.00  0.00     0.219 HD
ENDBRANCH   6  22
BRANCH   9  24
HETATM   24  O2  UNL     1      -3.391   2.172   0.032  1.00  0.00    -0.345 OA
ATOM     25  H2  UNL     1      -3.844   2.969   0.280  1.00  0.00     0.219 HD
ENDBRANCH   9  24
TORSDOF 5
