REMARK  12 active torsions:
REMARK  status: ('A' for Active; 'I' for Inactive)
REMARK    1  A    between atoms: C2_2  and  C3_3 
REMARK    2  A    between atoms: C3_3  and  C4_4 
REMARK    3  A    between atoms: C4_4  and  N1_6 
REMARK    4  A    between atoms: N1_6  and  C6_8 
REMARK    5  A    between atoms: C9_13  and  N3_14 
REMARK    6  A    between atoms: N3_14  and  C10_16 
REMARK    7  A    between atoms: C10_16  and  O1_17 
REMARK    8  A    between atoms: C10_16  and  C11_19 
REMARK    9  A    between atoms: C11_19  and  N4_20 
REMARK   10  A    between atoms: C11_19  and  C12_24 
REMARK   11  A    between atoms: C12_24  and  O2_25 
REMARK   12  A    between atoms: C14_28  and  N5_29 
REMARK       I    between atoms: N5_29  and  C15_31 
REMARK       I    between atoms: C15_31  and  N6_32 
REMARK       I    between atoms: C15_31  and  N7_36 
ROOT
HETATM    1  C6  UNL     1      -1.538   0.047   0.589  1.00  0.00     0.056 C 
HETATM    2  C7  UNL     1      -1.093   1.116   1.336  1.00  0.00     0.048 C 
HETATM    3  C8  UNL     1       0.172   1.700   1.288  1.00  0.00     0.092 C 
HETATM    4  N2  UNL     1       1.316   1.158   0.801  1.00  0.00    -0.352 N 
ATOM      5  H2  UNL     1       2.109   1.800   0.792  1.00  0.00     0.166 HD
HETATM    6  C9  UNL     1       1.596  -0.058   0.332  1.00  0.00     0.104 C 
HETATM    7  C13 UNL     1       0.683  -1.118   0.253  1.00  0.00     0.079 C 
HETATM    8  C14 UNL     1      -0.692  -1.010   0.195  1.00  0.00     0.061 C 
ENDROOT
BRANCH   6   9
HETATM    9  N3  UNL     1       2.905  -0.345  -0.135  1.00  0.00    -0.348 N 
ATOM     10  H3  UNL     1       3.103  -1.280  -0.491  1.00  0.00     0.163 HD
BRANCH   9  11
HETATM   11  C10 UNL     1       3.969   0.631  -0.127  1.00  0.00     0.251 C 
BRANCH  11  12
HETATM   12  O1  UNL     1       3.629   1.719  -0.897  1.00  0.00    -0.375 OA
ATOM     13  H1  UNL     1       4.329   2.361  -0.892  1.00  0.00     0.212 HD
ENDBRANCH  11  12
BRANCH  11  14
HETATM   14  C11 UNL     1       5.291   0.029  -0.524  1.00  0.00     0.255 C 
BRANCH  14  15
HETATM   15  N4  UNL     1       5.613  -1.107   0.305  1.00  0.00    -0.069 N 
ATOM     16  H43 UNL     1       5.592  -0.867   1.296  1.00  0.00     0.275 HD
ATOM     17  H42 UNL     1       4.866  -1.802   0.297  1.00  0.00     0.275 HD
ATOM     18  H41 UNL     1       6.508  -1.515   0.036  1.00  0.00     0.275 HD
ENDBRANCH  14  15
BRANCH  14  19
HETATM   19  C12 UNL     1       6.364   1.087  -0.345  1.00  0.00     0.201 C 
BRANCH  19  20
HETATM   20  O2  UNL     1       6.474   1.524   0.953  1.00  0.00    -0.399 OA
ATOM     21  H2  UNL     1       7.146   2.186   1.065  1.00  0.00     0.209 HD
ENDBRANCH  19  20
ENDBRANCH  14  19
ENDBRANCH  11  14
ENDBRANCH   9  11
ENDBRANCH   6   9
BRANCH   8  22
HETATM   22  N5  UNL     1      -1.302  -2.027  -0.296  1.00  0.00    -0.339 N 
HETATM   23  C15 UNL     1      -0.682  -3.230  -0.772  1.00  0.00     0.480 C 
HETATM   24  N6  UNL     1      -0.406  -4.176   0.300  1.00  0.00    -0.033 N 
HETATM   25  N7  UNL     1      -1.533  -3.948  -1.708  1.00  0.00    -0.033 N 
ATOM     26  H63 UNL     1       0.150  -3.743   1.037  1.00  0.00     0.278 HD
ATOM     27  H62 UNL     1      -1.251  -4.384   0.833  1.00  0.00     0.278 HD
ATOM     28  H61 UNL     1       0.035  -5.031  -0.038  1.00  0.00     0.278 HD
ATOM     29  H73 UNL     1      -2.450  -4.139  -1.303  1.00  0.00     0.278 HD
ATOM     30  H72 UNL     1      -1.820  -3.349  -2.482  1.00  0.00     0.278 HD
ATOM     31  H71 UNL     1      -1.092  -4.803  -2.046  1.00  0.00     0.278 HD
ATOM     32  H5  UNL     1      -2.319  -1.975  -0.353  1.00  0.00     0.163 HD
ENDBRANCH   8  22
BRANCH   1  33
HETATM   33  N1  UNL     1      -2.867  -0.040   0.187  1.00  0.00    -0.384 N 
ATOM     34  H1  UNL     1      -3.103  -0.883  -0.336  1.00  0.00     0.160 HD
BRANCH  33  35
HETATM   35  C4  UNL     1      -3.948   0.859   0.389  1.00  0.00     0.081 C 
HETATM   36  C5  UNL     1      -4.405   0.817   1.828  1.00  0.00     0.032 C 
BRANCH  35  37
HETATM   37  C3  UNL     1      -3.762   2.223  -0.175  1.00  0.00     0.051 C 
BRANCH  37  38
HETATM   38  C2  UNL     1      -4.966   3.081  -0.220  1.00  0.00    -0.035 C 
HETATM   39  C1  UNL     1      -6.177   2.673   0.111  1.00  0.00     0.007 C 
ENDBRANCH  37  38
ENDBRANCH  35  37
ENDBRANCH  33  35
ENDBRANCH   1  33
TORSDOF 12
