REMARK  14 active torsions:
REMARK  status: ('A' for Active; 'I' for Inactive)
REMARK    1  A    between atoms: N1_2  and  C2_5 
REMARK    2  A    between atoms: C2_5  and  C3_6 
REMARK    3  A    between atoms: C3_6  and  N2_7 
REMARK    4  A    between atoms: N2_7  and  C4_9 
REMARK    5  A    between atoms: C5_12  and  N4_13 
REMARK    6  A    between atoms: C6_16  and  C7_17 
REMARK    7  A    between atoms: C7_17  and  N5_18 
REMARK    8  A    between atoms: N5_18  and  O1_19 
REMARK    9  A    between atoms: O1_19  and  C8_20 
REMARK   10  A    between atoms: C8_20  and  C9_21 
REMARK   11  A    between atoms: C9_21  and  C11_23 
REMARK   12  A    between atoms: C11_23  and  O2_24 
REMARK   13  A    between atoms: C11_23  and  C12_26 
REMARK   14  A    between atoms: C12_26  and  N6_27 
ROOT
HETATM    1  C4  UNL     1       3.245   0.052  -0.411  1.00  0.00     0.681 A 
HETATM    2  N3  UNL     1       3.157  -1.029   0.374  1.00  0.00    -0.176 N 
ATOM      3  H3  UNL     1       4.015  -1.436   0.747  1.00  0.00     0.186 HD
HETATM    4  C5  UNL     1       1.956  -1.609   0.695  1.00  0.00     0.131 A 
HETATM    5  C6  UNL     1       0.804  -1.043   0.179  1.00  0.00     0.081 A 
HETATM    6  C13 UNL     1       0.869   0.074  -0.635  1.00  0.00     0.148 A 
HETATM    7  N7  UNL     1      -0.280   0.685  -1.184  1.00  0.00    -0.081 NA
HETATM    8  N8  UNL     1       2.115   0.558  -0.881  1.00  0.00    -0.178 N 
ATOM      9  H8  UNL     1       2.186   1.381  -1.479  1.00  0.00     0.185 HD
ENDROOT
BRANCH   5  10
HETATM   10  C7  UNL     1      -0.497  -1.641   0.502  1.00  0.00     0.236 C 
BRANCH  10  11
HETATM   11  N5  UNL     1      -1.598  -1.305   0.156  1.00  0.00    -0.293 NA
BRANCH  11  12
HETATM   12  O1  UNL     1      -2.630  -0.784  -0.319  1.00  0.00    -0.209 OA
BRANCH  12  13
HETATM   13  C8  UNL     1      -3.865  -0.353   0.234  1.00  0.00     0.224 C 
BRANCH  13  14
HETATM   14  C9  UNL     1      -4.694   0.193  -0.897  1.00  0.00     0.039 C 
HETATM   15  C10 UNL     1      -4.003   1.358  -1.576  1.00  0.00     0.015 C 
BRANCH  14  16
HETATM   16  C11 UNL     1      -6.057   0.642  -0.444  1.00  0.00     0.149 C 
BRANCH  16  17
HETATM   17  O2  UNL     1      -5.932   1.642   0.516  1.00  0.00    -0.393 OA
ATOM     18  H2  UNL     1      -6.792   1.925   0.802  1.00  0.00     0.210 HD
ENDBRANCH  16  17
BRANCH  16  19
HETATM   19  C12 UNL     1      -6.795  -0.556   0.107  1.00  0.00     0.261 C 
BRANCH  19  20
HETATM   20  N6  UNL     1      -8.131  -0.109   0.514  1.00  0.00    -0.077 N 
ATOM     21  H63 UNL     1      -8.105   0.675   1.166  1.00  0.00     0.274 HD
ATOM     22  H62 UNL     1      -8.639   0.358  -0.237  1.00  0.00     0.274 HD
ATOM     23  H61 UNL     1      -8.629  -0.918   0.886  1.00  0.00     0.274 HD
ENDBRANCH  19  20
ENDBRANCH  16  19
ENDBRANCH  14  16
ENDBRANCH  13  14
ENDBRANCH  12  13
ENDBRANCH  11  12
ENDBRANCH  10  11
ENDBRANCH   5  10
BRANCH   4  24
HETATM   24  N4  UNL     1       1.958  -2.637   1.448  1.00  0.00    -0.384 N 
ATOM     25  H42 UNL     1       2.807  -3.054   1.828  1.00  0.00     0.157 HD
ATOM     26  H41 UNL     1       1.065  -3.068   1.687  1.00  0.00     0.157 HD
ENDBRANCH   4  24
BRANCH   1  27
HETATM   27  N2  UNL     1       4.531   0.599  -0.704  1.00  0.00    -0.224 N 
ATOM     28  H2  UNL     1       4.618   1.422  -1.300  1.00  0.00     0.177 HD
BRANCH  27  29
HETATM   29  C3  UNL     1       5.705  -0.027  -0.147  1.00  0.00     0.165 C 
BRANCH  29  30
HETATM   30  C2  UNL     1       6.974   0.709  -0.597  1.00  0.00     0.252 C 
BRANCH  30  31
HETATM   31  N1  UNL     1       8.091   0.008   0.009  1.00  0.00    -0.077 N 
HETATM   32  C1  UNL     1       8.022   0.230   1.440  1.00  0.00     0.267 C 
ATOM     33  H12 UNL     1       8.991   0.273  -0.391  1.00  0.00     0.276 HD
ATOM     34  H11 UNL     1       8.121  -0.981  -0.239  1.00  0.00     0.276 HD
ENDBRANCH  30  31
ENDBRANCH  29  30
ENDBRANCH  27  29
ENDBRANCH   1  27
TORSDOF 14
