REMARK  6 active torsions:
REMARK  status: ('A' for Active; 'I' for Inactive)
REMARK    1  A    between atoms: C2_2  and  C3_3 
REMARK    2  A    between atoms: C3_3  and  C4_4 
REMARK    3  A    between atoms: C4_4  and  C5_5 
REMARK    4  A    between atoms: C4_4  and  C7_10 
REMARK    5  A    between atoms: C5_5  and  N1_6 
REMARK    6  A    between atoms: C7_10  and  C8_11 
ROOT
HETATM    1  C4  UNL     1      -0.654  -0.823  -0.038  1.00  0.00    -0.055 C 
ENDROOT
BRANCH   1   2
HETATM    2  C3  UNL     1      -1.808  -1.366  -0.842  1.00  0.00    -0.000 C 
BRANCH   2   3
HETATM    3  C2  UNL     1      -2.977  -1.953  -0.213  1.00  0.00    -0.031 C 
HETATM    4  C1  UNL     1      -3.918  -1.179   0.608  1.00  0.00     0.036 C 
ENDBRANCH   2   3
ENDBRANCH   1   2
BRANCH   1   5
HETATM    5  C5  UNL     1      -0.948   0.268   0.890  1.00  0.00     0.266 C 
BRANCH   5   6
HETATM    6  N1  UNL     1      -1.509   1.466   0.371  1.00  0.00    -0.075 N 
HETATM    7  C6  UNL     1      -1.681   2.432   1.423  1.00  0.00     0.267 C 
ATOM      8  H12 UNL     1      -0.960   1.840  -0.403  1.00  0.00     0.277 HD
ATOM      9  H11 UNL     1      -2.379   1.292  -0.132  1.00  0.00     0.277 HD
ENDBRANCH   5   6
ENDBRANCH   1   5
BRANCH   1  10
HETATM   10  C7  UNL     1       0.570  -0.749  -0.893  1.00  0.00     0.040 C 
BRANCH  10  11
HETATM   11  C8  UNL     1       1.789  -0.239  -0.293  1.00  0.00    -0.011 C 
HETATM   12  C9  UNL     1       2.949  -0.400  -1.389  1.00  0.00     0.005 C 
HETATM   13  C10 UNL     1       4.084   0.062  -0.503  1.00  0.00     0.000 C 
HETATM   14  C11 UNL     1       3.508   1.274   0.191  1.00  0.00     0.000 C 
HETATM   15  C12 UNL     1       1.995   1.231  -0.134  1.00  0.00     0.005 C 
ENDBRANCH  10  11
ENDBRANCH   1  10
TORSDOF 6
