REMARK  9 active torsions:
REMARK  status: ('A' for Active; 'I' for Inactive)
REMARK    1  A    between atoms: O1_2  and  C2_3 
REMARK    2  A    between atoms: C2_3  and  C3_5 
REMARK    3  A    between atoms: C4_6  and  C5_7 
REMARK    4  A    between atoms: C5_7  and  C6_8 
REMARK    5  A    between atoms: C6_8  and  N2_11 
REMARK    6  A    between atoms: N2_11  and  N3_12 
REMARK    7  A    between atoms: N3_12  and  C8_14 
REMARK    8  A    between atoms: C11_18  and  N4_19 
REMARK    9  A    between atoms: C12_24  and  N6_25 
ROOT
HETATM    1  C6  UNL     1       0.431  -0.683  -0.414  1.00  0.00     0.193 C 
HETATM    2  C7  UNL     1       0.138  -2.028   0.089  1.00  0.00     0.131 C 
HETATM    3  N1  UNL     1      -0.093  -3.093   0.476  1.00  0.00    -0.189 NA
ENDROOT
BRANCH   1   4
HETATM    4  C5  UNL     1      -0.624   0.090  -1.152  1.00  0.00     0.145 C 
BRANCH   4   5
HETATM    5  C4  UNL     1      -1.711   0.591  -0.300  1.00  0.00     0.056 A 
HETATM    6  C3  UNL     1      -2.838  -0.073   0.041  1.00  0.00     0.131 A 
HETATM    7  C13 UNL     1      -3.726   0.523   0.971  1.00  0.00     0.278 A 
HETATM    8  N7  UNL     1      -3.483   1.712   1.511  1.00  0.00    -0.155 N 
HETATM    9  O6  UNL     1      -4.763  -0.115   1.275  1.00  0.00    -0.266 OA
HETATM   10  C12 UNL     1      -2.363   2.352   1.152  1.00  0.00     0.679 A 
ATOM     11  H7  UNL     1      -4.132   2.126   2.181  1.00  0.00     0.187 HD
HETATM   12  N5  UNL     1      -1.495   1.834   0.285  1.00  0.00    -0.194 N 
ATOM     13  H5  UNL     1      -0.654   2.360   0.045  1.00  0.00     0.184 HD
BRANCH   6  14
HETATM   14  C2  UNL     1      -3.253  -1.298  -0.606  1.00  0.00     0.300 C 
HETATM   15  O2  UNL     1      -2.744  -1.899  -1.555  1.00  0.00    -0.259 OA
BRANCH  14  16
HETATM   16  O1  UNL     1      -4.414  -1.934  -0.102  1.00  0.00    -0.322 OA
HETATM   17  C1  UNL     1      -4.926  -3.126  -0.642  1.00  0.00     0.213 C 
ENDBRANCH  14  16
ENDBRANCH   6  14
BRANCH  10  18
HETATM   18  N6  UNL     1      -2.109   3.522   1.654  1.00  0.00    -0.234 N 
ATOM     19  H62 UNL     1      -1.256   4.010   1.381  1.00  0.00     0.174 HD
ATOM     20  H61 UNL     1      -2.774   3.919   2.318  1.00  0.00     0.174 HD
ENDBRANCH  10  18
ENDBRANCH   4   5
ENDBRANCH   1   4
BRANCH   1  21
HETATM   21  N2  UNL     1       1.524  -0.238  -0.119  1.00  0.00    -0.317 NA
BRANCH  21  22
HETATM   22  N3  UNL     1       2.540   0.546   0.016  1.00  0.00    -0.210 N 
ATOM     23  H3  UNL     1       2.380   1.532   0.222  1.00  0.00     0.204 HD
BRANCH  22  24
HETATM   24  C8  UNL     1       3.907   0.067  -0.117  1.00  0.00     0.206 A 
HETATM   25  O3  UNL     1       4.177  -1.153  -0.557  1.00  0.00    -0.302 OA
HETATM   26  C9  UNL     1       5.457  -1.363  -0.586  1.00  0.00     0.147 A 
HETATM   27  C10 UNL     1       6.092  -0.213  -0.139  1.00  0.00     0.065 A 
HETATM   28  C11 UNL     1       5.077   0.702   0.161  1.00  0.00     0.158 A 
BRANCH  28  29
HETATM   29  N4  UNL     1       5.232   1.996   0.670  1.00  0.00    -0.111 N 
HETATM   30  O4  UNL     1       6.252   2.223   1.389  1.00  0.00    -0.532 OA
HETATM   31  O5  UNL     1       4.370   3.033   0.457  1.00  0.00    -0.532 OA
ENDBRANCH  28  29
ENDBRANCH  22  24
ENDBRANCH  21  22
ENDBRANCH   1  21
TORSDOF 9
