REMARK  9 active torsions:
REMARK  status: ('A' for Active; 'I' for Inactive)
REMARK    1  A    between atoms: O1_2  and  C2_3 
REMARK    2  A    between atoms: C2_3  and  C3_5 
REMARK    3  A    between atoms: C6_8  and  N1_9 
REMARK    4  A    between atoms: N1_9  and  N2_11 
REMARK    5  A    between atoms: N2_11  and  C7_13 
REMARK    6  A    between atoms: C7_13  and  C10_19 
REMARK    7  A    between atoms: N3_14  and  C8_16 
REMARK    8  A    between atoms: C11_25  and  N7_26 
REMARK    9  A    between atoms: C12_29  and  N8_30 
ROOT
HETATM    1  C8  UNL     1      -3.898   2.162  -0.213  1.00  0.00     0.245 C 
HETATM    2  C9  UNL     1      -3.759   2.979   1.007  1.00  0.00     0.078 C 
HETATM    3  N4  UNL     1      -3.665   3.627   1.975  1.00  0.00    -0.196 NA
ENDROOT
BRANCH   1   4
HETATM    4  N3  UNL     1      -3.991   0.765   0.125  1.00  0.00    -0.361 N 
HETATM    5  C7  UNL     1      -2.938   0.058   0.299  1.00  0.00     0.149 C 
ATOM      6  H3  UNL     1      -4.909   0.333   0.227  1.00  0.00     0.162 HD
BRANCH   5   7
HETATM    7  N2  UNL     1      -1.679   0.661   0.157  1.00  0.00    -0.283 N 
ATOM      8  H2  UNL     1      -1.303   1.123   0.985  1.00  0.00     0.188 HD
BRANCH   7   9
HETATM    9  N1  UNL     1      -0.883   0.701  -0.988  1.00  0.00    -0.297 N 
ATOM     10  H1  UNL     1      -1.282   0.908  -1.904  1.00  0.00     0.187 HD
BRANCH   9  11
HETATM   11  C6  UNL     1       0.530   0.438  -0.825  1.00  0.00     0.081 A 
HETATM   12  C5  UNL     1       1.292   1.367  -0.093  1.00  0.00     0.034 A 
HETATM   13  C4  UNL     1       2.640   1.166   0.093  1.00  0.00     0.020 A 
HETATM   14  C3  UNL     1       3.285   0.067  -0.421  1.00  0.00     0.042 A 
HETATM   15  C13 UNL     1       2.511  -0.824  -1.135  1.00  0.00     0.056 A 
HETATM   16  C12 UNL     1       1.147  -0.663  -1.349  1.00  0.00     0.131 A 
BRANCH  14  17
HETATM   17  C2  UNL     1       4.708  -0.120  -0.193  1.00  0.00     0.293 C 
HETATM   18  O2  UNL     1       5.375  -1.085  -0.635  1.00  0.00    -0.259 OA
BRANCH  17  19
HETATM   19  O1  UNL     1       5.378   0.818   0.560  1.00  0.00    -0.323 OA
HETATM   20  C1  UNL     1       6.743   0.805   0.889  1.00  0.00     0.213 C 
ENDBRANCH  17  19
ENDBRANCH  14  17
BRANCH  16  21
HETATM   21  N8  UNL     1       0.394  -1.596  -2.100  1.00  0.00    -0.113 N 
HETATM   22  O4  UNL     1      -0.566  -1.268  -2.769  1.00  0.00    -0.532 OA
HETATM   23  O5  UNL     1       0.781  -2.912  -2.064  1.00  0.00    -0.532 OA
ENDBRANCH  16  21
ENDBRANCH   9  11
ENDBRANCH   7   9
ENDBRANCH   5   7
BRANCH   5  24
HETATM   24  C10 UNL     1      -3.089  -1.357   0.662  1.00  0.00     0.146 A 
HETATM   25  N5  UNL     1      -2.052  -2.222   0.864  1.00  0.00    -0.234 N 
HETATM   26  O3  UNL     1      -2.531  -3.380   1.182  1.00  0.00    -0.155 OA
ATOM     27  H5  UNL     1      -1.062  -1.992   0.778  1.00  0.00     0.197 HD
HETATM   28  N6  UNL     1      -3.819  -3.322   1.200  1.00  0.00    -0.224 N 
HETATM   29  C11 UNL     1      -4.241  -2.050   0.875  1.00  0.00     0.154 A 
ATOM     30  H6  UNL     1      -4.436  -4.103   1.422  1.00  0.00     0.198 HD
BRANCH  29  31
HETATM   31  N7  UNL     1      -5.479  -1.706   0.822  1.00  0.00    -0.382 N 
ATOM     32  H72 UNL     1      -5.791  -0.765   0.582  1.00  0.00     0.157 HD
ATOM     33  H71 UNL     1      -6.342  -2.225   0.982  1.00  0.00     0.157 HD
ENDBRANCH  29  31
ENDBRANCH   5  24
ENDBRANCH   1   4
TORSDOF 9
