REMARK  11 active torsions:
REMARK  status: ('A' for Active; 'I' for Inactive)
REMARK    1  A    between atoms: C2_2  and  C3_3 
REMARK    2  A    between atoms: N2_6  and  C4_7 
REMARK    3  A    between atoms: C4_7  and  C5_8 
REMARK    4  A    between atoms: C5_8  and  C6_9 
REMARK    5  A    between atoms: C13_18  and  N4_19 
REMARK    6  A    between atoms: N6_25  and  C15_27 
REMARK    7  A    between atoms: C15_27  and  C16_28 
REMARK    8  A    between atoms: C16_28  and  N7_29 
REMARK    9  A    between atoms: N7_29  and  C17_31 
REMARK   10  A    between atoms: C17_31  and  C18_32 
REMARK   11  A    between atoms: N8_33  and  C19_35 
ROOT
HETATM    1  C3  UNL     1      -0.514   0.256   1.762  1.00  0.00     0.043 A 
HETATM    2  N1  UNL     1      -1.801   0.668   1.742  1.00  0.00    -0.300 N 
ATOM      3  H1  UNL     1      -2.362   0.879   2.567  1.00  0.00     0.187 HD
HETATM    4  N2  UNL     1      -2.228   0.757   0.481  1.00  0.00    -0.275 N 
HETATM    5  C12 UNL     1      -1.204   0.399  -0.330  1.00  0.00     0.153 A 
HETATM    6  N3  UNL     1      -1.166   0.337  -1.671  1.00  0.00    -0.174 N 
ATOM      7  H3  UNL     1      -1.987   0.580  -2.225  1.00  0.00     0.186 HD
HETATM    8  C13 UNL     1      -0.013  -0.055  -2.277  1.00  0.00     0.679 A 
HETATM    9  N5  UNL     1       1.042  -0.364  -1.511  1.00  0.00    -0.176 N 
ATOM     10  H5  UNL     1       1.898  -0.656  -1.983  1.00  0.00     0.186 HD
HETATM   11  C14 UNL     1       1.059  -0.319  -0.168  1.00  0.00     0.133 A 
HETATM   12  N6  UNL     1       2.088  -0.616   0.552  1.00  0.00    -0.373 N 
ATOM     13  H6  UNL     1       1.978  -0.544   1.563  1.00  0.00     0.161 HD
HETATM   14  C20 UNL     1      -0.111   0.078   0.458  1.00  0.00     0.078 A 
ENDROOT
BRANCH  12  15
HETATM   15  C15 UNL     1       3.364  -1.035   0.072  1.00  0.00     0.140 C 
BRANCH  15  16
HETATM   16  C16 UNL     1       4.226   0.137  -0.341  1.00  0.00     0.133 C 
BRANCH  16  17
HETATM   17  N7  UNL     1       5.510  -0.279  -0.827  1.00  0.00    -0.415 N 
ATOM     18  H7  UNL     1       5.785  -0.180  -1.804  1.00  0.00     0.153 HD
BRANCH  17  19
HETATM   19  C17 UNL     1       6.378  -0.844   0.164  1.00  0.00     0.158 C 
BRANCH  19  20
HETATM   20  C18 UNL     1       7.648  -1.224  -0.487  1.00  0.00     0.082 C 
HETATM   21  N8  UNL     1       8.609  -0.397  -0.557  1.00  0.00    -0.346 N 
ATOM     22  H8  UNL     1       9.463  -0.711  -1.018  1.00  0.00     0.167 HD
BRANCH  21  23
HETATM   23  C19 UNL     1       8.593   0.918  -0.051  1.00  0.00     0.352 C 
HETATM   24  O1  UNL     1       8.404   1.898  -0.801  1.00  0.00    -0.283 OA
ENDBRANCH  21  23
ENDBRANCH  19  20
ENDBRANCH  17  19
ENDBRANCH  16  17
ENDBRANCH  15  16
ENDBRANCH  12  15
BRANCH   8  25
HETATM   25  N4  UNL     1       0.035  -0.120  -3.586  1.00  0.00    -0.234 N 
ATOM     26  H42 UNL     1      -0.768   0.115  -4.169  1.00  0.00     0.174 HD
ATOM     27  H41 UNL     1       0.900  -0.414  -4.040  1.00  0.00     0.174 HD
ENDBRANCH   8  25
BRANCH   1  28
HETATM   28  C2  UNL     1       0.328   0.029   2.966  1.00  0.00     0.055 C 
HETATM   29  C1  UNL     1       0.485  -1.444   3.286  1.00  0.00     0.011 C 
ENDBRANCH   1  28
BRANCH   4  30
HETATM   30  C4  UNL     1      -3.547   1.169   0.065  1.00  0.00     0.155 C 
BRANCH  30  31
HETATM   31  C5  UNL     1      -4.436  -0.024  -0.037  1.00  0.00     0.060 C 
BRANCH  31  32
HETATM   32  C6  UNL     1      -5.808   0.305  -0.457  1.00  0.00    -0.057 A 
HETATM   33  C7  UNL     1      -6.845   0.604   0.395  1.00  0.00     0.007 A 
HETATM   34  C8  UNL     1      -8.122   0.908  -0.063  1.00  0.00     0.001 A 
HETATM   35  C9  UNL     1      -8.383   0.915  -1.434  1.00  0.00     0.000 A 
HETATM   36  C10 UNL     1      -7.359   0.618  -2.291  1.00  0.00     0.001 A 
HETATM   37  C11 UNL     1      -6.089   0.317  -1.808  1.00  0.00     0.007 A 
ENDBRANCH  31  32
ENDBRANCH  30  31
ENDBRANCH   4  30
TORSDOF 11
