REMARK  13 active torsions:
REMARK  status: ('A' for Active; 'I' for Inactive)
REMARK    1  A    between atoms: C2_2  and  C3_3 
REMARK    2  A    between atoms: C3_3  and  O1_4 
REMARK    3  A    between atoms: O1_4  and  C4_5 
REMARK    4  A    between atoms: C7_8  and  C8_9 
REMARK    5  A    between atoms: C8_9  and  C9_10 
REMARK    6  A    between atoms: C9_10  and  N1_11 
REMARK    7  A    between atoms: N1_11  and  C10_13 
REMARK    8  A    between atoms: C10_13  and  C11_14 
REMARK    9  A    between atoms: C11_14  and  O2_15 
REMARK   10  A    between atoms: C11_14  and  C12_17 
REMARK   11  A    between atoms: C16_21  and  N2_22 
REMARK   12  A    between atoms: N2_22  and  S1_24 
REMARK   13  A    between atoms: S1_24  and  N3_25 
ROOT
HETATM    1  C11 UNL     1       2.119  -0.154   1.674  1.00  0.00     0.168 C 
ENDROOT
BRANCH   1   2
HETATM    2  C10 UNL     1       1.951  -1.562   1.261  1.00  0.00     0.150 C 
BRANCH   2   3
HETATM    3  N1  UNL     1       0.716  -2.082   1.797  1.00  0.00    -0.418 N 
ATOM      4  H1  UNL     1       0.694  -2.803   2.518  1.00  0.00     0.153 HD
BRANCH   3   5
HETATM    5  C9  UNL     1      -0.471  -1.515   1.246  1.00  0.00     0.118 C 
BRANCH   5   6
HETATM    6  C8  UNL     1      -1.734  -2.128   1.816  1.00  0.00     0.057 C 
BRANCH   6   7
HETATM    7  C7  UNL     1      -2.887  -1.440   1.165  1.00  0.00    -0.057 A 
HETATM    8  C6  UNL     1      -3.437  -1.881   0.003  1.00  0.00     0.010 A 
HETATM    9  C5  UNL     1      -4.501  -1.250  -0.601  1.00  0.00     0.037 A 
HETATM   10  C4  UNL     1      -5.029  -0.137  -0.015  1.00  0.00     0.069 A 
HETATM   11  C19 UNL     1      -4.487   0.338   1.175  1.00  0.00     0.037 A 
HETATM   12  C18 UNL     1      -3.422  -0.308   1.764  1.00  0.00     0.010 A 
BRANCH  10  13
HETATM   13  O1  UNL     1      -6.101   0.539  -0.579  1.00  0.00    -0.348 OA
BRANCH  13  14
HETATM   14  C3  UNL     1      -6.669   0.080  -1.785  1.00  0.00     0.202 C 
BRANCH  14  15
HETATM   15  C2  UNL     1      -7.790   0.960  -2.183  1.00  0.00    -0.011 C 
HETATM   16  C1  UNL     1      -8.112   1.993  -1.431  1.00  0.00     0.009 C 
ENDBRANCH  14  15
ENDBRANCH  13  14
ENDBRANCH  10  13
ENDBRANCH   6   7
ENDBRANCH   5   6
ENDBRANCH   3   5
ENDBRANCH   2   3
ENDBRANCH   1   2
BRANCH   1  17
HETATM   17  O2  UNL     1       2.138  -0.094   3.072  1.00  0.00    -0.389 OA
ATOM     18  H2  UNL     1       2.246   0.812   3.338  1.00  0.00     0.210 HD
ENDBRANCH   1  17
BRANCH   1  19
HETATM   19  C12 UNL     1       3.349   0.496   1.214  1.00  0.00    -0.026 A 
HETATM   20  C13 UNL     1       3.700   1.710   1.766  1.00  0.00     0.010 A 
HETATM   21  C14 UNL     1       4.843   2.384   1.391  1.00  0.00     0.003 A 
HETATM   22  C15 UNL     1       5.696   1.874   0.437  1.00  0.00     0.030 A 
HETATM   23  C16 UNL     1       5.375   0.663  -0.136  1.00  0.00     0.044 A 
HETATM   24  C17 UNL     1       4.204  -0.006   0.263  1.00  0.00     0.039 A 
BRANCH  23  25
HETATM   25  N2  UNL     1       6.180   0.032  -1.121  1.00  0.00    -0.268 N 
ATOM     26  H2  UNL     1       6.386  -0.961  -1.009  1.00  0.00     0.180 HD
BRANCH  25  27
HETATM   27  S1  UNL     1       6.821   0.835  -2.476  1.00  0.00     0.317 S 
HETATM   28  O3  UNL     1       8.094   0.151  -2.966  1.00  0.00    -0.183 OA
HETATM   29  O4  UNL     1       7.157   2.268  -2.224  1.00  0.00    -0.183 OA
BRANCH  27  30
HETATM   30  N3  UNL     1       5.695   0.731  -3.783  1.00  0.00    -0.311 N 
ATOM     31  H32 UNL     1       4.792   0.259  -3.734  1.00  0.00     0.170 HD
ATOM     32  H31 UNL     1       6.079   1.213  -4.596  1.00  0.00     0.170 HD
ENDBRANCH  27  30
ENDBRANCH  25  27
ENDBRANCH  23  25
ENDBRANCH   1  19
TORSDOF 13
