REMARK  2 active torsions:
REMARK  status: ('A' for Active; 'I' for Inactive)
REMARK    1  A    between atoms: C2_2  and  C3_3 
REMARK    2  A    between atoms: C3_3  and  C4_4 
ROOT
HETATM    1  C4  UNL     1      -1.063   0.620   0.492  1.00  0.00     0.006 A 
HETATM    2  C5  UNL     1       0.360   0.763   1.129  1.00  0.00     0.190 C 
HETATM    3  C6  UNL     1       1.361  -0.116   0.640  1.00  0.00     0.307 C 
HETATM    4  N1  UNL     1       1.686  -1.460   0.587  1.00  0.00     0.093 N 
HETATM    5  C7  UNL     1       2.883  -1.457  -0.265  1.00  0.00     0.272 C 
HETATM    6  C8  UNL     1       3.872  -0.371   0.029  1.00  0.00     0.032 C 
HETATM    7  C9  UNL     1       3.801   0.924  -0.673  1.00  0.00     0.023 C 
HETATM    8  C10 UNL     1       3.137   2.102   0.041  1.00  0.00     0.146 C 
HETATM    9  N2  UNL     1       1.721   2.192  -0.110  1.00  0.00    -0.302 N 
ATOM     10  H2  UNL     1       1.348   2.381  -1.040  1.00  0.00     0.187 HD
HETATM   11  O1  UNL     1       0.877   2.047   0.873  1.00  0.00    -0.277 OA
HETATM   12  C11 UNL     1       0.675  -2.321  -0.011  1.00  0.00     0.309 C 
HETATM   13  C12 UNL     1      -0.569  -1.863   0.630  1.00  0.00     0.261 C 
HETATM   14  N3  UNL     1      -1.787  -2.566   0.365  1.00  0.00     0.096 N 
HETATM   15  C13 UNL     1      -1.699  -2.656  -1.102  1.00  0.00     0.274 C 
HETATM   16  C14 UNL     1      -1.463  -1.161  -1.393  1.00  0.00     0.043 C 
HETATM   17  C15 UNL     1      -0.994  -0.606  -0.109  1.00  0.00     0.011 A 
HETATM   18  C16 UNL     1      -2.047  -0.279   1.019  1.00  0.00     0.037 A 
HETATM   19  C17 UNL     1      -2.785  -1.488   0.567  1.00  0.00     0.279 C 
ENDROOT
BRANCH   1  20
HETATM   20  C3  UNL     1      -1.474   1.859  -0.197  1.00  0.00     0.013 C 
BRANCH  20  21
HETATM   21  C2  UNL     1      -2.798   1.960  -0.837  1.00  0.00    -0.004 C 
HETATM   22  C1  UNL     1      -3.988   1.779   0.073  1.00  0.00     0.005 C 
ENDBRANCH  20  21
ENDBRANCH   1  20
TORSDOF 2
