REMARK  5 active torsions:
REMARK  status: ('A' for Active; 'I' for Inactive)
REMARK       I    between atoms: C1_2  and  N1_3 
REMARK    1  A    between atoms: C1_2  and  C8_20 
REMARK    2  A    between atoms: C2_5  and  C3_6 
REMARK    3  A    between atoms: C2_5  and  N3_10 
REMARK    4  A    between atoms: C3_6  and  N2_7 
REMARK    5  A    between atoms: N3_10  and  C4_12 
ROOT
HETATM    1  O1  UNL     1       1.297   1.302  -2.071  1.00  0.00    -0.267 OA
HETATM    2  C1  UNL     1       1.203   0.567  -1.056  1.00  0.00     0.257 C 
HETATM    3  N1  UNL     1      -0.018   0.324  -0.400  1.00  0.00    -0.310 N 
ATOM      4  H1  UNL     1      -0.376  -0.631  -0.430  1.00  0.00     0.170 HD
HETATM    5  C2  UNL     1      -0.715   1.179   0.225  1.00  0.00     0.124 C 
ENDROOT
BRANCH   5   6
HETATM    6  C3  UNL     1      -0.265   2.586   0.315  1.00  0.00     0.278 C 
BRANCH   6   7
HETATM    7  N2  UNL     1      -1.210   3.501  -0.267  1.00  0.00    -0.148 N 
HETATM    8  O2  UNL     1      -2.258   3.049  -0.763  1.00  0.00    -0.536 OA
HETATM    9  O3  UNL     1      -0.915   4.840  -0.250  1.00  0.00    -0.536 OA
ENDBRANCH   6   7
ENDBRANCH   5   6
BRANCH   5  10
HETATM   10  N3  UNL     1      -1.928   0.768   0.835  1.00  0.00    -0.178 N 
ATOM     11  H3  UNL     1      -2.276   1.294   1.637  1.00  0.00     0.185 HD
BRANCH  10  12
HETATM   12  C4  UNL     1      -2.606  -0.243   0.416  1.00  0.00     0.683 A 
HETATM   13  N4  UNL     1      -2.244  -1.009  -0.629  1.00  0.00    -0.202 N 
HETATM   14  C5  UNL     1      -3.004  -2.052  -1.010  1.00  0.00     0.107 A 
ATOM     15  H4  UNL     1      -1.385  -0.797  -1.137  1.00  0.00     0.183 HD
HETATM   16  C6  UNL     1      -4.174  -2.385  -0.360  1.00  0.00     0.035 A 
HETATM   17  C7  UNL     1      -4.534  -1.589   0.712  1.00  0.00     0.107 A 
HETATM   18  N5  UNL     1      -3.745  -0.558   1.057  1.00  0.00    -0.202 N 
ATOM     19  H5  UNL     1      -4.026   0.018   1.850  1.00  0.00     0.183 HD
ENDBRANCH  10  12
ENDBRANCH   5  10
BRANCH   2  20
HETATM   20  C8  UNL     1       2.419  -0.052  -0.551  1.00  0.00     0.032 A 
HETATM   21  C9  UNL     1       3.652   0.147  -1.151  1.00  0.00     0.017 A 
HETATM   22  C10 UNL     1       4.809  -0.419  -0.700  1.00  0.00     0.001 A 
HETATM   23  C11 UNL     1       4.751  -1.234   0.413  1.00  0.00     0.000 A 
HETATM   24  C12 UNL     1       3.544  -1.458   1.040  1.00  0.00     0.001 A 
HETATM   25  C13 UNL     1       2.390  -0.869   0.557  1.00  0.00     0.017 A 
ENDBRANCH   2  20
TORSDOF 5
