REMARK  3 active torsions:
REMARK  status: ('A' for Active; 'I' for Inactive)
REMARK    1  A    between atoms: C1_2  and  C2_3 
REMARK       I    between atoms: C1_2  and  N2_10 
REMARK    2  A    between atoms: C2_3  and  N1_4 
REMARK    3  A    between atoms: N2_10  and  C7_12 
ROOT
HETATM    1  O1  UNL     1       1.305   0.727   1.111  1.00  0.00    -0.272 OA
HETATM    2  C1  UNL     1       1.270  -0.206   0.254  1.00  0.00     0.246 C 
HETATM    3  N2  UNL     1       0.059  -0.520  -0.418  1.00  0.00    -0.353 N 
ATOM      4  H2  UNL     1       0.048  -1.274  -1.104  1.00  0.00     0.163 HD
ENDROOT
BRANCH   3   5
HETATM    5  C7  UNL     1      -1.160   0.212  -0.146  1.00  0.00     0.117 C 
HETATM    6  C8  UNL     1      -1.582   0.953  -1.383  1.00  0.00     0.027 C 
HETATM    7  C9  UNL     1      -2.519   2.078  -1.089  1.00  0.00     0.004 C 
HETATM    8  C10 UNL     1      -3.766   1.666  -0.376  1.00  0.00     0.030 C 
HETATM    9  C11 UNL     1      -3.471   1.238   1.023  1.00  0.00     0.273 C 
HETATM   10  N3  UNL     1      -3.190  -0.122   1.217  1.00  0.00     0.095 N 
HETATM   11  C12 UNL     1      -4.297  -1.012   1.277  1.00  0.00     0.273 C 
HETATM   12  C15 UNL     1      -2.180  -0.707   0.415  1.00  0.00     0.245 C 
HETATM   13  C13 UNL     1      -4.116  -2.029   0.190  1.00  0.00     0.032 C 
HETATM   14  C14 UNL     1      -2.874  -1.584  -0.591  1.00  0.00     0.040 C 
ENDBRANCH   3   5
BRANCH   2  15
HETATM   15  C2  UNL     1       2.535  -0.939  -0.005  1.00  0.00     0.374 C 
BRANCH  15  16
HETATM   16  N1  UNL     1       3.613  -0.431   0.801  1.00  0.00     0.101 N 
HETATM   17  C3  UNL     1       4.820  -1.181   0.509  1.00  0.00     0.299 C 
HETATM   18  C4  UNL     1       5.406  -0.722  -0.814  1.00  0.00     0.198 C 
HETATM   19  O2  UNL     1       5.763   0.604  -0.803  1.00  0.00    -0.388 OA
HETATM   20  C5  UNL     1       5.292   1.297   0.292  1.00  0.00     0.198 C 
HETATM   21  C6  UNL     1       3.839   0.981   0.591  1.00  0.00     0.299 C 
ENDBRANCH  15  16
ENDBRANCH   2  15
TORSDOF 3
