REMARK  4 active torsions:
REMARK  status: ('A' for Active; 'I' for Inactive)
REMARK    1  A    between atoms: O1_1  and  C1_3 
REMARK    2  A    between atoms: C3_5  and  C4_6 
REMARK    3  A    between atoms: C4_6  and  N1_7 
REMARK    4  A    between atoms: C10_13  and  N2_14 
ROOT
HETATM    1  N1  UNL     1       1.915   0.322  -0.056  1.00  0.00     0.089 N 
HETATM    2  C5  UNL     1       1.871  -1.047  -0.613  1.00  0.00     0.277 C 
HETATM    3  C6  UNL     1       0.512  -1.563  -0.146  1.00  0.00     0.022 C 
HETATM    4  C7  UNL     1      -0.037  -2.694  -0.885  1.00  0.00     0.007 C 
HETATM    5  C8  UNL     1      -1.507  -2.841  -0.634  1.00  0.00     0.002 C 
HETATM    6  C9  UNL     1      -2.277  -1.544  -0.751  1.00  0.00     0.036 C 
HETATM    7  C10 UNL     1      -1.638  -0.411   0.018  1.00  0.00     0.229 C 
HETATM    8  C15 UNL     1      -0.251  -0.268  -0.419  1.00  0.00     0.053 C 
HETATM    9  C16 UNL     1       0.619   0.619   0.479  1.00  0.00     0.279 C 
ENDROOT
BRANCH   1  10
HETATM   10  C4  UNL     1       3.025   0.420   0.858  1.00  0.00     0.279 C 
BRANCH  10  11
HETATM   11  C3  UNL     1       4.264   0.380  -0.058  1.00  0.00     0.045 A 
HETATM   12  C1  UNL     1       5.635   0.429   0.603  1.00  0.00     0.124 A 
HETATM   13  C2  UNL     1       5.092   1.640  -0.071  1.00  0.00     0.041 A 
BRANCH  12  14
HETATM   14  O1  UNL     1       5.664   0.298   1.986  1.00  0.00    -0.395 OA
ATOM     15  H1  UNL     1       6.011  -0.475   2.416  1.00  0.00     0.210 HD
ENDBRANCH  12  14
ENDBRANCH  10  11
ENDBRANCH   1  10
BRANCH   7  16
HETATM   16  N2  UNL     1      -2.346   0.833  -0.249  1.00  0.00     0.097 N 
HETATM   17  C11 UNL     1      -2.656   1.438   1.036  1.00  0.00     0.299 C 
HETATM   18  C12 UNL     1      -4.073   1.905   1.147  1.00  0.00     0.198 C 
HETATM   19  O2  UNL     1      -4.486   2.648   0.048  1.00  0.00    -0.388 OA
HETATM   20  C13 UNL     1      -4.196   2.018  -1.155  1.00  0.00     0.198 C 
HETATM   21  C14 UNL     1      -3.606   0.618  -0.928  1.00  0.00     0.299 C 
ENDBRANCH   7  16
TORSDOF 4
