REMARK  3 active torsions:
REMARK  status: ('A' for Active; 'I' for Inactive)
REMARK       I    between atoms: N1_2  and  C3_4 
REMARK    1  A    between atoms: C3_4  and  C4_6 
REMARK    2  A    between atoms: C4_6  and  N2_7 
REMARK    3  A    between atoms: N2_7  and  C5_10 
ROOT
HETATM    1  C5  UNL     1       0.252  -0.570   0.846  1.00  0.00     0.210 C 
HETATM    2  C6  UNL     1      -0.109  -1.441  -0.319  1.00  0.00     0.204 C 
HETATM    3  O2  UNL     1      -1.059  -0.819  -1.169  1.00  0.00    -0.352 OA
HETATM    4  C7  UNL     1      -2.030  -0.256  -0.389  1.00  0.00     0.171 C 
HETATM    5  O3  UNL     1      -2.534  -1.096   0.578  1.00  0.00    -0.354 OA
HETATM    6  C8  UNL     1      -3.459  -1.910  -0.045  1.00  0.00     0.172 C 
HETATM    7  C9  UNL     1      -4.264  -0.956  -0.898  1.00  0.00     0.036 C 
HETATM    8  C10 UNL     1      -3.270   0.153  -1.138  1.00  0.00     0.050 C 
HETATM    9  C11 UNL     1      -3.836   1.426  -0.607  1.00  0.00     0.010 C 
HETATM   10  C12 UNL     1      -3.696   1.644   0.860  1.00  0.00     0.001 C 
HETATM   11  C13 UNL     1      -2.292   1.361   1.382  1.00  0.00     0.010 C 
HETATM   12  C14 UNL     1      -1.457   1.045   0.188  1.00  0.00     0.050 C 
HETATM   13  C15 UNL     1      -0.002   0.866   0.425  1.00  0.00     0.045 C 
ENDROOT
BRANCH   1  14
HETATM   14  N2  UNL     1       1.595  -0.696   1.331  1.00  0.00    -0.061 N 
ATOM     15  H22 UNL     1       1.792  -1.641   1.660  1.00  0.00     0.278 HD
ATOM     16  H21 UNL     1       1.728  -0.197   2.211  1.00  0.00     0.278 HD
BRANCH  14  17
HETATM   17  C4  UNL     1       2.534  -0.274   0.332  1.00  0.00     0.335 C 
BRANCH  17  18
HETATM   18  C3  UNL     1       3.941  -0.386   0.815  1.00  0.00     0.244 C 
HETATM   19  N1  UNL     1       5.052  -0.027   0.008  1.00  0.00    -0.359 N 
HETATM   20  C1  UNL     1       4.769   0.462  -1.331  1.00  0.00     0.152 C 
HETATM   21  C2  UNL     1       6.417  -0.141   0.491  1.00  0.00     0.152 C 
HETATM   22  O1  UNL     1       4.128  -0.816   1.983  1.00  0.00    -0.272 OA
ENDBRANCH  17  18
ENDBRANCH  14  17
ENDBRANCH   1  14
TORSDOF 3
