REMARK  3 active torsions:
REMARK  status: ('A' for Active; 'I' for Inactive)
REMARK    1  A    between atoms: C3_3  and  N1_4 
REMARK    2  A    between atoms: N2_10  and  C8_11 
REMARK    3  A    between atoms: C8_11  and  C9_12 
ROOT
HETATM    1  N1  UNL     1      -1.535   0.504  -0.374  1.00  0.00    -0.386 N 
HETATM    2  C4  UNL     1      -0.816   1.720  -0.606  1.00  0.00     0.148 C 
HETATM    3  C5  UNL     1       0.007   2.057   0.596  1.00  0.00     0.188 C 
HETATM    4  O1  UNL     1       0.096   1.010   1.452  1.00  0.00    -0.382 OA
HETATM    5  C6  UNL     1       0.817  -0.072   1.135  1.00  0.00     0.160 C 
HETATM    6  C7  UNL     1       2.156   0.186   0.451  1.00  0.00     0.305 C 
HETATM    7  N2  UNL     1       2.555  -1.223   0.264  1.00  0.00     0.092 N 
HETATM    8  C12 UNL     1       1.390  -1.685  -0.470  1.00  0.00     0.285 C 
HETATM    9  C13 UNL     1       0.190  -1.134   0.295  1.00  0.00     0.083 C 
HETATM   10  C14 UNL     1      -0.848  -0.672  -0.665  1.00  0.00     0.067 C 
ENDROOT
BRANCH   1  11
HETATM   11  C3  UNL     1      -2.650   0.549   0.437  1.00  0.00     0.086 C 
HETATM   12  C2  UNL     1      -3.793   1.411  -0.031  1.00  0.00     0.052 C 
HETATM   13  C1  UNL     1      -5.116   0.874   0.484  1.00  0.00     0.234 C 
HETATM   14  N3  UNL     1      -5.477  -0.367  -0.175  1.00  0.00    -0.075 N 
HETATM   15  C16 UNL     1      -4.259  -1.131  -0.376  1.00  0.00     0.234 C 
ATOM     16  H32 UNL     1      -6.194  -0.889   0.329  1.00  0.00     0.277 HD
ATOM     17  H31 UNL     1      -5.999  -0.220  -1.039  1.00  0.00     0.277 HD
HETATM   18  C15 UNL     1      -3.237  -0.808   0.724  1.00  0.00     0.052 C 
ENDBRANCH   1  11
BRANCH   7  19
HETATM   19  C8  UNL     1       3.670  -1.226  -0.651  1.00  0.00     0.277 C 
BRANCH  19  20
HETATM   20  C9  UNL     1       4.920  -0.611  -0.067  1.00  0.00     0.014 A 
HETATM   21  C10 UNL     1       6.101  -0.614  -1.022  1.00  0.00     0.007 A 
HETATM   22  C11 UNL     1       5.471   0.647  -0.628  1.00  0.00     0.007 A 
ENDBRANCH  19  20
ENDBRANCH   7  19
TORSDOF 3
