REMARK  8 active torsions:
REMARK  status: ('A' for Active; 'I' for Inactive)
REMARK    1  A    between atoms: C2_2  and  C3_3 
REMARK    2  A    between atoms: C3_3  and  C4_4 
REMARK    3  A    between atoms: C5_8  and  C6_9 
REMARK    4  A    between atoms: C9_13  and  O2_14 
REMARK    5  A    between atoms: C11_16  and  N2_17 
REMARK       I    between atoms: N2_17  and  C12_19 
REMARK       I    between atoms: C12_19  and  N3_21 
REMARK    6  A    between atoms: N3_21  and  N4_23 
REMARK    7  A    between atoms: C13_25  and  C14_26 
REMARK    8  A    between atoms: C16_31  and  N5_32 
ROOT
HETATM    1  C6  UNL     1      -1.222  -0.932  -0.233  1.00  0.00     0.074 A 
HETATM    2  C7  UNL     1      -1.181  -0.853  -1.608  1.00  0.00     0.053 A 
HETATM    3 CL1  UNL     1      -2.693  -0.840  -2.484  1.00  0.00    -0.083 Cl
HETATM    4  C8  UNL     1       0.008  -0.784  -2.323  1.00  0.00     0.064 A 
HETATM    5  C9  UNL     1       1.200  -0.795  -1.618  1.00  0.00     0.099 A 
HETATM    6  C11 UNL     1       1.198  -0.873  -0.237  1.00  0.00     0.104 A 
HETATM    7  C16 UNL     1      -0.017  -0.940   0.429  1.00  0.00     0.148 A 
ENDROOT
BRANCH   6   8
HETATM    8  N2  UNL     1       2.431  -0.883   0.481  1.00  0.00    -0.303 N 
HETATM    9  C12 UNL     1       2.992   0.355   0.890  1.00  0.00     0.339 C 
HETATM   10  O3  UNL     1       2.413   1.443   0.623  1.00  0.00    -0.245 OA
HETATM   11  N3  UNL     1       4.230   0.417   1.618  1.00  0.00    -0.252 N 
ATOM     12  H3  UNL     1       4.719  -0.449   1.847  1.00  0.00     0.191 HD
ATOM     13  H2  UNL     1       2.900  -1.763   0.696  1.00  0.00     0.171 HD
BRANCH  11  14
HETATM   14  N4  UNL     1       4.769   1.618   2.012  1.00  0.00    -0.306 N 
HETATM   15  C13 UNL     1       5.758   2.221   1.519  1.00  0.00     0.135 C 
ATOM     16  H4  UNL     1       4.312   2.077   2.800  1.00  0.00     0.186 HD
BRANCH  15  17
HETATM   17  C14 UNL     1       6.519   1.715   0.403  1.00  0.00     0.101 C 
HETATM   18 CL2  UNL     1       6.061   0.183  -0.328  1.00  0.00    -0.079 Cl
HETATM   19  C15 UNL     1       7.569   2.391  -0.090  1.00  0.00     0.208 C 
HETATM   20  F1  UNL     1       8.258   1.878  -1.141  1.00  0.00    -0.191 F 
HETATM   21 CL3  UNL     1       7.980   3.903   0.666  1.00  0.00    -0.050 Cl
ENDBRANCH  15  17
ENDBRANCH  11  14
ENDBRANCH   6   8
BRANCH   5  22
HETATM   22  O2  UNL     1       2.402  -0.727  -2.317  1.00  0.00    -0.354 OA
HETATM   23  C10 UNL     1       2.428  -0.647  -3.718  1.00  0.00     0.210 C 
ENDBRANCH   5  22
BRANCH   7  24
HETATM   24  N5  UNL     1       0.067  -1.020   1.846  1.00  0.00    -0.112 N 
HETATM   25  O4  UNL     1      -0.177  -0.074   2.618  1.00  0.00    -0.532 OA
HETATM   26  O5  UNL     1       0.449  -2.215   2.402  1.00  0.00    -0.532 OA
ENDBRANCH   7  24
BRANCH   1  27
HETATM   27  C5  UNL     1      -2.486  -1.005   0.487  1.00  0.00     0.186 A 
HETATM   28  O1  UNL     1      -2.707  -1.100   1.764  1.00  0.00    -0.217 OA
HETATM   29  N1  UNL     1      -3.965  -1.141   2.050  1.00  0.00    -0.247 N 
HETATM   30  C4  UNL     1      -4.664  -1.071   0.896  1.00  0.00     0.104 A 
ATOM     31  H1  UNL     1      -4.363  -1.214   2.986  1.00  0.00     0.196 HD
HETATM   32  N6  UNL     1      -3.727  -0.987  -0.067  1.00  0.00    -0.323 N 
ATOM     33  H6  UNL     1      -3.920  -0.920  -1.066  1.00  0.00     0.169 HD
BRANCH  30  34
HETATM   34  C3  UNL     1      -6.145  -1.088   0.750  1.00  0.00     0.078 C 
BRANCH  34  35
HETATM   35  C2  UNL     1      -6.736   0.306   0.806  1.00  0.00     0.003 C 
HETATM   36  C1  UNL     1      -6.214   1.207  -0.272  1.00  0.00     0.005 C 
ENDBRANCH  34  35
ENDBRANCH  30  34
ENDBRANCH   1  27
TORSDOF 8
