REMARK  13 active torsions:
REMARK  status: ('A' for Active; 'I' for Inactive)
REMARK    1  A    between atoms: C2_2  and  O1_3 
REMARK    2  A    between atoms: O1_3  and  C3_4 
REMARK    3  A    between atoms: C3_4  and  C4_6 
REMARK    4  A    between atoms: C4_6  and  C5_7 
REMARK    5  A    between atoms: C5_7  and  C7_9 
REMARK    6  A    between atoms: C5_7  and  O3_13 
REMARK    7  A    between atoms: C7_9  and  C8_10 
REMARK    8  A    between atoms: C8_10  and  C9_11 
REMARK    9  A    between atoms: O3_13  and  C10_14 
REMARK       I    between atoms: C10_14  and  N1_16 
REMARK   10  A    between atoms: N2_18  and  C11_20 
REMARK   11  A    between atoms: C12_21  and  O5_22 
REMARK   12  A    between atoms: C13_24  and  C14_25 
REMARK   13  A    between atoms: N3_30  and  O8_31 
ROOT
HETATM    1  C10 UNL     1      -0.262   0.099  -0.854  1.00  0.00     0.380 C 
HETATM    2  O4  UNL     1      -0.048   0.233  -2.065  1.00  0.00    -0.237 OA
HETATM    3  N1  UNL     1      -1.401  -0.651  -0.383  1.00  0.00    -0.245 N 
ATOM      4  H1  UNL     1      -1.377  -1.671  -0.367  1.00  0.00     0.192 HD
HETATM    5  N2  UNL     1      -2.445  -0.019   0.016  1.00  0.00    -0.291 N 
ATOM      6  H2  UNL     1      -2.473   1.001   0.002  1.00  0.00     0.187 HD
ENDROOT
BRANCH   1   7
HETATM    7  O3  UNL     1       0.551   0.642   0.076  1.00  0.00    -0.291 OA
BRANCH   7   8
HETATM    8  C5  UNL     1       1.731   1.431  -0.165  1.00  0.00     0.077 C 
HETATM    9  C6  UNL     1       2.321   1.587   1.225  1.00  0.00     0.047 C 
BRANCH   8  10
HETATM   10  C4  UNL     1       2.711   0.625  -0.992  1.00  0.00     0.149 C 
BRANCH  10  11
HETATM   11  C3  UNL     1       2.954  -0.708  -0.432  1.00  0.00     0.261 C 
HETATM   12  O2  UNL     1       2.358  -1.064   0.611  1.00  0.00    -0.265 OA
BRANCH  11  13
HETATM   13  O1  UNL     1       3.827  -1.628  -0.999  1.00  0.00    -0.322 OA
BRANCH  13  14
HETATM   14  C2  UNL     1       4.038  -2.904  -0.435  1.00  0.00     0.174 C 
HETATM   15  C1  UNL     1       4.573  -2.831   0.967  1.00  0.00     0.034 C 
ENDBRANCH  13  14
ENDBRANCH  11  13
ENDBRANCH  10  11
ENDBRANCH   8  10
BRANCH   8  16
HETATM   16  C7  UNL     1       1.377   2.687  -0.850  1.00  0.00     0.040 C 
BRANCH  16  17
HETATM   17  C8  UNL     1       2.436   3.651  -1.210  1.00  0.00     0.018 C 
BRANCH  17  18
HETATM   18  C9  UNL     1       3.267   4.223  -0.106  1.00  0.00     0.115 C 
HETATM   19 CL1  UNL     1       4.438   5.422  -0.762  1.00  0.00    -0.130 Cl
ENDBRANCH  17  18
ENDBRANCH  16  17
ENDBRANCH   8  16
ENDBRANCH   7   8
ENDBRANCH   1   7
BRANCH   5  20
HETATM   20  C11 UNL     1      -3.574  -0.778   0.483  1.00  0.00     0.123 A 
HETATM   21  C12 UNL     1      -4.605  -0.979  -0.463  1.00  0.00     0.117 A 
HETATM   22  C13 UNL     1      -5.694  -1.715   0.000  1.00  0.00     0.117 A 
HETATM   23  C15 UNL     1      -5.736  -2.208   1.316  1.00  0.00     0.153 A 
HETATM   24 CL2  UNL     1      -7.144  -3.127   1.824  1.00  0.00    -0.061 Cl
HETATM   25  N3  UNL     1      -4.717  -1.971   2.142  1.00  0.00    -0.198 N 
HETATM   26  C16 UNL     1      -3.649  -1.270   1.749  1.00  0.00     0.164 A 
HETATM   27 CL3  UNL     1      -2.312  -0.967   2.855  1.00  0.00    -0.059 Cl
BRANCH  21  28
HETATM   28  O5  UNL     1      -4.469  -0.459  -1.714  1.00  0.00    -0.357 OA
ATOM     29  H5  UNL     1      -5.162  -0.594  -2.350  1.00  0.00     0.217 HD
ENDBRANCH  21  28
BRANCH  22  30
HETATM   30  C14 UNL     1      -6.824  -2.009  -0.830  1.00  0.00     0.215 C 
HETATM   31  O6  UNL     1      -7.809  -2.686  -0.381  1.00  0.00    -0.644 OA
HETATM   32  O7  UNL     1      -6.954  -1.610  -2.132  1.00  0.00    -0.644 OA
ENDBRANCH  22  30
BRANCH  25  33
HETATM   33  O8  UNL     1      -4.790  -2.469   3.427  1.00  0.00    -0.280 OA
ATOM     34  H8  UNL     1      -4.064  -2.300   4.016  1.00  0.00     0.245 HD
ENDBRANCH  25  33
ENDBRANCH   5  20
TORSDOF 13
