REMARK  11 active torsions:
REMARK  status: ('A' for Active; 'I' for Inactive)
REMARK    1  A    between atoms: C2_2  and  O1_3 
REMARK    2  A    between atoms: O1_3  and  C3_4 
REMARK    3  A    between atoms: C3_4  and  C4_6 
REMARK    4  A    between atoms: C8_12  and  C9_13 
REMARK    5  A    between atoms: C9_13  and  S2_14 
REMARK    6  A    between atoms: S2_14  and  C10_15 
REMARK    7  A    between atoms: C11_20  and  N4_21 
REMARK    8  A    between atoms: N4_21  and  C12_22 
REMARK    9  A    between atoms: C12_22  and  S3_23 
REMARK   10  A    between atoms: C12_22  and  C14_25 
REMARK   11  A    between atoms: C12_22  and  C15_28 
ROOT
HETATM    1  C10 UNL     1       0.406   0.423   0.544  1.00  0.00     0.131 A 
HETATM    2  N2  UNL     1       1.143   0.860   1.628  1.00  0.00    -0.285 N 
ATOM      3  H2  UNL     1       0.654   1.093   2.492  1.00  0.00     0.188 HD
HETATM    4  N3  UNL     1       2.337   0.976   1.591  1.00  0.00    -0.267 N 
ATOM      5  H3  UNL     1       2.849   1.296   2.413  1.00  0.00     0.190 HD
HETATM    6  C11 UNL     1       3.026   0.666   0.400  1.00  0.00     0.235 A 
HETATM    7  S4  UNL     1       1.720   0.197  -0.557  1.00  0.00    -0.012 SA
ENDROOT
BRANCH   1   8
HETATM    8  S2  UNL     1      -1.295   0.352   0.515  1.00  0.00    -0.099 SA
BRANCH   8   9
HETATM    9  C9  UNL     1      -2.544  -0.178  -0.406  1.00  0.00     0.122 C 
BRANCH   9  10
HETATM   10  C8  UNL     1      -3.041  -1.648  -0.263  1.00  0.00    -0.017 A 
HETATM   11  C4  UNL     1      -4.334  -1.830   0.230  1.00  0.00     0.078 A 
HETATM   12  C5  UNL     1      -4.820  -3.078   0.217  1.00  0.00     0.104 A 
HETATM   13  N1  UNL     1      -6.075  -3.594   0.691  1.00  0.00    -0.093 NA
HETATM   14  S1  UNL     1      -3.548  -4.011  -0.467  1.00  0.00    -0.079 SA
HETATM   15  C6  UNL     1      -2.417  -2.732  -0.717  1.00  0.00    -0.011 A 
HETATM   16  C7  UNL     1      -1.073  -2.830  -1.458  1.00  0.00     0.057 C 
BRANCH  11  17
HETATM   17  C3  UNL     1      -5.193  -0.702   0.735  1.00  0.00     0.296 C 
HETATM   18  O2  UNL     1      -6.389  -0.976   1.087  1.00  0.00    -0.259 OA
BRANCH  17  19
HETATM   19  O1  UNL     1      -4.846   0.559   0.858  1.00  0.00    -0.318 OA
BRANCH  19  20
HETATM   20  C2  UNL     1      -5.322   1.780   1.221  1.00  0.00     0.174 C 
HETATM   21  C1  UNL     1      -6.365   2.317   0.219  1.00  0.00     0.034 C 
ENDBRANCH  19  20
ENDBRANCH  17  19
ENDBRANCH  11  17
ENDBRANCH   9  10
ENDBRANCH   8   9
ENDBRANCH   1   8
BRANCH   6  22
HETATM   22  N4  UNL     1       4.234   0.844   0.359  1.00  0.00    -0.388 NA
BRANCH  22  23
HETATM   23  C12 UNL     1       5.501   0.878  -0.109  1.00  0.00     0.260 C 
BRANCH  23  24
HETATM   24  S3  UNL     1       6.603   1.852   0.974  1.00  0.00    -0.117 SA
HETATM   25  C13 UNL     1       8.151   2.234   0.189  1.00  0.00     0.094 C 
ENDBRANCH  23  24
BRANCH  23  26
HETATM   26  C14 UNL     1       5.559   1.577  -1.504  1.00  0.00     0.410 C 
HETATM   27  F1  UNL     1       6.797   1.599  -2.020  1.00  0.00    -0.209 F 
HETATM   28  F2  UNL     1       5.116   2.862  -1.290  1.00  0.00    -0.209 F 
ENDBRANCH  23  26
BRANCH  23  29
HETATM   29  C15 UNL     1       6.016  -0.531  -0.343  1.00  0.00     0.410 C 
HETATM   30  F3  UNL     1       5.206  -1.142  -1.327  1.00  0.00    -0.209 F 
HETATM   31  F4  UNL     1       7.301  -0.511  -0.762  1.00  0.00    -0.209 F 
ENDBRANCH  23  29
ENDBRANCH  22  23
ENDBRANCH   6  22
TORSDOF 11
