REMARK  8 active torsions:
REMARK  status: ('A' for Active; 'I' for Inactive)
REMARK    1  A    between atoms: C2_2  and  C3_3 
REMARK    2  A    between atoms: C3_3  and  C4_4 
REMARK    3  A    between atoms: C4_4  and  C5_5 
REMARK    4  A    between atoms: C6_6  and  C7_7 
REMARK    5  A    between atoms: C10_10  and  O1_11 
REMARK    6  A    between atoms: C12_15  and  O2_16 
REMARK    7  A    between atoms: C16_20  and  O3_21 
REMARK    8  A    between atoms: C18_23  and  O4_24 
ROOT
HETATM    1  C7  UNL     1       0.584  -0.613  -0.395  1.00  0.00     0.001 A 
HETATM    2  C8  UNL     1      -0.097   0.612  -0.396  1.00  0.00     0.031 A 
HETATM    3  C9  UNL     1      -1.481   0.628  -0.299  1.00  0.00     0.029 A 
HETATM    4  C10 UNL     1      -2.184   1.822  -0.297  1.00  0.00     0.155 A 
HETATM    5  N1  UNL     1      -3.526   1.822  -0.202  1.00  0.00    -0.317 N 
ATOM      6  H1  UNL     1      -4.011   2.719  -0.204  1.00  0.00     0.170 HD
HETATM    7  C12 UNL     1      -4.261   0.700  -0.104  1.00  0.00     0.144 A 
HETATM    8  C14 UNL     1      -3.585  -0.502  -0.104  1.00  0.00     0.071 A 
HETATM    9  C15 UNL     1      -2.191  -0.542  -0.201  1.00  0.00     0.019 A 
HETATM   10  C16 UNL     1      -1.503  -1.737  -0.201  1.00  0.00     0.113 A 
HETATM   11  C18 UNL     1      -0.136  -1.799  -0.296  1.00  0.00     0.112 A 
ENDROOT
BRANCH   1  12
HETATM   12  C6  UNL     1       2.015  -0.725  -0.492  1.00  0.00     0.010 C 
HETATM   13  C5  UNL     1       2.788   0.319  -0.589  1.00  0.00    -0.025 C 
BRANCH  13  14
HETATM   14  C4  UNL     1       4.283   0.222  -0.691  1.00  0.00     0.031 C 
BRANCH  14  15
HETATM   15  C3  UNL     1       4.954   0.931   0.445  1.00  0.00     0.030 C 
BRANCH  15  16
HETATM   16  C2  UNL     1       6.442   0.815   0.313  1.00  0.00    -0.037 C 
HETATM   17  C1  UNL     1       6.985   0.159  -0.698  1.00  0.00     0.007 C 
ENDBRANCH  15  16
ENDBRANCH  14  15
ENDBRANCH  13  14
ENDBRANCH   1  12
BRANCH  11  18
HETATM   18  O4  UNL     1       0.501  -2.996  -0.292  1.00  0.00    -0.352 OA
HETATM   19  C19 UNL     1       0.973  -3.687   0.837  1.00  0.00     0.210 C 
ENDBRANCH  11  18
BRANCH  10  20
HETATM   20  O3  UNL     1      -2.298  -2.886  -0.098  1.00  0.00    -0.352 OA
HETATM   21  C17 UNL     1      -2.645  -3.461   1.128  1.00  0.00     0.210 C 
ENDBRANCH  10  20
BRANCH   4  22
HETATM   22  O1  UNL     1      -1.432   2.984  -0.398  1.00  0.00    -0.340 OA
HETATM   23  C11 UNL     1      -2.092   4.253  -0.402  1.00  0.00     0.211 C 
ENDBRANCH   4  22
BRANCH   7  24
HETATM   24  O2  UNL     1      -5.667   0.738  -0.006  1.00  0.00    -0.341 OA
HETATM   25  C13 UNL     1      -6.360   1.963  -0.007  1.00  0.00     0.211 C 
ENDBRANCH   7  24
TORSDOF 8
