REMARK  9 active torsions:
REMARK  status: ('A' for Active; 'I' for Inactive)
REMARK    1  A    between atoms: C2_2  and  C3_3 
REMARK    2  A    between atoms: C3_3  and  C4_4 
REMARK    3  A    between atoms: C5_5  and  C6_6 
REMARK    4  A    between atoms: C7_7  and  C8_8 
REMARK    5  A    between atoms: C8_8  and  C9_10 
REMARK    6  A    between atoms: C10_11  and  C11_12 
REMARK    7  A    between atoms: C13_14  and  O2_15 
REMARK    8  A    between atoms: C15_17  and  O3_18 
REMARK    9  A    between atoms: C17_20  and  O4_21 
ROOT
HETATM    1  C11 UNL     1      -2.237  -0.249   0.089  1.00  0.00    -0.010 A 
HETATM    2  C12 UNL     1      -2.971   0.816   0.661  1.00  0.00     0.052 A 
HETATM    3  C13 UNL     1      -4.329   0.756   0.809  1.00  0.00     0.105 A 
HETATM    4  C15 UNL     1      -5.068  -0.333   0.417  1.00  0.00     0.136 A 
HETATM    5  C17 UNL     1      -4.389  -1.382  -0.142  1.00  0.00     0.126 A 
HETATM    6  C19 UNL     1      -2.982  -1.318  -0.297  1.00  0.00     0.091 A 
HETATM    7  C20 UNL     1      -2.389  -2.444  -0.985  1.00  0.00     0.103 C 
HETATM    8  N1  UNL     1      -1.949  -3.342  -1.559  1.00  0.00    -0.191 NA
ENDROOT
BRANCH   1   9
HETATM    9  C10 UNL     1      -0.810  -0.087  -0.072  1.00  0.00     0.017 C 
HETATM   10  C9  UNL     1       0.153  -0.913  -0.275  1.00  0.00     0.055 C 
BRANCH  10  11
HETATM   11  C8  UNL     1       1.530  -0.475  -0.409  1.00  0.00     0.172 C 
HETATM   12  O1  UNL     1       2.376  -1.418  -0.610  1.00  0.00    -0.289 OA
BRANCH  11  13
HETATM   13  C7  UNL     1       1.987   0.887  -0.334  1.00  0.00     0.054 C 
HETATM   14  C6  UNL     1       3.209   1.338  -0.448  1.00  0.00     0.004 C 
BRANCH  14  15
HETATM   15  C5  UNL     1       4.400   0.565  -0.678  1.00  0.00    -0.004 C 
HETATM   16  C4  UNL     1       5.586   1.215  -0.768  1.00  0.00    -0.027 C 
BRANCH  16  17
HETATM   17  C3  UNL     1       6.816   0.442  -1.003  1.00  0.00     0.027 C 
BRANCH  17  18
HETATM   18  C2  UNL     1       7.742   0.691   0.168  1.00  0.00    -0.001 C 
HETATM   19  C1  UNL     1       9.042  -0.064   0.022  1.00  0.00     0.005 C 
ENDBRANCH  17  18
ENDBRANCH  16  17
ENDBRANCH  14  15
ENDBRANCH  11  13
ENDBRANCH  10  11
ENDBRANCH   1   9
BRANCH   5  20
HETATM   20  O4  UNL     1      -5.083  -2.517  -0.561  1.00  0.00    -0.352 OA
HETATM   21  C18 UNL     1      -5.587  -2.620  -1.866  1.00  0.00     0.210 C 
ENDBRANCH   5  20
BRANCH   4  22
HETATM   22  O3  UNL     1      -6.439  -0.432   0.551  1.00  0.00    -0.351 OA
HETATM   23  C16 UNL     1      -6.970  -0.986   1.742  1.00  0.00     0.210 C 
ENDBRANCH   4  22
BRANCH   3  24
HETATM   24  O2  UNL     1      -5.063   1.811   1.377  1.00  0.00    -0.353 OA
HETATM   25  C14 UNL     1      -4.342   2.955   1.796  1.00  0.00     0.210 C 
ENDBRANCH   3  24
TORSDOF 9
