REMARK  9 active torsions:
REMARK  status: ('A' for Active; 'I' for Inactive)
REMARK    1  A    between atoms: C2_2  and  C3_3 
REMARK    2  A    between atoms: C3_3  and  C4_4 
REMARK    3  A    between atoms: C4_4  and  C5_5 
REMARK    4  A    between atoms: C5_5  and  O1_7 
REMARK    5  A    between atoms: O1_7  and  C7_8 
REMARK    6  A    between atoms: C8_11  and  S1_12 
REMARK    7  A    between atoms: S1_12  and  C9_13 
REMARK    8  A    between atoms: C9_13  and  C11_15 
REMARK    9  A    between atoms: C13_19  and  C14_20 
ROOT
HETATM    1  C7  UNL     1       0.853  -0.246  -0.372  1.00  0.00     0.167 A 
HETATM    2  N1  UNL     1      -0.034   0.555   0.293  1.00  0.00    -0.316 N 
ATOM      3  H1  UNL     1       0.015   1.567   0.174  1.00  0.00     0.170 HD
HETATM    4  C8  UNL     1      -0.968   0.029   1.100  1.00  0.00     0.146 A 
HETATM    5  N2  UNL     1      -1.072  -1.294   1.289  1.00  0.00    -0.338 N 
ATOM      6  H2  UNL     1      -1.795  -1.654   1.911  1.00  0.00     0.168 HD
HETATM    7  C13 UNL     1      -0.229  -2.170   0.665  1.00  0.00     0.040 A 
HETATM    8  C17 UNL     1       0.724  -1.602  -0.161  1.00  0.00     0.118 A 
HETATM    9  C18 UNL     1       1.620  -2.508  -0.824  1.00  0.00     0.106 C 
HETATM   10  N3  UNL     1       2.353  -3.220  -1.353  1.00  0.00    -0.191 NA
ENDROOT
BRANCH   1  11
HETATM   11  O1  UNL     1       1.830   0.234  -1.209  1.00  0.00    -0.329 OA
BRANCH  11  12
HETATM   12  C5  UNL     1       2.050   1.592  -1.493  1.00  0.00     0.127 C 
HETATM   13  C6  UNL     1       2.109   1.892  -2.970  1.00  0.00     0.040 C 
BRANCH  12  14
HETATM   14  C4  UNL     1       3.435   1.950  -0.930  1.00  0.00     0.036 C 
BRANCH  14  15
HETATM   15  C3  UNL     1       3.471   1.681   0.561  1.00  0.00     0.029 C 
BRANCH  15  16
HETATM   16  C2  UNL     1       4.834   2.039   1.075  1.00  0.00    -0.037 C 
HETATM   17  C1  UNL     1       5.608   1.153   1.662  1.00  0.00     0.007 C 
ENDBRANCH  15  16
ENDBRANCH  14  15
ENDBRANCH  12  14
ENDBRANCH  11  12
ENDBRANCH   1  11
BRANCH   7  18
HETATM   18  C14 UNL     1      -0.337  -3.639   0.865  1.00  0.00     0.029 C 
HETATM   19  C15 UNL     1      -1.438  -3.856   1.912  1.00  0.00     0.016 C 
HETATM   20  C16 UNL     1      -0.719  -4.361  -0.401  1.00  0.00     0.016 C 
ENDBRANCH   7  18
BRANCH   4  21
HETATM   21  S1  UNL     1      -2.092   1.114   1.938  1.00  0.00    -0.089 SA
BRANCH  21  22
HETATM   22  C9  UNL     1      -3.579   1.464   1.016  1.00  0.00     0.051 C 
HETATM   23  C10 UNL     1      -4.469   0.259   0.818  1.00  0.00     0.022 C 
BRANCH  22  24
HETATM   24  C11 UNL     1      -3.266   2.090  -0.333  1.00  0.00     0.011 C 
HETATM   25  C12 UNL     1      -4.540   2.376  -1.093  1.00  0.00     0.006 C 
ENDBRANCH  22  24
ENDBRANCH  21  22
ENDBRANCH   4  21
TORSDOF 9
