REMARK  9 active torsions:
REMARK  status: ('A' for Active; 'I' for Inactive)
REMARK    1  A    between atoms: C2_2  and  C3_4 
REMARK    2  A    between atoms: C3_4  and  C16_21 
REMARK    3  A    between atoms: N1_5  and  O2_7 
REMARK    4  A    between atoms: O2_7  and  C4_8 
REMARK    5  A    between atoms: C4_8  and  C5_9 
REMARK    6  A    between atoms: C4_8  and  C10_15 
REMARK    7  A    between atoms: C5_9  and  O3_10 
REMARK    8  A    between atoms: O3_10  and  C6_11 
REMARK    9  A    between atoms: C6_11  and  C7_12 
ROOT
HETATM    1  C4  UNL     1      -0.103   0.046  -0.423  1.00  0.00     0.180 C 
ENDROOT
BRANCH   1   2
HETATM    2  O2  UNL     1      -1.428  -0.315  -0.034  1.00  0.00    -0.272 OA
BRANCH   2   3
HETATM    3  N1  UNL     1      -2.299  -0.972  -0.802  1.00  0.00    -0.262 N 
HETATM    4  C3  UNL     1      -3.258  -1.679  -0.200  1.00  0.00     0.111 C 
ATOM      5  H1  UNL     1      -2.234  -0.935  -1.819  1.00  0.00     0.194 HD
BRANCH   4   6
HETATM    6  C2  UNL     1      -3.329  -1.716   1.213  1.00  0.00     0.174 C 
HETATM    7  C1  UNL     1      -4.302  -2.433   2.023  1.00  0.00     0.098 C 
HETATM    8  O1  UNL     1      -2.446  -1.050   1.892  1.00  0.00    -0.291 OA
ENDBRANCH   4   6
BRANCH   4   9
HETATM    9  C16 UNL     1      -4.144  -2.350  -1.141  1.00  0.00     0.020 A 
HETATM   10  C17 UNL     1      -4.007  -2.262  -2.552  1.00  0.00     0.040 A 
HETATM   11  C18 UNL     1      -5.022  -3.025  -3.078  1.00  0.00     0.142 A 
HETATM   12  O4  UNL     1      -5.707  -3.528  -2.105  1.00  0.00    -0.334 OA
HETATM   13  C19 UNL     1      -5.211  -3.145  -0.935  1.00  0.00     0.155 A 
ENDBRANCH   4   9
ENDBRANCH   2   3
ENDBRANCH   1   2
BRANCH   1  14
HETATM   14  C5  UNL     1       0.880  -0.662   0.452  1.00  0.00     0.202 C 
BRANCH  14  15
HETATM   15  O3  UNL     1       2.198  -0.358   0.128  1.00  0.00    -0.388 OA
BRANCH  15  16
HETATM   16  C6  UNL     1       3.010  -1.067   0.999  1.00  0.00     0.171 C 
BRANCH  16  17
HETATM   17  C7  UNL     1       4.484  -0.827   0.756  1.00  0.00     0.001 C 
HETATM   18  C8  UNL     1       4.828   0.638   0.926  1.00  0.00     0.011 C 
HETATM   19  C9  UNL     1       4.920  -1.302  -0.597  1.00  0.00     0.011 C 
ENDBRANCH  16  17
ENDBRANCH  15  16
ENDBRANCH  14  15
ENDBRANCH   1  14
BRANCH   1  20
HETATM   20  C10 UNL     1      -0.037   1.536  -0.364  1.00  0.00     0.019 C 
HETATM   21  C11 UNL     1      -0.322   2.041   1.012  1.00  0.00     0.007 C 
HETATM   22  C12 UNL     1       0.419   3.350   1.188  1.00  0.00     0.000 C 
HETATM   23  C13 UNL     1       0.170   4.202  -0.049  1.00  0.00     0.000 C 
HETATM   24  C14 UNL     1       0.878   3.593  -1.267  1.00  0.00     0.000 C 
HETATM   25  C15 UNL     1       1.219   2.127  -0.958  1.00  0.00     0.007 C 
ENDBRANCH   1  20
TORSDOF 9
