REMARK  2 active torsions:
REMARK  status: ('A' for Active; 'I' for Inactive)
REMARK    1  A    between atoms: N1_1  and  N2_4 
REMARK    2  A    between atoms: N2_4  and  N3_6 
ROOT
HETATM    1  N3  UNL     1       1.965  -0.944  -0.204  1.00  0.00    -0.275 N 
ATOM      2  H3  UNL     1       2.059  -1.955  -0.104  1.00  0.00     0.189 HD
HETATM    3  C1  UNL     1       0.784  -0.430  -0.270  1.00  0.00     0.093 C 
HETATM    4  C2  UNL     1      -0.467  -1.227  -0.209  1.00  0.00     0.079 C 
HETATM    5  C3  UNL     1      -1.568  -0.237   0.067  1.00  0.00     0.027 C 
HETATM    6  C4  UNL     1      -0.934   1.129   0.121  1.00  0.00     0.121 C 
HETATM    7  N4  UNL     1       0.389   0.931  -0.409  1.00  0.00    -0.379 N 
ATOM      8  H4  UNL     1       0.964   1.663  -0.826  1.00  0.00     0.160 HD
ENDROOT
BRANCH   1   9
HETATM    9  N2  UNL     1       3.122  -0.157  -0.266  1.00  0.00    -0.248 N 
ATOM     10  H2  UNL     1       3.626  -0.039  -1.145  1.00  0.00     0.207 HD
BRANCH   9  11
HETATM   11  N1  UNL     1       3.535   0.414   0.813  1.00  0.00    -0.331 N 
ATOM     12  H12 UNL     1       3.020   0.286   1.684  1.00  0.00     0.178 HD
ATOM     13  H11 UNL     1       4.378   0.987   0.768  1.00  0.00     0.178 HD
ENDBRANCH   9  11
ENDBRANCH   1   9
TORSDOF 2
