REMARK  2 active torsions:
REMARK  status: ('A' for Active; 'I' for Inactive)
REMARK    1  A    between atoms: C2_2  and  O1_3 
REMARK    2  A    between atoms: O1_3  and  C3_4 
ROOT
HETATM    1  C3  UNL     1       0.230  -0.560   0.361  1.00  0.00     0.176 C 
HETATM    2  C4  UNL     1       0.065   0.920   0.449  1.00  0.00     0.004 C 
HETATM    3  C5  UNL     1      -1.176   1.370   0.613  1.00  0.00    -0.001 C 
HETATM    4  C6  UNL     1      -2.226   0.288   0.683  1.00  0.00     0.259 C 
HETATM    5  N1  UNL     1      -2.073  -0.507  -0.507  1.00  0.00    -0.069 N 
ATOM      6  H11 UNL     1      -2.363   0.023  -1.329  1.00  0.00     0.277 HD
ATOM      7  H12 UNL     1      -2.767  -1.254  -0.528  1.00  0.00     0.277 HD
HETATM    8  C7  UNL     1      -0.766  -1.037  -0.692  1.00  0.00     0.268 C 
ENDROOT
BRANCH   1   9
HETATM    9  O1  UNL     1       1.516  -0.866  -0.142  1.00  0.00    -0.353 OA
BRANCH   9  10
HETATM   10  C2  UNL     1       2.694  -0.491   0.467  1.00  0.00     0.125 C 
HETATM   11  C1  UNL     1       3.355   0.573   0.065  1.00  0.00     0.037 C 
ENDBRANCH   9  10
ENDBRANCH   1   9
TORSDOF 2
