REMARK  1 active torsions:
REMARK  status: ('A' for Active; 'I' for Inactive)
REMARK    1  A    between atoms: N2_4  and  N3_6 
ROOT
HETATM    1  N3  UNL     1       2.196   0.422  -0.074  1.00  0.00    -0.269 N 
ATOM      2  H3  UNL     1       2.493   1.252  -0.588  1.00  0.00     0.190 HD
HETATM    3  C1  UNL     1       0.933   0.199   0.005  1.00  0.00     0.133 C 
HETATM    4  C2  UNL     1       0.040   1.191  -0.672  1.00  0.00     0.086 C 
HETATM    5  C3  UNL     1      -1.318   1.062   0.008  1.00  0.00     0.010 C 
HETATM    6  C4  UNL     1      -1.814  -0.343  -0.326  1.00  0.00     0.027 C 
HETATM    7  C5  UNL     1      -0.966  -1.307   0.467  1.00  0.00     0.177 C 
HETATM    8  O1  UNL     1       0.353  -0.858   0.648  1.00  0.00    -0.338 OA
ENDROOT
BRANCH   1   9
HETATM    9  N2  UNL     1       3.179  -0.363   0.475  1.00  0.00    -0.248 N 
HETATM   10  N1  UNL     1       3.938  -1.057  -0.269  1.00  0.00    -0.331 N 
ATOM     11  H12 UNL     1       3.803  -1.020  -1.279  1.00  0.00     0.178 HD
ATOM     12  H11 UNL     1       4.669  -1.640   0.139  1.00  0.00     0.178 HD
ATOM     13  H2  UNL     1       3.300  -0.389   1.487  1.00  0.00     0.207 HD
ENDBRANCH   1   9
TORSDOF 1
