REMARK  2 active torsions:
REMARK  status: ('A' for Active; 'I' for Inactive)
REMARK    1  A    between atoms: C2_2  and  C3_3 
REMARK    2  A    between atoms: N1_5  and  C5_6 
ROOT
HETATM    1  C5  UNL     1       1.199   0.398   0.087  1.00  0.00     0.274 C 
HETATM    2  C6  UNL     1       1.990  -0.738   0.668  1.00  0.00     0.269 C 
HETATM    3  N2  UNL     1       2.827  -0.829  -0.526  1.00  0.00    -0.071 N 
ATOM      4  H21 UNL     1       3.007  -1.735  -0.959  1.00  0.00     0.277 HD
ATOM      5  H22 UNL     1       3.832  -0.665  -0.463  1.00  0.00     0.277 HD
HETATM    6  C7  UNL     1       1.976   0.131  -1.179  1.00  0.00     0.269 C 
ENDROOT
BRANCH   1   7
HETATM    7  N1  UNL     1      -0.191   0.216  -0.110  1.00  0.00     0.108 N 
HETATM    8  C3  UNL     1      -1.132  -0.003   0.946  1.00  0.00     0.274 A 
HETATM    9  C4  UNL     1      -1.080   1.368   0.261  1.00  0.00     0.313 A 
BRANCH   8  10
HETATM   10  C2  UNL     1      -2.236  -0.925   0.559  1.00  0.00     0.000 C 
HETATM   11  C1  UNL     1      -3.417  -0.455   0.181  1.00  0.00     0.009 C 
ENDBRANCH   8  10
ENDBRANCH   1   7
TORSDOF 2
