REMARK  0 active torsions:
REMARK  status: ('A' for Active; 'I' for Inactive)
ROOT
HETATM    1  C1  UNL     1       3.743  -0.025  -0.032  1.00  0.00     0.066 C 
HETATM    2  C2  UNL     1       2.427   0.029  -0.021  1.00  0.00     0.129 A 
HETATM    3  N1  UNL     1       1.493   1.016  -0.014  1.00  0.00    -0.249 N 
ATOM      4  H1  UNL     1       1.518   2.036  -0.015  1.00  0.00     0.191 HD
HETATM    5  N2  UNL     1       0.540   0.102  -0.005  1.00  0.00    -0.017 N 
HETATM    6  C3  UNL     1      -0.758   0.134   0.006  1.00  0.00     0.718 A 
HETATM    7  N3  UNL     1      -1.516   1.251   0.011  1.00  0.00    -0.197 N 
ATOM      8  H3  UNL     1      -1.157   2.206   0.007  1.00  0.00     0.183 HD
HETATM    9  C4  UNL     1      -2.822   0.910   0.022  1.00  0.00     0.123 A 
HETATM   10  C5  UNL     1      -2.895  -0.459   0.025  1.00  0.00     0.123 A 
HETATM   11  N4  UNL     1      -1.621  -0.890   0.015  1.00  0.00    -0.197 N 
ATOM     12  H4  UNL     1      -1.347  -1.872   0.014  1.00  0.00     0.183 HD
HETATM   13  N5  UNL     1       1.430  -0.875  -0.011  1.00  0.00    -0.249 N 
ATOM     14  H5  UNL     1       1.381  -1.894  -0.009  1.00  0.00     0.191 HD
ENDROOT
TORSDOF 0
