REMARK  1 active torsions:
REMARK  status: ('A' for Active; 'I' for Inactive)
REMARK    1  A    between atoms: C6_9  and  C7_10 
ROOT
HETATM    1  C1  UNL     1      -3.121  -0.477  -0.318  1.00  0.00     0.177 C 
HETATM    2  N1  UNL     1      -1.718  -0.081  -0.343  1.00  0.00    -0.306 N 
HETATM    3  C2  UNL     1      -0.652  -0.790   0.037  1.00  0.00     0.124 A 
HETATM    4  C3  UNL     1       0.494  -0.043  -0.151  1.00  0.00     0.021 A 
HETATM    5  C4  UNL     1       0.065   1.164  -0.666  1.00  0.00     0.061 A 
HETATM    6  N2  UNL     1      -1.271   1.090  -0.762  1.00  0.00    -0.298 N 
ATOM      7  H2  UNL     1      -1.865   1.841  -1.113  1.00  0.00     0.187 HD
HETATM    8  C5  UNL     1       1.336   1.568  -0.706  1.00  0.00     0.045 A 
HETATM    9  C6  UNL     1       1.791   0.295  -0.162  1.00  0.00    -0.005 A 
ENDROOT
BRANCH   9  10
HETATM   10  C7  UNL     1       3.044  -0.339   0.205  1.00  0.00     0.092 C 
HETATM   11  N3  UNL     1       3.124  -1.527   0.680  1.00  0.00    -0.407 N 
ATOM     12  H32 UNL     1       2.251  -2.040   0.800  1.00  0.00     0.155 HD
ATOM     13  H31 UNL     1       4.005  -1.973   0.938  1.00  0.00     0.155 HD
ENDBRANCH   9  10
TORSDOF 1
