REMARK  2 active torsions:
REMARK  status: ('A' for Active; 'I' for Inactive)
REMARK    1  A    between atoms: C3_4  and  N2_5 
REMARK    2  A    between atoms: C4_14  and  N6_15 
ROOT
HETATM    1  C1  UNL     1       2.890   0.063  -0.358  1.00  0.00     0.125 C 
HETATM    2  C2  UNL     1       1.674   0.014  -0.233  1.00  0.00    -0.032 C 
HETATM    3  N1  UNL     1       0.286  -0.031  -0.100  1.00  0.00     0.060 N 
HETATM    4  C3  UNL     1      -0.575   0.983  -0.270  1.00  0.00     0.739 A 
HETATM    5  N4  UNL     1      -1.799   0.496  -0.044  1.00  0.00    -0.115 N 
ATOM      6  H4  UNL     1      -2.656   1.047  -0.101  1.00  0.00     0.206 HD
HETATM    7  N5  UNL     1      -1.761  -0.768   0.258  1.00  0.00    -0.116 N 
ATOM      8  H5  UNL     1      -2.552  -1.375   0.474  1.00  0.00     0.206 HD
HETATM    9  C4  UNL     1      -0.440  -1.112   0.225  1.00  0.00     0.719 A 
ENDROOT
BRANCH   4  10
HETATM   10  N2  UNL     1      -0.193   2.316  -0.626  1.00  0.00    -0.136 N 
HETATM   11  N3  UNL     1       0.082   3.130   0.315  1.00  0.00    -0.331 N 
ATOM     12  H32 UNL     1       0.027   2.825   1.287  1.00  0.00     0.177 HD
ATOM     13  H31 UNL     1       0.354   4.080   0.061  1.00  0.00     0.177 HD
ATOM     14  H2  UNL     1      -0.143   2.605  -1.603  1.00  0.00     0.205 HD
ENDBRANCH   4  10
BRANCH   9  15
HETATM   15  N6  UNL     1       0.026  -2.296   0.471  1.00  0.00    -0.232 N 
ATOM     16  H62 UNL     1       1.013  -2.553   0.446  1.00  0.00     0.174 HD
ATOM     17  H61 UNL     1      -0.526  -3.118   0.718  1.00  0.00     0.174 HD
ENDBRANCH   9  15
TORSDOF 2
