REMARK  1 active torsions:
REMARK  status: ('A' for Active; 'I' for Inactive)
REMARK    1  A    between atoms: N2_4  and  N3_6 
ROOT
HETATM    1  N3  UNL     1       1.389   0.396  -0.582  1.00  0.00    -0.267 N 
ATOM      2  H3  UNL     1       1.812   1.207  -1.033  1.00  0.00     0.190 HD
HETATM    3  C1  UNL     1       0.150   0.448  -0.228  1.00  0.00     0.191 A 
HETATM    4  N4  UNL     1      -0.590  -0.589   0.408  1.00  0.00    -0.333 N 
ATOM      5  H4  UNL     1      -0.231  -1.508   0.665  1.00  0.00     0.168 HD
HETATM    6  C2  UNL     1      -1.917  -0.122   0.623  1.00  0.00     0.185 A 
HETATM    7  N5  UNL     1      -2.035   1.079   0.181  1.00  0.00    -0.316 N 
ATOM      8  H5  UNL     1      -2.893   1.629   0.222  1.00  0.00     0.170 HD
HETATM    9  C3  UNL     1      -0.808   1.536  -0.372  1.00  0.00     0.291 A 
HETATM   10  O1  UNL     1      -0.530   2.641  -0.896  1.00  0.00    -0.264 OA
ENDROOT
BRANCH   1  11
HETATM   11  N2  UNL     1       2.162  -0.737  -0.365  1.00  0.00    -0.248 N 
HETATM   12  N1  UNL     1       3.418  -0.736  -0.226  1.00  0.00    -0.331 N 
ATOM     13  H12 UNL     1       3.882   0.171  -0.280  1.00  0.00     0.178 HD
ATOM     14  H11 UNL     1       3.986  -1.568  -0.067  1.00  0.00     0.178 HD
ATOM     15  H2  UNL     1       1.681  -1.635  -0.314  1.00  0.00     0.207 HD
ENDBRANCH   1  11
TORSDOF 1
