REMARK  0 active torsions:
REMARK  status: ('A' for Active; 'I' for Inactive)
ROOT
HETATM    1  C1  UNL     1      -2.534  -1.207  -0.399  1.00  0.00     0.038 A 
HETATM    2  C2  UNL     1      -1.280  -1.206   0.072  1.00  0.00     0.121 A 
HETATM    3  N1  UNL     1      -0.648   0.026  -0.256  1.00  0.00    -0.236 N 
HETATM    4  C3  UNL     1       0.559   0.406   0.024  1.00  0.00     0.221 A 
HETATM    5  N2  UNL     1       1.202   1.632  -0.297  1.00  0.00    -0.320 N 
ATOM      6  H2  UNL     1       0.765   2.396  -0.813  1.00  0.00     0.169 HD
HETATM    7  C4  UNL     1       2.409   1.649   0.150  1.00  0.00     0.200 A 
HETATM    8  N3  UNL     1       2.687   0.425   0.816  1.00  0.00    -0.293 N 
ATOM      9  H3  UNL     1       3.564   0.162   1.266  1.00  0.00     0.187 HD
HETATM   10  N4  UNL     1       1.526  -0.349   0.735  1.00  0.00    -0.269 N 
ATOM     11  H4  UNL     1       1.398  -1.286   1.117  1.00  0.00     0.190 HD
HETATM   12  N5  UNL     1      -1.616   0.755  -0.955  1.00  0.00    -0.303 N 
ATOM     13  H5  UNL     1      -1.475   1.692  -1.332  1.00  0.00     0.186 HD
HETATM   14  C5  UNL     1      -2.712   0.081  -1.058  1.00  0.00     0.109 A 
ENDROOT
TORSDOF 0
