REMARK  5 active torsions:
REMARK  status: ('A' for Active; 'I' for Inactive)
REMARK    1  A    between atoms: C4_4  and  C5_5 
REMARK    2  A    between atoms: C5_5  and  N1_6 
REMARK    3  A    between atoms: C8_9  and  N2_10 
REMARK    4  A    between atoms: C14_19  and  N4_20 
REMARK    5  A    between atoms: N4_20  and  C15_22 
ROOT
HETATM    1  C1  UNL     1       1.757   4.239  -0.873  1.00  0.00     0.090 A 
HETATM    2  C2  UNL     1       0.680   3.463  -0.504  1.00  0.00     0.034 A 
HETATM    3  C3  UNL     1       1.168   2.207  -0.185  1.00  0.00     0.035 A 
HETATM    4  C4  UNL     1       0.588   1.036   0.241  1.00  0.00     0.069 A 
HETATM    5  N3  UNL     1       1.369  -0.010   0.461  1.00  0.00    -0.193 N 
ATOM      6  H3  UNL     1       0.928  -0.873   0.778  1.00  0.00     0.184 HD
HETATM    7  C14 UNL     1       2.707  -0.014   0.295  1.00  0.00     0.680 A 
HETATM    8  N5  UNL     1       3.268   1.131  -0.121  1.00  0.00    -0.176 N 
ATOM      9  H5  UNL     1       4.278   1.165  -0.257  1.00  0.00     0.186 HD
HETATM   10  C20 UNL     1       2.533   2.247  -0.367  1.00  0.00     0.133 A 
HETATM   11  N6  UNL     1       2.857   3.472  -0.778  1.00  0.00    -0.351 N 
ATOM     12  H6  UNL     1       3.805   3.784  -0.990  1.00  0.00     0.166 HD
ENDROOT
BRANCH   4  13
HETATM   13  C5  UNL     1      -0.892   1.043   0.425  1.00  0.00     0.330 C 
BRANCH  13  14
HETATM   14  N1  UNL     1      -1.396  -0.240   0.874  1.00  0.00     0.096 N 
HETATM   15  C6  UNL     1      -1.103  -1.270  -0.072  1.00  0.00     0.275 C 
HETATM   16  C7  UNL     1      -2.459  -1.805  -0.555  1.00  0.00     0.068 C 
HETATM   17  C8  UNL     1      -3.304  -0.568  -0.343  1.00  0.00     0.253 C 
HETATM   18  C13 UNL     1      -2.834  -0.110   0.997  1.00  0.00     0.308 C 
BRANCH  17  19
HETATM   19  N2  UNL     1      -4.697  -0.787  -0.463  1.00  0.00     0.099 N 
HETATM   20  C9  UNL     1      -5.399   0.443  -0.244  1.00  0.00     0.299 C 
HETATM   21  C10 UNL     1      -6.850   0.224  -0.589  1.00  0.00     0.198 C 
HETATM   22  O1  UNL     1      -7.381  -0.862   0.062  1.00  0.00    -0.388 OA
HETATM   23  C11 UNL     1      -6.509  -1.509   0.909  1.00  0.00     0.198 C 
HETATM   24  C12 UNL     1      -5.222  -1.915   0.221  1.00  0.00     0.299 C 
ENDBRANCH  17  19
ENDBRANCH  13  14
ENDBRANCH   4  13
BRANCH   7  25
HETATM   25  N4  UNL     1       3.330  -1.082   0.541  1.00  0.00    -0.221 N 
ATOM     26  H4  UNL     1       2.732  -1.849   0.849  1.00  0.00     0.178 HD
BRANCH  25  27
HETATM   27  C15 UNL     1       4.696  -1.416   0.471  1.00  0.00     0.099 C 
HETATM   28  C16 UNL     1       5.269  -1.328  -0.904  1.00  0.00     0.026 C 
HETATM   29  C17 UNL     1       6.671  -0.778  -0.759  1.00  0.00     0.002 C 
HETATM   30  C18 UNL     1       6.929  -0.672   0.709  1.00  0.00     0.002 C 
HETATM   31  C19 UNL     1       5.598  -0.682   1.423  1.00  0.00     0.026 C 
ENDBRANCH  25  27
ENDBRANCH   7  25
TORSDOF 5
