REMARK  6 active torsions:
REMARK  status: ('A' for Active; 'I' for Inactive)
REMARK    1  A    between atoms: C5_5  and  N1_6 
REMARK    2  A    between atoms: N1_6  and  C6_8 
REMARK    3  A    between atoms: C7_11  and  N3_12 
REMARK    4  A    between atoms: C12_19  and  N5_20 
REMARK    5  A    between atoms: N5_20  and  C13_22 
REMARK    6  A    between atoms: C13_22  and  C14_23 
ROOT
HETATM    1  C6  UNL     1      -0.744  -0.128   0.462  1.00  0.00     0.711 A 
HETATM    2  N2  UNL     1      -0.883   1.185   0.390  1.00  0.00    -0.021 N 
ATOM      3  H2  UNL     1      -1.813   1.597   0.463  1.00  0.00     0.203 HD
HETATM    4  C7  UNL     1       0.199   1.997   0.219  1.00  0.00     0.709 A 
HETATM    5  N4  UNL     1       1.411   1.466   0.124  1.00  0.00    -0.021 N 
ATOM      6  H4  UNL     1       2.214   2.081  -0.003  1.00  0.00     0.203 HD
HETATM    7  C12 UNL     1       1.613   0.103   0.193  1.00  0.00     0.707 A 
HETATM    8  N7  UNL     1       0.531  -0.625   0.358  1.00  0.00    -0.021 N 
ATOM      9  H7  UNL     1       0.648  -1.637   0.413  1.00  0.00     0.203 HD
ENDROOT
BRANCH   1  10
HETATM   10  N1  UNL     1      -1.648  -0.985   0.624  1.00  0.00    -0.190 N 
ATOM     11  H1  UNL     1      -1.369  -1.965   0.658  1.00  0.00     0.184 HD
BRANCH  10  12
HETATM   12  C5  UNL     1      -3.012  -0.694   0.761  1.00  0.00     0.056 A 
HETATM   13  C4  UNL     1      -3.892  -1.506   0.026  1.00  0.00    -0.025 A 
HETATM   14  C3  UNL     1      -5.241  -1.289   0.129  1.00  0.00    -0.050 A 
HETATM   15  C19 UNL     1      -3.633  -2.648  -0.919  1.00  0.00     0.042 C 
HETATM   16  C2  UNL     1      -5.739  -0.278   0.948  1.00  0.00     0.008 A 
HETATM   17  C21 UNL     1      -5.942  -2.273  -0.740  1.00  0.00     0.039 C 
HETATM   18  C1  UNL     1      -4.849   0.510   1.663  1.00  0.00     0.003 A 
HETATM   19  C18 UNL     1      -3.499   0.319   1.582  1.00  0.00     0.030 A 
HETATM   20  C20 UNL     1      -4.936  -3.411  -0.780  1.00  0.00     0.009 C 
ENDBRANCH  10  12
ENDBRANCH   1  10
BRANCH   4  21
HETATM   21  N3  UNL     1      -0.035   3.399   0.137  1.00  0.00    -0.217 N 
HETATM   22  C8  UNL     1       0.656   4.443   0.864  1.00  0.00     0.141 C 
HETATM   23  C9  UNL     1       0.086   5.734   0.385  1.00  0.00     0.022 C 
HETATM   24  C10 UNL     1      -0.514   5.426  -0.961  1.00  0.00     0.022 C 
HETATM   25  C11 UNL     1      -1.030   4.016  -0.732  1.00  0.00     0.141 C 
ENDBRANCH   4  21
BRANCH   7  26
HETATM   26  N5  UNL     1       2.806  -0.328   0.094  1.00  0.00    -0.225 N 
ATOM     27  H5  UNL     1       3.540   0.369  -0.029  1.00  0.00     0.177 HD
BRANCH  26  28
HETATM   28  C13 UNL     1       3.211  -1.683   0.138  1.00  0.00     0.144 C 
BRANCH  28  29
HETATM   29  C14 UNL     1       4.533  -1.907   0.865  1.00  0.00     0.031 C 
HETATM   30  C15 UNL     1       4.840  -3.394   0.840  1.00  0.00     0.035 C 
HETATM   31  C16 UNL     1       5.997  -3.537  -0.084  1.00  0.00     0.232 C 
HETATM   32  N6  UNL     1       6.196  -2.299  -0.769  1.00  0.00    -0.075 N 
HETATM   33  C17 UNL     1       5.620  -1.250   0.057  1.00  0.00     0.238 C 
ATOM     34  H62 UNL     1       7.173  -2.128  -1.007  1.00  0.00     0.277 HD
ATOM     35  H61 UNL     1       5.827  -2.306  -1.720  1.00  0.00     0.277 HD
ENDBRANCH  28  29
ENDBRANCH  26  28
ENDBRANCH   7  26
TORSDOF 6
