REMARK  4 active torsions:
REMARK  status: ('A' for Active; 'I' for Inactive)
REMARK    1  A    between atoms: C10_16  and  N4_17 
REMARK    2  A    between atoms: N4_17  and  C11_19 
REMARK    3  A    between atoms: C11_19  and  C12_20 
REMARK    4  A    between atoms: C12_20  and  N5_21 
ROOT
HETATM    1  C1  UNL     1      -5.378   1.583  -0.990  1.00  0.00     0.070 C 
HETATM    2  C2  UNL     1      -5.537   0.124  -0.835  1.00  0.00     0.035 A 
HETATM    3  N1  UNL     1      -6.528  -0.684  -1.139  1.00  0.00    -0.304 N 
ATOM      4  H1  UNL     1      -7.367  -0.381  -1.634  1.00  0.00     0.186 HD
HETATM    5  N2  UNL     1      -6.329  -1.931  -0.738  1.00  0.00    -0.304 N 
ATOM      6  H2  UNL     1      -6.958  -2.725  -0.862  1.00  0.00     0.186 HD
HETATM    7  C3  UNL     1      -5.130  -1.935  -0.135  1.00  0.00     0.035 A 
HETATM    8  C4  UNL     1      -4.472  -3.151   0.461  1.00  0.00     0.070 C 
HETATM    9  C5  UNL     1      -4.560  -0.657  -0.160  1.00  0.00     0.021 A 
HETATM   10  C6  UNL     1      -3.241  -0.249   0.224  1.00  0.00     0.008 C 
HETATM   11  C7  UNL     1      -3.023   0.462   1.522  1.00  0.00     0.050 C 
HETATM   12  C8  UNL     1      -2.284   1.781   1.280  1.00  0.00     0.063 C 
HETATM   13  C9  UNL     1      -0.887   1.484   0.750  1.00  0.00     0.033 A 
HETATM   14  N3  UNL     1       0.245   1.903   1.209  1.00  0.00    -0.339 N 
ATOM     15  H3  UNL     1       0.287   2.576   1.975  1.00  0.00     0.168 HD
HETATM   16  C10 UNL     1       1.390   1.412   0.631  1.00  0.00     0.149 A 
HETATM   17  S1  UNL     1       0.759   0.366  -0.565  1.00  0.00    -0.048 SA
HETATM   18  C16 UNL     1      -0.903   0.586  -0.280  1.00  0.00     0.081 A 
HETATM   19  C17 UNL     1      -2.231   0.117  -0.776  1.00  0.00     0.198 C 
HETATM   20  O2  UNL     1      -2.334   0.078  -2.016  1.00  0.00    -0.286 OA
ENDROOT
BRANCH  16  21
HETATM   21  N4  UNL     1       2.566   1.732   0.992  1.00  0.00    -0.348 N 
ATOM     22  H4  UNL     1       2.581   2.406   1.758  1.00  0.00     0.167 HD
BRANCH  21  23
HETATM   23  C11 UNL     1       3.829   1.362   0.569  1.00  0.00     0.083 C 
BRANCH  23  24
HETATM   24  C12 UNL     1       3.913   0.151  -0.355  1.00  0.00     0.172 C 
BRANCH  24  25
HETATM   25  N5  UNL     1       5.302  -0.259  -0.509  1.00  0.00    -0.328 N 
HETATM   26  C13 UNL     1       6.318   0.223  -1.399  1.00  0.00     0.147 C 
HETATM   27  C14 UNL     1       7.531  -0.626  -1.175  1.00  0.00     0.144 C 
HETATM   28  N6  UNL     1       7.283  -1.415  -0.005  1.00  0.00    -0.341 N 
HETATM   29  C15 UNL     1       5.929  -1.279   0.323  1.00  0.00     0.318 C 
ATOM     30  H6  UNL     1       7.970  -1.976   0.499  1.00  0.00     0.164 HD
HETATM   31  O1  UNL     1       5.314  -1.919   1.200  1.00  0.00    -0.247 OA
ENDBRANCH  24  25
ENDBRANCH  23  24
ENDBRANCH  21  23
ENDBRANCH  16  21
TORSDOF 4
