REMARK  4 active torsions:
REMARK  status: ('A' for Active; 'I' for Inactive)
REMARK    1  A    between atoms: C2_2  and  N1_3 
REMARK    2  A    between atoms: N4_15  and  C9_17 
REMARK    3  A    between atoms: N5_22  and  C14_24 
REMARK    4  A    between atoms: C19_31  and  C20_32 
ROOT
HETATM    1  C1  UNL     1       1.723  -1.636   1.033  1.00  0.00     0.073 C 
HETATM    2  C2  UNL     1       1.777  -0.495   0.237  1.00  0.00     0.107 C 
HETATM    3  N3  UNL     1       0.768   0.410   0.055  1.00  0.00    -0.326 N 
ATOM      4  H3  UNL     1       1.003   1.273  -0.434  1.00  0.00     0.169 HD
HETATM    5  C8  UNL     1      -0.532   0.264   0.470  1.00  0.00     0.147 C 
HETATM    6  N4  UNL     1      -1.203   1.331   0.711  1.00  0.00    -0.369 N 
ATOM      7  H4  UNL     1      -2.172   1.268   1.022  1.00  0.00     0.161 HD
HETATM    8  C13 UNL     1      -1.209  -0.916   0.676  1.00  0.00     0.146 C 
HETATM    9  N5  UNL     1      -2.367  -1.024   0.262  1.00  0.00    -0.369 N 
ATOM     10  H5  UNL     1      -2.777  -1.935   0.467  1.00  0.00     0.161 HD
HETATM   11  N6  UNL     1      -0.670  -2.028   1.312  1.00  0.00    -0.343 N 
ATOM     12  H6  UNL     1      -1.347  -2.676   1.715  1.00  0.00     0.167 HD
HETATM   13  C19 UNL     1       0.608  -2.364   1.468  1.00  0.00     0.018 C 
ENDROOT
BRANCH   2  14
HETATM   14  N1  UNL     1       2.987  -0.236  -0.457  1.00  0.00    -0.359 N 
HETATM   15  C3  UNL     1       4.174  -1.065  -0.328  1.00  0.00     0.158 C 
HETATM   16  C4  UNL     1       5.169  -0.357  -1.216  1.00  0.00     0.205 C 
HETATM   17  C5  UNL     1       4.220   0.093  -2.344  1.00  0.00     0.061 C 
HETATM   18  N2  UNL     1       5.478   0.913  -0.613  1.00  0.00    -0.067 N 
HETATM   19  C6  UNL     1       3.273   0.833  -1.378  1.00  0.00     0.113 C 
HETATM   20  C7  UNL     1       4.275   1.742  -0.729  1.00  0.00     0.257 C 
ATOM     21  H22 UNL     1       5.818   0.831   0.345  1.00  0.00     0.277 HD
ATOM     22  H21 UNL     1       6.309   1.354  -1.008  1.00  0.00     0.277 HD
ENDBRANCH   2  14
BRANCH  13  23
HETATM   23  C20 UNL     1       0.961  -3.614   2.156  1.00  0.00     0.036 A 
HETATM   24  C21 UNL     1       0.017  -4.754   2.224  1.00  0.00     0.011 A 
HETATM   25  C22 UNL     1       0.114  -3.848   3.433  1.00  0.00     0.011 A 
ENDBRANCH  13  23
BRANCH   6  26
HETATM   26  C9  UNL     1      -0.586   2.603   0.542  1.00  0.00     0.083 C 
HETATM   27  C10 UNL     1      -0.205   3.007  -0.867  1.00  0.00     0.025 C 
HETATM   28  C11 UNL     1      -0.629   4.431  -0.481  1.00  0.00     0.004 C 
HETATM   29  C12 UNL     1      -1.565   3.784   0.534  1.00  0.00     0.025 C 
ENDBRANCH   6  26
BRANCH   9  30
HETATM   30  C14 UNL     1      -3.234  -0.185  -0.418  1.00  0.00     0.083 C 
HETATM   31  C15 UNL     1      -4.360   0.385   0.420  1.00  0.00     0.025 C 
HETATM   32  C16 UNL     1      -5.624   0.341  -0.419  1.00  0.00     0.002 C 
HETATM   33  C17 UNL     1      -5.100   0.056  -1.833  1.00  0.00     0.002 C 
HETATM   34  C18 UNL     1      -4.044  -0.974  -1.496  1.00  0.00     0.025 C 
ENDBRANCH   9  30
TORSDOF 4
