REMARK  7 active torsions:
REMARK  status: ('A' for Active; 'I' for Inactive)
REMARK    1  A    between atoms: C2_3  and  O1_4 
REMARK    2  A    between atoms: C5_8  and  O2_9 
REMARK    3  A    between atoms: C6_11  and  C7_12 
REMARK    4  A    between atoms: C7_12  and  O3_13 
REMARK    5  A    between atoms: N2_15  and  C8_16 
REMARK    6  A    between atoms: C8_16  and  C9_17 
REMARK    7  A    between atoms: C14_23  and  N3_24 
ROOT
HETATM    1  C1  UNL     1      -4.390  -3.374  -0.437  1.00  0.00     0.160 C 
HETATM    2  N1  UNL     1      -3.208  -2.568  -0.229  1.00  0.00    -0.312 N 
HETATM    3  C2  UNL     1      -2.849  -1.906   0.875  1.00  0.00     0.151 A 
HETATM    4  C3  UNL     1      -1.647  -1.275   0.625  1.00  0.00     0.013 A 
HETATM    5  C4  UNL     1      -1.232  -1.536  -0.637  1.00  0.00     0.029 A 
HETATM    6  C5  UNL     1      -2.247  -2.358  -1.157  1.00  0.00     0.153 A 
HETATM    7  C6  UNL     1       0.046  -1.029  -1.230  1.00  0.00     0.151 C 
HETATM    8  N2  UNL     1       0.732  -0.169  -0.332  1.00  0.00    -0.332 N 
HETATM    9  C14 UNL     1      -0.043   0.604   0.555  1.00  0.00     0.191 C 
HETATM   10  C20 UNL     1      -0.836  -0.368   1.476  1.00  0.00     0.128 C 
ENDROOT
BRANCH   8  11
HETATM   11  C8  UNL     1       2.056   0.166  -0.547  1.00  0.00     0.078 C 
BRANCH  11  12
HETATM   12  C9  UNL     1       2.889   0.774   0.521  1.00  0.00     0.094 C 
HETATM   13  C10 UNL     1       3.085  -0.038   1.759  1.00  0.00     0.018 C 
HETATM   14  C11 UNL     1       4.225  -1.014   1.456  1.00  0.00     0.008 C 
HETATM   15  C12 UNL     1       4.848  -0.546   0.177  1.00  0.00     0.079 C 
HETATM   16  C13 UNL     1       4.306   0.821   0.014  1.00  0.00     0.136 C 
HETATM   17  O4  UNL     1       4.874   1.786  -0.435  1.00  0.00    -0.297 OA
ENDBRANCH  11  12
ENDBRANCH   8  11
BRANCH   7  18
HETATM   18  C7  UNL     1       0.855  -2.259  -1.571  1.00  0.00     0.194 C 
BRANCH  18  19
HETATM   19  O3  UNL     1       0.283  -3.144  -2.451  1.00  0.00    -0.398 OA
ATOM     20  H3  UNL     1       0.792  -3.917  -2.665  1.00  0.00     0.209 HD
ENDBRANCH  18  19
ENDBRANCH   7  18
BRANCH   9  21
HETATM   21  N3  UNL     1      -0.776   1.731   0.127  1.00  0.00    -0.029 N 
HETATM   22  C15 UNL     1      -2.196   1.744   0.548  1.00  0.00     0.281 C 
HETATM   23  C16 UNL     1      -0.325   2.990   0.775  1.00  0.00     0.245 C 
HETATM   24  C17 UNL     1      -0.892   4.123  -0.003  1.00  0.00     0.030 C 
HETATM   25  C18 UNL     1      -0.997   3.569  -1.379  1.00  0.00     0.030 C 
HETATM   26  C19 UNL     1      -0.852   2.048  -1.258  1.00  0.00     0.245 C 
ENDBRANCH   9  21
BRANCH   6  27
HETATM   27  O2  UNL     1      -2.334  -2.902  -2.406  1.00  0.00    -0.345 OA
ATOM     28  H2  UNL     1      -1.659  -2.754  -3.058  1.00  0.00     0.219 HD
ENDBRANCH   6  27
BRANCH   3  29
HETATM   29  O1  UNL     1      -3.531  -1.840   2.078  1.00  0.00    -0.345 OA
ATOM     30  H1  UNL     1      -3.276  -1.369   2.863  1.00  0.00     0.219 HD
ENDBRANCH   3  29
TORSDOF 7
