REMARK  6 active torsions:
REMARK  status: ('A' for Active; 'I' for Inactive)
REMARK    1  A    between atoms: C2_2  and  C3_3 
REMARK    2  A    between atoms: C3_3  and  C4_4 
REMARK    3  A    between atoms: C4_4  and  C6_6 
REMARK    4  A    between atoms: C8_8  and  O1_9 
REMARK    5  A    between atoms: C15_17  and  O2_18 
REMARK    6  A    between atoms: C19_24  and  O4_25 
ROOT
HETATM    1  C6  UNL     1       1.335  -0.462   0.729  1.00  0.00    -0.064 C 
HETATM    2  C7  UNL     1       1.619   0.812   1.530  1.00  0.00     0.067 C 
HETATM    3  C8  UNL     1       1.159   2.062   0.917  1.00  0.00     0.122 C 
HETATM    4  C9  UNL     1      -0.367   1.890   0.898  1.00  0.00     0.039 C 
HETATM    5  C10 UNL     1      -0.766   0.749   0.004  1.00  0.00     0.016 C 
HETATM    6  C11 UNL     1      -2.245   0.665   0.208  1.00  0.00    -0.009 C 
HETATM    7  C12 UNL     1      -2.681   0.708   1.654  1.00  0.00     0.021 C 
HETATM    8  C13 UNL     1      -2.814   1.938  -0.403  1.00  0.00     0.017 C 
HETATM    9  C14 UNL     1      -4.077   1.803  -1.154  1.00  0.00     0.037 C 
HETATM   10  C15 UNL     1      -4.993   0.692  -0.672  1.00  0.00     0.141 C 
HETATM   11  C16 UNL     1      -4.142  -0.528  -0.798  1.00  0.00     0.016 C 
HETATM   12  C17 UNL     1      -2.903  -0.502  -0.389  1.00  0.00    -0.002 C 
HETATM   13  C18 UNL     1      -2.053  -1.678  -0.489  1.00  0.00     0.185 C 
HETATM   14  O3  UNL     1      -2.354  -2.599  -1.258  1.00  0.00    -0.290 OA
HETATM   15  C19 UNL     1      -0.835  -1.643   0.404  1.00  0.00     0.207 C 
HETATM   16  C21 UNL     1       0.066  -0.478  -0.004  1.00  0.00     0.018 C 
HETATM   17  C22 UNL     1       0.265  -0.862  -1.500  1.00  0.00     0.023 C 
ENDROOT
BRANCH   1  18
HETATM   18  C4  UNL     1       2.643  -0.862   0.186  1.00  0.00    -0.080 C 
HETATM   19  C5  UNL     1       2.899  -2.262  -0.210  1.00  0.00     0.043 C 
BRANCH  18  20
HETATM   20  C3  UNL     1       3.388   0.079  -0.711  1.00  0.00     0.033 C 
BRANCH  20  21
HETATM   21  C2  UNL     1       4.901  -0.203  -0.608  1.00  0.00    -0.000 C 
HETATM   22  C1  UNL     1       5.537   0.842  -1.550  1.00  0.00     0.005 C 
ENDBRANCH  20  21
ENDBRANCH  18  20
ENDBRANCH   1  18
BRANCH   3  23
HETATM   23  O1  UNL     1       1.414   3.106   1.799  1.00  0.00    -0.395 OA
ATOM     24  H1  UNL     1       1.116   3.916   1.402  1.00  0.00     0.210 HD
ENDBRANCH   3  23
BRANCH  15  25
HETATM   25  O4  UNL     1      -0.284  -2.894   0.179  1.00  0.00    -0.382 OA
HETATM   26  C20 UNL     1      -0.381  -3.709   1.300  1.00  0.00     0.202 C 
ENDBRANCH  15  25
BRANCH  10  27
HETATM   27  O2  UNL     1      -6.033   0.608  -1.594  1.00  0.00    -0.392 OA
ATOM     28  H2  UNL     1      -6.606  -0.087  -1.292  1.00  0.00     0.210 HD
ENDBRANCH  10  27
TORSDOF 6
