REMARK  6 active torsions:
REMARK  status: ('A' for Active; 'I' for Inactive)
REMARK    1  A    between atoms: C2_2  and  C4_4 
REMARK    2  A    between atoms: C5_6  and  O2_7 
REMARK    3  A    between atoms: O2_7  and  C6_8 
REMARK    4  A    between atoms: C6_8  and  C7_10 
REMARK    5  A    between atoms: C20_23  and  O4_24 
REMARK    6  A    between atoms: C21_26  and  O5_27 
ROOT
HETATM    1  C6  UNL     1       0.580   0.615   0.975  1.00  0.00     0.265 C 
HETATM    2  O3  UNL     1       0.886   0.199   2.120  1.00  0.00    -0.265 OA
ENDROOT
BRANCH   1   3
HETATM    3  O2  UNL     1       1.614   0.714   0.056  1.00  0.00    -0.287 OA
BRANCH   3   4
HETATM    4  C5  UNL     1       2.949   0.384   0.331  1.00  0.00     0.301 C 
HETATM    5  O1  UNL     1       3.506  -0.555  -0.482  1.00  0.00    -0.350 OA
HETATM    6  C4  UNL     1       4.810  -0.214  -0.763  1.00  0.00     0.159 C 
HETATM    7  C21 UNL     1       5.124   1.097  -0.135  1.00  0.00     0.181 C 
HETATM    8  C20 UNL     1       3.766   1.649   0.218  1.00  0.00     0.205 C 
BRANCH   6   9
HETATM    9  C2  UNL     1       5.815  -1.231  -0.345  1.00  0.00     0.009 C 
HETATM   10  C1  UNL     1       7.196  -0.731  -0.712  1.00  0.00     0.012 C 
HETATM   11  C3  UNL     1       5.549  -2.608  -0.910  1.00  0.00     0.012 C 
ENDBRANCH   6   9
BRANCH   7  12
HETATM   12  O5  UNL     1       5.862   1.024   1.027  1.00  0.00    -0.390 OA
ATOM     13  H5  UNL     1       6.063   1.861   1.428  1.00  0.00     0.210 HD
ENDBRANCH   7  12
BRANCH   8  14
HETATM   14  O4  UNL     1       3.328   2.458  -0.803  1.00  0.00    -0.388 OA
ATOM     15  H4  UNL     1       3.842   3.254  -0.874  1.00  0.00     0.210 HD
ENDBRANCH   8  14
ENDBRANCH   3   4
ENDBRANCH   1   3
BRANCH   1  16
HETATM   16  C7  UNL     1      -0.823   0.975   0.646  1.00  0.00     0.086 C 
HETATM   17  C8  UNL     1      -1.666   0.754   1.855  1.00  0.00     0.015 C 
HETATM   18  C9  UNL     1      -3.120   0.938   1.674  1.00  0.00     0.007 C 
HETATM   19  C10 UNL     1      -3.706   0.565   0.371  1.00  0.00     0.001 C 
HETATM   20  C11 UNL     1      -4.546  -0.676   0.502  1.00  0.00    -0.043 C 
HETATM   21  C17 UNL     1      -2.753   0.563  -0.783  1.00  0.00    -0.039 C 
HETATM   22  C12 UNL     1      -5.630  -0.337   1.541  1.00  0.00     0.015 C 
HETATM   23  C13 UNL     1      -3.831  -1.875   1.001  1.00  0.00     0.015 C 
HETATM   24  C14 UNL     1      -5.275  -0.890  -0.795  1.00  0.00     0.009 C 
HETATM   25  C15 UNL     1      -4.230  -1.183  -1.849  1.00  0.00     0.002 C 
HETATM   26  C16 UNL     1      -3.231  -0.100  -2.008  1.00  0.00     0.010 C 
HETATM   27  C18 UNL     1      -2.525   2.047  -1.144  1.00  0.00     0.015 C 
HETATM   28  C19 UNL     1      -1.376   0.054  -0.443  1.00  0.00     0.024 C 
ENDBRANCH   1  16
TORSDOF 6
