REMARK  5 active torsions:
REMARK  status: ('A' for Active; 'I' for Inactive)
REMARK    1  A    between atoms: C11_11  and  C12_12 
REMARK    2  A    between atoms: C12_12  and  C13_13 
REMARK    3  A    between atoms: C13_13  and  O1_14 
REMARK    4  A    between atoms: C14_16  and  O2_17 
REMARK    5  A    between atoms: O2_17  and  S1_18 
ROOT
HETATM    1  C1  UNL     1      -4.074  -0.090   1.454  1.00  0.00     0.011 C 
HETATM    2  C2  UNL     1      -3.841  -0.158  -0.016  1.00  0.00    -0.010 C 
HETATM    3  C3  UNL     1      -3.736  -1.576  -0.541  1.00  0.00     0.005 C 
HETATM    4  C4  UNL     1      -2.440  -1.622  -1.354  1.00  0.00     0.006 C 
HETATM    5  C5  UNL     1      -1.650  -0.672  -0.488  1.00  0.00     0.003 C 
HETATM    6  C6  UNL     1      -2.520   0.511  -0.430  1.00  0.00    -0.036 C 
HETATM    7  C7  UNL     1      -2.812   1.238  -1.680  1.00  0.00     0.016 C 
HETATM    8  C8  UNL     1      -1.980   1.403   0.648  1.00  0.00     0.010 C 
HETATM    9  C9  UNL     1      -0.677   0.916   1.216  1.00  0.00     0.007 C 
HETATM   10  C10 UNL     1       0.332   0.550   0.132  1.00  0.00     0.001 C 
HETATM   11  C11 UNL     1       1.541   0.050   0.836  1.00  0.00     0.023 C 
HETATM   12  C14 UNL     1       2.505  -0.719  -0.025  1.00  0.00     0.149 C 
HETATM   13  C15 UNL     1       1.852  -1.956  -0.623  1.00  0.00     0.034 C 
HETATM   14  C16 UNL     1       0.384  -1.895  -0.464  1.00  0.00     0.012 C 
HETATM   15  C17 UNL     1      -0.230  -0.535  -0.773  1.00  0.00    -0.035 C 
HETATM   16  C18 UNL     1       0.159  -0.196  -2.177  1.00  0.00     0.016 C 
ENDROOT
BRANCH  12  17
HETATM   17  O2  UNL     1       3.559  -1.077   0.819  1.00  0.00    -0.251 OA
BRANCH  17  18
HETATM   18  S1  UNL     1       5.063  -0.738   0.231  1.00  0.00     0.251 S 
HETATM   19  O3  UNL     1       4.992   0.027  -1.059  1.00  0.00    -0.572 OA
HETATM   20  O4  UNL     1       5.889  -2.007   0.052  1.00  0.00    -0.572 OA
HETATM   21  O5  UNL     1       5.894   0.184   1.363  1.00  0.00    -0.572 OA
ENDBRANCH  17  18
ENDBRANCH  12  17
BRANCH  11  22
HETATM   22  C12 UNL     1       2.255   0.994   1.715  1.00  0.00     0.033 C 
BRANCH  22  23
HETATM   23  C13 UNL     1       2.814   2.233   1.155  1.00  0.00     0.164 C 
BRANCH  23  24
HETATM   24  O1  UNL     1       1.953   3.123   0.573  1.00  0.00    -0.401 OA
ATOM     25  H1  UNL     1       2.314   3.924   0.211  1.00  0.00     0.209 HD
ENDBRANCH  23  24
ENDBRANCH  22  23
ENDBRANCH  11  22
TORSDOF 5
