REMARK  5 active torsions:
REMARK  status: ('A' for Active; 'I' for Inactive)
REMARK    1  A    between atoms: C2_2  and  C3_3 
REMARK    2  A    between atoms: C14_14  and  O1_15 
REMARK    3  A    between atoms: C16_18  and  O2_19 
REMARK    4  A    between atoms: C19_24  and  C21_26 
REMARK    5  A    between atoms: C21_26  and  O4_27 
ROOT
HETATM    1  C3  UNL     1      -0.673  -2.134   0.691  1.00  0.00    -0.022 C 
HETATM    2  C4  UNL     1      -0.857  -3.061  -0.434  1.00  0.00     0.020 C 
HETATM    3  C5  UNL     1      -2.074  -1.859   1.277  1.00  0.00     0.014 C 
HETATM    4  C6  UNL     1      -2.532  -0.765   0.347  1.00  0.00     0.014 C 
HETATM    5  C7  UNL     1      -1.341   0.195   0.402  1.00  0.00    -0.006 C 
HETATM    6  C8  UNL     1      -1.505   0.903   1.714  1.00  0.00     0.019 C 
HETATM    7  C9  UNL     1      -0.160  -0.771   0.467  1.00  0.00     0.020 C 
HETATM    8  C10 UNL     1       0.844  -0.527  -0.590  1.00  0.00     0.057 C 
HETATM    9  C11 UNL     1       2.147  -1.160  -0.364  1.00  0.00    -0.077 C 
HETATM   10  C12 UNL     1       2.394  -2.542  -0.966  1.00  0.00     0.043 C 
HETATM   11  C13 UNL     1       3.197  -0.672   0.276  1.00  0.00     0.007 C 
HETATM   12  C14 UNL     1       3.436   0.606   0.954  1.00  0.00     0.143 C 
HETATM   13  C15 UNL     1       3.168   1.749  -0.044  1.00  0.00     0.070 C 
HETATM   14  C16 UNL     1       1.696   1.848  -0.170  1.00  0.00     0.155 C 
HETATM   15  C17 UNL     1       0.961   0.904  -1.027  1.00  0.00     0.092 C 
HETATM   16  C18 UNL     1       1.692   0.842  -2.388  1.00  0.00     0.049 C 
HETATM   17  O3  UNL     1      -0.231   1.497  -1.331  1.00  0.00    -0.364 OA
HETATM   18  C19 UNL     1      -1.382   1.032  -0.816  1.00  0.00     0.087 C 
HETATM   19  C20 UNL     1      -2.110   0.352  -2.001  1.00  0.00     0.049 C 
ENDROOT
BRANCH  18  20
HETATM   20  C21 UNL     1      -2.303   2.244  -0.600  1.00  0.00     0.205 C 
BRANCH  20  21
HETATM   21  O4  UNL     1      -1.766   3.192   0.249  1.00  0.00    -0.393 OA
HETATM   22  C22 UNL     1      -2.668   4.218   0.365  1.00  0.00     0.201 C 
ENDBRANCH  20  21
ENDBRANCH  18  20
BRANCH   1  23
HETATM   23  C2  UNL     1       0.024  -2.861   1.793  1.00  0.00    -0.027 C 
HETATM   24  C1  UNL     1      -0.476  -3.998   2.212  1.00  0.00     0.007 C 
ENDBRANCH   1  23
BRANCH  14  25
HETATM   25  O2  UNL     1       1.475   3.134  -0.738  1.00  0.00    -0.392 OA
ATOM     26  H2  UNL     1       0.531   3.198  -0.819  1.00  0.00     0.210 HD
ENDBRANCH  14  25
BRANCH  12  27
HETATM   27  O1  UNL     1       2.805   0.790   2.156  1.00  0.00    -0.392 OA
ATOM     28  H1  UNL     1       2.960   1.618   2.595  1.00  0.00     0.210 HD
ENDBRANCH  12  27
TORSDOF 5
