REMARK  4 active torsions:
REMARK  status: ('A' for Active; 'I' for Inactive)
REMARK    1  A    between atoms: C9_9  and  C10_10 
REMARK    2  A    between atoms: C10_10  and  N1_11 
REMARK    3  A    between atoms: C14_15  and  C15_16 
REMARK    4  A    between atoms: C15_16  and  O1_17 
ROOT
HETATM    1  C1  UNL     1      -4.996   1.148   0.904  1.00  0.00     0.021 C 
HETATM    2  C2  UNL     1      -3.791   0.222   0.740  1.00  0.00    -0.001 C 
HETATM    3  C3  UNL     1      -3.553  -0.458   2.038  1.00  0.00     0.016 C 
HETATM    4  C4  UNL     1      -2.221  -1.110   2.191  1.00  0.00     0.013 C 
HETATM    5  C5  UNL     1      -1.082  -0.433   1.514  1.00  0.00    -0.009 C 
HETATM    6  C6  UNL     1      -0.643   0.715   2.440  1.00  0.00     0.018 C 
HETATM    7  C7  UNL     1       0.100  -1.364   1.399  1.00  0.00     0.042 C 
HETATM    8  C8  UNL     1       1.207  -0.675   0.659  1.00  0.00     0.008 C 
HETATM    9  C9  UNL     1       1.015   0.407  -0.054  1.00  0.00     0.072 C 
HETATM   10  O2  UNL     1      -0.273   0.988  -0.162  1.00  0.00    -0.342 OA
HETATM   11  C16 UNL     1      -1.394   0.204   0.202  1.00  0.00     0.076 C 
HETATM   12  C17 UNL     1      -1.651  -0.739  -0.939  1.00  0.00     0.051 C 
HETATM   13  C18 UNL     1      -2.870  -1.567  -0.812  1.00  0.00     0.052 C 
HETATM   14  C19 UNL     1      -3.386  -2.001  -2.190  1.00  0.00     0.145 C 
HETATM   15  N2  UNL     1      -4.798  -2.172  -1.846  1.00  0.00    -0.141 NA
HETATM   16  N3  UNL     1      -5.086  -1.171  -0.918  1.00  0.00    -0.311 N 
ATOM     17  H3  UNL     1      -6.018  -0.793  -0.749  1.00  0.00     0.181 HD
HETATM   18  C20 UNL     1      -4.040  -0.792  -0.313  1.00  0.00     0.014 C 
HETATM   19  C21 UNL     1      -2.608   1.089   0.393  1.00  0.00     0.054 C 
ENDROOT
BRANCH   9  20
HETATM   20  C10 UNL     1       2.140   1.059  -0.768  1.00  0.00     0.337 C 
BRANCH  20  21
HETATM   21  N1  UNL     1       3.422   0.492  -0.599  1.00  0.00     0.101 N 
HETATM   22  C11 UNL     1       4.030   0.651   0.688  1.00  0.00     0.273 C 
HETATM   23  C12 UNL     1       5.095   1.697   0.551  1.00  0.00     0.032 C 
HETATM   24  C13 UNL     1       5.500   1.621  -0.881  1.00  0.00     0.040 C 
HETATM   25  C14 UNL     1       4.359   0.959  -1.574  1.00  0.00     0.246 C 
BRANCH  25  26
HETATM   26  C15 UNL     1       4.868  -0.210  -2.387  1.00  0.00     0.199 C 
BRANCH  26  27
HETATM   27  O1  UNL     1       5.784   0.166  -3.359  1.00  0.00    -0.399 OA
ATOM     28  H1  UNL     1       6.104  -0.568  -3.870  1.00  0.00     0.209 HD
ENDBRANCH  26  27
ENDBRANCH  25  26
ENDBRANCH  20  21
ENDBRANCH   9  20
TORSDOF 4
