REMARK  8 active torsions:
REMARK  status: ('A' for Active; 'I' for Inactive)
REMARK    1  A    between atoms: C2_2  and  C3_3 
REMARK    2  A    between atoms: C2_2  and  N1_7 
REMARK    3  A    between atoms: C3_3  and  O1_5 
REMARK    4  A    between atoms: N2_10  and  C7_11 
REMARK    5  A    between atoms: C7_11  and  C8_12 
REMARK    6  A    between atoms: C11_15  and  N3_16 
REMARK       I    between atoms: N3_16  and  C12_17 
REMARK    7  A    between atoms: C12_17  and  O3_19 
REMARK    8  A    between atoms: O3_19  and  C13_20 
ROOT
HETATM    1  C8  UNL     1      -0.245   2.025   0.589  1.00  0.00     0.003 C 
HETATM    2  C9  UNL     1       0.286   1.100   1.651  1.00  0.00     0.009 C 
HETATM    3  C10 UNL     1       1.445   0.270   1.106  1.00  0.00     0.040 C 
HETATM    4  C11 UNL     1       2.522   1.104   0.549  1.00  0.00     0.169 C 
HETATM    5  C17 UNL     1       1.868   1.934  -0.659  1.00  0.00     0.040 C 
HETATM    6  C18 UNL     1       0.819   2.810  -0.074  1.00  0.00     0.009 C 
ENDROOT
BRANCH   1   7
HETATM    7  C7  UNL     1      -1.175   1.343  -0.385  1.00  0.00     0.121 C 
BRANCH   7   8
HETATM    8  N2  UNL     1      -2.338   0.898   0.279  1.00  0.00    -0.409 N 
HETATM    9  C6  UNL     1      -3.254   1.868   0.723  1.00  0.00     0.136 C 
HETATM   10  C5  UNL     1      -4.707   1.537   0.372  1.00  0.00     0.142 C 
HETATM   11  N1  UNL     1      -4.911   0.117   0.442  1.00  0.00    -0.380 N 
HETATM   12  C20 UNL     1      -3.929  -0.632   1.177  1.00  0.00     0.142 C 
HETATM   13  C19 UNL     1      -2.642  -0.453   0.317  1.00  0.00     0.136 C 
BRANCH  11  14
HETATM   14  C2  UNL     1      -6.001  -0.527  -0.229  1.00  0.00     0.026 C 
HETATM   15  C1  UNL     1      -6.832   0.218  -0.840  1.00  0.00     0.040 C 
BRANCH  14  16
HETATM   16  C3  UNL     1      -6.046  -2.000  -0.312  1.00  0.00     0.162 C 
HETATM   17  C4  UNL     1      -7.252  -2.398   0.552  1.00  0.00     0.046 C 
BRANCH  16  18
HETATM   18  O1  UNL     1      -6.356  -2.451  -1.632  1.00  0.00    -0.390 OA
ATOM     19  H1  UNL     1      -6.385  -3.399  -1.685  1.00  0.00     0.210 HD
ENDBRANCH  16  18
ENDBRANCH  14  16
ENDBRANCH  11  14
ENDBRANCH   7   8
ENDBRANCH   1   7
BRANCH   4  20
HETATM   20  N3  UNL     1       3.593   0.446   0.042  1.00  0.00    -0.385 NA
HETATM   21  C12 UNL     1       4.673  -0.219  -0.478  1.00  0.00     0.435 C 
HETATM   22  O2  UNL     1       4.997  -0.650  -1.569  1.00  0.00    -0.221 OA
BRANCH  21  23
HETATM   23  O3  UNL     1       5.714  -0.464   0.579  1.00  0.00    -0.283 OA
BRANCH  23  24
HETATM   24  C13 UNL     1       6.907  -1.121   0.064  1.00  0.00     0.062 C 
HETATM   25  C14 UNL     1       7.890  -1.158   1.205  1.00  0.00     0.046 C 
HETATM   26  C15 UNL     1       6.561  -2.574  -0.319  1.00  0.00     0.046 C 
HETATM   27  C16 UNL     1       7.462  -0.373  -1.121  1.00  0.00     0.046 C 
ENDBRANCH  23  24
ENDBRANCH  21  23
ENDBRANCH   4  20
TORSDOF 8
