REMARK  6 active torsions:
REMARK  status: ('A' for Active; 'I' for Inactive)
REMARK    1  A    between atoms: S1_2  and  C2_3 
REMARK       I    between atoms: C2_3  and  N1_5 
REMARK    2  A    between atoms: N1_5  and  C3_7 
REMARK    3  A    between atoms: C3_7  and  C4_8 
REMARK    4  A    between atoms: C4_8  and  C5_9 
REMARK    5  A    between atoms: C5_9  and  N2_10 
REMARK    6  A    between atoms: C13_19  and  O2_20 
ROOT
HETATM    1  N2  UNL     1       0.876  -0.825  -0.410  1.00  0.00    -0.393 N 
ATOM      2  H2  UNL     1       1.360  -1.483  -1.020  1.00  0.00     0.159 HD
HETATM    3  C6  UNL     1      -0.288  -1.128  -0.037  1.00  0.00     0.024 C 
HETATM    4  C7  UNL     1      -1.149  -0.304   0.848  1.00  0.00     0.069 C 
HETATM    5  C8  UNL     1      -1.489  -1.175   2.064  1.00  0.00     0.018 C 
HETATM    6  C9  UNL     1      -2.136  -2.444   1.603  1.00  0.00    -0.010 C 
HETATM    7  C10 UNL     1      -3.424  -2.145   0.883  1.00  0.00     0.012 C 
HETATM    8  C11 UNL     1      -3.097  -1.273  -0.320  1.00  0.00     0.024 C 
HETATM    9  C12 UNL     1      -2.173  -2.051  -1.225  1.00  0.00     0.052 C 
HETATM   10  C13 UNL     1      -0.881  -2.425  -0.510  1.00  0.00     0.097 C 
HETATM   11  C14 UNL     1      -1.272  -3.266   0.687  1.00  0.00     0.048 C 
HETATM   12  C15 UNL     1      -2.497   0.001   0.189  1.00  0.00     0.073 C 
HETATM   13  C16 UNL     1      -2.367   1.066  -0.863  1.00  0.00     0.039 C 
HETATM   14  C17 UNL     1      -2.591   2.409  -0.190  1.00  0.00     0.005 C 
HETATM   15  C18 UNL     1      -4.020   2.522   0.312  1.00  0.00     0.026 C 
HETATM   16  C19 UNL     1      -4.450   1.111   0.709  1.00  0.00     0.168 C 
HETATM   17  O3  UNL     1      -3.322   0.475   1.210  1.00  0.00    -0.379 OA
ENDROOT
BRANCH   1  18
HETATM   18  C5  UNL     1       1.565   0.358  -0.049  1.00  0.00     0.121 C 
BRANCH  18  19
HETATM   19  C4  UNL     1       3.065   0.231  -0.164  1.00  0.00     0.039 C 
BRANCH  19  20
HETATM   20  C3  UNL     1       3.665   1.558   0.250  1.00  0.00     0.125 C 
BRANCH  20  21
HETATM   21  N1  UNL     1       5.100   1.553   0.179  1.00  0.00    -0.352 N 
HETATM   22  C2  UNL     1       5.832   2.704   0.528  1.00  0.00     0.279 C 
HETATM   23  O1  UNL     1       5.246   3.736   0.900  1.00  0.00    -0.260 OA
ATOM     24  H1  UNL     1       5.591   0.712  -0.126  1.00  0.00     0.163 HD
BRANCH  22  25
HETATM   25  S1  UNL     1       7.613   2.689   0.437  1.00  0.00    -0.074 SA
HETATM   26  C1  UNL     1       8.187   1.071  -0.130  1.00  0.00     0.100 C 
ENDBRANCH  22  25
ENDBRANCH  20  21
ENDBRANCH  19  20
ENDBRANCH  18  19
ENDBRANCH   1  18
BRANCH  10  27
HETATM   27  O2  UNL     1      -0.058  -3.100  -1.377  1.00  0.00    -0.384 OA
ATOM     28  H2  UNL     1      -0.433  -3.920  -1.676  1.00  0.00     0.211 HD
ENDBRANCH  10  27
TORSDOF 6
