REMARK  11 active torsions:
REMARK  status: ('A' for Active; 'I' for Inactive)
REMARK    1  A    between atoms: C3_5  and  N2_6 
REMARK    2  A    between atoms: C4_10  and  S2_11 
REMARK    3  A    between atoms: S2_11  and  C5_12 
REMARK    4  A    between atoms: C5_12  and  C6_13 
REMARK    5  A    between atoms: C5_12  and  C7_16 
REMARK    6  A    between atoms: C7_16  and  N3_18 
REMARK    7  A    between atoms: C12_22  and  C13_23 
REMARK    8  A    between atoms: C13_23  and  C14_24 
REMARK    9  A    between atoms: C14_24  and  C15_25 
REMARK   10  A    between atoms: C15_25  and  O2_27 
REMARK   11  A    between atoms: O2_27  and  C16_28 
ROOT
HETATM    1  C16 UNL     1       7.233  -0.626  -0.436  1.00  0.00     0.151 C 
HETATM    2  C17 UNL     1       8.049  -1.476   0.525  1.00  0.00     0.063 C 
HETATM    3  C18 UNL     1       7.697   0.802  -0.277  1.00  0.00     0.063 C 
HETATM    4  C19 UNL     1       7.500  -1.093  -1.812  1.00  0.00     0.097 C 
HETATM    5  N4  UNL     1       7.713  -1.479  -2.890  1.00  0.00    -0.194 NA
ENDROOT
BRANCH   1   6
HETATM    6  O2  UNL     1       5.881  -0.818  -0.159  1.00  0.00    -0.296 OA
BRANCH   6   7
HETATM    7  C15 UNL     1       4.847  -0.196  -0.834  1.00  0.00     0.260 C 
HETATM    8  O1  UNL     1       5.137   0.600  -1.760  1.00  0.00    -0.265 OA
BRANCH   7   9
HETATM    9  C14 UNL     1       3.424  -0.446  -0.488  1.00  0.00     0.115 C 
BRANCH   9  10
HETATM   10  C13 UNL     1       2.986   0.648   0.470  1.00  0.00     0.045 C 
BRANCH  10  11
HETATM   11  C12 UNL     1       1.557   0.448   0.870  1.00  0.00    -0.055 C 
HETATM   12  C11 UNL     1       1.270   0.274   2.156  1.00  0.00    -0.021 C 
HETATM   13  C10 UNL     1      -0.136   0.073   2.564  1.00  0.00     0.058 C 
HETATM   14  C9  UNL     1      -1.049   0.706   1.547  1.00  0.00     0.277 C 
HETATM   15  N3  UNL     1      -0.793   0.205   0.241  1.00  0.00     0.098 N 
HETATM   16  C20 UNL     1       0.545   0.456  -0.213  1.00  0.00     0.307 C 
BRANCH  15  17
HETATM   17  C7  UNL     1      -1.780   0.522  -0.756  1.00  0.00     0.238 C 
HETATM   18  C8  UNL     1      -2.051   2.044  -0.731  1.00  0.00     0.044 C 
BRANCH  17  19
HETATM   19  C5  UNL     1      -3.086  -0.134  -0.476  1.00  0.00     0.151 C 
BRANCH  19  20
HETATM   20  S2  UNL     1      -4.330   0.357  -1.752  1.00  0.00    -0.108 SA
BRANCH  20  21
HETATM   21  C4  UNL     1      -5.878  -0.380  -1.186  1.00  0.00     0.067 A 
HETATM   22  C2  UNL     1      -6.825   0.156  -0.353  1.00  0.00     0.031 A 
HETATM   23  C1  UNL     1      -6.606   1.556   0.210  1.00  0.00     0.070 C 
HETATM   24  N1  UNL     1      -7.874  -0.569  -0.080  1.00  0.00    -0.339 N 
HETATM   25  C3  UNL     1      -7.974  -1.783  -0.619  1.00  0.00     0.143 A 
ATOM     26  H1  UNL     1      -8.605  -0.213   0.536  1.00  0.00     0.168 HD
HETATM   27  S1  UNL     1      -6.546  -1.913  -1.543  1.00  0.00    -0.045 SA
BRANCH  25  28
HETATM   28  N2  UNL     1      -8.938  -2.665  -0.477  1.00  0.00    -0.380 N 
ATOM     29  H22 UNL     1      -9.792  -2.587   0.076  1.00  0.00     0.158 HD
ATOM     30  H21 UNL     1      -9.015  -3.595  -0.890  1.00  0.00     0.158 HD
ENDBRANCH  25  28
ENDBRANCH  20  21
ENDBRANCH  19  20
BRANCH  19  31
HETATM   31  C6  UNL     1      -2.920  -1.641  -0.522  1.00  0.00     0.369 C 
HETATM   32  F1  UNL     1      -2.481  -2.086  -1.750  1.00  0.00    -0.213 F 
HETATM   33  F2  UNL     1      -2.185  -2.107   0.537  1.00  0.00    -0.213 F 
ENDBRANCH  19  31
ENDBRANCH  17  19
ENDBRANCH  15  17
ENDBRANCH  10  11
ENDBRANCH   9  10
ENDBRANCH   7   9
ENDBRANCH   6   7
ENDBRANCH   1   6
TORSDOF 11
