REMARK  13 active torsions:
REMARK  status: ('A' for Active; 'I' for Inactive)
REMARK    1  A    between atoms: C2_2  and  N1_3 
REMARK    2  A    between atoms: N1_3  and  C3_5 
REMARK    3  A    between atoms: C3_5  and  O2_10 
REMARK    4  A    between atoms: N2_6  and  O1_8 
REMARK    5  A    between atoms: O2_10  and  C4_11 
REMARK    6  A    between atoms: C4_11  and  O3_12 
REMARK    7  A    between atoms: C4_11  and  C5_14 
REMARK    8  A    between atoms: C7_16  and  C8_17 
REMARK    9  A    between atoms: C9_18  and  C10_19 
REMARK   10  A    between atoms: C10_19  and  S1_31 
REMARK   11  A    between atoms: C11_20  and  C12_21 
REMARK   12  A    between atoms: C12_21  and  O4_22 
REMARK   13  A    between atoms: O4_22  and  C13_23 
ROOT
HETATM    1  C8  UNL     1       0.028  -0.199   0.235  1.00  0.00     0.002 C 
HETATM    2  C9  UNL     1       1.290   0.004   0.453  1.00  0.00     0.021 C 
ENDROOT
BRANCH   1   3
HETATM    3  C7  UNL     1      -0.862   0.199  -0.817  1.00  0.00     0.007 C 
HETATM    4  C5  UNL     1      -2.154  -0.060  -0.877  1.00  0.00    -0.029 C 
HETATM    5  C6  UNL     1      -2.854   0.414  -2.139  1.00  0.00     0.048 C 
BRANCH   4   6
HETATM    6  C4  UNL     1      -2.961  -0.794   0.099  1.00  0.00     0.296 C 
BRANCH   6   7
HETATM    7  O2  UNL     1      -4.311  -0.303  -0.087  1.00  0.00    -0.285 OA
BRANCH   7   8
HETATM    8  C3  UNL     1      -5.325  -0.807   0.701  1.00  0.00     0.241 C 
HETATM    9  N2  UNL     1      -5.071  -0.876   1.974  1.00  0.00    -0.233 N 
ATOM     10  H2  UNL     1      -4.155  -0.558   2.291  1.00  0.00     0.198 HD
BRANCH   8  11
HETATM   11  N1  UNL     1      -6.578  -1.229   0.181  1.00  0.00    -0.355 N 
ATOM     12  H1  UNL     1      -6.829  -2.216   0.237  1.00  0.00     0.163 HD
BRANCH  11  13
HETATM   13  C2  UNL     1      -7.505  -0.308  -0.422  1.00  0.00     0.118 C 
HETATM   14  C1  UNL     1      -8.105   0.665   0.566  1.00  0.00     0.026 C 
ENDBRANCH  11  13
ENDBRANCH   8  11
BRANCH   9  15
HETATM   15  O1  UNL     1      -5.933  -1.339   2.912  1.00  0.00    -0.287 OA
ATOM     16  H1  UNL     1      -5.747  -1.389   3.842  1.00  0.00     0.244 HD
ENDBRANCH   9  15
ENDBRANCH   7   8
ENDBRANCH   6   7
BRANCH   6  17
HETATM   17  O3  UNL     1      -2.672  -0.476   1.437  1.00  0.00    -0.367 OA
ATOM     18  H3  UNL     1      -1.787  -0.798   1.559  1.00  0.00     0.213 HD
ENDBRANCH   6  17
ENDBRANCH   4   6
ENDBRANCH   1   3
BRANCH   2  19
HETATM   19  C10 UNL     1       2.282   0.720  -0.270  1.00  0.00     0.029 C 
HETATM   20  C11 UNL     1       3.578   0.700   0.146  1.00  0.00     0.020 C 
BRANCH  20  21
HETATM   21  C12 UNL     1       4.052  -0.015   1.311  1.00  0.00     0.204 C 
BRANCH  21  22
HETATM   22  O4  UNL     1       5.006  -0.975   0.997  1.00  0.00    -0.346 OA
BRANCH  22  23
HETATM   23  C13 UNL     1       6.244  -0.855   0.467  1.00  0.00     0.092 A 
HETATM   24  C14 UNL     1       6.879   0.313   0.124  1.00  0.00     0.062 A 
HETATM   25  C15 UNL     1       8.160   0.371  -0.419  1.00  0.00     0.036 A 
HETATM   26 CL1  UNL     1       8.923   1.885  -0.842  1.00  0.00    -0.084 Cl
HETATM   27  C16 UNL     1       8.863  -0.792  -0.637  1.00  0.00     0.026 A 
HETATM   28  C17 UNL     1       8.254  -1.976  -0.303  1.00  0.00     0.028 A 
HETATM   29  C18 UNL     1       6.989  -2.025   0.232  1.00  0.00     0.067 A 
HETATM   30 CL2  UNL     1       6.250  -3.548   0.641  1.00  0.00    -0.081 Cl
ENDBRANCH  22  23
ENDBRANCH  21  22
ENDBRANCH  20  21
BRANCH  19  31
HETATM   31  S1  UNL     1       1.996   1.863  -1.556  1.00  0.00     0.045 S 
HETATM   32  C19 UNL     1       0.891   3.148  -1.234  1.00  0.00     0.133 C 
HETATM   33  O5  UNL     1       2.028   1.204  -3.048  1.00  0.00    -0.253 OA
ENDBRANCH  19  31
ENDBRANCH   2  19
TORSDOF 13
