REMARK  11 active torsions:
REMARK  status: ('A' for Active; 'I' for Inactive)
REMARK    1  A    between atoms: C2_2  and  C3_3 
REMARK    2  A    between atoms: C3_3  and  C4_4 
REMARK    3  A    between atoms: C4_4  and  C5_5 
REMARK    4  A    between atoms: C5_5  and  O2_7 
REMARK    5  A    between atoms: O2_7  and  C6_8 
REMARK    6  A    between atoms: C12_17  and  C13_18 
REMARK    7  A    between atoms: C13_18  and  O4_20 
REMARK    8  A    between atoms: C16_24  and  N2_25 
REMARK    9  A    between atoms: N2_25  and  C17_27 
REMARK   10  A    between atoms: C17_27  and  C18_28 
REMARK   11  A    between atoms: C17_27  and  C19_30 
ROOT
HETATM    1  C6  UNL     1      -0.521  -1.176  -0.508  1.00  0.00     0.176 C 
HETATM    2  C7  UNL     1       0.284  -2.280  -1.155  1.00  0.00     0.155 C 
HETATM    3  N1  UNL     1       1.402  -2.733  -0.380  1.00  0.00    -0.385 N 
ATOM      4  H1  UNL     1       1.607  -3.727  -0.276  1.00  0.00     0.159 HD
HETATM    5  C8  UNL     1       2.207  -1.751   0.233  1.00  0.00     0.059 A 
HETATM    6  C9  UNL     1       1.692  -0.521   0.445  1.00  0.00    -0.004 A 
HETATM    7  C10 UNL     1       2.501   0.434   1.047  1.00  0.00     0.036 A 
HETATM    8  C11 UNL     1       3.793   0.186   1.435  1.00  0.00     0.052 A 
HETATM    9 CL1  UNL     1       4.797   1.405   2.194  1.00  0.00    -0.083 Cl
HETATM   10  C12 UNL     1       4.279  -1.080   1.201  1.00  0.00     0.085 A 
HETATM   11  C15 UNL     1       3.488  -2.042   0.603  1.00  0.00     0.079 A 
HETATM   12 CL2  UNL     1       4.132  -3.645   0.317  1.00  0.00    -0.081 Cl
HETATM   13  C16 UNL     1       0.314  -0.081   0.093  1.00  0.00     0.144 C 
ENDROOT
BRANCH  13  14
HETATM   14  N2  UNL     1       0.474   1.070  -0.746  1.00  0.00    -0.400 N 
ATOM     15  H2  UNL     1       1.399   1.335  -1.084  1.00  0.00     0.154 HD
BRANCH  14  16
HETATM   16  C17 UNL     1      -0.651   1.828  -1.099  1.00  0.00     0.142 C 
BRANCH  16  17
HETATM   17  C18 UNL     1      -1.380   2.524  -0.035  1.00  0.00     0.256 C 
HETATM   18  O5  UNL     1      -0.993   2.473   1.107  1.00  0.00    -0.305 OA
ENDBRANCH  16  17
BRANCH  16  19
HETATM   19  C19 UNL     1      -0.180   2.842  -2.160  1.00  0.00     0.006 C 
HETATM   20  C20 UNL     1       0.908   3.727  -1.576  1.00  0.00     0.012 C 
HETATM   21  C21 UNL     1      -1.354   3.662  -2.636  1.00  0.00     0.012 C 
ENDBRANCH  16  19
ENDBRANCH  14  16
ENDBRANCH  13  14
BRANCH   1  22
HETATM   22  O2  UNL     1      -1.483  -1.687   0.388  1.00  0.00    -0.312 OA
BRANCH  22  23
HETATM   23  C5  UNL     1      -2.860  -1.593   0.138  1.00  0.00     0.259 C 
HETATM   24  O1  UNL     1      -3.146  -1.016  -0.944  1.00  0.00    -0.265 OA
BRANCH  23  25
HETATM   25  C4  UNL     1      -3.857  -2.130   1.076  1.00  0.00     0.111 C 
BRANCH  25  26
HETATM   26  C3  UNL     1      -5.280  -1.925   0.680  1.00  0.00     0.009 C 
BRANCH  26  27
HETATM   27  C2  UNL     1      -5.717  -0.504   0.543  1.00  0.00    -0.004 C 
HETATM   28  C1  UNL     1      -5.558   0.266   1.836  1.00  0.00     0.005 C 
ENDBRANCH  26  27
ENDBRANCH  25  26
ENDBRANCH  23  25
ENDBRANCH  22  23
ENDBRANCH   1  22
BRANCH  10  29
HETATM   29  C13 UNL     1       5.644  -1.379   1.599  1.00  0.00     0.296 C 
HETATM   30  O3  UNL     1       5.894  -1.819   2.731  1.00  0.00    -0.259 OA
BRANCH  29  31
HETATM   31  O4  UNL     1       6.655  -1.159   0.681  1.00  0.00    -0.322 OA
HETATM   32  C14 UNL     1       8.004  -1.420   0.979  1.00  0.00     0.213 C 
ENDBRANCH  29  31
ENDBRANCH  10  29
TORSDOF 11
