REMARK  12 active torsions:
REMARK  status: ('A' for Active; 'I' for Inactive)
REMARK    1  A    between atoms: C2_2  and  C4_4 
REMARK    2  A    between atoms: C4_4  and  N1_5 
REMARK    3  A    between atoms: C4_4  and  C10_16 
REMARK       I    between atoms: N1_5  and  C5_7 
REMARK    4  A    between atoms: C5_7  and  C6_9 
REMARK    5  A    between atoms: C6_9  and  O2_12 
REMARK    6  A    between atoms: O2_12  and  C8_13 
REMARK    7  A    between atoms: C8_13  and  C9_14 
REMARK    8  A    between atoms: C10_16  and  C16_26 
REMARK    9  A    between atoms: C11_17  and  C12_18 
REMARK   10  A    between atoms: C15_22  and  O3_23 
REMARK   11  A    between atoms: C16_26  and  O6_28 
REMARK   12  A    between atoms: O6_28  and  C17_29 
ROOT
HETATM    1  C6  UNL     1       3.465  -1.875   0.718  1.00  0.00     0.319 C 
HETATM    2  C7  UNL     1       2.443  -2.837   1.201  1.00  0.00     0.101 C 
HETATM    3  N2  UNL     1       1.641  -3.574   1.567  1.00  0.00    -0.194 NA
ENDROOT
BRANCH   1   4
HETATM    4  C5  UNL     1       2.766  -0.758  -0.044  1.00  0.00     0.265 C 
HETATM    5  N1  UNL     1       1.868   0.086   0.577  1.00  0.00    -0.326 N 
ATOM      6  H1  UNL     1       1.708  -0.114   1.564  1.00  0.00     0.168 HD
HETATM    7  O1  UNL     1       3.070  -0.673  -1.253  1.00  0.00    -0.269 OA
BRANCH   5   8
HETATM    8  C4  UNL     1       1.139   1.174   0.074  1.00  0.00     0.032 C 
BRANCH   8   9
HETATM    9  C2  UNL     1       1.486   1.696  -1.278  1.00  0.00     0.028 C 
HETATM   10  C1  UNL     1       2.888   2.253  -1.324  1.00  0.00     0.016 C 
HETATM   11  C3  UNL     1       0.480   2.733  -1.762  1.00  0.00     0.016 C 
ENDBRANCH   8   9
BRANCH   8  12
HETATM   12  C10 UNL     1      -0.339   1.056   0.301  1.00  0.00     0.065 C 
HETATM   13  C11 UNL     1      -0.879   1.797   1.214  1.00  0.00     0.057 C 
BRANCH  13  14
HETATM   14  C12 UNL     1      -2.265   1.887   1.645  1.00  0.00     0.081 A 
HETATM   15  C13 UNL     1      -2.901   3.126   1.831  1.00  0.00     0.066 A 
HETATM   16  C14 UNL     1      -4.191   2.862   2.240  1.00  0.00     0.095 A 
HETATM   17 CL2  UNL     1      -5.443   4.061   2.621  1.00  0.00    -0.079 Cl
HETATM   18  C15 UNL     1      -4.298   1.490   2.290  1.00  0.00     0.206 A 
HETATM   19  O4  UNL     1      -3.157   0.986   1.937  1.00  0.00    -0.287 OA
BRANCH  18  20
HETATM   20  O3  UNL     1      -5.462   0.791   2.664  1.00  0.00    -0.339 OA
ATOM     21  H3  UNL     1      -5.536  -0.155   2.698  1.00  0.00     0.220 HD
ENDBRANCH  18  20
ENDBRANCH  13  14
BRANCH  12  22
HETATM   22  C16 UNL     1      -1.049   0.151  -0.544  1.00  0.00     0.296 C 
HETATM   23  O5  UNL     1      -0.473  -0.569  -1.428  1.00  0.00    -0.259 OA
BRANCH  22  24
HETATM   24  O6  UNL     1      -2.407  -0.013  -0.473  1.00  0.00    -0.307 OA
BRANCH  24  25
HETATM   25  C17 UNL     1      -3.132  -0.904  -1.298  1.00  0.00     0.060 C 
HETATM   26  C18 UNL     1      -2.657  -2.343  -1.104  1.00  0.00     0.046 C 
HETATM   27  C19 UNL     1      -4.580  -0.857  -0.852  1.00  0.00     0.046 C 
HETATM   28  C20 UNL     1      -3.039  -0.585  -2.758  1.00  0.00     0.046 C 
ENDBRANCH  24  25
ENDBRANCH  22  24
ENDBRANCH  12  22
ENDBRANCH   8  12
ENDBRANCH   5   8
ENDBRANCH   1   4
BRANCH   1  29
HETATM   29  O2  UNL     1       4.318  -2.594  -0.081  1.00  0.00    -0.361 OA
BRANCH  29  30
HETATM   30  C8  UNL     1       5.637  -2.599   0.348  1.00  0.00     0.185 C 
BRANCH  30  31
HETATM   31  C9  UNL     1       5.808  -3.214   1.707  1.00  0.00     0.141 C 
HETATM   32 CL1  UNL     1       7.522  -3.193   2.205  1.00  0.00    -0.128 Cl
ENDBRANCH  30  31
ENDBRANCH  29  30
ENDBRANCH   1  29
TORSDOF 12
