REMARK  3 active torsions:
REMARK  status: ('A' for Active; 'I' for Inactive)
REMARK    1  A    between atoms: C3_3  and  C4_4 
REMARK    2  A    between atoms: C7_7  and  C8_8 
REMARK    3  A    between atoms: N1_9  and  C9_11 
ROOT
HETATM    1  C1  UNL     1       6.214   0.505  -1.717  1.00  0.00     0.112 C 
HETATM    2  C2  UNL     1       5.160   0.191  -0.751  1.00  0.00    -0.110 C 
HETATM    3  C3  UNL     1       4.306  -0.065   0.060  1.00  0.00    -0.094 C 
ENDROOT
BRANCH   3   4
HETATM    4  C4  UNL     1       3.270  -0.395   1.075  1.00  0.00     0.145 A 
HETATM    5  C5  UNL     1       2.654  -1.685   0.792  1.00  0.00    -0.003 A 
HETATM    6  C6  UNL     1       1.366  -1.878   0.616  1.00  0.00     0.028 A 
HETATM    7  C7  UNL     1       0.434  -0.726   0.702  1.00  0.00     0.045 A 
HETATM    8  N2  UNL     1       0.975   0.381   0.946  1.00  0.00    -0.354 N 
HETATM    9  C14 UNL     1       2.318   0.725   1.152  1.00  0.00     0.227 A 
ATOM     10  H2  UNL     1       0.325   1.165   1.004  1.00  0.00     0.162 HD
HETATM   11  C15 UNL     1       2.452   1.387   2.487  1.00  0.00     0.108 C 
HETATM   12  C16 UNL     1       2.699   1.762   0.134  1.00  0.00     0.108 C 
HETATM   13  N3  UNL     1       2.570   1.884   3.510  1.00  0.00    -0.193 NA
HETATM   14  N4  UNL     1       2.972   2.566  -0.648  1.00  0.00    -0.193 NA
BRANCH   7  15
HETATM   15  C8  UNL     1      -0.997  -0.924   0.510  1.00  0.00     0.112 C 
HETATM   16  N1  UNL     1      -1.789   0.068   0.585  1.00  0.00    -0.392 N 
ATOM     17  H1  UNL     1      -1.366   0.975   0.782  1.00  0.00     0.159 HD
BRANCH  16  18
HETATM   18  C9  UNL     1      -3.200   0.048   0.424  1.00  0.00     0.081 C 
HETATM   19  C10 UNL     1      -3.801   1.329  -0.045  1.00  0.00     0.025 C 
HETATM   20  C11 UNL     1      -5.064   0.966  -0.819  1.00  0.00     0.002 C 
HETATM   21  C12 UNL     1      -5.105  -0.541  -0.812  1.00  0.00     0.002 C 
HETATM   22  C13 UNL     1      -3.683  -1.001  -0.550  1.00  0.00     0.025 C 
ENDBRANCH  16  18
ENDBRANCH   7  15
ENDBRANCH   3   4
TORSDOF 3
