REMARK  3 active torsions:
REMARK  status: ('A' for Active; 'I' for Inactive)
REMARK    1  A    between atoms: C2_2  and  C3_3 
REMARK    2  A    between atoms: C3_3  and  N1_4 
REMARK    3  A    between atoms: N1_4  and  C4_6 
ROOT
HETATM    1  C4  UNL     1      -0.134   0.523  -0.476  1.00  0.00     0.120 A 
HETATM    2  N2  UNL     1      -0.514   1.475  -1.369  1.00  0.00    -0.338 N 
ATOM      3  H2  UNL     1       0.227   1.994  -1.841  1.00  0.00     0.168 HD
HETATM    4  C5  UNL     1      -1.763   1.786  -1.679  1.00  0.00     0.183 A 
HETATM    5  N3  UNL     1      -2.751   1.121  -1.076  1.00  0.00    -0.338 N 
ATOM      6  H3  UNL     1      -3.720   1.345  -1.300  1.00  0.00     0.168 HD
HETATM    7  C6  UNL     1      -2.481   0.156  -0.173  1.00  0.00     0.120 A 
HETATM    8  N4  UNL     1      -3.300  -0.635   0.551  1.00  0.00    -0.351 N 
ATOM      9  H4  UNL     1      -4.319  -0.616   0.517  1.00  0.00     0.166 HD
HETATM   10  C7  UNL     1      -2.568  -1.446   1.319  1.00  0.00     0.091 A 
HETATM   11  C8  UNL     1      -1.230  -1.177   1.089  1.00  0.00     0.036 A 
HETATM   12  C9  UNL     1      -1.163  -0.170   0.153  1.00  0.00     0.053 A 
ENDROOT
BRANCH   1  13
HETATM   13  N1  UNL     1       1.059   0.283  -0.232  1.00  0.00    -0.352 N 
ATOM     14  H1  UNL     1       1.671   0.885  -0.783  1.00  0.00     0.166 HD
BRANCH  13  15
HETATM   15  C3  UNL     1       1.798  -0.566   0.572  1.00  0.00     0.089 C 
BRANCH  15  16
HETATM   16  C2  UNL     1       3.291  -0.410   0.418  1.00  0.00     0.007 C 
HETATM   17  C1  UNL     1       3.842   0.451  -0.400  1.00  0.00     0.012 C 
ENDBRANCH  15  16
ENDBRANCH  13  15
ENDBRANCH   1  13
TORSDOF 3
