REMARK  5 active torsions:
REMARK  status: ('A' for Active; 'I' for Inactive)
REMARK    1  A    between atoms: C2_2  and  C3_3 
REMARK    2  A    between atoms: C3_3  and  C4_4 
REMARK    3  A    between atoms: C4_4  and  C5_5 
REMARK    4  A    between atoms: C6_6  and  C7_7 
REMARK    5  A    between atoms: C10_13  and  N3_14 
ROOT
HETATM    1  C7  UNL     1      -1.946  -0.490   0.344  1.00  0.00     0.079 A 
HETATM    2  C8  UNL     1      -2.871  -1.376   0.861  1.00  0.00     0.131 A 
HETATM    3  N1  UNL     1      -4.100  -1.024   0.401  1.00  0.00    -0.307 N 
ATOM      4  H1  UNL     1      -4.971  -1.506   0.623  1.00  0.00     0.186 HD
HETATM    5  N2  UNL     1      -3.995   0.040  -0.379  1.00  0.00    -0.281 N 
HETATM    6  C9  UNL     1      -5.111   0.698  -1.050  1.00  0.00     0.179 C 
HETATM    7  C10 UNL     1      -2.690   0.385  -0.431  1.00  0.00     0.136 A 
ENDROOT
BRANCH   1   8
HETATM    8  C6  UNL     1      -0.511  -0.466   0.554  1.00  0.00    -0.062 C 
HETATM    9  C5  UNL     1       0.684  -0.428   0.721  1.00  0.00    -0.101 C 
BRANCH   9  10
HETATM   10  C4  UNL     1       2.146  -0.363   0.907  1.00  0.00     0.094 C 
BRANCH  10  11
HETATM   11  C3  UNL     1       2.778  -0.362  -0.453  1.00  0.00     0.012 C 
BRANCH  11  12
HETATM   12  C2  UNL     1       4.293  -0.295  -0.267  1.00  0.00    -0.004 C 
HETATM   13  C1  UNL     1       4.705   0.946   0.472  1.00  0.00     0.005 C 
ENDBRANCH  11  12
ENDBRANCH  10  11
ENDBRANCH   9  10
ENDBRANCH   1   8
BRANCH   7  14
HETATM   14  N3  UNL     1      -2.234   1.381  -1.105  1.00  0.00    -0.383 N 
ATOM     15  H32 UNL     1      -1.249   1.642  -1.144  1.00  0.00     0.157 HD
ATOM     16  H31 UNL     1      -2.782   2.025  -1.676  1.00  0.00     0.157 HD
ENDBRANCH   7  14
TORSDOF 5
