REMARK  2 active torsions:
REMARK  status: ('A' for Active; 'I' for Inactive)
REMARK    1  A    between atoms: C4_6  and  C5_7 
REMARK    2  A    between atoms: C5_7  and  N2_8 
ROOT
HETATM    1  N2  UNL     1      -0.860  -0.814  -1.100  1.00  0.00    -0.222 N 
ATOM      2  H2  UNL     1      -0.874  -1.806  -1.338  1.00  0.00     0.178 HD
HETATM    3  C6  UNL     1      -1.758  -0.378  -0.277  1.00  0.00     0.678 A 
HETATM    4  N3  UNL     1      -2.703  -1.159   0.277  1.00  0.00    -0.201 N 
ATOM      5  H3  UNL     1      -2.806  -2.159   0.106  1.00  0.00     0.183 HD
HETATM    6  C7  UNL     1      -3.490  -0.437   1.085  1.00  0.00     0.123 A 
HETATM    7  C8  UNL     1      -3.021   0.848   1.036  1.00  0.00     0.123 A 
HETATM    8  N4  UNL     1      -1.965   0.853   0.198  1.00  0.00    -0.201 N 
ATOM      9  H4  UNL     1      -1.408   1.674  -0.038  1.00  0.00     0.183 HD
ENDROOT
BRANCH   1  10
HETATM   10  C5  UNL     1       0.146  -0.003  -1.695  1.00  0.00     0.178 C 
BRANCH  10  11
HETATM   11  C4  UNL     1       1.366   0.053  -0.830  1.00  0.00    -0.025 A 
HETATM   12  C3  UNL     1       2.474   0.783  -1.205  1.00  0.00     0.096 A 
HETATM   13  N1  UNL     1       3.584   0.852  -0.448  1.00  0.00    -0.375 N 
HETATM   14  C2  UNL     1       3.694   0.213   0.731  1.00  0.00     0.087 A 
ATOM     15  H1  UNL     1       4.371   1.409  -0.780  1.00  0.00     0.164 HD
HETATM   16  C1  UNL     1       2.601  -0.526   1.135  1.00  0.00     0.018 A 
HETATM   17  C9  UNL     1       1.451  -0.612   0.376  1.00  0.00     0.011 A 
ENDBRANCH  10  11
ENDBRANCH   1  10
TORSDOF 2
