REMARK  2 active torsions:
REMARK  status: ('A' for Active; 'I' for Inactive)
REMARK    1  A    between atoms: C4_4  and  C5_5 
REMARK    2  A    between atoms: C5_5  and  C6_6 
ROOT
HETATM    1  C1  UNL     1      -3.757   0.401   1.076  1.00  0.00     0.070 C 
HETATM    2  C2  UNL     1      -2.566  -0.069   0.307  1.00  0.00     0.024 A 
HETATM    3  C3  UNL     1      -1.509   0.712  -0.123  1.00  0.00     0.052 A 
HETATM    4  C4  UNL     1      -0.615  -0.095  -0.796  1.00  0.00     0.033 A 
HETATM    5  N3  UNL     1      -1.129  -1.338  -0.768  1.00  0.00    -0.304 N 
ATOM      6  H3  UNL     1      -0.702  -2.166  -1.182  1.00  0.00     0.186 HD
HETATM    7  N4  UNL     1      -2.279  -1.310  -0.116  1.00  0.00    -0.305 N 
ATOM      8  H4  UNL     1      -2.871  -2.125   0.045  1.00  0.00     0.186 HD
ENDROOT
BRANCH   4   9
HETATM    9  C5  UNL     1       0.659   0.368  -1.415  1.00  0.00     0.117 C 
BRANCH   9  10
HETATM   10  C6  UNL     1       1.789   0.287  -0.453  1.00  0.00     0.031 A 
HETATM   11  C7  UNL     1       2.583  -0.824  -0.314  1.00  0.00     0.114 A 
HETATM   12  N1  UNL     1       3.495  -0.566   0.625  1.00  0.00    -0.360 N 
HETATM   13  C8  UNL     1       3.272   0.684   1.063  1.00  0.00     0.180 A 
ATOM     14  H1  UNL     1       4.225  -1.200   0.950  1.00  0.00     0.166 HD
HETATM   15  N2  UNL     1       2.229   1.216   0.408  1.00  0.00    -0.354 N 
ATOM     16  H2  UNL     1       1.843   2.151   0.540  1.00  0.00     0.166 HD
ENDBRANCH   9  10
ENDBRANCH   4   9
TORSDOF 2
