REMARK  14 active torsions:
REMARK  status: ('A' for Active; 'I' for Inactive)
REMARK    1  A    between atoms: C2_2  and  C3_3 
REMARK    2  A    between atoms: C3_3  and  C5_5 
REMARK    3  A    between atoms: C7_10  and  C8_11 
REMARK    4  A    between atoms: C8_11  and  C9_12 
REMARK    5  A    between atoms: C9_12  and  C10_13 
REMARK    6  A    between atoms: C10_13  and  C11_14 
REMARK    7  A    between atoms: C11_14  and  C12_15 
REMARK    8  A    between atoms: C12_15  and  C13_16 
REMARK    9  A    between atoms: C13_16  and  C14_18 
REMARK   10  A    between atoms: C14_18  and  C15_19 
REMARK   11  A    between atoms: C15_19  and  C19_25 
REMARK   12  A    between atoms: C16_20  and  C17_21 
REMARK   13  A    between atoms: C17_21  and  O4_23 
REMARK   14  A    between atoms: C24_30  and  O5_31 
ROOT
HETATM    1  C5  UNL     1      -4.902  -0.332   0.209  1.00  0.00     0.181 C 
HETATM    2  N1  UNL     1      -4.537   0.173  -1.067  1.00  0.00    -0.347 N 
ATOM      3  H1  UNL     1      -5.171   0.887  -1.426  1.00  0.00     0.163 HD
HETATM    4  C6  UNL     1      -3.473  -0.124  -1.923  1.00  0.00     0.223 C 
HETATM    5  O1  UNL     1      -3.819  -0.181  -3.174  1.00  0.00    -0.273 OA
HETATM    6  C7  UNL     1      -2.053  -0.380  -1.670  1.00  0.00     0.085 C 
HETATM    7  C23 UNL     1      -1.205   0.864  -1.930  1.00  0.00     0.098 C 
HETATM    8  C24 UNL     1      -1.016   1.743  -0.787  1.00  0.00     0.126 C 
HETATM    9  N2  UNL     1      -1.823   2.044   0.295  1.00  0.00    -0.251 N 
ATOM     10  H2  UNL     1      -1.452   1.737   1.194  1.00  0.00     0.182 HD
HETATM   11  S1  UNL     1      -3.333   2.840   0.393  1.00  0.00     0.327 S 
HETATM   12  O6  UNL     1      -3.854   3.349  -0.909  1.00  0.00    -0.182 OA
HETATM   13  O7  UNL     1      -2.994   4.145   1.145  1.00  0.00    -0.182 OA
HETATM   14  N3  UNL     1      -4.522   1.987   1.300  1.00  0.00    -0.235 N 
ATOM     15  H3  UNL     1      -5.148   2.555   1.871  1.00  0.00     0.183 HD
HETATM   16  C25 UNL     1      -4.729   0.597   1.343  1.00  0.00     0.255 C 
HETATM   17  O8  UNL     1      -4.776   0.061   2.502  1.00  0.00    -0.270 OA
ENDROOT
BRANCH   6  18
HETATM   18  C8  UNL     1      -1.692  -1.096  -0.421  1.00  0.00     0.014 C 
BRANCH  18  19
HETATM   19  C9  UNL     1      -0.187  -1.348  -0.280  1.00  0.00     0.001 C 
BRANCH  19  20
HETATM   20  C10 UNL     1       0.052  -2.077   1.013  1.00  0.00     0.000 C 
BRANCH  20  21
HETATM   21  C11 UNL     1       1.514  -2.347   1.181  1.00  0.00     0.007 C 
BRANCH  21  22
HETATM   22  C12 UNL     1       2.379  -1.119   1.218  1.00  0.00     0.078 C 
BRANCH  22  23
HETATM   23  C13 UNL     1       3.812  -1.483   1.396  1.00  0.00     0.130 C 
HETATM   24  O2  UNL     1       4.101  -2.654   1.484  1.00  0.00    -0.298 OA
BRANCH  23  25
HETATM   25  C14 UNL     1       4.854  -0.451   1.465  1.00  0.00     0.113 C 
BRANCH  25  26
HETATM   26  C15 UNL     1       5.390   0.049   0.203  1.00  0.00    -0.060 C 
HETATM   27  C16 UNL     1       5.286   1.295  -0.166  1.00  0.00     0.086 C 
BRANCH  27  28
HETATM   28  C17 UNL     1       4.656   2.372   0.555  1.00  0.00     0.282 C 
HETATM   29  O3  UNL     1       4.084   2.370   1.648  1.00  0.00    -0.260 OA
BRANCH  28  30
HETATM   30  O4  UNL     1       4.695   3.638  -0.086  1.00  0.00    -0.323 OA
HETATM   31  C18 UNL     1       4.104   4.757   0.543  1.00  0.00     0.213 C 
ENDBRANCH  28  30
ENDBRANCH  27  28
BRANCH  26  32
HETATM   32  C19 UNL     1       6.103  -0.908  -0.700  1.00  0.00    -0.027 C 
HETATM   33  C20 UNL     1       6.756  -0.177  -1.853  1.00  0.00     0.019 C 
HETATM   34  C21 UNL     1       5.232  -1.964  -1.292  1.00  0.00     0.019 C 
HETATM   35  C22 UNL     1       7.249  -1.590   0.059  1.00  0.00     0.019 C 
ENDBRANCH  26  32
ENDBRANCH  25  26
ENDBRANCH  23  25
ENDBRANCH  22  23
ENDBRANCH  21  22
ENDBRANCH  20  21
ENDBRANCH  19  20
ENDBRANCH  18  19
ENDBRANCH   6  18
BRANCH   8  36
HETATM   36  O5  UNL     1       0.134   2.362  -0.786  1.00  0.00    -0.349 OA
ATOM     37  H5  UNL     1       0.257   2.936  -0.039  1.00  0.00     0.219 HD
ENDBRANCH   8  36
BRANCH   1  38
HETATM   38  C3  UNL     1      -6.242  -1.016   0.257  1.00  0.00     0.013 C 
HETATM   39  C4  UNL     1      -6.229  -2.289  -0.609  1.00  0.00     0.012 C 
BRANCH  38  40
HETATM   40  C2  UNL     1      -7.443  -0.253  -0.119  1.00  0.00     0.002 C 
HETATM   41  C1  UNL     1      -7.683   1.040   0.597  1.00  0.00     0.005 C 
ENDBRANCH  38  40
ENDBRANCH   1  38
TORSDOF 14
