REMARK  12 active torsions:
REMARK  status: ('A' for Active; 'I' for Inactive)
REMARK       I    between atoms: N1_2  and  C2_4 
REMARK    1  A    between atoms: C2_4  and  C3_6 
REMARK    2  A    between atoms: C5_8  and  C6_9 
REMARK    3  A    between atoms: C6_9  and  C7_10 
REMARK       I    between atoms: C7_10  and  N2_12 
REMARK    4  A    between atoms: N2_12  and  C8_14 
REMARK    5  A    between atoms: C9_19  and  C10_20 
REMARK    6  A    between atoms: C10_20  and  C11_21 
REMARK    7  A    between atoms: C11_21  and  C12_22 
REMARK    8  A    between atoms: C12_22  and  C13_23 
REMARK    9  A    between atoms: C13_23  and  C14_24 
REMARK       I    between atoms: N7_30  and  C16_32 
REMARK   10  A    between atoms: C16_32  and  C17_34 
REMARK   11  A    between atoms: C17_34  and  C18_35 
REMARK   12  A    between atoms: C18_35  and  C19_36 
ROOT
HETATM    1  C8  UNL     1       4.383   0.451  -2.352  1.00  0.00     0.167 A 
HETATM    2  N3  UNL     1       3.351   0.791  -3.128  1.00  0.00    -0.279 N 
ATOM      3  H3  UNL     1       3.505   1.270  -4.015  1.00  0.00     0.189 HD
HETATM    4  N4  UNL     1       2.179   0.510  -2.745  1.00  0.00    -0.296 N 
ATOM      5  H4  UNL     1       1.386   0.766  -3.333  1.00  0.00     0.187 HD
HETATM    6  C9  UNL     1       1.961  -0.108  -1.599  1.00  0.00     0.069 A 
HETATM    7  S2  UNL     1       3.594  -0.296  -1.034  1.00  0.00    -0.038 SA
ENDROOT
BRANCH   6   8
HETATM    8  C10 UNL     1       0.708  -0.559  -0.917  1.00  0.00     0.066 C 
BRANCH   8   9
HETATM    9  C11 UNL     1      -0.519  -0.182  -1.685  1.00  0.00     0.007 C 
BRANCH   9  10
HETATM   10  C12 UNL     1      -0.660   1.304  -1.780  1.00  0.00     0.007 C 
BRANCH  10  11
HETATM   11  C13 UNL     1      -1.866   1.769  -2.558  1.00  0.00     0.066 C 
BRANCH  11  12
HETATM   12  C14 UNL     1      -3.149   1.365  -1.940  1.00  0.00     0.069 A 
HETATM   13  N5  UNL     1      -3.336   0.756  -0.797  1.00  0.00    -0.296 N 
HETATM   14  N6  UNL     1      -4.500   0.457  -0.383  1.00  0.00    -0.279 N 
ATOM     15  H5  UNL     1      -2.527   0.515  -0.224  1.00  0.00     0.187 HD
HETATM   16  C15 UNL     1      -5.555   0.770  -1.130  1.00  0.00     0.167 A 
ATOM     17  H6  UNL     1      -4.624  -0.017   0.511  1.00  0.00     0.189 HD
HETATM   18  N7  UNL     1      -6.822   0.600  -0.987  1.00  0.00    -0.306 N 
HETATM   19  S1  UNL     1      -4.759   1.534  -2.485  1.00  0.00    -0.038 SA
HETATM   20  C16 UNL     1      -7.461  -0.008   0.081  1.00  0.00     0.223 C 
ATOM     21  H7  UNL     1      -7.418   0.949  -1.738  1.00  0.00     0.171 HD
HETATM   22  O3  UNL     1      -6.848  -0.676   0.932  1.00  0.00    -0.273 OA
BRANCH  20  23
HETATM   23  C17 UNL     1      -8.945   0.087   0.297  1.00  0.00     0.104 C 
BRANCH  23  24
HETATM   24  C18 UNL     1      -9.365  -0.540   1.589  1.00  0.00     0.017 C 
BRANCH  24  25
HETATM   25  C19 UNL     1     -10.844  -0.463   1.826  1.00  0.00    -0.051 C 
HETATM   26  C20 UNL     1     -11.128  -1.134   3.171  1.00  0.00     0.014 C 
HETATM   27  C21 UNL     1     -11.381   0.931   1.891  1.00  0.00     0.014 C 
HETATM   28  C22 UNL     1     -11.562  -1.282   0.765  1.00  0.00     0.014 C 
ENDBRANCH  24  25
ENDBRANCH  23  24
ENDBRANCH  20  23
ENDBRANCH  11  12
ENDBRANCH  10  11
ENDBRANCH   9  10
ENDBRANCH   8   9
ENDBRANCH   6   8
BRANCH   1  29
HETATM   29  N2  UNL     1       5.653   0.660  -2.584  1.00  0.00    -0.306 N 
HETATM   30  C7  UNL     1       6.586   0.211  -1.616  1.00  0.00     0.229 C 
HETATM   31  O2  UNL     1       6.201  -0.098  -0.484  1.00  0.00    -0.273 OA
ATOM     32  H2  UNL     1       5.962   1.131  -3.434  1.00  0.00     0.171 HD
BRANCH  30  33
HETATM   33  C6  UNL     1       8.002   0.132  -2.016  1.00  0.00     0.160 C 
BRANCH  33  34
HETATM   34  C5  UNL     1       8.869  -0.374  -0.924  1.00  0.00     0.020 A 
HETATM   35  C4  UNL     1       9.513   0.362   0.045  1.00  0.00     0.044 A 
HETATM   36  C3  UNL     1      10.225  -0.469   0.881  1.00  0.00     0.049 A 
HETATM   37  C24 UNL     1       9.994  -1.755   0.386  1.00  0.00     0.107 A 
HETATM   38  N8  UNL     1       9.187  -1.679  -0.685  1.00  0.00    -0.363 N 
HETATM   39  C23 UNL     1       8.727  -2.812  -1.466  1.00  0.00     0.155 C 
BRANCH  36  40
HETATM   40  C2  UNL     1      11.054  -0.126   2.043  1.00  0.00     0.252 C 
HETATM   41  N1  UNL     1      11.184   1.230   2.399  1.00  0.00    -0.361 N 
HETATM   42  C1  UNL     1      11.991   1.609   3.535  1.00  0.00     0.149 C 
ATOM     43  H1  UNL     1      10.707   1.947   1.853  1.00  0.00     0.162 HD
HETATM   44  O1  UNL     1      11.640  -1.018   2.713  1.00  0.00    -0.268 OA
ENDBRANCH  36  40
ENDBRANCH  33  34
ENDBRANCH  30  33
ENDBRANCH   1  29
TORSDOF 12
