REMARK  15 active torsions:
REMARK  status: ('A' for Active; 'I' for Inactive)
REMARK    1  A    between atoms: C2_2  and  C3_3 
REMARK    2  A    between atoms: C3_3  and  C4_4 
REMARK    3  A    between atoms: C4_4  and  C5_5 
REMARK    4  A    between atoms: C5_5  and  O1_6 
REMARK    5  A    between atoms: O1_6  and  C6_7 
REMARK       I    between atoms: C6_7  and  N1_9 
REMARK    6  A    between atoms: C10_13  and  C11_14 
REMARK       I    between atoms: C11_14  and  N2_16 
REMARK    7  A    between atoms: N2_16  and  C12_18 
REMARK    8  A    between atoms: C13_22  and  C14_23 
REMARK    9  A    between atoms: C14_23  and  C17_26 
REMARK   10  A    between atoms: C19_28  and  N4_29 
REMARK       I    between atoms: N4_29  and  C20_31 
REMARK   11  A    between atoms: C20_31  and  C21_33 
REMARK       I    between atoms: C21_33  and  N5_35 
REMARK   12  A    between atoms: N5_35  and  C22_37 
REMARK   13  A    between atoms: C22_37  and  C23_38 
REMARK   14  A    between atoms: C23_38  and  C24_39 
REMARK   15  A    between atoms: C24_39  and  O8_41 
ROOT
HETATM    1  C12 UNL     1      -0.079   0.984  -2.547  1.00  0.00     0.158 A 
HETATM    2  N3  UNL     1       0.259   2.262  -2.762  1.00  0.00    -0.242 N 
ATOM      3  H3  UNL     1       0.758   2.613  -3.579  1.00  0.00     0.196 HD
HETATM    4  O4  UNL     1      -0.141   2.965  -1.786  1.00  0.00    -0.237 OA
HETATM    5  C13 UNL     1      -0.761   2.269  -0.852  1.00  0.00     0.115 A 
HETATM    6  C19 UNL     1      -0.739   0.982  -1.314  1.00  0.00     0.114 A 
ENDROOT
BRANCH   1   7
HETATM    7  N2  UNL     1       0.138  -0.080  -3.231  1.00  0.00    -0.308 N 
HETATM    8  C11 UNL     1       0.835  -0.158  -4.453  1.00  0.00     0.246 C 
HETATM    9  O3  UNL     1       0.235  -0.066  -5.549  1.00  0.00    -0.271 OA
ATOM     10  H2  UNL     1      -0.230  -0.953  -2.854  1.00  0.00     0.170 HD
BRANCH   8  11
HETATM   11  C10 UNL     1       2.317  -0.355  -4.497  1.00  0.00     0.182 C 
HETATM   12  N1  UNL     1       2.909  -0.283  -3.209  1.00  0.00    -0.315 N 
HETATM   13  C6  UNL     1       2.706  -1.171  -2.121  1.00  0.00     0.363 C 
HETATM   14  C7  UNL     1       3.759   0.882  -3.155  1.00  0.00     0.129 C 
HETATM   15  O2  UNL     1       1.975  -2.187  -2.217  1.00  0.00    -0.238 OA
HETATM   16  C8  UNL     1       3.873   1.471  -4.517  1.00  0.00     0.022 C 
HETATM   17  C9  UNL     1       2.961   0.667  -5.392  1.00  0.00     0.037 C 
BRANCH  13  18
HETATM   18  O1  UNL     1       3.310  -0.967  -0.878  1.00  0.00    -0.304 OA
BRANCH  18  19
HETATM   19  C5  UNL     1       3.127  -1.822   0.230  1.00  0.00     0.180 C 
BRANCH  19  20
HETATM   20  C4  UNL     1       3.957  -1.215   1.365  1.00  0.00     0.027 C 
BRANCH  20  21
HETATM   21  C3  UNL     1       3.821  -2.050   2.615  1.00  0.00     0.002 C 
BRANCH  21  22
HETATM   22  C2  UNL     1       4.635  -1.467   3.749  1.00  0.00    -0.004 C 
HETATM   23  C1  UNL     1       6.100  -1.416   3.393  1.00  0.00     0.005 C 
ENDBRANCH  21  22
ENDBRANCH  20  21
ENDBRANCH  19  20
ENDBRANCH  18  19
ENDBRANCH  13  18
ENDBRANCH   8  11
ENDBRANCH   1   7
BRANCH   6  24
HETATM   24  N4  UNL     1      -1.245  -0.166  -0.713  1.00  0.00    -0.314 N 
HETATM   25  C20 UNL     1      -2.532  -0.713  -0.854  1.00  0.00     0.314 C 
HETATM   26  O5  UNL     1      -3.385  -0.118  -1.605  1.00  0.00    -0.262 OA
ATOM     27  H4  UNL     1      -0.607  -0.670  -0.097  1.00  0.00     0.169 HD
BRANCH  25  28
HETATM   28  C21 UNL     1      -2.972  -1.930  -0.193  1.00  0.00     0.309 C 
HETATM   29  O6  UNL     1      -2.125  -2.545   0.483  1.00  0.00    -0.262 OA
HETATM   30  N5  UNL     1      -4.284  -2.400  -0.303  1.00  0.00    -0.352 N 
ATOM     31  H5  UNL     1      -4.943  -1.859  -0.863  1.00  0.00     0.162 HD
BRANCH  30  32
HETATM   32  C22 UNL     1      -4.757  -3.603   0.328  1.00  0.00     0.133 C 
BRANCH  32  33
HETATM   33  C23 UNL     1      -4.607  -3.521   1.805  1.00  0.00     0.130 C 
BRANCH  33  34
HETATM   34  C24 UNL     1      -5.369  -2.322   2.310  1.00  0.00     0.259 C 
HETATM   35  O7  UNL     1      -5.996  -1.583   1.529  1.00  0.00    -0.265 OA
BRANCH  34  36
HETATM   36  O8  UNL     1      -5.351  -2.070   3.666  1.00  0.00    -0.326 OA
HETATM   37  C25 UNL     1      -6.054  -0.949   4.166  1.00  0.00     0.213 C 
ENDBRANCH  34  36
ENDBRANCH  33  34
ENDBRANCH  32  33
ENDBRANCH  30  32
ENDBRANCH  25  28
ENDBRANCH   6  24
BRANCH   5  38
HETATM   38  C14 UNL     1      -1.316   2.839   0.375  1.00  0.00     0.006 C 
HETATM   39  C15 UNL     1      -0.677   2.209   1.624  1.00  0.00     0.022 C 
HETATM   40  C16 UNL     1      -0.864   4.316   0.445  1.00  0.00     0.022 C 
BRANCH  38  41
HETATM   41  C17 UNL     1      -2.800   2.894   0.471  1.00  0.00     0.011 C 
HETATM   42  C18 UNL     1      -3.136   3.533   1.829  1.00  0.00     0.006 C 
ENDBRANCH  38  41
ENDBRANCH   5  38
TORSDOF 15
