REMARK  12 active torsions:
REMARK  status: ('A' for Active; 'I' for Inactive)
REMARK    1  A    between atoms: C2_2  and  C4_4 
REMARK    2  A    between atoms: C4_4  and  C5_5 
REMARK    3  A    between atoms: C8_11  and  C9_12 
REMARK    4  A    between atoms: C13_19  and  C14_20 
REMARK    5  A    between atoms: N3_25  and  C18_26 
REMARK    6  A    between atoms: C18_26  and  C19_27 
REMARK    7  A    between atoms: C23_34  and  C24_35 
REMARK    8  A    between atoms: C24_35  and  C25_36 
REMARK    9  A    between atoms: C25_36  and  C26_37 
REMARK   10  A    between atoms: C26_37  and  N5_38 
REMARK   11  A    between atoms: C29_47  and  C30_48 
REMARK   12  A    between atoms: C30_48  and  C31_49 
ROOT
HETATM    1  C5  UNL     1       3.292  -0.097  -0.163  1.00  0.00     0.093 C 
HETATM    2  C6  UNL     1       2.504  -1.334   0.242  1.00  0.00     0.128 C 
HETATM    3  C7  UNL     1       2.395  -1.531   1.695  1.00  0.00     0.220 C 
HETATM    4  O1  UNL     1       3.320  -0.994   2.413  1.00  0.00    -0.274 OA
HETATM    5  N1  UNL     1       1.423  -2.223   2.412  1.00  0.00    -0.347 N 
ATOM      6  H1  UNL     1       0.885  -1.667   3.077  1.00  0.00     0.163 HD
HETATM    7  C8  UNL     1       1.070  -3.637   2.341  1.00  0.00     0.180 C 
HETATM    8  C12 UNL     1      -0.390  -3.858   2.216  1.00  0.00     0.241 C 
HETATM    9  O2  UNL     1      -1.052  -3.742   3.320  1.00  0.00    -0.271 OA
HETATM   10  N2  UNL     1      -1.104  -4.175   1.044  1.00  0.00    -0.346 N 
ATOM     11  H2  UNL     1      -1.638  -5.044   1.065  1.00  0.00     0.163 HD
HETATM   12  C13 UNL     1      -1.171  -3.419  -0.182  1.00  0.00     0.180 C 
HETATM   13  C17 UNL     1      -2.607  -2.979  -0.295  1.00  0.00     0.244 C 
HETATM   14  O3  UNL     1      -3.379  -3.658  -1.052  1.00  0.00    -0.271 OA
HETATM   15  N3  UNL     1      -3.188  -1.883   0.357  1.00  0.00    -0.326 N 
HETATM   16  C22 UNL     1      -2.476  -0.607   0.567  1.00  0.00     0.360 C 
HETATM   17  N4  UNL     1      -2.072  -0.118  -0.697  1.00  0.00    -0.046 N 
ATOM     18  H41 UNL     1      -2.836  -0.199  -1.368  1.00  0.00     0.280 HD
ATOM     19  H42 UNL     1      -1.396  -0.753  -1.122  1.00  0.00     0.280 HD
HETATM   20  C23 UNL     1      -1.545   1.257  -0.686  1.00  0.00     0.279 C 
HETATM   21  C28 UNL     1      -0.236   1.227  -1.391  1.00  0.00     0.249 C 
HETATM   22  O4  UNL     1      -0.046   0.217  -2.166  1.00  0.00    -0.271 OA
HETATM   23  N8  UNL     1       0.818   2.129  -1.342  1.00  0.00    -0.346 N 
ATOM     24  H8  UNL     1       1.200   2.385  -2.253  1.00  0.00     0.163 HD
HETATM   25  C29 UNL     1       1.461   2.762  -0.228  1.00  0.00     0.177 C 
HETATM   26  C34 UNL     1       1.986   1.872   0.810  1.00  0.00     0.240 C 
HETATM   27  O5  UNL     1       1.357   1.889   1.934  1.00  0.00    -0.271 OA
HETATM   28  N9  UNL     1       3.086   0.995   0.758  1.00  0.00    -0.354 N 
ATOM     29  H9  UNL     1       3.820   1.149   1.449  1.00  0.00     0.162 HD
ENDROOT
BRANCH  20  30
HETATM   30  C24 UNL     1      -2.576   2.025  -1.514  1.00  0.00     0.044 C 
BRANCH  30  31
HETATM   31  C25 UNL     1      -2.302   3.480  -1.643  1.00  0.00     0.022 C 
BRANCH  31  32
HETATM   32  C26 UNL     1      -2.334   4.224  -0.318  1.00  0.00     0.122 C 
BRANCH  32  33
HETATM   33  N5  UNL     1      -3.662   4.108   0.294  1.00  0.00    -0.367 N 
HETATM   34  C27 UNL     1      -4.486   5.090   0.318  1.00  0.00     0.196 C 
HETATM   35  N6  UNL     1      -4.056   6.326  -0.284  1.00  0.00    -0.067 NA
HETATM   36  N7  UNL     1      -5.765   5.047   0.885  1.00  0.00    -0.067 NA
ATOM     37  H5  UNL     1      -3.938   3.220   0.713  1.00  0.00     0.161 HD
ENDBRANCH  32  33
ENDBRANCH  31  32
ENDBRANCH  30  31
ENDBRANCH  20  30
BRANCH  15  38
HETATM   38  C18 UNL     1      -4.541  -2.032   0.863  1.00  0.00     0.131 C 
BRANCH  38  39
HETATM   39  C19 UNL     1      -5.622  -1.720  -0.113  1.00  0.00    -0.005 C 
HETATM   40  C20 UNL     1      -6.971  -1.949   0.601  1.00  0.00     0.011 C 
HETATM   41  C21 UNL     1      -5.646  -0.304  -0.604  1.00  0.00     0.011 C 
ENDBRANCH  38  39
ENDBRANCH  15  38
BRANCH  25  42
HETATM   42  C30 UNL     1       2.534   3.727  -0.748  1.00  0.00     0.038 C 
BRANCH  42  43
HETATM   43  C31 UNL     1       3.244   4.433   0.343  1.00  0.00    -0.020 C 
HETATM   44  C32 UNL     1       2.344   5.276   1.214  1.00  0.00     0.009 C 
HETATM   45  C33 UNL     1       4.284   5.344  -0.271  1.00  0.00     0.009 C 
ENDBRANCH  42  43
ENDBRANCH  25  42
BRANCH  12  46
HETATM   46  C14 UNL     1      -0.805  -4.312  -1.339  1.00  0.00     0.009 C 
HETATM   47  C15 UNL     1      -1.677  -5.499  -1.540  1.00  0.00     0.012 C 
HETATM   48  C16 UNL     1      -0.838  -3.491  -2.645  1.00  0.00     0.012 C 
ENDBRANCH  12  46
BRANCH   1  49
HETATM   49  C4  UNL     1       4.701  -0.512  -0.314  1.00  0.00     0.029 C 
BRANCH  49  50
HETATM   50  C2  UNL     1       5.717   0.482  -0.723  1.00  0.00    -0.021 C 
HETATM   51  C1  UNL     1       5.454   1.138  -2.060  1.00  0.00     0.009 C 
HETATM   52  C3  UNL     1       6.199   1.433   0.335  1.00  0.00     0.009 C 
ENDBRANCH  49  50
ENDBRANCH   1  49
BRANCH   7  53
HETATM   53  C9  UNL     1       1.905  -4.434   1.402  1.00  0.00     0.009 C 
HETATM   54  C10 UNL     1       1.379  -5.872   1.480  1.00  0.00     0.012 C 
HETATM   55  C11 UNL     1       3.327  -4.486   1.947  1.00  0.00     0.012 C 
ENDBRANCH   7  53
TORSDOF 12
