REMARK  13 active torsions:
REMARK  status: ('A' for Active; 'I' for Inactive)
REMARK    1  A    between atoms: C2_2  and  C3_3 
REMARK    2  A    between atoms: C3_3  and  C4_4 
REMARK    3  A    between atoms: C4_4  and  C5_5 
REMARK    4  A    between atoms: C5_5  and  C6_6 
REMARK    5  A    between atoms: C6_6  and  C7_7 
REMARK    6  A    between atoms: C13_18  and  C14_19 
REMARK    7  A    between atoms: C14_19  and  C15_20 
REMARK    8  A    between atoms: C19_27  and  C20_28 
REMARK    9  A    between atoms: C20_28  and  C21_29 
REMARK   10  A    between atoms: C26_39  and  O5_40 
REMARK   11  A    between atoms: C30_48  and  C31_49 
REMARK   12  A    between atoms: C31_49  and  C32_50 
REMARK   13  A    between atoms: C32_50  and  C33_51 
ROOT
HETATM    1  C7  UNL     1      -2.214   0.100   0.580  1.00  0.00     0.176 C 
HETATM    2  N1  UNL     1      -1.179  -0.231   1.535  1.00  0.00    -0.346 N 
ATOM      3  H1  UNL     1      -0.972   0.501   2.214  1.00  0.00     0.163 HD
HETATM    4  C8  UNL     1      -0.423  -1.386   1.674  1.00  0.00     0.240 C 
HETATM    5  O1  UNL     1      -0.460  -1.975   2.818  1.00  0.00    -0.271 OA
HETATM    6  C9  UNL     1       0.446  -2.059   0.667  1.00  0.00     0.174 C 
HETATM    7  C10 UNL     1       0.026  -3.526   0.519  1.00  0.00     0.042 C 
HETATM    8  N2  UNL     1       1.836  -2.074   1.067  1.00  0.00    -0.342 N 
HETATM    9  C11 UNL     1       2.123  -1.890   2.500  1.00  0.00     0.153 C 
HETATM   10  C12 UNL     1       2.909  -2.255   0.147  1.00  0.00     0.243 C 
HETATM   11  O2  UNL     1       4.063  -2.069   0.613  1.00  0.00    -0.271 OA
HETATM   12  C13 UNL     1       2.790  -2.627  -1.258  1.00  0.00     0.177 C 
HETATM   13  N3  UNL     1       3.065  -1.577  -2.222  1.00  0.00    -0.346 N 
ATOM     14  H3  UNL     1       2.878  -1.852  -3.186  1.00  0.00     0.163 HD
HETATM   15  C18 UNL     1       3.530  -0.276  -2.098  1.00  0.00     0.241 C 
HETATM   16  O3  UNL     1       4.715  -0.072  -2.565  1.00  0.00    -0.271 OA
HETATM   17  C19 UNL     1       2.877   0.918  -1.518  1.00  0.00     0.179 C 
HETATM   18  N5  UNL     1       2.064   1.593  -2.530  1.00  0.00    -0.359 N 
ATOM     19  H5  UNL     1       2.521   1.682  -3.437  1.00  0.00     0.162 HD
HETATM   20  C26 UNL     1       0.799   2.130  -2.487  1.00  0.00     0.135 C 
HETATM   21  C27 UNL     1       0.237   3.227  -1.661  1.00  0.00     0.155 C 
HETATM   22  C28 UNL     1       0.967   4.542  -1.865  1.00  0.00     0.041 C 
HETATM   23  N6  UNL     1       0.078   2.885  -0.265  1.00  0.00    -0.348 N 
ATOM     24  H6  UNL     1       0.844   2.388   0.190  1.00  0.00     0.163 HD
HETATM   25  C29 UNL     1      -1.063   3.189   0.517  1.00  0.00     0.241 C 
HETATM   26  O6  UNL     1      -0.884   3.526   1.716  1.00  0.00    -0.271 OA
HETATM   27  C30 UNL     1      -2.457   3.136   0.019  1.00  0.00     0.176 C 
HETATM   28  N7  UNL     1      -3.315   2.402   0.949  1.00  0.00    -0.346 N 
ATOM     29  H7  UNL     1      -4.026   2.926   1.459  1.00  0.00     0.163 HD
HETATM   30  C35 UNL     1      -3.221   1.011   1.185  1.00  0.00     0.241 C 
HETATM   31  O7  UNL     1      -4.073   0.501   1.985  1.00  0.00    -0.271 OA
ENDROOT
BRANCH  17  32
HETATM   32  C20 UNL     1       3.750   1.908  -0.847  1.00  0.00     0.074 C 
BRANCH  32  33
HETATM   33  C21 UNL     1       4.524   1.482   0.317  1.00  0.00    -0.040 A 
HETATM   34  C22 UNL     1       5.838   1.096   0.236  1.00  0.00     0.014 A 
HETATM   35  C23 UNL     1       6.593   0.669   1.335  1.00  0.00     0.075 A 
HETATM   36  C24 UNL     1       5.942   0.651   2.547  1.00  0.00     0.245 A 
HETATM   37  O4  UNL     1       6.610   0.266   3.556  1.00  0.00    -0.268 OA
HETATM   38  N4  UNL     1       4.648   1.030   2.634  1.00  0.00    -0.333 N 
HETATM   39  C25 UNL     1       3.934   1.435   1.589  1.00  0.00     0.098 A 
ATOM     40  H4  UNL     1       4.196   1.004   3.548  1.00  0.00     0.168 HD
ENDBRANCH  32  33
ENDBRANCH  17  32
BRANCH  20  41
HETATM   41  O5  UNL     1      -0.071   1.607  -3.301  1.00  0.00    -0.348 OA
ATOM     42  H5  UNL     1      -0.945   1.978  -3.271  1.00  0.00     0.219 HD
ENDBRANCH  20  41
BRANCH  12  43
HETATM   43  C14 UNL     1       3.707  -3.752  -1.640  1.00  0.00     0.038 C 
BRANCH  43  44
HETATM   44  C15 UNL     1       3.614  -5.065  -1.017  1.00  0.00    -0.020 C 
HETATM   45  C16 UNL     1       3.866  -5.183   0.450  1.00  0.00     0.009 C 
HETATM   46  C17 UNL     1       4.648  -6.013  -1.687  1.00  0.00     0.009 C 
ENDBRANCH  43  44
ENDBRANCH  12  43
BRANCH  27  47
HETATM   47  C31 UNL     1      -3.014   4.499  -0.278  1.00  0.00     0.035 C 
BRANCH  47  48
HETATM   48  C32 UNL     1      -3.045   5.413   0.917  1.00  0.00     0.002 C 
BRANCH  48  49
HETATM   49  C33 UNL     1      -3.635   6.745   0.447  1.00  0.00    -0.004 C 
HETATM   50  C34 UNL     1      -5.033   6.477  -0.081  1.00  0.00     0.005 C 
ENDBRANCH  48  49
ENDBRANCH  47  48
ENDBRANCH  27  47
BRANCH   1  51
HETATM   51  C6  UNL     1      -3.002  -1.114   0.096  1.00  0.00     0.035 C 
BRANCH  51  52
HETATM   52  C5  UNL     1      -4.009  -0.594  -0.873  1.00  0.00     0.002 C 
BRANCH  52  53
HETATM   53  C4  UNL     1      -4.928  -1.526  -1.542  1.00  0.00     0.000 C 
BRANCH  53  54
HETATM   54  C3  UNL     1      -5.973  -2.262  -0.843  1.00  0.00    -0.000 C 
BRANCH  54  55
HETATM   55  C2  UNL     1      -5.540  -3.154   0.261  1.00  0.00    -0.005 C 
HETATM   56  C1  UNL     1      -6.807  -3.920   0.742  1.00  0.00     0.005 C 
ENDBRANCH  54  55
ENDBRANCH  53  54
ENDBRANCH  52  53
ENDBRANCH  51  52
ENDBRANCH   1  51
TORSDOF 13
