REMARK  12 active torsions:
REMARK  status: ('A' for Active; 'I' for Inactive)
REMARK    1  A    between atoms: C2_2  and  C3_3 
REMARK    2  A    between atoms: C3_3  and  C5_5 
REMARK    3  A    between atoms: C7_10  and  C8_11 
REMARK    4  A    between atoms: C8_11  and  C9_12 
REMARK    5  A    between atoms: C9_12  and  C10_13 
REMARK    6  A    between atoms: C12_18  and  C13_19 
REMARK    7  A    between atoms: C13_19  and  C14_20 
REMARK    8  A    between atoms: C14_20  and  C15_21 
REMARK    9  A    between atoms: C20_29  and  C21_30 
REMARK   10  A    between atoms: C21_30  and  C22_31 
REMARK   11  A    between atoms: C26_38  and  C27_39 
REMARK   12  A    between atoms: C31_46  and  C32_47 
ROOT
HETATM    1  C5  UNL     1       2.041  -2.507   0.191  1.00  0.00     0.180 C 
HETATM    2  N1  UNL     1       1.479  -2.081   1.476  1.00  0.00    -0.346 N 
ATOM      3  H1  UNL     1       2.037  -2.370   2.280  1.00  0.00     0.163 HD
HETATM    4  C6  UNL     1       0.353  -1.371   1.817  1.00  0.00     0.241 C 
HETATM    5  O1  UNL     1       0.523  -0.272   2.481  1.00  0.00    -0.271 OA
HETATM    6  C7  UNL     1      -1.093  -1.642   1.558  1.00  0.00     0.173 C 
HETATM    7  N3  UNL     1      -1.873  -0.491   1.631  1.00  0.00    -0.384 N 
HETATM    8  C11 UNL     1      -2.297   0.016   2.888  1.00  0.00     0.146 C 
HETATM    9  C12 UNL     1      -2.952  -0.303   0.715  1.00  0.00     0.182 C 
HETATM   10  N4  UNL     1      -3.287   1.103   0.703  1.00  0.00    -0.338 N 
ATOM     11  H4  UNL     1      -4.157   1.338   1.181  1.00  0.00     0.164 HD
HETATM   12  C19 UNL     1      -2.623   2.181   0.151  1.00  0.00     0.242 C 
HETATM   13  O3  UNL     1      -3.298   3.029  -0.546  1.00  0.00    -0.271 OA
HETATM   14  C20 UNL     1      -1.189   2.560   0.218  1.00  0.00     0.177 C 
HETATM   15  N5  UNL     1      -0.599   2.374  -1.113  1.00  0.00    -0.346 N 
ATOM     16  H5  UNL     1      -1.164   1.825  -1.761  1.00  0.00     0.163 HD
HETATM   17  C25 UNL     1       0.608   2.828  -1.630  1.00  0.00     0.241 C 
HETATM   18  O4  UNL     1       0.544   3.614  -2.660  1.00  0.00    -0.271 OA
HETATM   19  C26 UNL     1       2.001   2.577  -1.219  1.00  0.00     0.180 C 
HETATM   20  N6  UNL     1       2.210   2.086   0.095  1.00  0.00    -0.346 N 
ATOM     21  H6  UNL     1       1.597   2.433   0.832  1.00  0.00     0.163 HD
HETATM   22  C30 UNL     1       3.217   1.140   0.462  1.00  0.00     0.241 C 
HETATM   23  O5  UNL     1       3.548   1.030   1.681  1.00  0.00    -0.271 OA
HETATM   24  C31 UNL     1       3.895   0.279  -0.522  1.00  0.00     0.180 C 
HETATM   25  N7  UNL     1       3.039  -0.602  -1.269  1.00  0.00    -0.346 N 
ATOM     26  H7  UNL     1       3.203  -0.626  -2.275  1.00  0.00     0.163 HD
HETATM   27  C35 UNL     1       2.006  -1.436  -0.803  1.00  0.00     0.241 C 
HETATM   28  O6  UNL     1       0.857  -1.215  -1.336  1.00  0.00    -0.271 OA
ENDROOT
BRANCH   9  29
HETATM   29  C13 UNL     1      -2.810  -0.837  -0.647  1.00  0.00     0.047 C 
BRANCH  29  30
HETATM   30  C14 UNL     1      -4.094  -0.523  -1.427  1.00  0.00     0.012 C 
BRANCH  30  31
HETATM   31  C15 UNL     1      -3.967  -1.076  -2.856  1.00  0.00    -0.051 C 
HETATM   32  C16 UNL     1      -2.788  -0.429  -3.545  1.00  0.00     0.014 C 
HETATM   33  C17 UNL     1      -3.871  -2.572  -2.857  1.00  0.00     0.014 C 
HETATM   34  C18 UNL     1      -5.227  -0.662  -3.582  1.00  0.00     0.014 C 
ENDBRANCH  30  31
ENDBRANCH  29  30
ENDBRANCH   9  29
BRANCH   6  35
HETATM   35  C8  UNL     1      -1.585  -2.845   2.318  1.00  0.00     0.043 C 
BRANCH  35  36
HETATM   36  C9  UNL     1      -1.482  -2.840   3.784  1.00  0.00     0.102 C 
BRANCH  36  37
HETATM   37  C10 UNL     1      -2.028  -4.179   4.245  1.00  0.00     0.231 C 
HETATM   38  N2  UNL     1      -2.074  -4.509   5.628  1.00  0.00    -0.062 NA
HETATM   39  O2  UNL     1      -2.454  -5.036   3.435  1.00  0.00    -0.277 OA
ENDBRANCH  36  37
ENDBRANCH  35  36
ENDBRANCH   6  35
BRANCH  14  40
HETATM   40  C21 UNL     1      -1.092   3.963   0.686  1.00  0.00     0.038 C 
BRANCH  40  41
HETATM   41  C22 UNL     1      -1.596   4.396   1.975  1.00  0.00    -0.020 C 
HETATM   42  C23 UNL     1      -3.016   4.299   2.341  1.00  0.00     0.009 C 
HETATM   43  C24 UNL     1      -1.214   5.891   2.124  1.00  0.00     0.009 C 
ENDBRANCH  40  41
ENDBRANCH  14  40
BRANCH   1  44
HETATM   44  C3  UNL     1       1.422  -3.770  -0.283  1.00  0.00     0.013 C 
HETATM   45  C4  UNL     1       1.655  -4.872   0.796  1.00  0.00     0.012 C 
BRANCH  44  46
HETATM   46  C2  UNL     1       1.881  -4.408  -1.533  1.00  0.00     0.002 C 
HETATM   47  C1  UNL     1       1.794  -3.717  -2.828  1.00  0.00     0.005 C 
ENDBRANCH  44  46
ENDBRANCH   1  44
BRANCH  19  48
HETATM   48  C27 UNL     1       2.940   3.733  -1.508  1.00  0.00     0.009 C 
HETATM   49  C28 UNL     1       3.028   4.091  -2.958  1.00  0.00     0.012 C 
HETATM   50  C29 UNL     1       2.691   4.957  -0.702  1.00  0.00     0.012 C 
ENDBRANCH  19  48
BRANCH  24  51
HETATM   51  C32 UNL     1       5.042  -0.487   0.046  1.00  0.00     0.009 C 
HETATM   52  C33 UNL     1       6.130   0.405   0.604  1.00  0.00     0.012 C 
HETATM   53  C34 UNL     1       5.662  -1.358  -1.024  1.00  0.00     0.012 C 
ENDBRANCH  24  51
TORSDOF 12
