REMARK  12 active torsions:
REMARK  status: ('A' for Active; 'I' for Inactive)
REMARK    1  A    between atoms: C2_2  and  C3_3 
REMARK    2  A    between atoms: C3_3  and  C6_6 
REMARK    3  A    between atoms: C8_11  and  C9_12 
REMARK    4  A    between atoms: C9_12  and  C10_13 
REMARK    5  A    between atoms: C14_20  and  C15_21 
REMARK    6  A    between atoms: C15_21  and  C16_22 
REMARK    7  A    between atoms: C16_22  and  C17_23 
REMARK    8  A    between atoms: C20_29  and  C21_30 
REMARK    9  A    between atoms: C21_30  and  C23_32 
REMARK   10  A    between atoms: C26_38  and  C27_39 
REMARK   11  A    between atoms: C27_39  and  C28_40 
REMARK   12  A    between atoms: C32_47  and  C33_48 
ROOT
HETATM    1  C6  UNL     1      -3.160   1.650  -0.103  1.00  0.00     0.198 C 
HETATM    2  N1  UNL     1      -3.373   0.747   1.005  1.00  0.00    -0.337 N 
ATOM      3  H1  UNL     1      -3.977   1.121   1.737  1.00  0.00     0.164 HD
HETATM    4  C7  UNL     1      -2.904  -0.543   1.258  1.00  0.00     0.242 C 
HETATM    5  O1  UNL     1      -2.140  -0.682   2.283  1.00  0.00    -0.271 OA
HETATM    6  C8  UNL     1      -3.151  -1.783   0.527  1.00  0.00     0.177 C 
HETATM    7  N2  UNL     1      -2.123  -2.789   0.683  1.00  0.00    -0.346 N 
ATOM      8  H2  UNL     1      -2.429  -3.708   0.363  1.00  0.00     0.163 HD
HETATM    9  C13 UNL     1      -0.847  -2.804   1.154  1.00  0.00     0.241 C 
HETATM   10  O2  UNL     1      -0.599  -3.401   2.269  1.00  0.00    -0.271 OA
HETATM   11  C14 UNL     1       0.426  -2.209   0.568  1.00  0.00     0.176 C 
HETATM   12  N3  UNL     1       1.259  -1.760   1.648  1.00  0.00    -0.346 N 
ATOM     13  H3  UNL     1       0.719  -1.516   2.478  1.00  0.00     0.163 HD
HETATM   14  C19 UNL     1       2.621  -1.579   1.832  1.00  0.00     0.241 C 
HETATM   15  O3  UNL     1       3.162  -2.374   2.695  1.00  0.00    -0.271 OA
HETATM   16  C20 UNL     1       3.587  -0.644   1.238  1.00  0.00     0.180 C 
HETATM   17  N4  UNL     1       3.449  -0.371  -0.159  1.00  0.00    -0.346 N 
ATOM     18  H4  UNL     1       3.794  -1.094  -0.790  1.00  0.00     0.163 HD
HETATM   19  C25 UNL     1       2.898   0.767  -0.773  1.00  0.00     0.241 C 
HETATM   20  O4  UNL     1       2.275   0.508  -1.875  1.00  0.00    -0.271 OA
HETATM   21  C26 UNL     1       2.951   2.143  -0.316  1.00  0.00     0.177 C 
HETATM   22  N5  UNL     1       2.022   2.393   0.802  1.00  0.00    -0.347 N 
ATOM     23  H5  UNL     1       2.426   2.543   1.726  1.00  0.00     0.163 HD
HETATM   24  C31 UNL     1       0.633   2.440   0.691  1.00  0.00     0.238 C 
HETATM   25  O5  UNL     1      -0.071   1.853   1.551  1.00  0.00    -0.272 OA
HETATM   26  C32 UNL     1      -0.130   3.151  -0.399  1.00  0.00     0.238 C 
HETATM   27  C35 UNL     1      -0.930   2.247  -1.212  1.00  0.00     0.239 C 
HETATM   28  O7  UNL     1      -0.593   2.206  -2.464  1.00  0.00    -0.272 OA
HETATM   29  N6  UNL     1      -1.998   1.408  -0.893  1.00  0.00    -0.338 N 
ATOM     30  H6  UNL     1      -1.938   0.470  -1.289  1.00  0.00     0.164 HD
ENDROOT
BRANCH   1  31
HETATM   31  C3  UNL     1      -4.394   1.901  -0.909  1.00  0.00     0.008 C 
HETATM   32  C4  UNL     1      -5.444   2.649  -0.047  1.00  0.00     0.023 C 
HETATM   33  C5  UNL     1      -5.097   0.725  -1.466  1.00  0.00     0.023 C 
BRANCH  31  34
HETATM   34  C2  UNL     1      -4.116   2.831  -2.032  1.00  0.00    -0.024 C 
HETATM   35  C1  UNL     1      -4.064   2.439  -3.312  1.00  0.00     0.008 C 
ENDBRANCH  31  34
ENDBRANCH   1  31
BRANCH   6  36
HETATM   36  C9  UNL     1      -4.495  -2.425   0.764  1.00  0.00     0.038 C 
BRANCH  36  37
HETATM   37  C10 UNL     1      -4.822  -2.855   2.137  1.00  0.00    -0.020 C 
HETATM   38  C11 UNL     1      -6.238  -3.493   2.020  1.00  0.00     0.009 C 
HETATM   39  C12 UNL     1      -4.992  -1.774   3.167  1.00  0.00     0.009 C 
ENDBRANCH  36  37
ENDBRANCH   6  36
BRANCH  26  40
HETATM   40  C33 UNL     1      -0.787   4.304   0.209  1.00  0.00     0.145 C 
HETATM   41  C34 UNL     1      -1.551   5.330  -0.549  1.00  0.00     0.092 C 
HETATM   42  O6  UNL     1      -0.743   4.497   1.420  1.00  0.00    -0.297 OA
ENDBRANCH  26  40
BRANCH  11  43
HETATM   43  C15 UNL     1       1.064  -3.227  -0.334  1.00  0.00     0.035 C 
BRANCH  43  44
HETATM   44  C16 UNL     1       0.192  -3.661  -1.475  1.00  0.00     0.002 C 
BRANCH  44  45
HETATM   45  C17 UNL     1      -0.192  -2.492  -2.372  1.00  0.00    -0.004 C 
HETATM   46  C18 UNL     1      -1.073  -2.967  -3.516  1.00  0.00     0.005 C 
ENDBRANCH  44  45
ENDBRANCH  43  44
ENDBRANCH  11  43
BRANCH  21  47
HETATM   47  C27 UNL     1       4.268   2.744  -0.007  1.00  0.00     0.038 C 
BRANCH  47  48
HETATM   48  C28 UNL     1       5.268   2.851  -1.096  1.00  0.00    -0.020 C 
HETATM   49  C29 UNL     1       5.725   1.591  -1.728  1.00  0.00     0.009 C 
HETATM   50  C30 UNL     1       6.441   3.750  -0.700  1.00  0.00     0.009 C 
ENDBRANCH  47  48
ENDBRANCH  21  47
BRANCH  16  51
HETATM   51  C21 UNL     1       5.025  -0.986   1.509  1.00  0.00     0.013 C 
HETATM   52  C22 UNL     1       5.378  -1.049   2.979  1.00  0.00     0.012 C 
BRANCH  51  53
HETATM   53  C23 UNL     1       5.672  -1.991   0.647  1.00  0.00     0.002 C 
HETATM   54  C24 UNL     1       5.118  -3.361   0.593  1.00  0.00     0.005 C 
ENDBRANCH  51  53
ENDBRANCH  16  51
TORSDOF 12
