REMARK  13 active torsions:
REMARK  status: ('A' for Active; 'I' for Inactive)
REMARK    1  A    between atoms: C6_6  and  C7_7 
REMARK    2  A    between atoms: C7_7  and  C8_8 
REMARK    3  A    between atoms: N2_19  and  C16_20 
REMARK    4  A    between atoms: C16_20  and  C17_21 
REMARK    5  A    between atoms: C17_21  and  C18_22 
REMARK    6  A    between atoms: C18_22  and  C19_23 
REMARK    7  A    between atoms: C19_23  and  C20_24 
REMARK    8  A    between atoms: C20_24  and  C21_25 
REMARK    9  A    between atoms: C21_25  and  N3_26 
REMARK   10  A    between atoms: C28_38  and  C29_39 
REMARK   11  A    between atoms: C29_39  and  C30_40 
REMARK   12  A    between atoms: C30_40  and  N7_41 
REMARK   13  A    between atoms: C32_46  and  O3_47 
ROOT
HETATM    1  C8  UNL     1      -3.010   1.206   0.325  1.00  0.00     0.032 C 
HETATM    2  C9  UNL     1      -3.519   0.955   1.704  1.00  0.00     0.039 C 
HETATM    3  C10 UNL     1      -1.809   2.158   0.548  1.00  0.00     0.040 C 
HETATM    4  C11 UNL     1      -1.512   3.100  -0.541  1.00  0.00     0.105 C 
HETATM    5  C12 UNL     1      -0.634   2.621  -1.625  1.00  0.00     0.217 C 
HETATM    6  O1  UNL     1      -1.037   2.720  -2.812  1.00  0.00    -0.274 OA
HETATM    7  N1  UNL     1       0.648   2.048  -1.449  1.00  0.00    -0.361 N 
ATOM      8  H1  UNL     1       0.881   1.259  -2.052  1.00  0.00     0.162 HD
HETATM    9  C13 UNL     1       1.649   2.456  -0.518  1.00  0.00     0.124 C 
HETATM   10  C14 UNL     1       2.992   1.920  -0.935  1.00  0.00     0.039 C 
HETATM   11  C15 UNL     1       3.135   0.438  -0.702  1.00  0.00     0.127 C 
HETATM   12  N2  UNL     1       3.420   0.068   0.658  1.00  0.00    -0.351 N 
HETATM   13  C23 UNL     1       2.532  -0.752   1.436  1.00  0.00     0.228 C 
HETATM   14  O2  UNL     1       2.469  -0.472   2.667  1.00  0.00    -0.273 OA
HETATM   15  C24 UNL     1       1.707  -1.864   0.939  1.00  0.00     0.112 C 
HETATM   16  C25 UNL     1       2.315  -2.597  -0.240  1.00  0.00     0.025 C 
HETATM   17  C26 UNL     1       0.309  -1.470   0.589  1.00  0.00     0.072 C 
HETATM   18  N6  UNL     1      -0.711  -1.641   1.524  1.00  0.00    -0.385 N 
HETATM   19  C27 UNL     1      -0.476  -1.690   2.884  1.00  0.00     0.149 C 
HETATM   20  C28 UNL     1      -1.937  -2.193   0.988  1.00  0.00     0.158 C 
HETATM   21  C32 UNL     1      -2.529  -1.339  -0.061  1.00  0.00     0.135 C 
HETATM   22  N10 UNL     1      -2.511   0.008  -0.321  1.00  0.00    -0.364 N 
ATOM     23  H10 UNL     1      -2.022   0.221  -1.190  1.00  0.00     0.162 HD
ENDROOT
BRANCH   1  24
HETATM   24  C7  UNL     1      -3.981   2.005  -0.478  1.00  0.00     0.070 C 
BRANCH  24  25
HETATM   25  C6  UNL     1      -5.337   1.533  -0.731  1.00  0.00    -0.044 A 
HETATM   26  C4  UNL     1      -6.378   1.756   0.148  1.00  0.00    -0.055 A 
HETATM   27  C3  UNL     1      -7.627   1.210  -0.152  1.00  0.00     0.014 A 
HETATM   28  C5  UNL     1      -6.298   2.639   1.360  1.00  0.00     0.049 C 
HETATM   29  C2  UNL     1      -7.865   0.469  -1.276  1.00  0.00    -0.061 A 
HETATM   30  C1  UNL     1      -9.220  -0.073  -1.515  1.00  0.00     0.048 C 
HETATM   31  C35 UNL     1      -6.817   0.277  -2.116  1.00  0.00     0.014 A 
HETATM   32  C33 UNL     1      -5.530   0.783  -1.900  1.00  0.00    -0.055 A 
HETATM   33  C34 UNL     1      -4.532   0.520  -2.943  1.00  0.00     0.049 C 
ENDBRANCH  24  25
ENDBRANCH   1  24
BRANCH  21  34
HETATM   34  O3  UNL     1      -3.203  -2.063  -0.909  1.00  0.00    -0.348 OA
ATOM     35  H3  UNL     1      -3.584  -1.514  -1.584  1.00  0.00     0.219 HD
ENDBRANCH  21  34
BRANCH  20  36
HETATM   36  C29 UNL     1      -2.880  -2.681   2.017  1.00  0.00     0.053 C 
BRANCH  36  37
HETATM   37  C30 UNL     1      -4.129  -3.267   1.428  1.00  0.00     0.124 C 
BRANCH  37  38
HETATM   38  N7  UNL     1      -3.841  -4.429   0.583  1.00  0.00    -0.367 N 
HETATM   39  C31 UNL     1      -4.759  -5.227   0.191  1.00  0.00     0.196 C 
HETATM   40  N8  UNL     1      -6.096  -4.992   0.577  1.00  0.00    -0.067 NA
HETATM   41  N9  UNL     1      -4.434  -6.330  -0.622  1.00  0.00    -0.067 NA
ATOM     42  H7  UNL     1      -2.878  -4.606   0.299  1.00  0.00     0.161 HD
ENDBRANCH  37  38
ENDBRANCH  36  37
ENDBRANCH  20  36
BRANCH  12  43
HETATM   43  C16 UNL     1       4.610   0.542   1.319  1.00  0.00     0.125 C 
BRANCH  43  44
HETATM   44  C17 UNL     1       5.794  -0.341   1.275  1.00  0.00     0.020 C 
BRANCH  44  45
HETATM   45  C18 UNL     1       6.401  -0.649  -0.041  1.00  0.00     0.002 C 
BRANCH  45  46
HETATM   46  C19 UNL     1       6.915   0.581  -0.760  1.00  0.00     0.002 C 
BRANCH  46  47
HETATM   47  C20 UNL     1       7.972   1.297   0.053  1.00  0.00     0.020 C 
BRANCH  47  48
HETATM   48  C21 UNL     1       8.424   2.502  -0.741  1.00  0.00     0.122 C 
BRANCH  48  49
HETATM   49  N3  UNL     1       8.986   2.072  -2.017  1.00  0.00    -0.367 N 
HETATM   50  C22 UNL     1      10.249   1.864  -2.075  1.00  0.00     0.196 C 
HETATM   51  N4  UNL     1      11.093   2.039  -0.951  1.00  0.00    -0.067 NA
HETATM   52  N5  UNL     1      10.818   1.446  -3.298  1.00  0.00    -0.067 NA
ATOM     53  H3  UNL     1       8.393   1.941  -2.836  1.00  0.00     0.161 HD
ENDBRANCH  48  49
ENDBRANCH  47  48
ENDBRANCH  46  47
ENDBRANCH  45  46
ENDBRANCH  44  45
ENDBRANCH  43  44
ENDBRANCH  12  43
TORSDOF 13
