REMARK  5 active torsions:
REMARK  status: ('A' for Active; 'I' for Inactive)
REMARK    1  A    between atoms: C2_2  and  N1_4 
REMARK    2  A    between atoms: N1_4  and  C4_6 
REMARK    3  A    between atoms: C4_6  and  N2_8 
REMARK    4  A    between atoms: N2_8  and  C5_10 
REMARK    5  A    between atoms: C11_18  and  N4_19 
ROOT
HETATM    1  C5  UNL     1      -0.485  -0.774   0.442  1.00  0.00     0.062 A 
HETATM    2  C6  UNL     1       0.058  -1.935   0.939  1.00  0.00     0.056 A 
HETATM    3  C7  UNL     1      -0.734  -3.014   1.303  1.00  0.00     0.068 A 
HETATM    4  C8  UNL     1      -0.123  -4.209   1.818  1.00  0.00     0.101 C 
HETATM    5  N3  UNL     1       0.377  -5.168   2.214  1.00  0.00    -0.191 NA
HETATM    6  C9  UNL     1      -2.102  -2.989   1.193  1.00  0.00     0.057 A 
HETATM    7 CL1  UNL     1      -3.085  -4.364   1.660  1.00  0.00    -0.083 Cl
HETATM    8  C10 UNL     1      -2.651  -1.831   0.697  1.00  0.00     0.057 A 
HETATM    9  C11 UNL     1      -1.889  -0.749   0.327  1.00  0.00     0.059 A 
ENDROOT
BRANCH   1  10
HETATM   10  N2  UNL     1       0.218   0.390   0.112  1.00  0.00    -0.331 N 
ATOM     11  H2  UNL     1      -0.367   1.225   0.081  1.00  0.00     0.168 HD
BRANCH  10  12
HETATM   12  C4  UNL     1       1.549   0.636  -0.181  1.00  0.00     0.172 C 
HETATM   13  S1  UNL     1       1.905   2.271  -0.471  1.00  0.00    -0.041 SA
BRANCH  12  14
HETATM   14  N1  UNL     1       2.632  -0.254  -0.271  1.00  0.00    -0.363 N 
ATOM     15  H1  UNL     1       2.490  -1.253  -0.121  1.00  0.00     0.162 HD
BRANCH  14  16
HETATM   16  C2  UNL     1       3.986   0.272  -0.586  1.00  0.00     0.075 C 
HETATM   17  C1  UNL     1       4.440   1.254   0.467  1.00  0.00     0.032 C 
HETATM   18  C3  UNL     1       4.968  -0.860  -0.766  1.00  0.00     0.032 C 
ENDBRANCH  14  16
ENDBRANCH  12  14
ENDBRANCH  10  12
ENDBRANCH   1  10
BRANCH   9  19
HETATM   19  N4  UNL     1      -2.545   0.371  -0.191  1.00  0.00    -0.375 N 
HETATM   20  C12 UNL     1      -2.388   0.718  -1.583  1.00  0.00     0.149 C 
HETATM   21  C13 UNL     1      -2.684   2.177  -1.870  1.00  0.00     0.187 C 
HETATM   22  O1  UNL     1      -2.571   2.998  -0.781  1.00  0.00    -0.388 OA
HETATM   23  C14 UNL     1      -3.328   2.655   0.304  1.00  0.00     0.187 C 
HETATM   24  C15 UNL     1      -3.387   1.202   0.624  1.00  0.00     0.149 C 
ENDBRANCH   9  19
TORSDOF 5
