REMARK  6 active torsions:
REMARK  status: ('A' for Active; 'I' for Inactive)
REMARK    1  A    between atoms: C2_2  and  C3_4 
REMARK    2  A    between atoms: C4_5  and  C5_6 
REMARK    3  A    between atoms: C7_10  and  S1_11 
REMARK    4  A    between atoms: S1_11  and  C8_12 
REMARK    5  A    between atoms: C8_12  and  N1_14 
REMARK    6  A    between atoms: C13_19  and  O3_20 
ROOT
HETATM    1  C3  UNL     1      -3.124  -0.008   0.070  1.00  0.00    -0.031 C 
HETATM    2  C4  UNL     1      -2.600  -1.053   0.658  1.00  0.00     0.025 C 
HETATM    3  C6  UNL     1      -1.086  -1.088   0.620  1.00  0.00     0.064 C 
HETATM    4  C7  UNL     1      -0.617  -0.855  -0.800  1.00  0.00     0.088 C 
HETATM    5  C13 UNL     1      -1.222   0.366  -1.403  1.00  0.00     0.136 C 
HETATM    6  C14 UNL     1      -2.237   1.042  -0.553  1.00  0.00     0.070 C 
ENDROOT
BRANCH   4   7
HETATM    7  S1  UNL     1       1.147  -0.950  -1.011  1.00  0.00    -0.093 SA
BRANCH   7   8
HETATM    8  C8  UNL     1       2.063   0.331  -0.199  1.00  0.00     0.137 C 
HETATM    9  S2  UNL     1       1.282   1.478   0.651  1.00  0.00    -0.053 SA
BRANCH   8  10
HETATM   10  N1  UNL     1       3.487   0.392  -0.269  1.00  0.00    -0.367 N 
HETATM   11  C9  UNL     1       4.336   1.395   0.355  1.00  0.00     0.124 C 
HETATM   12  C10 UNL     1       5.727   1.098  -0.164  1.00  0.00     0.021 C 
HETATM   13  C11 UNL     1       5.646  -0.410  -0.330  1.00  0.00     0.021 C 
HETATM   14  C12 UNL     1       4.299  -0.568  -0.996  1.00  0.00     0.124 C 
ENDBRANCH   8  10
ENDBRANCH   7   8
ENDBRANCH   4   7
BRANCH   5  15
HETATM   15  O3  UNL     1      -1.762   0.122  -2.668  1.00  0.00    -0.394 OA
ATOM     16  H3  UNL     1      -2.148   0.900  -3.052  1.00  0.00     0.210 HD
ENDBRANCH   5  15
BRANCH   2  17
HETATM   17  C5  UNL     1      -3.328  -2.123   1.303  1.00  0.00     0.205 C 
HETATM   18  O1  UNL     1      -4.538  -2.273   1.430  1.00  0.00    -0.644 OA
HETATM   19  O2  UNL     1      -2.560  -3.180   1.890  1.00  0.00    -0.644 OA
ENDBRANCH   2  17
BRANCH   1  20
HETATM   20  C2  UNL     1      -4.574   0.228  -0.019  1.00  0.00     0.196 C 
HETATM   21  C1  UNL     1      -4.796   1.571   0.723  1.00  0.00     0.050 C 
HETATM   22  F1  UNL     1      -4.946   0.456  -1.350  1.00  0.00    -0.245 F 
ENDBRANCH   1  20
TORSDOF 6
