REMARK  7 active torsions:
REMARK  status: ('A' for Active; 'I' for Inactive)
REMARK    1  A    between atoms: C3_3  and  C4_4 
REMARK    2  A    between atoms: C5_5  and  C6_6 
REMARK    3  A    between atoms: C7_8  and  C8_9 
REMARK    4  A    between atoms: C8_9  and  O2_11 
REMARK    5  A    between atoms: O2_11  and  C9_12 
REMARK    6  A    between atoms: C11_14  and  O3_16 
REMARK    7  A    between atoms: C16_21  and  O4_23 
ROOT
HETATM    1  C1  UNL     1      -4.544   3.052  -0.543  1.00  0.00     0.112 C 
HETATM    2  C2  UNL     1      -3.503   2.061  -0.270  1.00  0.00    -0.106 C 
HETATM    3  C3  UNL     1      -2.629   1.216  -0.059  1.00  0.00    -0.068 C 
ENDROOT
BRANCH   3   4
HETATM    4  C4  UNL     1      -1.641   0.204   0.179  1.00  0.00     0.037 C 
HETATM    5  C5  UNL     1      -0.430   0.603   0.497  1.00  0.00    -0.031 C 
HETATM    6  C7  UNL     1       0.720  -0.287   0.777  1.00  0.00     0.155 C 
HETATM    7  C11 UNL     1       0.946  -1.133  -0.461  1.00  0.00     0.093 C 
HETATM    8  C12 UNL     1       0.800  -0.381  -1.740  1.00  0.00     0.052 C 
HETATM    9  C13 UNL     1       0.007  -2.268  -0.388  1.00  0.00    -0.050 C 
HETATM   10  C14 UNL     1       0.631  -3.623  -0.568  1.00  0.00     0.046 C 
HETATM   11  C15 UNL     1      -1.279  -2.237  -0.188  1.00  0.00     0.021 C 
HETATM   12  C16 UNL     1      -2.205  -1.152   0.021  1.00  0.00     0.107 C 
HETATM   13  C17 UNL     1      -3.138  -1.084  -1.197  1.00  0.00     0.056 C 
BRANCH   5  14
HETATM   14  C6  UNL     1      -0.224   2.058   0.573  1.00  0.00     0.151 C 
HETATM   15 CL1  UNL     1       0.292   2.473   2.250  1.00  0.00    -0.126 Cl
ENDBRANCH   5  14
BRANCH   6  16
HETATM   16  C8  UNL     1       1.951   0.417   1.168  1.00  0.00     0.270 C 
HETATM   17  O1  UNL     1       2.470   0.279   2.332  1.00  0.00    -0.264 OA
BRANCH  16  18
HETATM   18  O2  UNL     1       2.647   1.273   0.333  1.00  0.00    -0.321 OA
BRANCH  18  19
HETATM   19  C9  UNL     1       3.834   1.947   0.712  1.00  0.00     0.174 C 
HETATM   20  C10 UNL     1       4.863   0.899   1.066  1.00  0.00     0.034 C 
ENDBRANCH  18  19
ENDBRANCH  16  18
ENDBRANCH   6  16
BRANCH   7  21
HETATM   21  O3  UNL     1       2.270  -1.616  -0.340  1.00  0.00    -0.384 OA
ATOM     22  H3  UNL     1       2.412  -2.146  -1.116  1.00  0.00     0.211 HD
ENDBRANCH   7  21
BRANCH  12  23
HETATM   23  O4  UNL     1      -3.030  -1.458   1.103  1.00  0.00    -0.381 OA
ATOM     24  H4  UNL     1      -3.393  -2.330   1.001  1.00  0.00     0.211 HD
ENDBRANCH  12  23
ENDBRANCH   3   4
TORSDOF 7
