REMARK  5 active torsions:
REMARK  status: ('A' for Active; 'I' for Inactive)
REMARK    1  A    between atoms: C2_2  and  C3_3 
REMARK    2  A    between atoms: C3_3  and  C4_4 
REMARK    3  A    between atoms: C4_4  and  N1_5 
REMARK    4  A    between atoms: C5_6  and  O1_7 
REMARK    5  A    between atoms: C8_11  and  O2_12 
ROOT
HETATM    1  N1  UNL     1       1.283   0.102  -0.468  1.00  0.00    -0.308 N 
HETATM    2  C5  UNL     1       0.681   1.055   0.237  1.00  0.00     0.151 A 
HETATM    3  C6  UNL     1      -0.684   0.866   0.053  1.00  0.00     0.010 A 
HETATM    4  C7  UNL     1      -0.881  -0.216  -0.776  1.00  0.00     0.010 A 
HETATM    5  C8  UNL     1       0.358  -0.683  -1.092  1.00  0.00     0.151 A 
HETATM    6  C9  UNL     1      -2.302  -0.535  -1.078  1.00  0.00     0.048 C 
HETATM    7  C10 UNL     1      -2.880   0.764  -1.685  1.00  0.00     0.019 C 
HETATM    8  C11 UNL     1      -3.078   1.201  -0.259  1.00  0.00     0.020 C 
HETATM    9  C12 UNL     1      -1.892   1.557   0.560  1.00  0.00     0.044 C 
HETATM   10  C13 UNL     1      -2.225   0.799   1.874  1.00  0.00     0.113 C 
HETATM   11  N2  UNL     1      -2.730  -0.482   1.399  1.00  0.00    -0.239 NA
HETATM   12 BR1  UNL     1      -4.163  -0.966   2.553  1.00  0.00     0.013 Br
HETATM   13  C14 UNL     1      -3.224  -0.295   0.070  1.00  0.00     0.032 C 
HETATM   14  C15 UNL     1      -4.598  -0.836  -0.217  1.00  0.00     0.034 C 
ENDROOT
BRANCH   1  15
HETATM   15  C4  UNL     1       2.702  -0.098  -0.576  1.00  0.00     0.133 C 
BRANCH  15  16
HETATM   16  C3  UNL     1       3.236  -1.026   0.498  1.00  0.00     0.020 C 
BRANCH  16  17
HETATM   17  C2  UNL     1       4.735  -1.173   0.299  1.00  0.00    -0.003 C 
HETATM   18  C1  UNL     1       5.430   0.179   0.406  1.00  0.00     0.005 C 
ENDBRANCH  16  17
ENDBRANCH  15  16
ENDBRANCH   1  15
BRANCH   2  19
HETATM   19  O1  UNL     1       1.214   2.068   1.023  1.00  0.00    -0.345 OA
ATOM     20  H1  UNL     1       0.784   2.749   1.527  1.00  0.00     0.219 HD
ENDBRANCH   2  19
BRANCH   5  21
HETATM   21  O2  UNL     1       0.581  -1.778  -1.917  1.00  0.00    -0.345 OA
ATOM     22  H2  UNL     1      -0.063  -2.325  -2.352  1.00  0.00     0.219 HD
ENDBRANCH   5  21
TORSDOF 5
