REMARK  13 active torsions:
REMARK  status: ('A' for Active; 'I' for Inactive)
REMARK    1  A    between atoms: C2_2  and  O2_4 
REMARK    2  A    between atoms: O2_4  and  C3_5 
REMARK    3  A    between atoms: C3_5  and  C4_6 
REMARK    4  A    between atoms: C5_8  and  O4_9 
REMARK    5  A    between atoms: O4_9  and  C6_10 
REMARK    6  A    between atoms: C6_10  and  C7_11 
REMARK    7  A    between atoms: C7_11  and  C8_12 
REMARK    8  A    between atoms: C8_12  and  O5_13 
REMARK    9  A    between atoms: O5_13  and  C9_14 
REMARK   10  A    between atoms: C15_21  and  N1_22 
REMARK       I    between atoms: N1_22  and  C16_24 
REMARK   11  A    between atoms: C16_24  and  C17_26 
REMARK   12  A    between atoms: C24_33  and  O7_34 
REMARK   13  A    between atoms: O7_34  and  C25_35 
ROOT
HETATM    1  C4  UNL     1      -2.019   2.204  -0.436  1.00  0.00     0.182 C 
HETATM    2  O3  UNL     1      -0.812   1.595  -0.794  1.00  0.00    -0.345 OA
HETATM    3  C5  UNL     1      -0.509   0.439  -0.145  1.00  0.00     0.311 C 
HETATM    4  C15 UNL     1      -1.589  -0.135   0.698  1.00  0.00     0.066 C 
HETATM    5  C23 UNL     1      -2.474   0.632   1.298  1.00  0.00     0.038 C 
HETATM    6  C24 UNL     1      -2.269   2.074   1.037  1.00  0.00     0.188 C 
ENDROOT
BRANCH   3   7
HETATM    7  O4  UNL     1       0.596   0.671   0.681  1.00  0.00    -0.355 OA
BRANCH   7   8
HETATM    8  C6  UNL     1       1.728  -0.006   0.343  1.00  0.00     0.173 C 
BRANCH   8   9
HETATM    9  C7  UNL     1       2.235   0.351  -1.021  1.00  0.00     0.053 C 
BRANCH   9  10
HETATM   10  C8  UNL     1       3.491  -0.439  -1.321  1.00  0.00     0.178 C 
BRANCH  10  11
HETATM   11  O5  UNL     1       4.489  -0.136  -0.358  1.00  0.00    -0.351 OA
BRANCH  11  12
HETATM   12  C9  UNL     1       5.727  -0.782  -0.482  1.00  0.00     0.068 A 
HETATM   13  C10 UNL     1       6.677  -0.473   0.461  1.00  0.00     0.038 A 
HETATM   14  C11 UNL     1       7.929  -1.059   0.425  1.00  0.00     0.026 A 
HETATM   15  C12 UNL     1       8.168  -1.963  -0.603  1.00  0.00     0.034 A 
HETATM   16 CL1  UNL     1       9.767  -2.700  -0.636  1.00  0.00    -0.084 Cl
HETATM   17  C13 UNL     1       7.216  -2.274  -1.549  1.00  0.00     0.026 A 
HETATM   18  C14 UNL     1       5.978  -1.676  -1.488  1.00  0.00     0.038 A 
ENDBRANCH  11  12
ENDBRANCH  10  11
ENDBRANCH   9  10
ENDBRANCH   8   9
ENDBRANCH   7   8
ENDBRANCH   3   7
BRANCH   4  19
HETATM   19  N1  UNL     1      -1.590  -1.573   0.812  1.00  0.00    -0.322 N 
HETATM   20  C16 UNL     1      -1.742  -2.416  -0.294  1.00  0.00     0.256 C 
HETATM   21  O6  UNL     1      -1.891  -1.952  -1.476  1.00  0.00    -0.267 OA
ATOM     22  H1  UNL     1      -1.475  -1.992   1.735  1.00  0.00     0.169 HD
BRANCH  20  23
HETATM   23  C17 UNL     1      -1.736  -3.861  -0.141  1.00  0.00     0.032 A 
HETATM   24  C18 UNL     1      -1.982  -4.640  -1.250  1.00  0.00     0.017 A 
HETATM   25  C19 UNL     1      -1.995  -6.001  -1.201  1.00  0.00     0.001 A 
HETATM   26  C20 UNL     1      -1.750  -6.623   0.012  1.00  0.00     0.000 A 
HETATM   27  C21 UNL     1      -1.504  -5.873   1.123  1.00  0.00     0.001 A 
HETATM   28  C22 UNL     1      -1.497  -4.502   1.048  1.00  0.00     0.017 A 
ENDBRANCH  20  23
ENDBRANCH   4  19
BRANCH   1  29
HETATM   29  C3  UNL     1      -1.883   3.651  -0.806  1.00  0.00     0.213 C 
BRANCH  29  30
HETATM   30  O2  UNL     1      -3.054   4.349  -0.555  1.00  0.00    -0.319 OA
BRANCH  30  31
HETATM   31  C2  UNL     1      -4.250   4.114  -1.165  1.00  0.00     0.254 C 
HETATM   32  C1  UNL     1      -5.486   4.917  -0.831  1.00  0.00     0.126 C 
HETATM   33  O1  UNL     1      -4.363   3.219  -2.027  1.00  0.00    -0.266 OA
ENDBRANCH  30  31
ENDBRANCH  29  30
ENDBRANCH   1  29
BRANCH   6  34
HETATM   34  O7  UNL     1      -3.207   2.936   1.491  1.00  0.00    -0.310 OA
BRANCH  34  35
HETATM   35  C25 UNL     1      -2.987   3.914   2.476  1.00  0.00     0.255 C 
HETATM   36  C26 UNL     1      -4.054   4.833   2.936  1.00  0.00     0.126 C 
HETATM   37  O8  UNL     1      -1.816   3.916   2.906  1.00  0.00    -0.266 OA
ENDBRANCH  34  35
ENDBRANCH   6  34
TORSDOF 13
