REMARK  11 active torsions:
REMARK  status: ('A' for Active; 'I' for Inactive)
REMARK    1  A    between atoms: O1_2  and  C2_3 
REMARK    2  A    between atoms: C5_6  and  C6_7 
REMARK    3  A    between atoms: C6_7  and  N1_8 
REMARK    4  A    between atoms: C8_10  and  C9_11 
REMARK    5  A    between atoms: C9_11  and  C10_12 
REMARK    6  A    between atoms: C10_12  and  O2_13 
REMARK    7  A    between atoms: O2_13  and  C11_14 
REMARK    8  A    between atoms: C11_14  and  C12_15 
REMARK    9  A    between atoms: C12_15  and  N2_16 
REMARK   10  A    between atoms: N4_25  and  C17_26 
REMARK   11  A    between atoms: C17_26  and  C18_27 
ROOT
HETATM    1  N1  UNL     1       2.538  -0.567  -0.688  1.00  0.00    -0.303 N 
HETATM    2  C7  UNL     1       1.398   0.006  -1.074  1.00  0.00     0.121 A 
HETATM    3  C8  UNL     1       0.311  -0.504  -0.338  1.00  0.00     0.034 A 
HETATM    4  N4  UNL     1       0.850  -1.404   0.499  1.00  0.00    -0.298 N 
HETATM    5  C24 UNL     1       2.185  -1.430   0.279  1.00  0.00     0.329 A 
HETATM    6  O5  UNL     1       3.016  -2.149   0.878  1.00  0.00    -0.246 OA
ENDROOT
BRANCH   3   7
HETATM    7  C9  UNL     1      -1.096  -0.050  -0.514  1.00  0.00     0.085 C 
BRANCH   7   8
HETATM    8  C10 UNL     1      -1.297   1.115   0.435  1.00  0.00     0.173 C 
BRANCH   8   9
HETATM    9  O2  UNL     1      -2.573   1.641   0.378  1.00  0.00    -0.389 OA
BRANCH   9  10
HETATM   10  C11 UNL     1      -2.937   2.123  -0.854  1.00  0.00     0.188 C 
BRANCH  10  11
HETATM   11  C12 UNL     1      -4.359   2.658  -0.731  1.00  0.00     0.159 C 
BRANCH  11  12
HETATM   12  N2  UNL     1      -5.296   1.656  -0.330  1.00  0.00    -0.308 N 
HETATM   13  C13 UNL     1      -5.942   0.912  -1.246  1.00  0.00     0.101 A 
HETATM   14  C14 UNL     1      -6.858  -0.069  -0.875  1.00  0.00     0.092 A 
HETATM   15  C15 UNL     1      -7.130  -0.304   0.457  1.00  0.00     0.250 A 
HETATM   16  O3  UNL     1      -7.954  -1.184   0.836  1.00  0.00    -0.268 OA
HETATM   17  N3  UNL     1      -6.460   0.465   1.350  1.00  0.00    -0.275 N 
HETATM   18  C16 UNL     1      -5.580   1.405   0.963  1.00  0.00     0.329 A 
ATOM     19  H3  UNL     1      -6.629   0.326   2.346  1.00  0.00     0.173 HD
HETATM   20  O4  UNL     1      -5.004   2.073   1.880  1.00  0.00    -0.246 OA
ENDBRANCH  11  12
ENDBRANCH  10  11
ENDBRANCH   9  10
ENDBRANCH   8   9
ENDBRANCH   7   8
ENDBRANCH   3   7
BRANCH   4  21
HETATM   21  C17 UNL     1       0.138  -2.225   1.462  1.00  0.00     0.172 C 
BRANCH  21  22
HETATM   22  C18 UNL     1      -0.248  -3.553   0.973  1.00  0.00    -0.040 A 
HETATM   23  C19 UNL     1      -1.440  -3.847   0.365  1.00  0.00     0.010 A 
HETATM   24  C20 UNL     1      -1.763  -5.130  -0.079  1.00  0.00     0.024 A 
HETATM   25  C21 UNL     1      -0.858  -6.138   0.096  1.00  0.00     0.034 A 
HETATM   26 CL1  UNL     1      -1.258  -7.761  -0.462  1.00  0.00    -0.084 Cl
HETATM   27  C22 UNL     1       0.340  -5.905   0.693  1.00  0.00     0.024 A 
HETATM   28  C23 UNL     1       0.640  -4.624   1.126  1.00  0.00     0.010 A 
ENDBRANCH  21  22
ENDBRANCH   4  21
BRANCH   1  29
HETATM   29  C6  UNL     1       3.887  -0.334  -1.182  1.00  0.00     0.171 C 
BRANCH  29  30
HETATM   30  C5  UNL     1       4.566   0.743  -0.417  1.00  0.00    -0.040 A 
HETATM   31  C4  UNL     1       4.460   2.064  -0.834  1.00  0.00     0.011 A 
HETATM   32  C3  UNL     1       5.081   3.087  -0.141  1.00  0.00     0.037 A 
HETATM   33  C2  UNL     1       5.823   2.830   0.980  1.00  0.00     0.068 A 
HETATM   34  C26 UNL     1       5.941   1.525   1.410  1.00  0.00     0.037 A 
HETATM   35  C25 UNL     1       5.316   0.510   0.712  1.00  0.00     0.011 A 
BRANCH  33  36
HETATM   36  O1  UNL     1       6.466   3.830   1.708  1.00  0.00    -0.356 OA
HETATM   37  C1  UNL     1       6.373   5.164   1.308  1.00  0.00     0.210 C 
ENDBRANCH  33  36
ENDBRANCH  29  30
ENDBRANCH   1  29
TORSDOF 11
