REMARK  11 active torsions:
REMARK  status: ('A' for Active; 'I' for Inactive)
REMARK    1  A    between atoms: C2_2  and  C3_3 
REMARK    2  A    between atoms: C3_3  and  C4_4 
REMARK    3  A    between atoms: C4_4  and  N1_5 
REMARK    4  A    between atoms: C6_8  and  C7_9 
REMARK    5  A    between atoms: C7_9  and  C8_11 
REMARK    6  A    between atoms: C8_11  and  O3_12 
REMARK    7  A    between atoms: O3_12  and  C9_13 
REMARK    8  A    between atoms: C9_13  and  C10_15 
REMARK    9  A    between atoms: C10_15  and  N2_16 
REMARK       I    between atoms: N2_16  and  C11_18 
REMARK   10  A    between atoms: C11_18  and  C12_20 
REMARK   11  A    between atoms: C18_27  and  C19_28 
ROOT
HETATM    1  N1  UNL     1      -3.268  -1.033  -0.400  1.00  0.00    -0.265 N 
HETATM    2  C5  UNL     1      -2.017  -0.513  -0.457  1.00  0.00     0.267 A 
HETATM    3  O1  UNL     1      -1.012  -1.267  -0.526  1.00  0.00    -0.267 OA
HETATM    4  C6  UNL     1      -1.789   0.846  -0.442  1.00  0.00     0.108 A 
HETATM    5  C18 UNL     1      -2.858   1.679  -0.368  1.00  0.00     0.068 A 
HETATM    6  N3  UNL     1      -4.123   1.168  -0.310  1.00  0.00    -0.302 N 
HETATM    7  C25 UNL     1      -5.228   2.096  -0.235  1.00  0.00     0.161 C 
HETATM    8  C26 UNL     1      -4.278  -0.153  -0.328  1.00  0.00     0.331 A 
HETATM    9  O6  UNL     1      -5.440  -0.630  -0.275  1.00  0.00    -0.246 OA
ENDROOT
BRANCH   4  10
HETATM   10  C7  UNL     1      -0.432   1.350  -0.478  1.00  0.00     0.191 C 
HETATM   11  O2  UNL     1       0.084   1.538   0.684  1.00  0.00    -0.290 OA
BRANCH  10  12
HETATM   12  C8  UNL     1       0.345   1.639  -1.700  1.00  0.00     0.263 C 
BRANCH  12  13
HETATM   13  O3  UNL     1       1.636   2.043  -1.365  1.00  0.00    -0.312 OA
BRANCH  13  14
HETATM   14  C9  UNL     1       2.572   1.268  -0.710  1.00  0.00     0.277 C 
HETATM   15  O4  UNL     1       2.248   0.085  -0.385  1.00  0.00    -0.263 OA
BRANCH  14  16
HETATM   16  C10 UNL     1       3.925   1.822  -0.400  1.00  0.00     0.233 C 
BRANCH  16  17
HETATM   17  N2  UNL     1       4.751   0.840   0.245  1.00  0.00    -0.348 N 
HETATM   18  C11 UNL     1       5.141  -0.381  -0.323  1.00  0.00     0.252 C 
HETATM   19  O5  UNL     1       4.739  -0.646  -1.504  1.00  0.00    -0.268 OA
ATOM     20  H2  UNL     1       5.079   1.047   1.188  1.00  0.00     0.163 HD
BRANCH  18  21
HETATM   21  C12 UNL     1       5.970  -1.369   0.340  1.00  0.00     0.032 A 
HETATM   22  C13 UNL     1       6.296  -2.563  -0.252  1.00  0.00     0.018 A 
HETATM   23  C14 UNL     1       7.078  -3.507   0.358  1.00  0.00     0.025 A 
HETATM   24  C15 UNL     1       7.560  -3.259   1.612  1.00  0.00     0.034 A 
HETATM   25 CL1  UNL     1       8.562  -4.437   2.428  1.00  0.00    -0.084 Cl
HETATM   26  C16 UNL     1       7.256  -2.063   2.250  1.00  0.00     0.025 A 
HETATM   27  C17 UNL     1       6.453  -1.122   1.595  1.00  0.00     0.018 A 
ENDBRANCH  18  21
ENDBRANCH  16  17
ENDBRANCH  14  16
ENDBRANCH  13  14
ENDBRANCH  12  13
ENDBRANCH  10  12
ENDBRANCH   4  10
BRANCH   5  28
HETATM   28  C19 UNL     1      -2.682   3.114  -0.347  1.00  0.00    -0.008 A 
HETATM   29  C20 UNL     1      -2.756   3.823  -1.526  1.00  0.00     0.014 A 
HETATM   30  C21 UNL     1      -2.599   5.186  -1.615  1.00  0.00     0.001 A 
HETATM   31  C22 UNL     1      -2.352   5.895  -0.453  1.00  0.00     0.000 A 
HETATM   32  C23 UNL     1      -2.276   5.188   0.735  1.00  0.00     0.001 A 
HETATM   33  C24 UNL     1      -2.435   3.826   0.810  1.00  0.00     0.014 A 
ENDBRANCH   5  28
BRANCH   1  34
HETATM   34  C4  UNL     1      -3.413  -2.446  -0.420  1.00  0.00     0.137 C 
BRANCH  34  35
HETATM   35  C3  UNL     1      -3.404  -3.103   0.929  1.00  0.00     0.020 C 
BRANCH  35  36
HETATM   36  C2  UNL     1      -3.571  -4.604   0.683  1.00  0.00    -0.003 C 
HETATM   37  C1  UNL     1      -2.426  -5.113  -0.172  1.00  0.00     0.005 C 
ENDBRANCH  35  36
ENDBRANCH  34  35
ENDBRANCH   1  34
TORSDOF 11
