REMARK  4 active torsions:
REMARK  status: ('A' for Active; 'I' for Inactive)
REMARK    1  A    between atoms: N1_2  and  C2_3 
REMARK       I    between atoms: N1_2  and  C9_13 
REMARK    2  A    between atoms: C2_3  and  C3_4 
REMARK       I    between atoms: C3_4  and  N2_6 
REMARK    3  A    between atoms: N2_6  and  C4_8 
REMARK    4  A    between atoms: C9_13  and  C10_15 
ROOT
HETATM    1  C1  UNL     1      -1.691  -2.316  -0.501  1.00  0.00     0.153 C 
HETATM    2  N1  UNL     1      -1.139  -1.500   0.557  1.00  0.00    -0.346 N 
HETATM    3  C9  UNL     1      -1.996  -0.657   1.295  1.00  0.00     0.242 C 
HETATM    4  O2  UNL     1      -1.444   0.023   2.214  1.00  0.00    -0.271 OA
ENDROOT
BRANCH   2   5
HETATM    5  C2  UNL     1       0.282  -1.600   0.796  1.00  0.00     0.228 C 
BRANCH   5   6
HETATM    6  C3  UNL     1       1.058  -0.629  -0.007  1.00  0.00     0.235 C 
HETATM    7  O1  UNL     1       0.483   0.173  -0.798  1.00  0.00    -0.272 OA
HETATM    8  N2  UNL     1       2.467  -0.614   0.126  1.00  0.00    -0.355 N 
ATOM      9  H2  UNL     1       2.933  -1.260   0.763  1.00  0.00     0.162 HD
BRANCH   8  10
HETATM   10  C4  UNL     1       3.232   0.323  -0.648  1.00  0.00     0.084 C 
HETATM   11  C5  UNL     1       4.330  -0.349  -1.458  1.00  0.00     0.025 C 
HETATM   12  C6  UNL     1       5.103   0.886  -1.935  1.00  0.00     0.002 C 
HETATM   13  C7  UNL     1       5.192   1.695  -0.669  1.00  0.00     0.002 C 
HETATM   14  C8  UNL     1       4.053   1.254   0.221  1.00  0.00     0.025 C 
ENDBRANCH   8  10
ENDBRANCH   5   6
ENDBRANCH   2   5
BRANCH   3  15
HETATM   15  C10 UNL     1      -3.443  -0.491   1.108  1.00  0.00     0.179 C 
HETATM   16  C11 UNL     1      -3.848  -0.099  -0.293  1.00  0.00     0.061 C 
HETATM   17  C12 UNL     1      -5.191   0.627  -0.151  1.00  0.00     0.179 C 
HETATM   18  O3  UNL     1      -4.904   1.865   0.403  1.00  0.00    -0.308 OA
HETATM   19  C13 UNL     1      -4.216   1.765   1.603  1.00  0.00     0.445 C 
HETATM   20  F1  UNL     1      -2.989   2.398   1.578  1.00  0.00    -0.154 F 
HETATM   21  F2  UNL     1      -4.984   2.415   2.554  1.00  0.00    -0.154 F 
HETATM   22  N3  UNL     1      -4.027   0.421   2.046  1.00  0.00    -0.324 N 
ATOM     23  H3  UNL     1      -4.295   0.125   2.985  1.00  0.00     0.162 HD
ENDBRANCH   3  15
TORSDOF 4
