REMARK  4 active torsions:
REMARK  status: ('A' for Active; 'I' for Inactive)
REMARK    1  A    between atoms: C1_2  and  C2_4 
REMARK    2  A    between atoms: C5_7  and  C6_8 
REMARK    3  A    between atoms: C7_10  and  C8_11 
REMARK    4  A    between atoms: C8_11  and  C9_13 
ROOT
HETATM    1  C2  UNL     1      -1.542  -0.866   0.215  1.00  0.00     0.171 C 
HETATM    2  C3  UNL     1      -2.123   0.114  -0.739  1.00  0.00     0.035 C 
HETATM    3  C4  UNL     1      -1.627   1.494  -0.441  1.00  0.00     0.014 C 
HETATM    4  C5  UNL     1      -0.112   1.356  -0.770  1.00  0.00     0.049 C 
HETATM    5  C7  UNL     1       0.470   0.482   0.230  1.00  0.00     0.057 C 
HETATM    6  N2  UNL     1      -0.354  -0.506   0.877  1.00  0.00    -0.377 N 
ATOM      7  H2  UNL     1      -0.090  -0.923   1.769  1.00  0.00     0.160 HD
ENDROOT
BRANCH   5   8
HETATM    8  C8  UNL     1       1.859   0.161   0.156  1.00  0.00     0.175 C 
HETATM    9  O2  UNL     1       2.734   1.017   0.427  1.00  0.00    -0.291 OA
BRANCH   8  10
HETATM   10  C9  UNL     1       2.427  -1.173  -0.150  1.00  0.00     0.062 A 
HETATM   11  C10 UNL     1       3.449  -1.531   0.951  1.00  0.00     0.013 A 
HETATM   12  C11 UNL     1       3.793  -1.445  -0.485  1.00  0.00     0.013 A 
ENDBRANCH   8  10
ENDBRANCH   5   8
BRANCH   4  13
HETATM   13  C6  UNL     1       0.408   2.776  -0.788  1.00  0.00     0.096 C 
HETATM   14 BR1  UNL     1      -0.548   3.699  -2.210  1.00  0.00    -0.096 Br
ENDBRANCH   4  13
BRANCH   1  15
HETATM   15  C1  UNL     1      -2.612  -1.279   1.164  1.00  0.00     0.253 C 
HETATM   16  N1  UNL     1      -3.868  -1.453   0.527  1.00  0.00    -0.060 NA
HETATM   17  O1  UNL     1      -2.462  -1.460   2.348  1.00  0.00    -0.275 OA
ENDBRANCH   1  15
TORSDOF 4
