REMARK  4 active torsions:
REMARK  status: ('A' for Active; 'I' for Inactive)
REMARK       I    between atoms: C1_2  and  N1_3 
REMARK    1  A    between atoms: C1_2  and  C8_15 
REMARK    2  A    between atoms: N1_3  and  C2_5 
REMARK    3  A    between atoms: C2_5  and  C3_6 
REMARK    4  A    between atoms: C2_5  and  C4_9 
ROOT
HETATM    1  C2  UNL     1      -0.423  -0.867  -0.298  1.00  0.00     0.207 C 
ENDROOT
BRANCH   1   2
HETATM    2  N1  UNL     1       0.863  -0.191  -0.367  1.00  0.00    -0.345 N 
HETATM    3  C1  UNL     1       1.900  -0.415   0.562  1.00  0.00     0.222 C 
HETATM    4  O1  UNL     1       1.716  -1.234   1.496  1.00  0.00    -0.273 OA
ATOM      5  H1  UNL     1       1.022   0.476  -1.122  1.00  0.00     0.163 HD
BRANCH   3   6
HETATM    6  C8  UNL     1       3.198   0.275   0.481  1.00  0.00     0.078 A 
HETATM    7  C9  UNL     1       3.285   1.673  -0.032  1.00  0.00     0.015 A 
HETATM    8  C10 UNL     1       3.791   0.524  -0.871  1.00  0.00     0.015 A 
ENDBRANCH   3   6
ENDBRANCH   1   2
BRANCH   1   9
HETATM    9  C3  UNL     1      -0.689  -1.696  -1.468  1.00  0.00     0.198 C 
HETATM   10  O2  UNL     1       0.082  -1.838  -2.450  1.00  0.00    -0.646 OA
HETATM   11  O3  UNL     1      -1.890  -2.393  -1.519  1.00  0.00    -0.646 OA
ENDBRANCH   1   9
BRANCH   1  12
HETATM   12  C4  UNL     1      -1.463   0.176  -0.026  1.00  0.00     0.071 C 
HETATM   13 BR1  UNL     1      -1.497   1.492  -1.415  1.00  0.00    -0.080 Br
HETATM   14  C5  UNL     1      -2.853  -0.389   0.132  1.00  0.00     0.052 C 
HETATM   15  C6  UNL     1      -3.477   0.651   1.043  1.00  0.00     0.169 C 
HETATM   16  O4  UNL     1      -2.468   1.387   1.590  1.00  0.00    -0.389 OA
HETATM   17  C7  UNL     1      -1.265   0.778   1.352  1.00  0.00     0.191 C 
ENDBRANCH   1  12
TORSDOF 4
