REMARK  4 active torsions:
REMARK  status: ('A' for Active; 'I' for Inactive)
REMARK    1  A    between atoms: C2_2  and  N1_3 
REMARK    2  A    between atoms: C2_2  and  C8_11 
REMARK    3  A    between atoms: N1_3  and  C3_5 
REMARK       I    between atoms: C8_11  and  N2_13 
REMARK    4  A    between atoms: C11_16  and  C12_17 
ROOT
HETATM    1  C8  UNL     1       0.015   0.144  -1.381  1.00  0.00     0.245 C 
HETATM    2  O1  UNL     1       0.006   0.739  -2.501  1.00  0.00    -0.271 OA
HETATM    3  N2  UNL     1       1.200   0.052  -0.635  1.00  0.00    -0.330 N 
HETATM    4  C9  UNL     1       1.587  -0.698   0.489  1.00  0.00     0.068 C 
HETATM    5  C10 UNL     1       3.050  -0.413   0.809  1.00  0.00     0.058 C 
HETATM    6  C11 UNL     1       3.955  -0.357  -0.380  1.00  0.00     0.081 C 
HETATM    7  C13 UNL     1       3.349   0.474  -1.515  1.00  0.00     0.034 C 
HETATM    8  C14 UNL     1       2.160   1.183  -0.979  1.00  0.00     0.132 C 
ENDROOT
BRANCH   1   9
HETATM    9  C2  UNL     1      -1.337  -0.389  -0.910  1.00  0.00     0.166 C 
HETATM   10  C1  UNL     1      -2.315  -0.057  -2.100  1.00  0.00     0.042 C 
BRANCH   9  11
HETATM   11  N1  UNL     1      -1.830   0.413   0.146  1.00  0.00    -0.398 N 
ATOM     12  H1  UNL     1      -1.277   1.222   0.430  1.00  0.00     0.154 HD
BRANCH  11  13
HETATM   13  C3  UNL     1      -2.985   0.175   0.801  1.00  0.00     0.053 C 
HETATM   14  C4  UNL     1      -2.641   0.082   2.334  1.00  0.00     0.041 C 
HETATM   15  C5  UNL     1      -4.184   1.041   0.669  1.00  0.00     0.036 C 
HETATM   16  C6  UNL     1      -5.025  -0.144   0.182  1.00  0.00     0.042 C 
HETATM   17  C7  UNL     1      -3.835  -1.019   0.513  1.00  0.00     0.197 C 
HETATM   18  F1  UNL     1      -4.147  -1.794   1.627  1.00  0.00    -0.247 F 
ENDBRANCH  11  13
ENDBRANCH   9  11
ENDBRANCH   1   9
BRANCH   6  19
HETATM   19  C12 UNL     1       5.216   0.361  -0.045  1.00  0.00     0.235 C 
HETATM   20  N3  UNL     1       6.045   0.017   1.024  1.00  0.00    -0.062 NA
HETATM   21  O2  UNL     1       5.606   1.353  -0.746  1.00  0.00    -0.276 OA
ENDBRANCH   6  19
TORSDOF 4
