REMARK  4 active torsions:
REMARK  status: ('A' for Active; 'I' for Inactive)
REMARK    1  A    between atoms: C2_2  and  C3_3 
REMARK    2  A    between atoms: C6_6  and  N1_7 
REMARK    3  A    between atoms: N2_10  and  C9_11 
REMARK    4  A    between atoms: C9_11  and  C10_12 
ROOT
HETATM    1  N1  UNL     1       0.270  -0.174  -0.223  1.00  0.00    -0.403 N 
HETATM    2  C7  UNL     1       1.107  -0.417   0.884  1.00  0.00     0.147 C 
HETATM    3  C8  UNL     1       2.073  -1.525   0.428  1.00  0.00     0.292 C 
HETATM    4  N2  UNL     1       3.022  -0.965  -0.523  1.00  0.00     0.100 N 
HETATM    5  C11 UNL     1       2.497   0.126  -1.272  1.00  0.00     0.292 C 
HETATM    6  C12 UNL     1       1.015   0.146  -1.378  1.00  0.00     0.147 C 
ENDROOT
BRANCH   1   7
HETATM    7  C6  UNL     1      -0.948   0.533  -0.012  1.00  0.00     0.097 C 
HETATM    8  C5  UNL     1      -1.747   0.504  -1.260  1.00  0.00     0.027 C 
HETATM    9  C4  UNL     1      -3.171   0.875  -1.169  1.00  0.00     0.010 C 
HETATM   10  C3  UNL     1      -3.845   0.713   0.134  1.00  0.00     0.009 C 
HETATM   11  C14 UNL     1      -2.979   0.704   1.338  1.00  0.00     0.030 C 
HETATM   12  C13 UNL     1      -1.690  -0.033   1.175  1.00  0.00     0.105 C 
HETATM   13 CL1  UNL     1      -1.868  -1.763   0.942  1.00  0.00    -0.123 Cl
BRANCH  10  14
HETATM   14  C2  UNL     1      -4.794  -0.465   0.113  1.00  0.00    -0.032 C 
HETATM   15  C1  UNL     1      -6.111  -0.309   0.096  1.00  0.00     0.007 C 
ENDBRANCH  10  14
ENDBRANCH   1   7
BRANCH   4  16
HETATM   16  C9  UNL     1       4.204  -0.660   0.222  1.00  0.00     0.371 C 
BRANCH  16  17
HETATM   17  C10 UNL     1       5.315  -0.107  -0.552  1.00  0.00     0.259 C 
HETATM   18  N3  UNL     1       6.542   0.240   0.074  1.00  0.00    -0.061 NA
HETATM   19  O1  UNL     1       5.237   0.086  -1.795  1.00  0.00    -0.275 OA
ENDBRANCH  16  17
ENDBRANCH   4  16
TORSDOF 4
