REMARK  12 active torsions:
REMARK  status: ('A' for Active; 'I' for Inactive)
REMARK       I    between atoms: C2_2  and  N1_4 
REMARK    1  A    between atoms: N1_4  and  C3_6 
REMARK    2  A    between atoms: C3_6  and  C4_7 
REMARK    3  A    between atoms: C6_10  and  C7_11 
REMARK    4  A    between atoms: C7_11  and  N2_12 
REMARK       I    between atoms: N2_12  and  C8_13 
REMARK    5  A    between atoms: C8_13  and  C9_15 
REMARK    6  A    between atoms: C9_15  and  C10_16 
REMARK    7  A    between atoms: C10_16  and  C11_17 
REMARK    8  A    between atoms: C11_17  and  C12_18 
REMARK    9  A    between atoms: C12_18  and  C13_19 
REMARK   10  A    between atoms: C13_19  and  C14_20 
REMARK   11  A    between atoms: C14_20  and  C15_21 
REMARK   12  A    between atoms: C15_21  and  N4_25 
ROOT
HETATM    1  N2  UNL     1       2.336  -0.447  -0.070  1.00  0.00    -0.385 NA
HETATM    2  C8  UNL     1       1.309  -0.103  -0.878  1.00  0.00     0.290 C 
HETATM    3  O3  UNL     1       1.302   0.050  -2.139  1.00  0.00    -0.257 OA
ENDROOT
BRANCH   2   4
HETATM    4  C9  UNL     1      -0.094   0.173  -0.278  1.00  0.00     0.119 C 
BRANCH   4   5
HETATM    5  C10 UNL     1      -0.889   0.902  -1.301  1.00  0.00     0.010 C 
BRANCH   5   6
HETATM    6  C11 UNL     1      -2.227   1.392  -1.021  1.00  0.00     0.001 C 
BRANCH   6   7
HETATM    7  C12 UNL     1      -3.389   0.549  -0.724  1.00  0.00     0.000 C 
BRANCH   7   8
HETATM    8  C13 UNL     1      -3.370  -0.306   0.493  1.00  0.00     0.007 C 
BRANCH   8   9
HETATM    9  C14 UNL     1      -4.731  -1.016   0.628  1.00  0.00     0.076 C 
BRANCH   9  10
HETATM   10  C15 UNL     1      -5.820  -0.037   0.760  1.00  0.00     0.073 C 
HETATM   11  N3  UNL     1      -5.672   1.056   1.410  1.00  0.00    -0.389 N 
ATOM     12  H32 UNL     1      -4.765   1.256   1.832  1.00  0.00     0.157 HD
ATOM     13  H31 UNL     1      -6.427   1.735   1.502  1.00  0.00     0.157 HD
BRANCH  10  14
HETATM   14  N4  UNL     1      -7.083  -0.316   0.172  1.00  0.00    -0.362 N 
HETATM   15  C16 UNL     1      -7.573  -1.485  -0.532  1.00  0.00     0.086 C 
HETATM   16  C17 UNL     1      -8.028  -0.826  -1.821  1.00  0.00     0.027 C 
HETATM   17  C21 UNL     1      -8.814  -1.789   0.255  1.00  0.00     0.027 C 
HETATM   18  C18 UNL     1      -8.453   0.573  -1.402  1.00  0.00     0.027 C 
HETATM   19  C19 UNL     1      -8.270   0.540   0.103  1.00  0.00     0.086 C 
HETATM   20  C20 UNL     1      -9.317  -0.399   0.642  1.00  0.00     0.027 C 
ENDBRANCH  10  14
ENDBRANCH   9  10
ENDBRANCH   8   9
ENDBRANCH   7   8
ENDBRANCH   6   7
ENDBRANCH   5   6
ENDBRANCH   4   5
ENDBRANCH   2   4
BRANCH   1  21
HETATM   21  C7  UNL     1       3.395  -0.802   0.763  1.00  0.00     0.192 C 
BRANCH  21  22
HETATM   22  C6  UNL     1       4.517   0.212   0.792  1.00  0.00     0.199 C 
HETATM   23  O2  UNL     1       5.536  -0.217   1.593  1.00  0.00    -0.376 OA
HETATM   24  C5  UNL     1       6.636   0.582   1.642  1.00  0.00     0.203 C 
HETATM   25  C4  UNL     1       7.088   1.089   0.321  1.00  0.00     0.227 C 
HETATM   26  N5  UNL     1       6.056   1.529  -0.529  1.00  0.00    -0.065 N 
HETATM   27  C22 UNL     1       4.955   0.585  -0.578  1.00  0.00     0.271 C 
ATOM     28  H52 UNL     1       5.734   2.461  -0.269  1.00  0.00     0.277 HD
ATOM     29  H51 UNL     1       6.408   1.736  -1.463  1.00  0.00     0.277 HD
BRANCH  25  30
HETATM   30  C3  UNL     1       8.098   0.171  -0.354  1.00  0.00     0.157 C 
BRANCH  30  31
HETATM   31  N1  UNL     1       9.251   0.086   0.501  1.00  0.00    -0.359 N 
HETATM   32  C2  UNL     1      10.359  -0.697   0.113  1.00  0.00     0.213 C 
HETATM   33  C1  UNL     1      11.545  -0.772   0.989  1.00  0.00     0.117 C 
HETATM   34  O1  UNL     1      10.352  -1.321  -0.956  1.00  0.00    -0.274 OA
ATOM     35  H1  UNL     1       9.268   0.591   1.387  1.00  0.00     0.162 HD
ENDBRANCH  30  31
ENDBRANCH  25  30
ENDBRANCH  21  22
ENDBRANCH   1  21
TORSDOF 12
