REMARK  11 active torsions:
REMARK  status: ('A' for Active; 'I' for Inactive)
REMARK    1  A    between atoms: S1_2  and  N1_4 
REMARK    2  A    between atoms: S1_2  and  N4_22 
REMARK    3  A    between atoms: N1_4  and  C1_6 
REMARK    4  A    between atoms: C1_6  and  C2_7 
REMARK    5  A    between atoms: C3_8  and  C4_9 
REMARK    6  A    between atoms: C4_9  and  N2_10 
REMARK    7  A    between atoms: N2_10  and  C5_12 
REMARK    8  A    between atoms: N4_22  and  C13_24 
REMARK    9  A    between atoms: C13_24  and  C14_25 
REMARK   10  A    between atoms: C14_25  and  N5_26 
REMARK   11  A    between atoms: N5_26  and  C15_29 
ROOT
HETATM    1  N1  UNL     1       0.447   1.251   0.386  1.00  0.00    -0.299 N 
ATOM      2  H1  UNL     1       1.069   2.059   0.375  1.00  0.00     0.174 HD
ENDROOT
BRANCH   1   3
HETATM    3  S1  UNL     1      -1.210   1.262   0.460  1.00  0.00     0.315 S 
HETATM    4  O1  UNL     1      -1.847   1.923   1.592  1.00  0.00    -0.183 OA
HETATM    5  O2  UNL     1      -1.629   2.068  -0.784  1.00  0.00    -0.183 OA
BRANCH   3   6
HETATM    6  N4  UNL     1      -1.940  -0.356   0.335  1.00  0.00    -0.301 N 
ATOM      7  H4  UNL     1      -1.558  -1.264   0.600  1.00  0.00     0.173 HD
BRANCH   6   8
HETATM    8  C13 UNL     1      -3.243  -0.025  -0.255  1.00  0.00     0.161 C 
BRANCH   8   9
HETATM    9  C14 UNL     1      -4.252  -0.134   0.855  1.00  0.00     0.253 C 
BRANCH   9  10
HETATM   10  N5  UNL     1      -4.936   1.200   0.738  1.00  0.00    -0.069 N 
ATOM     11  H52 UNL     1      -4.840   1.736   1.600  1.00  0.00     0.277 HD
ATOM     12  H51 UNL     1      -4.429   1.816   0.102  1.00  0.00     0.277 HD
BRANCH  10  13
HETATM   13  C15 UNL     1      -6.296   1.090   0.359  1.00  0.00     0.186 C 
HETATM   14  C16 UNL     1      -6.533   0.552  -1.025  1.00  0.00     0.033 C 
HETATM   15  C17 UNL     1      -6.941  -0.883  -1.064  1.00  0.00     0.002 C 
HETATM   16  C18 UNL     1      -8.232  -1.081  -0.326  1.00  0.00     0.000 C 
HETATM   17  C19 UNL     1      -8.400  -0.193   0.866  1.00  0.00     0.002 C 
HETATM   18  C20 UNL     1      -7.118   0.360   1.410  1.00  0.00     0.033 C 
ENDBRANCH  10  13
ENDBRANCH   9  10
ENDBRANCH   8   9
ENDBRANCH   6   8
ENDBRANCH   3   6
ENDBRANCH   1   3
BRANCH   1  19
HETATM   19  C1  UNL     1       0.822  -0.131   0.341  1.00  0.00     0.161 C 
BRANCH  19  20
HETATM   20  C2  UNL     1       1.579  -0.240  -0.891  1.00  0.00    -0.005 C 
HETATM   21  C3  UNL     1       2.906   0.073  -1.195  1.00  0.00     0.014 C 
BRANCH  21  22
HETATM   22  C4  UNL     1       3.513   1.159  -0.378  1.00  0.00     0.088 C 
BRANCH  22  23
HETATM   23  N2  UNL     1       4.883   1.052  -0.169  1.00  0.00    -0.365 N 
ATOM     24  H2  UNL     1       5.431   1.862  -0.459  1.00  0.00     0.165 HD
BRANCH  23  25
HETATM   25  C5  UNL     1       5.561   0.088   0.334  1.00  0.00     0.041 A 
HETATM   26  C6  UNL     1       5.059  -1.055   0.703  1.00  0.00     0.047 A 
HETATM   27  C7  UNL     1       5.614  -2.237   0.826  1.00  0.00     0.090 A 
HETATM   28  N3  UNL     1       7.023  -2.258   0.596  1.00  0.00    -0.369 N 
HETATM   29  C8  UNL     1       7.616  -1.107   0.303  1.00  0.00     0.017 A 
ATOM     30  H3  UNL     1       7.555  -3.126   0.655  1.00  0.00     0.165 HD
HETATM   31  C9  UNL     1       6.956   0.146   0.132  1.00  0.00    -0.009 A 
HETATM   32  C12 UNL     1       9.092  -0.768   0.208  1.00  0.00     0.058 C 
HETATM   33  C10 UNL     1       7.879   1.207  -0.128  1.00  0.00     0.043 C 
HETATM   34  C11 UNL     1       9.098   0.475  -0.602  1.00  0.00     0.011 C 
ENDBRANCH  23  25
ENDBRANCH  22  23
ENDBRANCH  21  22
ENDBRANCH  19  20
ENDBRANCH   1  19
TORSDOF 11
