REMARK  12 active torsions:
REMARK  status: ('A' for Active; 'I' for Inactive)
REMARK    1  A    between atoms: C2_2  and  N1_5 
REMARK       I    between atoms: N1_5  and  C5_7 
REMARK       I    between atoms: C5_7  and  N3_11 
REMARK    2  A    between atoms: N3_11  and  C6_13 
REMARK    3  A    between atoms: C6_13  and  C7_14 
REMARK    4  A    between atoms: C7_14  and  C8_15 
REMARK    5  A    between atoms: C8_15  and  N4_16 
REMARK       I    between atoms: N4_16  and  C9_18 
REMARK    6  A    between atoms: C9_18  and  C10_20 
REMARK    7  A    between atoms: C10_20  and  C11_21 
REMARK    8  A    between atoms: C11_21  and  C12_22 
REMARK    9  A    between atoms: C12_22  and  C13_23 
REMARK   10  A    between atoms: C13_23  and  C14_24 
REMARK   11  A    between atoms: C14_24  and  N5_25 
REMARK   12  A    between atoms: C19_30  and  N6_31 
ROOT
HETATM    1  N4  UNL     1      -1.400   0.301   0.508  1.00  0.00    -0.361 N 
ATOM      2  H4  UNL     1      -1.727   0.319   1.474  1.00  0.00     0.162 HD
HETATM    3  C9  UNL     1      -0.339  -0.592   0.126  1.00  0.00     0.217 C 
HETATM    4  O1  UNL     1       0.086  -0.640  -1.036  1.00  0.00    -0.274 OA
ENDROOT
BRANCH   1   5
HETATM    5  C8  UNL     1      -2.000   1.168  -0.470  1.00  0.00     0.124 C 
BRANCH   5   6
HETATM    6  C7  UNL     1      -2.668   0.407  -1.604  1.00  0.00     0.040 C 
BRANCH   6   7
HETATM    7  C6  UNL     1      -3.744  -0.481  -1.032  1.00  0.00     0.139 C 
BRANCH   7   8
HETATM    8  N3  UNL     1      -4.734   0.324  -0.358  1.00  0.00    -0.227 N 
HETATM    9  C5  UNL     1      -5.865  -0.273   0.294  1.00  0.00     0.668 C 
HETATM   10  N1  UNL     1      -6.858   0.556   0.858  1.00  0.00    -0.219 N 
HETATM   11  N2  UNL     1      -5.934  -1.552   0.341  1.00  0.00    -0.235 N 
ATOM     12  H1  UNL     1      -6.662   1.056   1.725  1.00  0.00     0.178 HD
ATOM     13  H22 UNL     1      -6.738  -1.976   0.804  1.00  0.00     0.174 HD
ATOM     14  H21 UNL     1      -5.216  -2.151  -0.067  1.00  0.00     0.174 HD
ATOM     15  H3  UNL     1      -4.628   1.338  -0.345  1.00  0.00     0.177 HD
BRANCH  10  16
HETATM   16  C2  UNL     1      -8.141   0.707   0.229  1.00  0.00     0.036 C 
HETATM   17  C1  UNL     1      -9.010   1.648   1.041  1.00  0.00     0.038 C 
HETATM   18  C3  UNL     1      -7.909   1.366  -1.122  1.00  0.00     0.038 C 
HETATM   19  C4  UNL     1      -8.829  -0.604   0.025  1.00  0.00     0.038 C 
ENDBRANCH  10  16
ENDBRANCH   7   8
ENDBRANCH   6   7
ENDBRANCH   5   6
ENDBRANCH   1   5
BRANCH   3  20
HETATM   20  C10 UNL     1       0.228  -1.456   1.172  1.00  0.00     0.103 C 
BRANCH  20  21
HETATM   21  C11 UNL     1       1.452  -2.189   0.728  1.00  0.00     0.009 C 
BRANCH  21  22
HETATM   22  C12 UNL     1       2.583  -1.272   0.405  1.00  0.00     0.002 C 
BRANCH  22  23
HETATM   23  C13 UNL     1       3.821  -2.052  -0.040  1.00  0.00     0.028 C 
BRANCH  23  24
HETATM   24  C14 UNL     1       4.984  -1.205  -0.388  1.00  0.00     0.237 C 
BRANCH  24  25
HETATM   25  N5  UNL     1       5.534  -0.365   0.625  1.00  0.00    -0.069 N 
HETATM   26  C15 UNL     1       5.377  -0.853   1.978  1.00  0.00     0.272 C 
HETATM   27  C16 UNL     1       4.894   0.938   0.559  1.00  0.00     0.237 C 
HETATM   28  C17 UNL     1       5.899   2.023   0.238  1.00  0.00     0.030 C 
HETATM   29  C18 UNL     1       6.501   1.698  -1.108  1.00  0.00     0.035 C 
HETATM   30  C19 UNL     1       7.271   0.404  -0.934  1.00  0.00     0.182 C 
HETATM   31  C20 UNL     1       6.971  -0.251   0.388  1.00  0.00     0.268 C 
BRANCH  30  32
HETATM   32  N6  UNL     1       8.681   0.761  -0.925  1.00  0.00    -0.149 N 
HETATM   33  O2  UNL     1       9.510   0.345  -1.730  1.00  0.00    -0.536 OA
HETATM   34  O3  UNL     1       9.097   1.623   0.062  1.00  0.00    -0.536 OA
ENDBRANCH  30  32
ENDBRANCH  24  25
ENDBRANCH  23  24
ENDBRANCH  22  23
ENDBRANCH  21  22
ENDBRANCH  20  21
ENDBRANCH   3  20
TORSDOF 12
