REMARK  10 active torsions:
REMARK  status: ('A' for Active; 'I' for Inactive)
REMARK    1  A    between atoms: C4_5  and  C5_6 
REMARK       I    between atoms: C5_6  and  N1_8 
REMARK    2  A    between atoms: N1_8  and  C6_10 
REMARK    3  A    between atoms: C10_14  and  C11_15 
REMARK    4  A    between atoms: C12_16  and  C13_17 
REMARK    5  A    between atoms: C13_17  and  C14_18 
REMARK    6  A    between atoms: C14_18  and  C15_19 
REMARK    7  A    between atoms: C15_19  and  C16_20 
REMARK    8  A    between atoms: C16_20  and  N2_21 
REMARK       I    between atoms: N2_21  and  C17_23 
REMARK    9  A    between atoms: C17_23  and  C18_25 
REMARK   10  A    between atoms: C19_26  and  C20_27 
ROOT
HETATM    1  C6  UNL     1      -1.360  -0.049   0.372  1.00  0.00     0.092 C 
HETATM    2  C7  UNL     1      -0.540  -1.098  -0.337  1.00  0.00     0.026 C 
HETATM    3  C8  UNL     1      -0.483  -0.695  -1.778  1.00  0.00     0.003 C 
HETATM    4  C9  UNL     1      -0.789   0.776  -1.740  1.00  0.00     0.010 C 
HETATM    5  C10 UNL     1      -1.058   1.221  -0.386  1.00  0.00     0.030 C 
ENDROOT
BRANCH   5   6
HETATM    6  C11 UNL     1      -0.156   2.139   0.340  1.00  0.00    -0.024 C 
HETATM    7  C12 UNL     1       1.181   1.815   0.750  1.00  0.00    -0.030 C 
BRANCH   7   8
HETATM    8  C13 UNL     1       2.265   1.474  -0.213  1.00  0.00     0.027 C 
BRANCH   8   9
HETATM    9  C14 UNL     1       2.614   2.493  -1.206  1.00  0.00     0.005 C 
BRANCH   9  10
HETATM   10  C15 UNL     1       3.663   2.096  -2.180  1.00  0.00     0.020 C 
BRANCH  10  11
HETATM   11  C16 UNL     1       5.002   1.713  -1.713  1.00  0.00     0.123 C 
BRANCH  11  12
HETATM   12  N2  UNL     1       5.177   0.548  -0.934  1.00  0.00    -0.358 N 
HETATM   13  C17 UNL     1       6.474   0.224  -0.459  1.00  0.00     0.241 C 
HETATM   14  O3  UNL     1       7.461   0.979  -0.737  1.00  0.00    -0.269 OA
ATOM     15  H2  UNL     1       4.382  -0.052  -0.716  1.00  0.00     0.162 HD
BRANCH  13  16
HETATM   16  C18 UNL     1       6.703  -0.982   0.358  1.00  0.00     0.079 C 
HETATM   17  C19 UNL     1       7.913  -1.264   0.787  1.00  0.00     0.076 C 
BRANCH  17  18
HETATM   18  C20 UNL     1       8.139  -2.451   1.591  1.00  0.00     0.254 C 
HETATM   19  N3  UNL     1       9.433  -2.764   2.057  1.00  0.00    -0.058 NA
HETATM   20  O4  UNL     1       7.184  -3.204   1.876  1.00  0.00    -0.272 OA
ENDBRANCH  17  18
ENDBRANCH  13  16
ENDBRANCH  11  12
ENDBRANCH  10  11
ENDBRANCH   9  10
ENDBRANCH   8   9
ENDBRANCH   7   8
ENDBRANCH   5   6
BRANCH   1  21
HETATM   21  N1  UNL     1      -2.793  -0.322   0.238  1.00  0.00    -0.354 N 
HETATM   22  C5  UNL     1      -3.648  -0.442   1.344  1.00  0.00     0.248 C 
HETATM   23  O2  UNL     1      -3.191  -0.314   2.528  1.00  0.00    -0.271 OA
ATOM     24  H1  UNL     1      -3.185  -0.429  -0.697  1.00  0.00     0.163 HD
BRANCH  22  25
HETATM   25  C4  UNL     1      -5.067  -0.713   1.167  1.00  0.00     0.230 C 
HETATM   26  O1  UNL     1      -5.760  -0.800   2.388  1.00  0.00    -0.373 OA
HETATM   27  C3  UNL     1      -7.088  -0.617   2.111  1.00  0.00     0.193 C 
HETATM   28  C2  UNL     1      -7.660  -1.407   0.998  1.00  0.00     0.096 C 
HETATM   29  C1  UNL     1      -8.692  -0.523   0.282  1.00  0.00     0.034 C 
HETATM   30  N4  UNL     1      -6.765  -1.894   0.008  1.00  0.00    -0.412 N 
HETATM   31  C21 UNL     1      -5.384  -1.996   0.427  1.00  0.00     0.156 C 
ATOM     32  H4  UNL     1      -7.073  -2.153  -0.929  1.00  0.00     0.153 HD
ENDBRANCH  22  25
ENDBRANCH   1  21
TORSDOF 10
