REMARK  9 active torsions:
REMARK  status: ('A' for Active; 'I' for Inactive)
REMARK    1  A    between atoms: C2_2  and  C4_4 
REMARK    2  A    between atoms: C6_9  and  C7_10 
REMARK    3  A    between atoms: C7_10  and  C8_11 
REMARK    4  A    between atoms: C7_10  and  C20_23 
REMARK    5  A    between atoms: C8_11  and  C9_12 
REMARK    6  A    between atoms: C9_12  and  C11_14 
REMARK    7  A    between atoms: C13_16  and  C19_22 
REMARK    8  A    between atoms: C16_19  and  C17_20 
REMARK    9  A    between atoms: C24_29  and  C25_30 
ROOT
HETATM    1  C4  UNL     1      -2.373  -2.106   0.023  1.00  0.00     0.180 C 
HETATM    2  N1  UNL     1      -1.671  -1.191   0.837  1.00  0.00    -0.345 N 
ATOM      3  H1  UNL     1      -1.680  -1.386   1.838  1.00  0.00     0.163 HD
HETATM    4  C5  UNL     1      -0.951  -0.029   0.434  1.00  0.00     0.248 C 
HETATM    5  O1  UNL     1      -0.423   0.675   1.362  1.00  0.00    -0.271 OA
HETATM    6  C6  UNL     1      -0.762   0.438  -0.948  1.00  0.00     0.228 C 
HETATM    7  O2  UNL     1      -1.491   1.549  -1.277  1.00  0.00    -0.304 OA
HETATM    8  C23 UNL     1      -2.716   1.950  -1.574  1.00  0.00     0.289 C 
HETATM    9  O3  UNL     1      -3.239   2.067  -2.754  1.00  0.00    -0.262 OA
HETATM   10  C24 UNL     1      -3.700   2.342  -0.532  1.00  0.00     0.234 C 
HETATM   11  O4  UNL     1      -3.503   1.835   0.728  1.00  0.00    -0.304 OA
HETATM   12  C28 UNL     1      -4.358   1.247   1.617  1.00  0.00     0.277 C 
HETATM   13  O5  UNL     1      -4.837   1.796   2.668  1.00  0.00    -0.263 OA
HETATM   14  C29 UNL     1      -4.797  -0.153   1.386  1.00  0.00     0.233 C 
HETATM   15  N2  UNL     1      -4.519  -0.652   0.071  1.00  0.00    -0.350 N 
ATOM     16  H2  UNL     1      -4.923  -0.115  -0.696  1.00  0.00     0.163 HD
HETATM   17  C30 UNL     1      -3.771  -1.774  -0.308  1.00  0.00     0.241 C 
HETATM   18  O6  UNL     1      -4.337  -2.670  -1.051  1.00  0.00    -0.271 OA
ENDROOT
BRANCH   6  19
HETATM   19  C7  UNL     1       0.635   0.530  -1.462  1.00  0.00     0.028 C 
BRANCH  19  20
HETATM   20  C8  UNL     1       1.457  -0.678  -1.552  1.00  0.00     0.012 C 
BRANCH  20  21
HETATM   21  C9  UNL     1       1.874  -1.460  -0.358  1.00  0.00    -0.014 C 
HETATM   22  C10 UNL     1       2.639  -2.666  -0.989  1.00  0.00     0.010 C 
BRANCH  21  23
HETATM   23  C11 UNL     1       2.792  -0.691   0.515  1.00  0.00    -0.006 C 
HETATM   24  C12 UNL     1       4.088  -0.222  -0.031  1.00  0.00     0.015 C 
HETATM   25  C13 UNL     1       4.978  -0.046   1.216  1.00  0.00    -0.039 C 
HETATM   26  C14 UNL     1       5.871   1.109   1.158  1.00  0.00     0.015 C 
HETATM   27  C15 UNL     1       3.924  -0.000   2.314  1.00  0.00     0.015 C 
HETATM   28  C16 UNL     1       3.186  -1.280   1.830  1.00  0.00    -0.005 C 
BRANCH  25  29
HETATM   29  C19 UNL     1       5.597  -1.380   1.471  1.00  0.00    -0.002 A 
HETATM   30  C17 UNL     1       4.349  -2.223   1.799  1.00  0.00    -0.005 A 
HETATM   31  C18 UNL     1       5.501  -2.106   2.729  1.00  0.00     0.011 A 
ENDBRANCH  25  29
ENDBRANCH  21  23
ENDBRANCH  20  21
ENDBRANCH  19  20
BRANCH  19  32
HETATM   32  C20 UNL     1       0.699   1.396  -2.702  1.00  0.00    -0.016 C 
HETATM   33  C21 UNL     1       2.133   1.393  -3.258  1.00  0.00     0.010 C 
HETATM   34  C22 UNL     1       0.375   2.857  -2.387  1.00  0.00     0.010 C 
ENDBRANCH  19  32
ENDBRANCH   6  19
BRANCH   1  35
HETATM   35  C2  UNL     1      -2.411  -3.507   0.631  1.00  0.00     0.009 C 
HETATM   36  C1  UNL     1      -3.066  -3.583   1.963  1.00  0.00     0.012 C 
HETATM   37  C3  UNL     1      -1.043  -4.149   0.679  1.00  0.00     0.012 C 
ENDBRANCH   1  35
BRANCH  10  38
HETATM   38  C25 UNL     1      -3.512   3.877  -0.408  1.00  0.00     0.017 C 
HETATM   39  C26 UNL     1      -3.791   4.549  -1.717  1.00  0.00     0.012 C 
HETATM   40  C27 UNL     1      -4.423   4.394   0.658  1.00  0.00     0.012 C 
ENDBRANCH  10  38
TORSDOF 9
