REMARK  10 active torsions:
REMARK  status: ('A' for Active; 'I' for Inactive)
REMARK    1  A    between atoms: C6_7  and  C7_8 
REMARK    2  A    between atoms: C7_8  and  O1_9 
REMARK    3  A    between atoms: C7_8  and  N2_11 
REMARK    4  A    between atoms: N2_11  and  C9_13 
REMARK    5  A    between atoms: C12_16  and  C13_17 
REMARK    6  A    between atoms: C13_17  and  N3_20 
REMARK    7  A    between atoms: N5_29  and  C19_31 
REMARK    8  A    between atoms: C19_31  and  C20_32 
REMARK    9  A    between atoms: C19_31  and  C25_39 
REMARK   10  A    between atoms: C20_32  and  N6_33 
ROOT
HETATM    1  C1  UNL     1      -4.524  -0.702  -3.564  1.00  0.00     0.150 C 
HETATM    2  N1  UNL     1      -3.136  -0.425  -3.764  1.00  0.00    -0.381 N 
HETATM    3  C2  UNL     1      -2.543  -0.126  -5.053  1.00  0.00     0.127 A 
HETATM    4  C3  UNL     1      -1.129   0.269  -4.814  1.00  0.00     0.061 A 
HETATM    5  C4  UNL     1      -0.922  -0.005  -3.359  1.00  0.00    -0.024 A 
HETATM    6  C5  UNL     1       0.196   0.064  -2.539  1.00  0.00     0.043 A 
HETATM    7  C6  UNL     1       0.188  -0.227  -1.213  1.00  0.00     0.085 A 
HETATM    8  N4  UNL     1      -1.049  -0.608  -0.729  1.00  0.00    -0.337 N 
ATOM      9  H4  UNL     1      -1.112  -0.839   0.262  1.00  0.00     0.167 HD
HETATM   10  C18 UNL     1      -2.160  -0.698  -1.444  1.00  0.00     0.129 A 
HETATM   11  N5  UNL     1      -3.296  -1.063  -0.935  1.00  0.00    -0.367 N 
ATOM     12  H5  UNL     1      -4.091  -1.097  -1.574  1.00  0.00     0.161 HD
HETATM   13  C29 UNL     1      -2.114  -0.392  -2.804  1.00  0.00     0.080 A 
ENDROOT
BRANCH   7  14
HETATM   14  C7  UNL     1       1.296  -0.172  -0.282  1.00  0.00     0.165 C 
BRANCH  14  15
HETATM   15  O1  UNL     1       1.006  -0.501   0.968  1.00  0.00    -0.344 OA
ATOM     16  H1  UNL     1       1.733  -0.465   1.579  1.00  0.00     0.219 HD
ENDBRANCH  14  15
BRANCH  14  17
HETATM   17  N2  UNL     1       2.623   0.161  -0.433  1.00  0.00    -0.360 N 
HETATM   18  C8  UNL     1       3.243   0.554  -1.665  1.00  0.00     0.152 C 
BRANCH  17  19
HETATM   19  C9  UNL     1       3.552   0.136   0.755  1.00  0.00     0.086 C 
HETATM   20  C10 UNL     1       3.989   1.526   1.005  1.00  0.00     0.026 C 
HETATM   21  C11 UNL     1       5.437   1.816   1.045  1.00  0.00     0.009 C 
HETATM   22  C12 UNL     1       6.224   0.648   1.542  1.00  0.00     0.020 C 
HETATM   23  C16 UNL     1       6.006  -0.452   0.514  1.00  0.00     0.009 C 
HETATM   24  C17 UNL     1       4.566  -0.890   0.472  1.00  0.00     0.026 C 
BRANCH  22  25
HETATM   25  C13 UNL     1       7.731   0.926   1.496  1.00  0.00     0.120 C 
HETATM   26  C14 UNL     1       8.456  -0.321   2.019  1.00  0.00     0.046 C 
HETATM   27  C15 UNL     1       8.060   2.025   2.459  1.00  0.00     0.046 C 
BRANCH  25  28
HETATM   28  N3  UNL     1       8.199   1.170   0.166  1.00  0.00    -0.071 N 
ATOM     29  H33 UNL     1       7.947   0.405  -0.459  1.00  0.00     0.275 HD
ATOM     30  H32 UNL     1       7.672   1.923  -0.277  1.00  0.00     0.275 HD
ATOM     31  H31 UNL     1       9.202   1.355   0.135  1.00  0.00     0.275 HD
ENDBRANCH  25  28
ENDBRANCH  22  25
ENDBRANCH  17  19
ENDBRANCH  14  17
ENDBRANCH   7  14
BRANCH  11  32
HETATM   32  C19 UNL     1      -3.551  -1.418   0.405  1.00  0.00     0.118 C 
BRANCH  32  33
HETATM   33  C20 UNL     1      -3.749  -0.363   1.414  1.00  0.00     0.298 C 
BRANCH  33  34
HETATM   34  N6  UNL     1      -4.827   0.557   1.249  1.00  0.00     0.094 N 
HETATM   35  C21 UNL     1      -4.805   1.389   2.485  1.00  0.00     0.298 C 
HETATM   36  C22 UNL     1      -5.971   2.335   2.400  1.00  0.00     0.198 C 
HETATM   37  O2  UNL     1      -5.615   3.307   1.455  1.00  0.00    -0.388 OA
HETATM   38  C23 UNL     1      -5.547   2.667   0.242  1.00  0.00     0.198 C 
HETATM   39  C24 UNL     1      -4.526   1.538   0.196  1.00  0.00     0.298 C 
ENDBRANCH  33  34
ENDBRANCH  32  33
BRANCH  32  40
HETATM   40  C25 UNL     1      -4.689  -2.432   0.537  1.00  0.00    -0.029 C 
HETATM   41  C26 UNL     1      -5.989  -1.944   0.000  1.00  0.00     0.016 C 
HETATM   42  C27 UNL     1      -4.789  -2.793   2.002  1.00  0.00     0.016 C 
HETATM   43  C28 UNL     1      -4.308  -3.726  -0.197  1.00  0.00     0.016 C 
ENDBRANCH  32  40
ENDBRANCH  11  32
TORSDOF 10
