REMARK  8 active torsions:
REMARK  status: ('A' for Active; 'I' for Inactive)
REMARK    1  A    between atoms: C2_2  and  C4_4 
REMARK    2  A    between atoms: C6_6  and  O1_7 
REMARK    3  A    between atoms: O1_7  and  C7_8 
REMARK       I    between atoms: C7_8  and  N1_10 
REMARK    4  A    between atoms: N1_10  and  C8_12 
REMARK    5  A    between atoms: C8_12  and  C9_13 
REMARK    6  A    between atoms: C8_12  and  C13_17 
REMARK    7  A    between atoms: C9_13  and  C10_14 
REMARK       I    between atoms: C13_17  and  N2_19 
REMARK    8  A    between atoms: N2_19  and  C14_20 
REMARK       I    between atoms: N4_25  and  C17_26 
ROOT
HETATM    1  C7  UNL     1      -0.366  -0.724  -0.102  1.00  0.00     0.363 C 
HETATM    2  O2  UNL     1      -0.272  -0.484   1.112  1.00  0.00    -0.238 OA
HETATM    3  N1  UNL     1       0.679  -1.141  -0.943  1.00  0.00    -0.322 N 
ATOM      4  H1  UNL     1       0.455  -1.320  -1.922  1.00  0.00     0.165 HD
ENDROOT
BRANCH   3   5
HETATM    5  C8  UNL     1       2.071  -1.338  -0.515  1.00  0.00     0.194 C 
BRANCH   5   6
HETATM    6  C9  UNL     1       2.450  -2.772  -0.838  1.00  0.00     0.040 C 
BRANCH   6   7
HETATM    7  C10 UNL     1       3.851  -3.086  -0.431  1.00  0.00    -0.020 C 
HETATM    8  C11 UNL     1       4.190  -4.529  -0.789  1.00  0.00     0.009 C 
HETATM    9  C12 UNL     1       3.960  -2.998   1.093  1.00  0.00     0.009 C 
ENDBRANCH   6   7
ENDBRANCH   5   6
BRANCH   5  10
HETATM   10  C13 UNL     1       2.848  -0.416  -1.445  1.00  0.00     0.316 C 
HETATM   11  O3  UNL     1       2.374  -0.327  -2.579  1.00  0.00    -0.255 OA
HETATM   12  N2  UNL     1       3.968   0.213  -0.939  1.00  0.00    -0.344 NA
BRANCH  12  13
HETATM   13  C14 UNL     1       5.033   0.812  -0.458  1.00  0.00     0.251 C 
HETATM   14  N3  UNL     1       5.342   0.528   0.820  1.00  0.00    -0.339 N 
HETATM   15  C15 UNL     1       6.409   1.015   1.584  1.00  0.00     0.084 C 
ATOM     16  H3  UNL     1       4.719  -0.126   1.293  1.00  0.00     0.167 HD
HETATM   17  C16 UNL     1       7.594   1.362   0.695  1.00  0.00     0.180 C 
HETATM   18  N4  UNL     1       7.072   2.234  -0.333  1.00  0.00    -0.276 N 
HETATM   19  C17 UNL     1       7.607   3.511  -0.621  1.00  0.00     0.223 C 
HETATM   20  C19 UNL     1       5.955   1.733  -1.096  1.00  0.00     0.309 C 
HETATM   21  C18 UNL     1       8.778   3.983   0.160  1.00  0.00     0.117 C 
HETATM   22  O4  UNL     1       7.094   4.237  -1.533  1.00  0.00    -0.273 OA
HETATM   23  O5  UNL     1       5.841   2.135  -2.295  1.00  0.00    -0.262 OA
ENDBRANCH  12  13
ENDBRANCH   5  10
ENDBRANCH   3   5
BRANCH   1  24
HETATM   24  O1  UNL     1      -1.612  -0.563  -0.674  1.00  0.00    -0.272 OA
BRANCH  24  25
HETATM   25  C6  UNL     1      -2.791  -0.153   0.024  1.00  0.00     0.272 C 
HETATM   26  C5  UNL     1      -3.818  -1.104  -0.358  1.00  0.00     0.070 C 
HETATM   27  C4  UNL     1      -5.229  -1.073  -0.067  1.00  0.00     0.022 C 
HETATM   28  C24 UNL     1      -5.991   0.205   0.144  1.00  0.00     0.000 C 
HETATM   29  C23 UNL     1      -6.585   0.771  -1.139  1.00  0.00     0.006 C 
HETATM   30  C25 UNL     1      -4.924   1.192   0.539  1.00  0.00     0.020 C 
HETATM   31  C22 UNL     1      -6.267   2.188  -1.448  1.00  0.00     0.007 C 
HETATM   32  C21 UNL     1      -4.794   2.594  -1.250  1.00  0.00     0.015 C 
HETATM   33  C20 UNL     1      -4.169   1.365  -0.759  1.00  0.00     0.133 C 
HETATM   34  C27 UNL     1      -4.825   3.487   0.002  1.00  0.00     0.007 C 
HETATM   35  O6  UNL     1      -2.901   1.179  -0.502  1.00  0.00    -0.355 OA
HETATM   36  C26 UNL     1      -5.457   2.515   0.975  1.00  0.00     0.008 C 
BRANCH  27  37
HETATM   37  C2  UNL     1      -5.627  -1.978   1.064  1.00  0.00    -0.088 C 
HETATM   38  C1  UNL     1      -6.191  -3.156   0.820  1.00  0.00     0.014 C 
HETATM   39  C3  UNL     1      -5.413  -1.593   2.484  1.00  0.00     0.043 C 
ENDBRANCH  27  37
ENDBRANCH  24  25
ENDBRANCH   1  24
TORSDOF 8
