REMARK  21 active torsions:
REMARK  status: ('A' for Active; 'I' for Inactive)
REMARK    1  A    between atoms: C2_2  and  O2_4 
REMARK    2  A    between atoms: O2_4  and  C3_5 
REMARK    3  A    between atoms: C3_5  and  O3_6 
REMARK    4  A    between atoms: C3_5  and  C12_27 
REMARK    5  A    between atoms: O3_6  and  C4_7 
REMARK    6  A    between atoms: C4_7  and  C6_10 
REMARK    7  A    between atoms: C6_10  and  C7_12 
REMARK    8  A    between atoms: C7_12  and  O5_13 
REMARK    9  A    between atoms: C7_12  and  C8_15 
REMARK   10  A    between atoms: C8_15  and  O6_17 
REMARK   11  A    between atoms: C8_15  and  C10_19 
REMARK   12  A    between atoms: C10_19  and  O7_20 
REMARK   13  A    between atoms: C10_19  and  C11_22 
REMARK   14  A    between atoms: C11_22  and  O8_23 
REMARK   15  A    between atoms: C11_22  and  O9_25 
REMARK   16  A    between atoms: C13_32  and  C14_33 
REMARK   17  A    between atoms: N5_36  and  O10_37 
REMARK   18  A    between atoms: C15_39  and  O11_40 
REMARK   19  A    between atoms: C16_42  and  O12_43 
REMARK   20  A    between atoms: C17_45  and  O13_46 
REMARK   21  A    between atoms: C18_48  and  O14_49 
ROOT
HETATM    1  C4  UNL     1      -1.560   0.155   1.102  1.00  0.00     0.303 C 
HETATM    2  C5  UNL     1      -1.647   1.631   1.026  1.00  0.00     0.099 C 
HETATM    3  N1  UNL     1      -1.719   2.789   0.946  1.00  0.00    -0.194 NA
ENDROOT
BRANCH   1   4
HETATM    4  O3  UNL     1      -0.893  -0.403   0.032  1.00  0.00    -0.328 OA
BRANCH   4   5
HETATM    5  C3  UNL     1       0.352  -0.927   0.317  1.00  0.00     0.328 C 
BRANCH   5   6
HETATM    6  O2  UNL     1       0.340  -2.354   0.288  1.00  0.00    -0.284 OA
BRANCH   6   7
HETATM    7  C2  UNL     1       0.516  -3.099   1.423  1.00  0.00     0.257 C 
HETATM    8  C1  UNL     1       0.508  -4.596   1.423  1.00  0.00     0.126 C 
HETATM    9  O1  UNL     1       0.692  -2.488   2.509  1.00  0.00    -0.266 OA
ENDBRANCH   6   7
ENDBRANCH   5   6
BRANCH   5  10
HETATM   10  C12 UNL     1       1.477  -0.370  -0.422  1.00  0.00     0.134 C 
HETATM   11  N2  UNL     1       2.697  -0.894  -0.190  1.00  0.00    -0.296 N 
HETATM   12  N3  UNL     1       3.901  -0.376  -0.268  1.00  0.00    -0.295 N 
ATOM     13  H2  UNL     1       2.682  -1.872   0.099  1.00  0.00     0.187 HD
HETATM   14  C13 UNL     1       4.240   0.825  -0.735  1.00  0.00     0.115 C 
ATOM     15  H3  UNL     1       4.666  -0.961   0.068  1.00  0.00     0.187 HD
HETATM   16  C17 UNL     1       3.492   1.639  -1.578  1.00  0.00     0.134 C 
HETATM   17  C18 UNL     1       2.106   1.726  -1.634  1.00  0.00     0.154 C 
HETATM   18  C19 UNL     1       1.254   0.662  -1.307  1.00  0.00     0.236 C 
HETATM   19  O15 UNL     1       0.155   0.662  -1.904  1.00  0.00    -0.283 OA
BRANCH  14  20
HETATM   20  C14 UNL     1       5.537   1.378  -0.344  1.00  0.00     0.119 A 
HETATM   21  N4  UNL     1       6.047   2.565  -0.713  1.00  0.00    -0.267 N 
HETATM   22  N5  UNL     1       7.246   2.732  -0.166  1.00  0.00    -0.136 N 
ATOM     23  H4  UNL     1       5.582   3.238  -1.323  1.00  0.00     0.190 HD
HETATM   24  C15 UNL     1       7.561   1.664   0.578  1.00  0.00     0.222 A 
HETATM   25  C16 UNL     1       6.478   0.792   0.472  1.00  0.00     0.151 A 
BRANCH  22  26
HETATM   26  O10 UNL     1       8.055   3.827  -0.326  1.00  0.00    -0.266 OA
ATOM     27  H10 UNL     1       8.912   3.946   0.065  1.00  0.00     0.247 HD
ENDBRANCH  22  26
BRANCH  24  28
HETATM   28  O11 UNL     1       8.702   1.415   1.318  1.00  0.00    -0.341 OA
ATOM     29  H11 UNL     1       8.925   0.657   1.846  1.00  0.00     0.219 HD
ENDBRANCH  24  28
BRANCH  25  30
HETATM   30  O12 UNL     1       6.342  -0.438   1.062  1.00  0.00    -0.355 OA
ATOM     31  H12 UNL     1       6.991  -0.842   1.625  1.00  0.00     0.218 HD
ENDBRANCH  25  30
ENDBRANCH  14  20
BRANCH  16  32
HETATM   32  O13 UNL     1       4.198   2.444  -2.446  1.00  0.00    -0.356 OA
ATOM     33  H13 UNL     1       3.687   3.000  -3.022  1.00  0.00     0.218 HD
ENDBRANCH  16  32
BRANCH  17  34
HETATM   34  O14 UNL     1       1.523   2.904  -2.027  1.00  0.00    -0.355 OA
ATOM     35  H14 UNL     1       0.576   2.963  -2.065  1.00  0.00     0.218 HD
ENDBRANCH  17  34
ENDBRANCH   5  10
ENDBRANCH   4   5
ENDBRANCH   1   4
BRANCH   1  36
HETATM   36  C6  UNL     1      -2.862  -0.437   1.442  1.00  0.00     0.201 C 
HETATM   37  O4  UNL     1      -3.342   0.008   2.515  1.00  0.00    -0.291 OA
BRANCH  36  38
HETATM   38  C7  UNL     1      -3.607  -1.428   0.723  1.00  0.00     0.228 C 
BRANCH  38  39
HETATM   39  O5  UNL     1      -4.635  -1.971   1.625  1.00  0.00    -0.385 OA
ATOM     40  H5  UNL     1      -5.129  -2.628   1.148  1.00  0.00     0.210 HD
ENDBRANCH  38  39
BRANCH  38  41
HETATM   41  C8  UNL     1      -4.291  -1.221  -0.554  1.00  0.00     0.117 C 
HETATM   42  C9  UNL     1      -3.416  -0.910  -1.699  1.00  0.00     0.052 C 
BRANCH  41  43
HETATM   43  O6  UNL     1      -4.730  -2.615  -0.868  1.00  0.00    -0.384 OA
ATOM     44  H6  UNL     1      -5.174  -2.481  -1.697  1.00  0.00     0.210 HD
ENDBRANCH  41  43
BRANCH  41  45
HETATM   45  C10 UNL     1      -5.624  -0.525  -0.580  1.00  0.00     0.209 C 
BRANCH  45  46
HETATM   46  O7  UNL     1      -6.193  -0.868  -1.879  1.00  0.00    -0.388 OA
ATOM     47  H7  UNL     1      -7.035  -0.428  -1.895  1.00  0.00     0.210 HD
ENDBRANCH  45  46
BRANCH  45  48
HETATM   48  C11 UNL     1      -5.617   0.960  -0.631  1.00  0.00     0.285 C 
BRANCH  48  49
HETATM   49  O8  UNL     1      -5.196   1.644   0.476  1.00  0.00    -0.369 OA
ATOM     50  H8  UNL     1      -5.192   2.593   0.443  1.00  0.00     0.212 HD
ENDBRANCH  48  49
BRANCH  48  51
HETATM   51  O9  UNL     1      -6.925   1.455  -0.899  1.00  0.00    -0.369 OA
ATOM     52  H9  UNL     1      -6.921   2.404  -0.932  1.00  0.00     0.212 HD
ENDBRANCH  48  51
ENDBRANCH  45  48
ENDBRANCH  41  45
ENDBRANCH  38  41
ENDBRANCH  36  38
ENDBRANCH   1  36
TORSDOF 21
