REMARK  20 active torsions:
REMARK  status: ('A' for Active; 'I' for Inactive)
REMARK    1  A    between atoms: O1_2  and  C2_3 
REMARK    2  A    between atoms: C2_3  and  C3_5 
REMARK    3  A    between atoms: C3_5  and  O4_7 
REMARK    4  A    between atoms: O4_7  and  C4_8 
REMARK    5  A    between atoms: C5_9  and  O5_10 
REMARK    6  A    between atoms: O5_10  and  C6_11 
REMARK    7  A    between atoms: C6_11  and  C7_12 
REMARK    8  A    between atoms: C7_12  and  O6_14 
REMARK    9  A    between atoms: C9_16  and  N1_17 
REMARK   10  A    between atoms: N1_17  and  C10_19 
REMARK   11  A    between atoms: C11_20  and  O7_21 
REMARK   12  A    between atoms: C13_25  and  O9_26 
REMARK   13  A    between atoms: C14_28  and  N2_29 
REMARK   14  A    between atoms: C15_31  and  O10_33 
REMARK   15  A    between atoms: N3_35  and  O11_36 
REMARK   16  A    between atoms: C17_38  and  N4_39 
REMARK   17  A    between atoms: N4_39  and  N5_40 
REMARK   18  A    between atoms: C18_43  and  O12_44 
REMARK   19  A    between atoms: C18_43  and  C19_46 
REMARK   20  A    between atoms: C19_46  and  O14_48 
ROOT
HETATM    1  C4  UNL     1      -2.254  -0.445  -0.210  1.00  0.00     0.209 C 
HETATM    2  C5  UNL     1      -1.115   0.499  -0.494  1.00  0.00     0.179 C 
HETATM    3  C9  UNL     1       0.144  -0.381  -0.603  1.00  0.00     0.139 C 
HETATM    4  C17 UNL     1      -0.315  -1.640   0.126  1.00  0.00     0.171 C 
HETATM    5  C18 UNL     1      -1.662  -1.784  -0.580  1.00  0.00     0.195 C 
ENDROOT
BRANCH   3   6
HETATM    6  N1  UNL     1       1.274   0.229  -0.052  1.00  0.00    -0.363 N 
ATOM      7  H1  UNL     1       1.099   1.047   0.531  1.00  0.00     0.161 HD
BRANCH   6   8
HETATM    8  C10 UNL     1       2.618  -0.142  -0.200  1.00  0.00     0.169 A 
HETATM    9  C11 UNL     1       3.076  -1.137  -1.031  1.00  0.00     0.166 A 
HETATM   10  C12 UNL     1       4.420  -1.464  -1.087  1.00  0.00     0.245 A 
HETATM   11  O8  UNL     1       4.817  -2.373  -1.849  1.00  0.00    -0.282 OA
HETATM   12  C13 UNL     1       5.352  -0.805  -0.314  1.00  0.00     0.166 A 
HETATM   13  C14 UNL     1       4.917   0.191   0.516  1.00  0.00     0.174 A 
HETATM   14  N3  UNL     1       3.554   0.483   0.540  1.00  0.00    -0.186 N 
BRANCH   9  15
HETATM   15  O7  UNL     1       2.174  -1.819  -1.827  1.00  0.00    -0.354 OA
ATOM     16  H7  UNL     1       2.490  -2.507  -2.401  1.00  0.00     0.218 HD
ENDBRANCH   9  15
BRANCH  12  17
HETATM   17  O9  UNL     1       6.691  -1.183  -0.398  1.00  0.00    -0.354 OA
ATOM     18  H9  UNL     1       7.333  -0.729   0.135  1.00  0.00     0.218 HD
ENDBRANCH  12  17
BRANCH  13  19
HETATM   19  N2  UNL     1       5.728   1.041   1.280  1.00  0.00    -0.323 N 
HETATM   20  C15 UNL     1       7.033   1.434   1.256  1.00  0.00     0.112 C 
HETATM   21  C16 UNL     1       8.097   1.235   0.275  1.00  0.00     0.097 C 
ATOM     22  H2  UNL     1       5.212   1.474   2.046  1.00  0.00     0.169 HD
BRANCH  20  23
HETATM   23  O10 UNL     1       7.391   2.141   2.333  1.00  0.00    -0.350 OA
ATOM     24  H10 UNL     1       8.301   2.415   2.316  1.00  0.00     0.219 HD
ENDBRANCH  20  23
ENDBRANCH  13  19
BRANCH  14  25
HETATM   25  O11 UNL     1       3.101   1.494   1.376  1.00  0.00    -0.279 OA
ATOM     26  H11 UNL     1       3.761   1.935   1.898  1.00  0.00     0.245 HD
ENDBRANCH  14  25
ENDBRANCH   6   8
ENDBRANCH   3   6
BRANCH   2  27
HETATM   27  O5  UNL     1      -0.971   1.484   0.441  1.00  0.00    -0.379 OA
BRANCH  27  28
HETATM   28  C6  UNL     1      -1.164   2.724  -0.155  1.00  0.00     0.199 C 
BRANCH  28  29
HETATM   29  C7  UNL     1      -1.016   3.853   0.835  1.00  0.00     0.138 C 
HETATM   30  C8  UNL     1      -2.082   3.801   1.889  1.00  0.00     0.041 C 
BRANCH  29  31
HETATM   31  O6  UNL     1       0.266   3.806   1.364  1.00  0.00    -0.394 OA
ATOM     32  H6  UNL     1       0.359   4.517   1.987  1.00  0.00     0.210 HD
ENDBRANCH  29  31
ENDBRANCH  28  29
ENDBRANCH  27  28
ENDBRANCH   2  27
BRANCH   4  33
HETATM   33  N4  UNL     1      -0.607  -1.361   1.518  1.00  0.00    -0.138 NA
BRANCH  33  34
HETATM   34  N5  UNL     1       0.497  -0.821   2.189  1.00  0.00    -0.348 N 
ATOM     35  H52 UNL     1       1.395  -0.650   1.737  1.00  0.00     0.172 HD
ATOM     36  H51 UNL     1       0.292  -0.625   3.169  1.00  0.00     0.172 HD
ENDBRANCH  33  34
ENDBRANCH   4  33
BRANCH   1  37
HETATM   37  O4  UNL     1      -3.352  -0.235  -1.082  1.00  0.00    -0.302 OA
BRANCH  37  38
HETATM   38  C3  UNL     1      -4.593  -0.031  -0.538  1.00  0.00     0.359 C 
HETATM   39  O3  UNL     1      -4.724  -0.035   0.718  1.00  0.00    -0.253 OA
BRANCH  38  40
HETATM   40  C2  UNL     1      -5.795   0.196  -1.346  1.00  0.00     0.358 C 
HETATM   41  O2  UNL     1      -5.716   0.210  -2.602  1.00  0.00    -0.253 OA
BRANCH  40  42
HETATM   42  O1  UNL     1      -7.036   0.399  -0.776  1.00  0.00    -0.318 OA
HETATM   43  C1  UNL     1      -8.157   0.613  -1.601  1.00  0.00     0.213 C 
ENDBRANCH  40  42
ENDBRANCH  38  40
ENDBRANCH  37  38
ENDBRANCH   1  37
BRANCH   5  44
HETATM   44  O12 UNL     1      -1.364  -1.764  -1.951  1.00  0.00    -0.376 OA
ATOM     45  H12 UNL     1      -0.992  -2.606  -2.184  1.00  0.00     0.211 HD
ENDBRANCH   5  44
BRANCH   5  46
HETATM   46  C19 UNL     1      -2.453  -2.929  -0.194  1.00  0.00     0.297 C 
HETATM   47  O13 UNL     1      -2.879  -3.143   0.958  1.00  0.00    -0.262 OA
BRANCH  46  48
HETATM   48  O14 UNL     1      -2.767  -3.867  -1.171  1.00  0.00    -0.324 OA
HETATM   49  C20 UNL     1      -3.527  -5.024  -0.931  1.00  0.00     0.213 C 
ENDBRANCH  46  48
ENDBRANCH   5  46
TORSDOF 20
