REMARK  17 active torsions:
REMARK  status: ('A' for Active; 'I' for Inactive)
REMARK    1  A    between atoms: N1_1  and  C1_4 
REMARK    2  A    between atoms: C2_7  and  C3_8 
REMARK    3  A    between atoms: C3_8  and  S1_9 
REMARK    4  A    between atoms: S1_9  and  C4_10 
REMARK    5  A    between atoms: N6_16  and  C5_17 
REMARK    6  A    between atoms: C7_19  and  O1_20 
REMARK    7  A    between atoms: C8_22  and  O2_23 
REMARK    8  A    between atoms: C9_25  and  O3_26 
REMARK    9  A    between atoms: O3_26  and  C10_27 
REMARK   10  A    between atoms: C10_27  and  C11_28 
REMARK   11  A    between atoms: C13_40  and  N12_41 
REMARK   12  A    between atoms: N12_41  and  C14_42 
REMARK   13  A    between atoms: C15_46  and  O4_47 
REMARK   14  A    between atoms: C15_46  and  O5_49 
REMARK   15  A    between atoms: C16_51  and  O6_52 
REMARK   16  A    between atoms: C16_51  and  C17_54 
REMARK   17  A    between atoms: C17_54  and  O7_55 
ROOT
HETATM    1  C3  UNL     1      -1.528  -0.557   3.329  1.00  0.00     0.159 C 
ENDROOT
BRANCH   1   2
HETATM    2  C2  UNL     1      -0.655   0.343   2.582  1.00  0.00     0.110 A 
HETATM    3  N2  UNL     1      -1.069   1.607   2.358  1.00  0.00    -0.180 N 
HETATM    4  C1  UNL     1      -0.302   2.493   1.693  1.00  0.00     0.680 A 
ATOM      5  H2  UNL     1      -1.984   1.899   2.700  1.00  0.00     0.185 HD
HETATM    6  N14 UNL     1       0.892   2.156   1.232  1.00  0.00    -0.149 N 
HETATM    7  C13 UNL     1       1.372   0.877   1.428  1.00  0.00     0.273 A 
ATOM      8  H14 UNL     1       1.458   2.842   0.732  1.00  0.00     0.188 HD
HETATM    9  N11 UNL     1       0.547   0.023   2.110  1.00  0.00    -0.304 N 
ATOM     10  H11 UNL     1       0.878  -0.929   2.268  1.00  0.00     0.171 HD
BRANCH   4  11
HETATM   11  N1  UNL     1      -0.733   3.713   1.492  1.00  0.00    -0.234 N 
ATOM     12  H12 UNL     1      -1.653   3.973   1.847  1.00  0.00     0.174 HD
ATOM     13  H11 UNL     1      -0.152   4.384   0.989  1.00  0.00     0.174 HD
ENDBRANCH   4  11
BRANCH   7  14
HETATM   14  N12 UNL     1       2.433   0.582   1.011  1.00  0.00    -0.354 NA
BRANCH  14  15
HETATM   15  C14 UNL     1       3.622   0.228   0.552  1.00  0.00     0.519 C 
HETATM   16  N13 UNL     1       3.700  -1.144   0.021  1.00  0.00     0.045 N 
HETATM   17  C15 UNL     1       4.899  -1.179  -0.758  1.00  0.00     0.400 C 
ATOM     18 2H13 UNL     1       3.655  -1.866   0.740  1.00  0.00     0.290 HD
ATOM     19 1H13 UNL     1       2.868  -1.435  -0.492  1.00  0.00     0.290 HD
HETATM   20  C16 UNL     1       5.021   0.239  -1.216  1.00  0.00     0.275 C 
HETATM   21  O8  UNL     1       4.178   1.019  -0.479  1.00  0.00    -0.287 OA
BRANCH  17  22
HETATM   22  O4  UNL     1       4.711  -2.059  -1.846  1.00  0.00    -0.339 OA
ATOM     23  H4  UNL     1       5.507  -2.082  -2.363  1.00  0.00     0.215 HD
ENDBRANCH  17  22
BRANCH  17  24
HETATM   24  O5  UNL     1       6.015  -1.603  -0.067  1.00  0.00    -0.339 OA
ATOM     25  H5  UNL     1       6.811  -1.626  -0.584  1.00  0.00     0.215 HD
ENDBRANCH  17  24
BRANCH  20  26
HETATM   26  O6  UNL     1       4.616   0.316  -2.566  1.00  0.00    -0.358 OA
ATOM     27  H6  UNL     1       4.694   1.217  -2.857  1.00  0.00     0.213 HD
ENDBRANCH  20  26
BRANCH  20  28
HETATM   28  C17 UNL     1       6.456   0.731  -1.186  1.00  0.00     0.240 C 
BRANCH  28  29
HETATM   29  O7  UNL     1       7.000   0.715   0.088  1.00  0.00    -0.395 OA
ATOM     30  H7  UNL     1       7.898   1.023   0.107  1.00  0.00     0.209 HD
ENDBRANCH  28  29
ENDBRANCH  20  28
ENDBRANCH  14  15
ENDBRANCH   7  14
ENDBRANCH   1   2
BRANCH   1  31
HETATM   31  S1  UNL     1      -2.723  -1.483   2.392  1.00  0.00    -0.083 SA
BRANCH  31  32
HETATM   32  C4  UNL     1      -1.996  -2.656   1.284  1.00  0.00     0.180 A 
HETATM   33  N3  UNL     1      -1.617  -3.942   1.538  1.00  0.00    -0.266 N 
HETATM   34  N4  UNL     1      -1.145  -4.499   0.453  1.00  0.00    -0.224 N 
ATOM     35  H3  UNL     1      -1.691  -4.403   2.445  1.00  0.00     0.190 HD
HETATM   36  N5  UNL     1      -1.206  -3.602  -0.515  1.00  0.00     0.003 NA
ATOM     37  H4  UNL     1      -0.794  -5.453   0.369  1.00  0.00     0.205 HD
HETATM   38  N6  UNL     1      -1.729  -2.463  -0.015  1.00  0.00    -0.215 N 
BRANCH  38  39
HETATM   39  C5  UNL     1      -1.945  -1.310  -0.818  1.00  0.00     0.062 A 
HETATM   40  C6  UNL     1      -0.873  -0.625  -1.336  1.00  0.00     0.071 A 
HETATM   41  C7  UNL     1      -1.059   0.491  -2.124  1.00  0.00     0.103 A 
HETATM   42  C8  UNL     1      -2.316   0.970  -2.428  1.00  0.00     0.132 A 
HETATM   43  C9  UNL     1      -3.416   0.282  -1.908  1.00  0.00     0.107 A 
HETATM   44  C12 UNL     1      -3.209  -0.830  -1.123  1.00  0.00     0.071 A 
BRANCH  41  45
HETATM   45  O1  UNL     1       0.054   1.146  -2.621  1.00  0.00    -0.358 OA
ATOM     46  H1  UNL     1      -0.074   1.915  -3.164  1.00  0.00     0.217 HD
ENDBRANCH  41  45
BRANCH  42  47
HETATM   47  O2  UNL     1      -2.485   2.096  -3.224  1.00  0.00    -0.356 OA
ATOM     48  H2  UNL     1      -3.351   2.426  -3.433  1.00  0.00     0.218 HD
ENDBRANCH  42  47
BRANCH  43  49
HETATM   49  O3  UNL     1      -4.665   0.745  -2.202  1.00  0.00    -0.341 OA
BRANCH  49  50
HETATM   50  C10 UNL     1      -5.894   0.235  -1.804  1.00  0.00     0.255 C 
BRANCH  50  51
HETATM   51  C11 UNL     1      -6.144   0.198  -0.363  1.00  0.00     0.137 A 
HETATM   52  N7  UNL     1      -7.072  -0.570   0.238  1.00  0.00    -0.270 N 
HETATM   53  N8  UNL     1      -7.030  -0.353   1.530  1.00  0.00    -0.227 N 
ATOM     54  H7  UNL     1      -7.705  -1.215  -0.235  1.00  0.00     0.190 HD
HETATM   55  N9  UNL     1      -6.085   0.550   1.791  1.00  0.00    -0.227 N 
ATOM     56  H8  UNL     1      -7.626  -0.803   2.225  1.00  0.00     0.210 HD
HETATM   57  N10 UNL     1      -5.562   0.871   0.645  1.00  0.00    -0.270 N 
ATOM     58  H9  UNL     1      -5.824   0.916   2.707  1.00  0.00     0.210 HD
ATOM     59  H10 UNL     1      -4.807   1.547   0.526  1.00  0.00     0.190 HD
ENDBRANCH  50  51
ENDBRANCH  49  50
ENDBRANCH  43  49
ENDBRANCH  38  39
ENDBRANCH  31  32
ENDBRANCH   1  31
TORSDOF 17
