REMARK  17 active torsions:
REMARK  status: ('A' for Active; 'I' for Inactive)
REMARK    1  A    between atoms: C2_2  and  O2_4 
REMARK    2  A    between atoms: O2_4  and  C3_5 
REMARK    3  A    between atoms: C3_5  and  N1_6 
REMARK    4  A    between atoms: C4_7  and  C5_8 
REMARK    5  A    between atoms: C5_8  and  O3_9 
REMARK    6  A    between atoms: C5_8  and  N2_11 
REMARK    7  A    between atoms: N2_11  and  C6_13 
REMARK    8  A    between atoms: C6_13  and  C7_14 
REMARK    9  A    between atoms: C6_13  and  C8_17 
REMARK   10  A    between atoms: C7_14  and  O4_15 
REMARK   11  A    between atoms: C8_17  and  O5_18 
REMARK   12  A    between atoms: C8_17  and  O6_20 
REMARK   13  A    between atoms: C9_24  and  C10_25 
REMARK   14  A    between atoms: C12_27  and  N4_28 
REMARK   15  A    between atoms: N4_28  and  C13_30 
REMARK   16  A    between atoms: C14_33  and  N6_34 
REMARK   17  A    between atoms: C16_44  and  O7_45 
ROOT
HETATM    1  N1  UNL     1       1.381   1.103  -0.286  1.00  0.00    -0.259 N 
HETATM    2  C4  UNL     1       1.734  -0.164  -0.432  1.00  0.00     0.166 A 
HETATM    3  N3  UNL     1       0.714  -1.093  -0.632  1.00  0.00    -0.324 N 
ATOM      4  H3  UNL     1       0.956  -2.077  -0.748  1.00  0.00     0.169 HD
HETATM    5  C9  UNL     1      -0.555  -0.736  -0.675  1.00  0.00     0.121 A 
HETATM    6  N11 UNL     1      -0.871   0.563  -0.521  1.00  0.00    -0.293 N 
ATOM      7  H11 UNL     1      -1.853   0.837  -0.554  1.00  0.00     0.172 HD
HETATM    8  C20 UNL     1       0.051   1.505  -0.327  1.00  0.00     0.331 A 
HETATM    9  O9  UNL     1      -0.235   2.730  -0.181  1.00  0.00    -0.246 OA
ENDROOT
BRANCH   5  10
HETATM   10  C10 UNL     1      -1.651  -1.689  -0.884  1.00  0.00     0.014 C 
HETATM   11  C11 UNL     1      -2.929  -1.174  -0.904  1.00  0.00     0.048 C 
HETATM   12  C12 UNL     1      -4.135  -1.778  -1.230  1.00  0.00     0.085 C 
HETATM   13  C16 UNL     1      -4.297  -2.976  -1.884  1.00  0.00     0.121 C 
HETATM   14  C17 UNL     1      -3.463  -4.085  -1.862  1.00  0.00     0.131 C 
HETATM   15  N10 UNL     1      -4.036  -5.291  -2.322  1.00  0.00    -0.095 NA
HETATM   16  C18 UNL     1      -2.147  -4.096  -1.436  1.00  0.00     0.199 C 
HETATM   17  O8  UNL     1      -1.634  -5.238  -1.406  1.00  0.00    -0.286 OA
HETATM   18  C19 UNL     1      -1.341  -3.022  -1.047  1.00  0.00     0.072 C 
BRANCH  12  19
HETATM   19  N4  UNL     1      -5.323  -1.124  -0.863  1.00  0.00    -0.189 N 
ATOM     20  H4  UNL     1      -6.212  -1.573  -1.083  1.00  0.00     0.184 HD
BRANCH  19  21
HETATM   21  C13 UNL     1      -5.346   0.138  -0.198  1.00  0.00     0.684 A 
HETATM   22  N5  UNL     1      -5.728   1.174  -0.826  1.00  0.00    -0.179 N 
HETATM   23  C14 UNL     1      -5.792   2.506  -0.251  1.00  0.00     0.403 A 
ATOM     24  H5  UNL     1      -6.009   1.063  -1.800  1.00  0.00     0.181 HD
HETATM   25  N7  UNL     1      -5.371   2.538   1.130  1.00  0.00    -0.320 N 
HETATM   26  C15 UNL     1      -4.979   1.525   1.803  1.00  0.00     0.205 A 
ATOM     27  H7  UNL     1      -5.388   3.440   1.606  1.00  0.00     0.166 HD
HETATM   28  N8  UNL     1      -4.590   1.677   3.152  1.00  0.00    -0.063 NA
HETATM   29  N9  UNL     1      -4.950   0.269   1.163  1.00  0.00    -0.164 N 
ATOM     30  H9  UNL     1      -4.642  -0.554   1.681  1.00  0.00     0.187 HD
BRANCH  23  31
HETATM   31  N6  UNL     1      -4.899   3.353  -1.012  1.00  0.00    -0.040 N 
ATOM     32  H63 UNL     1      -3.948   2.986  -1.060  1.00  0.00     0.279 HD
ATOM     33  H62 UNL     1      -5.097   3.342  -2.012  1.00  0.00     0.279 HD
ATOM     34  H61 UNL     1      -4.944   4.289  -0.608  1.00  0.00     0.279 HD
ENDBRANCH  23  31
ENDBRANCH  19  21
ENDBRANCH  12  19
BRANCH  13  35
HETATM   35  O7  UNL     1      -5.414  -3.149  -2.678  1.00  0.00    -0.357 OA
ATOM     36  H7  UNL     1      -5.526  -3.977  -3.130  1.00  0.00     0.218 HD
ENDBRANCH  13  35
ENDBRANCH   5  10
BRANCH   2  37
HETATM   37  C5  UNL     1       3.084  -0.655  -0.372  1.00  0.00     0.182 C 
BRANCH  37  38
HETATM   38  O3  UNL     1       3.206  -1.823  -1.004  1.00  0.00    -0.344 OA
ATOM     39  H3  UNL     1       4.098  -2.147  -0.964  1.00  0.00     0.219 HD
ENDBRANCH  37  38
BRANCH  37  40
HETATM   40  N2  UNL     1       4.260  -0.196   0.187  1.00  0.00    -0.356 N 
ATOM     41  H2  UNL     1       4.285   0.683   0.703  1.00  0.00     0.162 HD
BRANCH  40  42
HETATM   42  C6  UNL     1       5.489  -1.016   0.017  1.00  0.00     0.162 C 
BRANCH  42  43
HETATM   43  C7  UNL     1       6.022  -1.442   1.349  1.00  0.00     0.194 C 
BRANCH  43  44
HETATM   44  O4  UNL     1       6.354  -0.375   2.169  1.00  0.00    -0.399 OA
ATOM     45  H4  UNL     1       6.692  -0.645   3.015  1.00  0.00     0.209 HD
ENDBRANCH  43  44
ENDBRANCH  42  43
BRANCH  42  46
HETATM   46  C8  UNL     1       6.495  -0.143  -0.689  1.00  0.00     0.278 C 
BRANCH  46  47
HETATM   47  O5  UNL     1       7.691  -0.827  -0.896  1.00  0.00    -0.369 OA
ATOM     48  H5  UNL     1       8.325  -0.277  -1.341  1.00  0.00     0.212 HD
ENDBRANCH  46  47
BRANCH  46  49
HETATM   49  O6  UNL     1       6.710   1.000   0.081  1.00  0.00    -0.369 OA
ATOM     50  H6  UNL     1       7.344   1.550  -0.364  1.00  0.00     0.212 HD
ENDBRANCH  46  49
ENDBRANCH  42  46
ENDBRANCH  40  42
ENDBRANCH  37  40
ENDBRANCH   2  37
BRANCH   1  51
HETATM   51  C3  UNL     1       2.306   2.178  -0.080  1.00  0.00     0.316 C 
BRANCH  51  52
HETATM   52  O2  UNL     1       2.505   2.501   1.294  1.00  0.00    -0.301 OA
BRANCH  52  53
HETATM   53  C2  UNL     1       3.357   3.507   1.682  1.00  0.00     0.256 C 
HETATM   54  C1  UNL     1       3.613   3.896   3.076  1.00  0.00     0.126 C 
HETATM   55  O1  UNL     1       3.958   4.133   0.745  1.00  0.00    -0.266 OA
ENDBRANCH  52  53
ENDBRANCH  51  52
ENDBRANCH   1  51
TORSDOF 17
