REMARK  12 active torsions:
REMARK  status: ('A' for Active; 'I' for Inactive)
REMARK    1  A    between atoms: C1_2  and  C2_4 
REMARK    2  A    between atoms: N4_8  and  C3_9 
REMARK    3  A    between atoms: C4_11  and  C5_12 
REMARK       I    between atoms: C5_12  and  N5_14 
REMARK    4  A    between atoms: N5_14  and  C6_16 
REMARK    5  A    between atoms: C6_16  and  N6_17 
REMARK    6  A    between atoms: C6_16  and  C7_21 
REMARK       I    between atoms: N7_24  and  C9_26 
REMARK       I    between atoms: C9_26  and  N8_27 
REMARK       I    between atoms: C9_26  and  N9_31 
REMARK    7  A    between atoms: C11_37  and  S1_38 
REMARK    8  A    between atoms: S1_38  and  S2_39 
REMARK    9  A    between atoms: S2_39  and  C12_40 
REMARK   10  A    between atoms: C12_40  and  C13_41 
REMARK   11  A    between atoms: C14_44  and  O7_45 
REMARK   12  A    between atoms: C15_47  and  O8_48 
ROOT
HETATM    1  C7  UNL     1      -1.906  -0.465   0.945  1.00  0.00     0.139 A 
HETATM    2  O4  UNL     1      -1.537   0.221  -0.129  1.00  0.00    -0.289 OA
HETATM    3  C8  UNL     1      -2.112   1.360  -0.493  1.00  0.00     0.172 A 
HETATM    4  N7  UNL     1      -1.673   1.929  -1.541  1.00  0.00    -0.320 N 
ATOM      5  H7  UNL     1      -0.908   1.421  -1.984  1.00  0.00     0.165 HD
HETATM    6  C9  UNL     1      -2.018   3.106  -2.215  1.00  0.00     0.482 C 
HETATM    7  N8  UNL     1      -1.401   3.012  -3.565  1.00  0.00    -0.033 N 
ATOM      8  H81 UNL     1      -1.652   3.870  -4.056  1.00  0.00     0.278 HD
ATOM      9  H82 UNL     1      -1.661   2.165  -4.071  1.00  0.00     0.278 HD
ATOM     10  H83 UNL     1      -0.396   2.840  -3.539  1.00  0.00     0.278 HD
HETATM   11  N9  UNL     1      -1.458   4.316  -1.632  1.00  0.00    -0.033 N 
ATOM     12  H91 UNL     1      -1.709   5.174  -2.123  1.00  0.00     0.278 HD
ATOM     13  H92 UNL     1      -0.444   4.236  -1.550  1.00  0.00     0.278 HD
ATOM     14  H93 UNL     1      -1.707   4.384  -0.645  1.00  0.00     0.278 HD
HETATM   15  C10 UNL     1      -3.123   1.780   0.325  1.00  0.00     0.117 A 
HETATM   16  N10 UNL     1      -3.821   3.006   0.027  1.00  0.00    -0.096 NA
HETATM   17  C11 UNL     1      -3.565   1.128   1.452  1.00  0.00     0.075 A 
HETATM   18  C14 UNL     1      -2.911  -0.078   1.786  1.00  0.00     0.119 A 
ENDROOT
BRANCH   1  19
HETATM   19  C6  UNL     1      -1.145  -1.710   1.194  1.00  0.00     0.345 C 
BRANCH  19  20
HETATM   20  N5  UNL     1       0.282  -1.400   0.948  1.00  0.00    -0.326 N 
HETATM   21  C5  UNL     1       0.978  -1.960  -0.142  1.00  0.00     0.251 C 
HETATM   22  O3  UNL     1       0.396  -2.751  -0.950  1.00  0.00    -0.271 OA
ATOM     23  H5  UNL     1       0.772  -0.768   1.581  1.00  0.00     0.165 HD
BRANCH  21  24
HETATM   24  C4  UNL     1       2.406  -1.636  -0.368  1.00  0.00     0.249 C 
HETATM   25  O2  UNL     1       2.948  -2.256  -1.476  1.00  0.00    -0.345 OA
HETATM   26  C3  UNL     1       4.018  -2.729  -0.737  1.00  0.00     0.277 C 
HETATM   27  C15 UNL     1       3.367  -2.330   0.558  1.00  0.00     0.206 C 
BRANCH  26  28
HETATM   28  N4  UNL     1       5.244  -2.017  -1.030  1.00  0.00    -0.229 N 
HETATM   29  N3  UNL     1       6.441  -2.181  -0.474  1.00  0.00    -0.016 NA
HETATM   30  N2  UNL     1       7.310  -1.342  -1.007  1.00  0.00    -0.276 N 
HETATM   31  C2  UNL     1       6.692  -0.594  -1.940  1.00  0.00     0.154 A 
ATOM     32  H2  UNL     1       8.295  -1.272  -0.752  1.00  0.00     0.184 HD
HETATM   33  C16 UNL     1       5.376  -1.038  -1.941  1.00  0.00     0.167 A 
HETATM   34  N11 UNL     1       4.364  -0.512  -2.789  1.00  0.00    -0.079 NA
BRANCH  31  35
HETATM   35  C1  UNL     1       7.290   0.452  -2.764  1.00  0.00     0.285 C 
HETATM   36  N1  UNL     1       8.657   0.755  -2.608  1.00  0.00    -0.056 NA
HETATM   37  O1  UNL     1       6.538   1.044  -3.589  1.00  0.00    -0.269 OA
ENDBRANCH  31  35
ENDBRANCH  26  28
BRANCH  27  38
HETATM   38  O8  UNL     1       4.173  -1.474   1.287  1.00  0.00    -0.388 OA
ATOM     39  H8  UNL     1       3.762  -1.222   2.105  1.00  0.00     0.210 HD
ENDBRANCH  27  38
ENDBRANCH  21  24
ENDBRANCH  19  20
BRANCH  19  40
HETATM   40  N6  UNL     1      -1.215  -2.266   2.490  1.00  0.00    -0.052 N 
ATOM     41  H63 UNL     1      -0.599  -3.068   2.620  1.00  0.00     0.277 HD
ATOM     42  H62 UNL     1      -0.801  -1.671   3.208  1.00  0.00     0.277 HD
ATOM     43  H61 UNL     1      -2.198  -2.480   2.659  1.00  0.00     0.277 HD
ENDBRANCH  19  40
ENDBRANCH   1  19
BRANCH  18  44
HETATM   44  O7  UNL     1      -3.360  -0.705   2.894  1.00  0.00    -0.357 OA
ATOM     45  H7  UNL     1      -4.059  -0.436   3.479  1.00  0.00     0.218 HD
ENDBRANCH  18  44
BRANCH  17  46
HETATM   46  S1  UNL     1      -4.863   1.716   2.478  1.00  0.00    -0.052 SA
BRANCH  46  47
HETATM   47  S2  UNL     1      -5.191   0.340   4.051  1.00  0.00    -0.082 SA
BRANCH  47  48
HETATM   48  C12 UNL     1      -6.422  -0.851   3.550  1.00  0.00     0.199 C 
BRANCH  48  49
HETATM   49  C13 UNL     1      -7.768  -0.259   3.360  1.00  0.00     0.183 C 
HETATM   50  O5  UNL     1      -8.696  -1.026   3.007  1.00  0.00    -0.647 OA
HETATM   51  O6  UNL     1      -8.046   1.075   3.550  1.00  0.00    -0.647 OA
ENDBRANCH  48  49
ENDBRANCH  47  48
ENDBRANCH  46  47
ENDBRANCH  17  46
TORSDOF 12
