REMARK  12 active torsions:
REMARK  status: ('A' for Active; 'I' for Inactive)
REMARK       I    between atoms: C2_2  and  N1_4 
REMARK    1  A    between atoms: N1_4  and  C3_6 
REMARK    2  A    between atoms: C4_12  and  C5_13 
REMARK    3  A    between atoms: C6_16  and  N5_17 
REMARK    4  A    between atoms: N5_17  and  C7_19 
REMARK    5  A    between atoms: C8_20  and  N6_21 
REMARK    6  A    between atoms: C9_25  and  C10_26 
REMARK    7  A    between atoms: C10_26  and  O3_27 
REMARK    8  A    between atoms: C11_29  and  O4_30 
REMARK    9  A    between atoms: C12_32  and  O5_33 
REMARK   10  A    between atoms: C13_35  and  O6_36 
REMARK   11  A    between atoms: C14_38  and  N7_39 
REMARK       I    between atoms: N7_39  and  C15_40 
REMARK   12  A    between atoms: C16_43  and  N9_44 
REMARK       I    between atoms: N9_44  and  C17_46 
REMARK       I    between atoms: C17_46  and  N10_47 
REMARK       I    between atoms: C17_46  and  N11_51 
ROOT
HETATM    1  C5  UNL     1       2.423  -0.230   0.654  1.00  0.00     0.110 A 
HETATM    2  N4  UNL     1       1.166  -0.240   0.308  1.00  0.00    -0.332 N 
ATOM      3  H4  UNL     1       0.714   0.671   0.379  1.00  0.00     0.168 HD
HETATM    4  C6  UNL     1       0.363  -1.201  -0.117  1.00  0.00     0.147 A 
HETATM    5  C14 UNL     1       0.765  -2.554  -0.299  1.00  0.00     0.189 A 
HETATM    6  C16 UNL     1       2.052  -2.981  -0.038  1.00  0.00     0.120 A 
HETATM    7  S1  UNL     1       3.138  -1.820   0.510  1.00  0.00    -0.049 SA
ENDROOT
BRANCH   4   8
HETATM    8  N5  UNL     1      -0.997  -0.944  -0.424  1.00  0.00    -0.364 N 
ATOM      9  H5  UNL     1      -1.477  -1.769  -0.784  1.00  0.00     0.161 HD
BRANCH   8  10
HETATM   10  C7  UNL     1      -1.833   0.169  -0.350  1.00  0.00     0.145 C 
HETATM   11  C8  UNL     1      -1.500   1.441  -1.025  1.00  0.00     0.217 C 
HETATM   12  C9  UNL     1      -2.752   2.298  -1.087  1.00  0.00     0.073 C 
HETATM   13  C11 UNL     1      -3.885   1.750  -0.252  1.00  0.00     0.157 C 
HETATM   14  C12 UNL     1      -3.494   1.221   1.086  1.00  0.00     0.178 C 
HETATM   15  C13 UNL     1      -2.175   0.480   1.102  1.00  0.00     0.174 C 
BRANCH  11  16
HETATM   16  N6  UNL     1      -1.066   1.168  -2.405  1.00  0.00    -0.072 N 
ATOM     17  H63 UNL     1      -0.296   0.500  -2.441  1.00  0.00     0.274 HD
ATOM     18  H62 UNL     1      -1.755   0.625  -2.925  1.00  0.00     0.274 HD
ATOM     19  H61 UNL     1      -0.836   2.046  -2.871  1.00  0.00     0.274 HD
ENDBRANCH  11  16
BRANCH  12  20
HETATM   20  C10 UNL     1      -2.487   3.709  -0.581  1.00  0.00     0.173 C 
BRANCH  20  21
HETATM   21  O3  UNL     1      -2.079   3.671   0.759  1.00  0.00    -0.400 OA
ATOM     22  H3  UNL     1      -1.914   4.552   1.075  1.00  0.00     0.209 HD
ENDBRANCH  20  21
ENDBRANCH  12  20
BRANCH  13  23
HETATM   23  O4  UNL     1      -4.746   2.850  -0.002  1.00  0.00    -0.392 OA
ATOM     24  H4  UNL     1      -5.459   2.505   0.523  1.00  0.00     0.210 HD
ENDBRANCH  13  23
BRANCH  14  25
HETATM   25  O5  UNL     1      -4.487   0.287   1.453  1.00  0.00    -0.390 OA
ATOM     26  H5  UNL     1      -4.238  -0.050   2.306  1.00  0.00     0.210 HD
ENDBRANCH  14  25
BRANCH  15  27
HETATM   27  O6  UNL     1      -2.275  -0.778   1.735  1.00  0.00    -0.391 OA
ATOM     28  H6  UNL     1      -2.488  -0.584   2.640  1.00  0.00     0.210 HD
ENDBRANCH  15  27
ENDBRANCH   8  10
ENDBRANCH   4   8
BRANCH   5  29
HETATM   29  N7  UNL     1      -0.096  -3.544  -0.789  1.00  0.00    -0.348 NA
HETATM   30  C15 UNL     1      -0.913  -4.483  -1.249  1.00  0.00     0.406 C 
HETATM   31  N8  UNL     1      -1.051  -4.788  -2.687  1.00  0.00    -0.025 NA
HETATM   32  O7  UNL     1      -1.698  -5.268  -0.589  1.00  0.00    -0.234 OA
ENDBRANCH   5  29
BRANCH   1  33
HETATM   33  C4  UNL     1       3.315   0.845   1.057  1.00  0.00     0.136 A 
HETATM   34  C3  UNL     1       3.205   2.181   1.176  1.00  0.00     0.161 A 
HETATM   35  N2  UNL     1       4.422   2.649   1.563  1.00  0.00    -0.223 N 
HETATM   36  O2  UNL     1       5.248   1.663   1.680  1.00  0.00    -0.155 OA
ATOM     37  H2  UNL     1       4.648   3.629   1.735  1.00  0.00     0.198 HD
HETATM   38  N3  UNL     1       4.642   0.569   1.391  1.00  0.00    -0.235 N 
ATOM     39  H3  UNL     1       5.065  -0.359   1.403  1.00  0.00     0.197 HD
BRANCH  34  40
HETATM   40  N1  UNL     1       2.046   2.963   0.933  1.00  0.00    -0.310 N 
HETATM   41  C2  UNL     1       2.187   4.363   1.100  1.00  0.00     0.219 C 
HETATM   42  C1  UNL     1       1.085   5.315   0.871  1.00  0.00     0.117 C 
HETATM   43  O1  UNL     1       3.293   4.837   1.454  1.00  0.00    -0.274 OA
ATOM     44  H1  UNL     1       1.161   2.541   0.654  1.00  0.00     0.170 HD
ENDBRANCH  34  40
ENDBRANCH   1  33
BRANCH   6  45
HETATM   45  N9  UNL     1       2.417  -4.199  -0.210  1.00  0.00    -0.332 N 
HETATM   46  C17 UNL     1       3.706  -4.749   0.026  1.00  0.00     0.481 C 
HETATM   47  N10 UNL     1       4.825  -3.962  -0.379  1.00  0.00    -0.033 N 
HETATM   48  N11 UNL     1       3.778  -6.013  -0.717  1.00  0.00    -0.033 N 
ATOM     49 3H10 UNL     1       4.733  -3.719  -1.365  1.00  0.00     0.278 HD
ATOM     50 2H10 UNL     1       4.765  -3.038   0.048  1.00  0.00     0.278 HD
ATOM     51 1H10 UNL     1       5.750  -4.357  -0.210  1.00  0.00     0.278 HD
ATOM     52 3H11 UNL     1       3.020  -6.656  -0.487  1.00  0.00     0.278 HD
ATOM     53 2H11 UNL     1       3.563  -5.907  -1.709  1.00  0.00     0.278 HD
ATOM     54 1H11 UNL     1       4.703  -6.408  -0.548  1.00  0.00     0.278 HD
ATOM     55  H9  UNL     1       1.704  -4.843  -0.554  1.00  0.00     0.164 HD
ENDBRANCH   6  45
TORSDOF 12
