REMARK  14 active torsions:
REMARK  status: ('A' for Active; 'I' for Inactive)
REMARK    1  A    between atoms: C4_5  and  C5_6 
REMARK    2  A    between atoms: C5_6  and  C6_7 
REMARK    3  A    between atoms: C6_7  and  C7_8 
REMARK    4  A    between atoms: C7_8  and  C8_9 
REMARK    5  A    between atoms: C11_12  and  C12_13 
REMARK       I    between atoms: C12_13  and  N1_15 
REMARK    6  A    between atoms: C17_21  and  C18_22 
REMARK    7  A    between atoms: C18_22  and  O4_23 
REMARK    8  A    between atoms: O4_23  and  C19_24 
REMARK    9  A    between atoms: C19_24  and  C20_25 
REMARK   10  A    between atoms: N2_27  and  C22_28 
REMARK   11  A    between atoms: C22_28  and  C23_29 
REMARK       I    between atoms: C23_29  and  N3_31 
REMARK   12  A    between atoms: N3_31  and  C24_33 
REMARK   13  A    between atoms: C24_33  and  C25_34 
REMARK   14  A    between atoms: C25_34  and  C26_35 
ROOT
HETATM    1  C8  UNL     1      -4.279   0.701   0.762  1.00  0.00    -0.058 A 
HETATM    2  C9  UNL     1      -5.048  -0.332   1.325  1.00  0.00     0.008 A 
HETATM    3  C10 UNL     1      -4.546  -1.547   1.598  1.00  0.00     0.018 A 
HETATM    4  C11 UNL     1      -3.178  -1.793   1.306  1.00  0.00     0.040 A 
HETATM    5  C17 UNL     1      -2.435  -0.802   0.776  1.00  0.00    -0.018 A 
HETATM    6  C30 UNL     1      -2.940   0.474   0.477  1.00  0.00     0.017 A 
ENDROOT
BRANCH   5   7
HETATM    7  C18 UNL     1      -0.932  -1.024   0.597  1.00  0.00     0.207 C 
BRANCH   7   8
HETATM    8  O4  UNL     1      -0.408   0.065   0.106  1.00  0.00    -0.382 OA
BRANCH   8   9
HETATM    9  C19 UNL     1       0.729   0.613  -0.107  1.00  0.00     0.212 C 
BRANCH   9  10
HETATM   10  C20 UNL     1       1.874  -0.150  -0.743  1.00  0.00     0.040 A 
HETATM   11  C21 UNL     1       2.731  -0.920  -0.013  1.00  0.00     0.113 A 
HETATM   12  N2  UNL     1       3.808  -1.371  -0.613  1.00  0.00    -0.316 N 
HETATM   13  S1  UNL     1       3.706  -0.782  -2.180  1.00  0.00     0.032 SA
HETATM   14  C29 UNL     1       2.245   0.069  -2.049  1.00  0.00     0.238 A 
HETATM   15  O6  UNL     1       1.606   0.756  -2.927  1.00  0.00    -0.278 OA
BRANCH  12  16
HETATM   16  C22 UNL     1       5.029  -2.022  -0.054  1.00  0.00     0.239 C 
BRANCH  16  17
HETATM   17  C23 UNL     1       6.045  -0.958  -0.002  1.00  0.00     0.236 C 
HETATM   18  O5  UNL     1       6.048  -0.123  -0.953  1.00  0.00    -0.272 OA
HETATM   19  N3  UNL     1       6.993  -0.833   1.026  1.00  0.00    -0.359 N 
ATOM     20  H3  UNL     1       6.987  -1.488   1.808  1.00  0.00     0.162 HD
BRANCH  19  21
HETATM   21  C24 UNL     1       8.001   0.250   0.975  1.00  0.00     0.130 C 
BRANCH  21  22
HETATM   22  C25 UNL     1       8.953   0.062  -0.178  1.00  0.00     0.096 C 
BRANCH  22  23
HETATM   23  C26 UNL     1       9.892   1.189  -0.375  1.00  0.00     0.082 A 
HETATM   24  N4  UNL     1      11.060   1.043  -1.066  1.00  0.00    -0.354 N 
HETATM   25  C27 UNL     1      11.666   2.208  -1.120  1.00  0.00     0.106 A 
ATOM     26  H4  UNL     1      11.405   0.174  -1.473  1.00  0.00     0.166 HD
HETATM   27  C28 UNL     1      10.896   3.160  -0.451  1.00  0.00     0.106 A 
HETATM   28  N5  UNL     1       9.839   2.447  -0.032  1.00  0.00    -0.354 N 
ATOM     29  H5  UNL     1       9.069   2.849   0.503  1.00  0.00     0.166 HD
ENDBRANCH  22  23
ENDBRANCH  21  22
ENDBRANCH  19  21
ENDBRANCH  16  17
ENDBRANCH  12  16
ENDBRANCH   9  10
ENDBRANCH   8   9
ENDBRANCH   7   8
ENDBRANCH   5   7
BRANCH   4  30
HETATM   30  C12 UNL     1      -2.720  -3.131   1.547  1.00  0.00     0.254 C 
HETATM   31  O2  UNL     1      -2.123  -3.429   2.597  1.00  0.00    -0.267 OA
HETATM   32  N1  UNL     1      -2.973  -4.172   0.575  1.00  0.00    -0.344 N 
HETATM   33  C13 UNL     1      -2.577  -5.508   0.947  1.00  0.00     0.152 C 
HETATM   34  C16 UNL     1      -3.583  -3.872  -0.679  1.00  0.00     0.152 C 
HETATM   35  C14 UNL     1      -2.643  -6.501  -0.141  1.00  0.00     0.187 C 
HETATM   36  O3  UNL     1      -3.510  -6.194  -1.167  1.00  0.00    -0.388 OA
HETATM   37  C15 UNL     1      -3.198  -4.929  -1.698  1.00  0.00     0.187 C 
ENDBRANCH   4  30
BRANCH   1  38
HETATM   38  C7  UNL     1      -4.939   1.994   0.555  1.00  0.00     0.039 C 
BRANCH  38  39
HETATM   39  C6  UNL     1      -4.425   3.144   1.384  1.00  0.00     0.010 C 
BRANCH  39  40
HETATM   40  C5  UNL     1      -5.324   4.306   1.424  1.00  0.00     0.053 C 
BRANCH  40  41
HETATM   41  C4  UNL     1      -5.920   4.837   0.198  1.00  0.00    -0.010 C 
HETATM   42  C3  UNL     1      -6.976   4.028  -0.536  1.00  0.00     0.062 C 
HETATM   43  C2  UNL     1      -7.776   5.164  -1.218  1.00  0.00     0.108 C 
HETATM   44  C1  UNL     1      -6.651   6.022  -1.562  1.00  0.00     0.222 C 
HETATM   45  O1  UNL     1      -6.390   6.716  -2.598  1.00  0.00    -0.273 OA
HETATM   46  N6  UNL     1      -5.776   5.955  -0.430  1.00  0.00    -0.334 N 
ATOM     47  H6  UNL     1      -5.126   6.692  -0.157  1.00  0.00     0.168 HD
ENDBRANCH  40  41
ENDBRANCH  39  40
ENDBRANCH  38  39
ENDBRANCH   1  38
TORSDOF 14
