REMARK  14 active torsions:
REMARK  status: ('A' for Active; 'I' for Inactive)
REMARK    1  A    between atoms: C2_2  and  O1_3 
REMARK    2  A    between atoms: O1_3  and  C3_4 
REMARK       I    between atoms: C3_4  and  N1_6 
REMARK       I    between atoms: N2_9  and  C6_10 
REMARK    3  A    between atoms: C6_10  and  C7_12 
REMARK    4  A    between atoms: C7_12  and  C8_13 
REMARK    5  A    between atoms: C7_12  and  N3_17 
REMARK    6  A    between atoms: C8_13  and  C9_14 
REMARK    7  A    between atoms: C9_14  and  S1_15 
REMARK       I    between atoms: N3_17  and  C11_19 
REMARK    8  A    between atoms: C11_19  and  C12_21 
REMARK    9  A    between atoms: C12_21  and  C13_22 
REMARK   10  A    between atoms: C12_21  and  N4_29 
REMARK   11  A    between atoms: C13_22  and  C14_23 
REMARK   12  A    between atoms: C21_31  and  C22_32 
REMARK   13  A    between atoms: C22_32  and  N5_33 
REMARK       I    between atoms: N5_33  and  C23_35 
REMARK   14  A    between atoms: C23_35  and  C24_37 
ROOT
HETATM    1  C12 UNL     1      -2.701  -1.305  -0.686  1.00  0.00     0.201 C 
ENDROOT
BRANCH   1   2
HETATM    2  C11 UNL     1      -1.288  -1.127  -1.026  1.00  0.00     0.247 C 
HETATM    3  N3  UNL     1      -0.235  -0.951  -0.078  1.00  0.00    -0.321 N 
ATOM      4  H3  UNL     1      -0.447  -0.961   0.920  1.00  0.00     0.169 HD
HETATM    5  O4  UNL     1      -0.984  -1.125  -2.280  1.00  0.00    -0.271 OA
BRANCH   3   6
HETATM    6  C7  UNL     1       1.116  -0.761  -0.514  1.00  0.00     0.103 C 
BRANCH   6   7
HETATM    7  C6  UNL     1       1.688   0.541  -0.103  1.00  0.00     0.270 C 
HETATM    8  N2  UNL     1       2.806   1.208  -0.525  1.00  0.00    -0.344 N 
HETATM    9  C5  UNL     1       3.673   0.788  -1.589  1.00  0.00     0.146 C 
HETATM   10  C27 UNL     1       3.236   2.465   0.131  1.00  0.00     0.146 C 
HETATM   11  C4  UNL     1       5.008   0.388  -0.993  1.00  0.00     0.148 C 
HETATM   12  N1  UNL     1       5.461   1.493  -0.171  1.00  0.00    -0.325 N 
HETATM   13  C3  UNL     1       6.790   1.995  -0.331  1.00  0.00     0.362 C 
HETATM   14  C28 UNL     1       4.561   2.068   0.800  1.00  0.00     0.148 C 
HETATM   15  O2  UNL     1       7.221   2.942   0.348  1.00  0.00    -0.238 OA
HETATM   16  O3  UNL     1       0.983   1.125   0.817  1.00  0.00    -0.266 OA
BRANCH  13  17
HETATM   17  O1  UNL     1       7.644   1.418  -1.272  1.00  0.00    -0.304 OA
BRANCH  17  18
HETATM   18  C2  UNL     1       8.953   1.926  -1.418  1.00  0.00     0.176 C 
HETATM   19  C1  UNL     1       8.865   3.370  -1.814  1.00  0.00     0.034 C 
ENDBRANCH  17  18
ENDBRANCH  13  17
ENDBRANCH   6   7
BRANCH   6  20
HETATM   20  C8  UNL     1       2.013  -1.922  -0.432  1.00  0.00     0.042 C 
BRANCH  20  21
HETATM   21  C9  UNL     1       2.682  -2.364   0.781  1.00  0.00     0.047 C 
BRANCH  21  22
HETATM   22  S1  UNL     1       1.840  -2.841   2.239  1.00  0.00    -0.146 SA
HETATM   23  C10 UNL     1       1.113  -1.607   3.272  1.00  0.00     0.095 C 
ENDBRANCH  21  22
ENDBRANCH  20  21
ENDBRANCH   6  20
ENDBRANCH   3   6
ENDBRANCH   1   2
BRANCH   1  24
HETATM   24  C13 UNL     1      -3.081  -2.357   0.275  1.00  0.00     0.041 C 
BRANCH  24  25
HETATM   25  C14 UNL     1      -2.792  -3.780  -0.053  1.00  0.00    -0.012 C 
HETATM   26  C15 UNL     1      -1.364  -4.103  -0.248  1.00  0.00     0.005 C 
HETATM   27  C16 UNL     1      -1.262  -5.651  -0.337  1.00  0.00     0.000 C 
HETATM   28  C17 UNL     1      -1.845  -5.939  -1.727  1.00  0.00     0.000 C 
HETATM   29  C18 UNL     1      -3.285  -5.578  -1.770  1.00  0.00     0.000 C 
HETATM   30  C19 UNL     1      -3.713  -4.349  -1.094  1.00  0.00     0.005 C 
ENDBRANCH  24  25
ENDBRANCH   1  24
BRANCH   1  31
HETATM   31  N4  UNL     1      -3.208   0.002  -0.227  1.00  0.00    -0.273 N 
HETATM   32  C20 UNL     1      -3.802   0.948  -0.939  1.00  0.00     0.140 A 
HETATM   33  C21 UNL     1      -4.125   2.014  -0.091  1.00  0.00     0.062 A 
HETATM   34  N6  UNL     1      -3.697   1.642   1.109  1.00  0.00    -0.287 N 
HETATM   35  N7  UNL     1      -3.151   0.437   1.016  1.00  0.00    -0.240 N 
ATOM     36  H6  UNL     1      -3.775   2.193   1.964  1.00  0.00     0.188 HD
ATOM     37  H7  UNL     1      -2.745  -0.080   1.796  1.00  0.00     0.208 HD
BRANCH  33  38
HETATM   38  C22 UNL     1      -4.809   3.256  -0.552  1.00  0.00     0.182 C 
BRANCH  38  39
HETATM   39  N5  UNL     1      -5.145   4.069   0.595  1.00  0.00    -0.355 N 
HETATM   40  C23 UNL     1      -6.249   3.692   1.412  1.00  0.00     0.222 C 
HETATM   41  O5  UNL     1      -6.922   2.676   1.158  1.00  0.00    -0.273 OA
ATOM     42  H5  UNL     1      -4.599   4.902   0.816  1.00  0.00     0.162 HD
BRANCH  40  43
HETATM   43  C24 UNL     1      -6.629   4.510   2.598  1.00  0.00     0.078 A 
HETATM   44  C25 UNL     1      -6.670   6.000   2.277  1.00  0.00     0.015 A 
HETATM   45  C26 UNL     1      -5.661   5.448   3.206  1.00  0.00     0.015 A 
ENDBRANCH  40  43
ENDBRANCH  38  39
ENDBRANCH  33  38
ENDBRANCH   1  31
TORSDOF 14
