REMARK  4 active torsions:
REMARK  status: ('A' for Active; 'I' for Inactive)
REMARK    1  A    between atoms: O1_1  and  C1_3 
REMARK    2  A    between atoms: C6_8  and  O2_9 
REMARK    3  A    between atoms: C7_11  and  O3_12 
REMARK    4  A    between atoms: C9_15  and  O4_16 
ROOT
HETATM    1  C1  UNL     1      -2.255   0.133  -0.234  1.00  0.00     0.147 C 
HETATM    2  C2  UNL     1      -1.976  -1.316  -0.295  1.00  0.00     0.035 C 
HETATM    3  C3  UNL     1      -0.652  -1.791   0.152  1.00  0.00     0.008 C 
HETATM    4  C4  UNL     1       0.344  -0.732   0.466  1.00  0.00    -0.003 C 
HETATM    5  C5  UNL     1       1.770  -1.108   0.194  1.00  0.00     0.039 C 
HETATM    6  C6  UNL     1       2.460   0.250   0.233  1.00  0.00     0.147 C 
HETATM    7  C7  UNL     1       1.369   1.283   0.038  1.00  0.00     0.153 C 
HETATM    8  C8  UNL     1       0.218   0.459  -0.494  1.00  0.00     0.052 C 
HETATM    9  C9  UNL     1      -1.123   1.071  -0.228  1.00  0.00     0.153 C 
ENDROOT
BRANCH   1  10
HETATM   10  O1  UNL     1      -3.064   0.440   0.878  1.00  0.00    -0.393 OA
ATOM     11  H1  UNL     1      -3.243   1.372   0.917  1.00  0.00     0.210 HD
ENDBRANCH   1  10
BRANCH   9  12
HETATM   12  O4  UNL     1      -1.012   1.756   1.006  1.00  0.00    -0.393 OA
ATOM     13  H4  UNL     1      -0.281   2.362   1.010  1.00  0.00     0.210 HD
ENDBRANCH   9  12
BRANCH   7  14
HETATM   14  O3  UNL     1       1.752   2.280  -0.847  1.00  0.00    -0.393 OA
ATOM     15  H3  UNL     1       1.068   2.928  -0.969  1.00  0.00     0.210 HD
ENDBRANCH   7  14
BRANCH   6  16
HETATM   16  O2  UNL     1       3.413   0.383  -0.759  1.00  0.00    -0.393 OA
ATOM     17  H2  UNL     1       3.843   1.230  -0.735  1.00  0.00     0.210 HD
ENDBRANCH   6  16
TORSDOF 4
