REMARK  4 active torsions:
REMARK  status: ('A' for Active; 'I' for Inactive)
REMARK    1  A    between atoms: N1_5  and  C5_6 
REMARK    2  A    between atoms: C5_6  and  C6_11 
REMARK    3  A    between atoms: N2_7  and  O1_9 
REMARK    4  A    between atoms: N3_15  and  C10_16 
ROOT
HETATM    1  C6  UNL     1      -1.044  -0.714   0.547  1.00  0.00     0.155 C 
HETATM    2  C7  UNL     1      -0.920  -1.660  -0.661  1.00  0.00     0.035 C 
HETATM    3  C8  UNL     1      -2.221  -2.440  -0.615  1.00  0.00     0.022 C 
HETATM    4  C9  UNL     1      -3.085  -1.758   0.457  1.00  0.00     0.126 C 
HETATM    5  N3  UNL     1      -2.447  -0.480   0.530  1.00  0.00    -0.349 N 
ENDROOT
BRANCH   1   6
HETATM    6  C5  UNL     1      -0.184   0.460   0.397  1.00  0.00     0.122 C 
HETATM    7  N2  UNL     1      -0.560   1.671   0.404  1.00  0.00    -0.255 N 
ATOM      8  H2  UNL     1      -1.553   1.873   0.523  1.00  0.00     0.195 HD
BRANCH   6   9
HETATM    9  N1  UNL     1       1.213   0.211   0.229  1.00  0.00    -0.367 N 
HETATM   10  C4  UNL     1       1.888   0.311  -1.069  1.00  0.00     0.124 C 
HETATM   11  C3  UNL     1       2.892  -0.824  -0.947  1.00  0.00     0.026 C 
HETATM   12  C2  UNL     1       3.396  -0.608   0.471  1.00  0.00     0.001 C 
HETATM   13  C1  UNL     1       4.396   0.512   0.471  1.00  0.00     0.011 C 
HETATM   14  C12 UNL     1       2.167  -0.165   1.242  1.00  0.00     0.128 C 
ENDBRANCH   6   9
BRANCH   7  15
HETATM   15  O1  UNL     1       0.309   2.719   0.259  1.00  0.00    -0.288 OA
ATOM     16  H1  UNL     1       0.027   3.626   0.264  1.00  0.00     0.244 HD
ENDBRANCH   7  15
ENDBRANCH   1   6
BRANCH   5  17
HETATM   17  C10 UNL     1      -3.124   0.758   0.570  1.00  0.00     0.165 A 
HETATM   18  N4  UNL     1      -3.561   1.522  -0.431  1.00  0.00    -0.278 N 
HETATM   19  N5  UNL     1      -4.149   2.608  -0.199  1.00  0.00    -0.282 N 
ATOM     20  H4  UNL     1      -3.417   1.222  -1.395  1.00  0.00     0.189 HD
HETATM   21  C11 UNL     1      -4.343   3.010   1.048  1.00  0.00     0.163 A 
ATOM     22  H5  UNL     1      -4.478   3.183  -0.975  1.00  0.00     0.188 HD
HETATM   23 CL1  UNL     1      -5.143   4.492   1.520  1.00  0.00    -0.055 Cl
HETATM   24  S1  UNL     1      -3.627   1.731   1.914  1.00  0.00    -0.021 SA
ENDBRANCH   5  17
TORSDOF 4
