REMARK  5 active torsions:
REMARK  status: ('A' for Active; 'I' for Inactive)
REMARK    1  A    between atoms: C2_3  and  S1_4 
REMARK    2  A    between atoms: S1_4  and  C3_5 
REMARK    3  A    between atoms: C4_7  and  N2_8 
REMARK    4  A    between atoms: C9_16  and  C10_17 
REMARK    5  A    between atoms: C11_18  and  C12_19 
ROOT
HETATM    1  N1  UNL     1       2.813  -3.978   1.158  1.00  0.00    -0.197 NA
HETATM    2  C1  UNL     1       3.131  -3.459   0.177  1.00  0.00     0.069 C 
HETATM    3  C2  UNL     1       3.554  -2.802  -1.066  1.00  0.00     0.203 C 
ENDROOT
BRANCH   3   4
HETATM    4  S1  UNL     1       3.681  -1.014  -0.676  1.00  0.00    -0.105 SA
BRANCH   4   5
HETATM    5  C3  UNL     1       1.987  -0.492  -0.329  1.00  0.00     0.081 A 
HETATM    6  S2  UNL     1       0.529  -1.396  -0.340  1.00  0.00    -0.044 SA
HETATM    7  C4  UNL     1      -0.546  -0.143   0.091  1.00  0.00     0.149 A 
HETATM    8  N3  UNL     1       0.261   0.897   0.221  1.00  0.00    -0.328 N 
HETATM    9  C9  UNL     1       1.535   0.758   0.018  1.00  0.00     0.112 A 
ATOM     10  H3  UNL     1      -0.118   1.808   0.481  1.00  0.00     0.168 HD
BRANCH   7  11
HETATM   11  N2  UNL     1      -1.954  -0.252   0.255  1.00  0.00    -0.357 N 
HETATM   12  C5  UNL     1      -2.603  -1.532   0.046  1.00  0.00     0.151 C 
HETATM   13  C6  UNL     1      -4.106  -1.356   0.142  1.00  0.00     0.187 C 
HETATM   14  O1  UNL     1      -4.587  -0.287  -0.570  1.00  0.00    -0.388 OA
HETATM   15  C7  UNL     1      -3.928   0.902  -0.392  1.00  0.00     0.187 C 
HETATM   16  C8  UNL     1      -2.810   0.852   0.623  1.00  0.00     0.151 C 
ENDBRANCH   7  11
BRANCH   9  17
HETATM   17  C10 UNL     1       2.481   1.880   0.147  1.00  0.00    -0.046 C 
HETATM   18  C11 UNL     1       3.248   2.805   0.243  1.00  0.00    -0.085 C 
BRANCH  18  19
HETATM   19  C12 UNL     1       4.192   3.902   0.354  1.00  0.00     0.208 C 
HETATM   20 CL1  UNL     1       3.746   5.064   1.611  1.00  0.00    -0.117 Cl
ENDBRANCH  18  19
ENDBRANCH   9  17
ENDBRANCH   4   5
ENDBRANCH   3   4
TORSDOF 5
