REMARK  4 active torsions:
REMARK  status: ('A' for Active; 'I' for Inactive)
REMARK    1  A    between atoms: C6_7  and  C7_8 
REMARK    2  A    between atoms: N2_9  and  N3_11 
REMARK    3  A    between atoms: C9_17  and  C10_18 
REMARK    4  A    between atoms: N5_25  and  O2_26 
ROOT
HETATM    1  N1  UNL     1       7.053   2.677  -1.470  1.00  0.00    -0.191 NA
HETATM    2  C1  UNL     1       6.518   1.727  -1.082  1.00  0.00     0.099 C 
HETATM    3  C2  UNL     1       5.824   0.543  -0.597  1.00  0.00     0.045 A 
HETATM    4  C3  UNL     1       6.474  -0.677  -0.555  1.00  0.00     0.023 A 
HETATM    5  C4  UNL     1       5.796  -1.787  -0.091  1.00  0.00     0.002 A 
HETATM    6  C5  UNL     1       4.476  -1.721   0.337  1.00  0.00     0.013 A 
HETATM    7  C6  UNL     1       3.825  -0.501   0.295  1.00  0.00    -0.018 A 
HETATM    8  C16 UNL     1       4.522   0.594  -0.172  1.00  0.00     0.035 A 
ENDROOT
BRANCH   7   9
HETATM    9  C7  UNL     1       2.439  -0.390   0.736  1.00  0.00     0.118 C 
HETATM   10  N2  UNL     1       1.869   0.764   0.681  1.00  0.00    -0.308 N 
ATOM     11  H2  UNL     1       2.408   1.557   0.332  1.00  0.00     0.186 HD
BRANCH  10  12
HETATM   12  N3  UNL     1       0.549   0.979   1.077  1.00  0.00    -0.262 N 
HETATM   13  C8  UNL     1      -0.456   0.579   0.399  1.00  0.00     0.290 A 
HETATM   14  O1  UNL     1      -0.504  -0.071  -0.730  1.00  0.00    -0.195 OA
HETATM   15  N5  UNL     1      -1.757   0.795   0.797  1.00  0.00    -0.164 N 
HETATM   16  N4  UNL     1      -1.717  -0.270  -1.057  1.00  0.00    -0.238 N 
HETATM   17  C9  UNL     1      -2.559   0.266  -0.112  1.00  0.00     0.170 A 
ATOM     18  H4  UNL     1      -2.021  -0.757  -1.900  1.00  0.00     0.196 HD
ATOM     19  H3  UNL     1       0.379   1.479   1.949  1.00  0.00     0.190 HD
BRANCH  17  20
HETATM   20  C10 UNL     1      -4.002   0.152  -0.205  1.00  0.00     0.051 A 
HETATM   21  C11 UNL     1      -4.558  -0.781  -1.100  1.00  0.00     0.018 A 
HETATM   22  C12 UNL     1      -5.903  -0.944  -1.285  1.00  0.00     0.001 A 
HETATM   23  C13 UNL     1      -6.799  -0.172  -0.575  1.00  0.00     0.003 A 
HETATM   24  C14 UNL     1      -6.302   0.737   0.295  1.00  0.00     0.043 A 
HETATM   25  C15 UNL     1      -4.906   0.899   0.479  1.00  0.00     0.130 A 
HETATM   26  F1  UNL     1      -4.548   1.850   1.341  1.00  0.00    -0.205 F 
ENDBRANCH  17  20
BRANCH  15  27
HETATM   27  O2  UNL     1      -2.096   1.425   1.952  1.00  0.00    -0.278 OA
ATOM     28  H2  UNL     1      -2.993   1.574   2.226  1.00  0.00     0.245 HD
ENDBRANCH  15  27
ENDBRANCH  10  12
ENDBRANCH   7   9
TORSDOF 4
