REMARK  1 active torsions:
REMARK  status: ('A' for Active; 'I' for Inactive)
REMARK       I    between atoms: C1_2  and  N2_4 
REMARK    1  A    between atoms: N2_4  and  N3_6 
REMARK       I    between atoms: C2_8  and  N5_10 
ROOT
HETATM    1  N3  UNL     1       0.421  -0.335   1.080  1.00  0.00    -0.269 N 
ATOM      2  H3  UNL     1       0.488  -0.396   2.096  1.00  0.00     0.190 HD
HETATM    3  C2  UNL     1       1.401   0.152   0.377  1.00  0.00     0.213 C 
HETATM    4  N4  UNL     1       2.551   0.585   1.094  1.00  0.00    -0.061 NA
HETATM    5  N5  UNL     1       1.326   0.244  -1.031  1.00  0.00    -0.293 N 
ATOM      6  H5  UNL     1       0.626   0.866  -1.436  1.00  0.00     0.177 HD
HETATM    7  S1  UNL     1       2.347  -0.632  -2.101  1.00  0.00     0.044 SA
ENDROOT
BRANCH   1   8
HETATM    8  N2  UNL     1      -0.721  -0.771   0.414  1.00  0.00    -0.252 N 
HETATM    9  C1  UNL     1      -1.760   0.112   0.019  1.00  0.00     0.347 C 
HETATM   10  N1  UNL     1      -2.920  -0.308  -0.654  1.00  0.00    -0.038 NA
HETATM   11  O1  UNL     1      -1.668   1.349   0.270  1.00  0.00    -0.249 OA
ATOM     12  H2  UNL     1      -0.815  -1.764   0.201  1.00  0.00     0.191 HD
ENDBRANCH   1   8
TORSDOF 1
