REMARK  3 active torsions:
REMARK  status: ('A' for Active; 'I' for Inactive)
REMARK       I    between atoms: N1_2  and  C2_4 
REMARK       I    between atoms: C2_4  and  N2_5 
REMARK    1  A    between atoms: N3_7  and  N4_9 
REMARK    2  A    between atoms: N5_12  and  N6_14 
REMARK    3  A    between atoms: C3_16  and  O1_18 
ROOT
HETATM    1  C1  UNL     1      -2.557  -1.821   0.485  1.00  0.00     0.165 C 
HETATM    2  N1  UNL     1      -1.912  -0.952  -0.467  1.00  0.00    -0.228 N 
ATOM      3  H1  UNL     1      -2.360  -0.724  -1.355  1.00  0.00     0.177 HD
HETATM    4  C2  UNL     1      -0.640  -0.422  -0.139  1.00  0.00     0.708 C 
HETATM    5  N2  UNL     1      -0.299   0.935  -0.157  1.00  0.00    -0.117 N 
ATOM      6  H2  UNL     1       0.694   1.163  -0.207  1.00  0.00     0.207 HD
HETATM    7  N3  UNL     1      -1.106   1.899  -0.117  1.00  0.00    -0.235 N 
ATOM      8  H3  UNL     1      -2.113   1.744  -0.065  1.00  0.00     0.208 HD
HETATM    9  N5  UNL     1       0.268  -1.298   0.204  1.00  0.00    -0.128 N 
ATOM     10  H5  UNL     1       0.025  -2.289   0.219  1.00  0.00     0.205 HD
ENDROOT
BRANCH   9  11
HETATM   11  N6  UNL     1       1.549  -0.912   0.547  1.00  0.00    -0.253 N 
HETATM   12  C3  UNL     1       2.443  -0.492  -0.278  1.00  0.00     0.244 C 
HETATM   13  N7  UNL     1       3.712  -0.136   0.247  1.00  0.00    -0.055 NA
ATOM     14  H6  UNL     1       1.807  -0.964   1.532  1.00  0.00     0.190 HD
BRANCH  12  15
HETATM   15  O1  UNL     1       2.113  -0.416  -1.615  1.00  0.00    -0.334 OA
ATOM     16  H1  UNL     1       2.773  -0.106  -2.224  1.00  0.00     0.220 HD
ENDBRANCH  12  15
ENDBRANCH   9  11
BRANCH   7  17
HETATM   17  N4  UNL     1      -0.572   3.190  -0.146  1.00  0.00    -0.330 N 
ATOM     18  H42 UNL     1       0.437   3.328  -0.198  1.00  0.00     0.178 HD
ATOM     19  H41 UNL     1      -1.226   3.972  -0.114  1.00  0.00     0.178 HD
ENDBRANCH   7  17
TORSDOF 3
