REMARK  4 active torsions:
REMARK  status: ('A' for Active; 'I' for Inactive)
REMARK    1  A    between atoms: N1_1  and  C1_4 
REMARK    2  A    between atoms: C2_7  and  N3_8 
REMARK    3  A    between atoms: N4_11  and  C3_12 
REMARK    4  A    between atoms: N5_13  and  O1_15 
ROOT
HETATM    1  C1  UNL     1      -1.768  -0.394  -0.611  1.00  0.00     0.706 A 
HETATM    2  N2  UNL     1      -1.516   0.923  -0.715  1.00  0.00    -0.020 N 
ATOM      3  H2  UNL     1      -2.119   1.617  -1.156  1.00  0.00     0.203 HD
HETATM    4  C2  UNL     1      -0.326   1.163  -0.133  1.00  0.00     0.713 A 
HETATM    5  N4  UNL     1       0.182   0.005   0.340  1.00  0.00    -0.066 N 
HETATM    6  N6  UNL     1      -0.713  -0.920   0.037  1.00  0.00    -0.110 N 
ATOM      7  H6  UNL     1      -0.616  -1.909   0.266  1.00  0.00     0.207 HD
ENDROOT
BRANCH   5   8
HETATM    8  C3  UNL     1       1.429  -0.176   1.027  1.00  0.00     0.249 C 
HETATM    9  N5  UNL     1       2.493  -0.552   0.419  1.00  0.00    -0.262 N 
ATOM     10  H5  UNL     1       3.366  -0.672   0.933  1.00  0.00     0.195 HD
BRANCH   9  11
HETATM   11  O1  UNL     1       2.445  -0.792  -0.934  1.00  0.00    -0.289 OA
ATOM     12  H1  UNL     1       3.234  -1.071  -1.385  1.00  0.00     0.244 HD
ENDBRANCH   9  11
ENDBRANCH   5   8
BRANCH   4  13
HETATM   13  N3  UNL     1       0.230   2.343  -0.053  1.00  0.00    -0.232 N 
ATOM     14  H32 UNL     1      -0.154   3.218  -0.410  1.00  0.00     0.174 HD
ATOM     15  H31 UNL     1       1.132   2.525   0.388  1.00  0.00     0.174 HD
ENDBRANCH   4  13
BRANCH   1  16
HETATM   16  N1  UNL     1      -2.824  -1.028  -1.051  1.00  0.00    -0.233 N 
ATOM     17  H12 UNL     1      -3.624  -0.629  -1.542  1.00  0.00     0.174 HD
ATOM     18  H11 UNL     1      -3.015  -2.027  -0.972  1.00  0.00     0.174 HD
ENDBRANCH   1  16
TORSDOF 4
