REMARK  2 active torsions:
REMARK  status: ('A' for Active; 'I' for Inactive)
REMARK    1  A    between atoms: O1_2  and  N1_3 
REMARK       I    between atoms: C2_5  and  N3_7 
REMARK    2  A    between atoms: N3_7  and  N4_9 
ROOT
HETATM    1  N1  UNL     1      -1.807   0.263   0.934  1.00  0.00    -0.238 N 
ATOM      2  H1  UNL     1      -1.561   1.101   1.461  1.00  0.00     0.197 HD
HETATM    3  C2  UNL     1      -0.885  -0.292   0.221  1.00  0.00     0.227 C 
HETATM    4  N2  UNL     1      -1.131  -1.462  -0.546  1.00  0.00    -0.060 NA
HETATM    5  N3  UNL     1       0.413   0.289   0.207  1.00  0.00    -0.270 N 
ATOM      6  H3  UNL     1       0.528   1.249   0.533  1.00  0.00     0.189 HD
ENDROOT
BRANCH   5   7
HETATM    7  N4  UNL     1       1.526  -0.406  -0.235  1.00  0.00    -0.274 N 
HETATM    8  C3  UNL     1       2.713  -0.034   0.101  1.00  0.00     0.215 C 
HETATM    9  N5  UNL     1       3.888  -0.700  -0.317  1.00  0.00    -0.065 NA
HETATM   10  N6  UNL     1       2.877   1.108   0.938  1.00  0.00    -0.065 NA
ATOM     11  H4  UNL     1       1.405  -1.223  -0.834  1.00  0.00     0.189 HD
ENDBRANCH   5   7
BRANCH   1  12
HETATM   12  O1  UNL     1      -3.079  -0.193   1.030  1.00  0.00    -0.283 OA
HETATM   13  C1  UNL     1      -4.108   0.549   0.364  1.00  0.00     0.237 C 
ENDBRANCH   1  12
TORSDOF 2
