REMARK  2 active torsions:
REMARK  status: ('A' for Active; 'I' for Inactive)
REMARK    1  A    between atoms: C1_2  and  N1_3 
REMARK    2  A    between atoms: N1_3  and  C2_5 
ROOT
HETATM    1  C2  UNL     1       0.392  -0.378   0.456  1.00  0.00     0.692 A 
HETATM    2  N2  UNL     1      -0.779  -0.824   0.928  1.00  0.00    -0.141 N 
ATOM      3  H2  UNL     1      -0.778  -1.494   1.697  1.00  0.00     0.189 HD
HETATM    4  C3  UNL     1      -1.967  -0.415   0.417  1.00  0.00     0.342 A 
HETATM    5  O2  UNL     1      -3.059  -0.842   0.869  1.00  0.00    -0.246 OA
HETATM    6  N3  UNL     1      -1.938   0.471  -0.600  1.00  0.00    -0.260 N 
ATOM      7  H3  UNL     1      -2.820   0.792  -0.999  1.00  0.00     0.175 HD
HETATM    8  C4  UNL     1      -0.793   0.941  -1.101  1.00  0.00     0.342 A 
HETATM    9  O3  UNL     1      -0.717   1.764  -2.044  1.00  0.00    -0.246 OA
HETATM   10  N4  UNL     1       0.361   0.501  -0.555  1.00  0.00    -0.141 N 
ATOM     11  H4  UNL     1       1.244   0.851  -0.927  1.00  0.00     0.189 HD
ENDROOT
BRANCH   1  12
HETATM   12  N1  UNL     1       1.507  -0.785   0.962  1.00  0.00    -0.167 N 
ATOM     13  H1  UNL     1       1.498  -1.455   1.731  1.00  0.00     0.186 HD
BRANCH  12  14
HETATM   14  C1  UNL     1       2.738  -0.313   0.462  1.00  0.00     0.368 C 
HETATM   15  O1  UNL     1       3.440  -0.909  -0.387  1.00  0.00    -0.283 OA
ENDBRANCH  12  14
ENDBRANCH   1  12
TORSDOF 2
