REMARK  2 active torsions:
REMARK  status: ('A' for Active; 'I' for Inactive)
REMARK    1  A    between atoms: C1_2  and  N1_3 
REMARK    2  A    between atoms: N1_3  and  C2_5 
ROOT
HETATM    1  C2  UNL     1       0.498   0.507   0.013  1.00  0.00     0.182 A 
HETATM    2  N2  UNL     1      -0.497   1.305  -0.413  1.00  0.00    -0.289 N 
ATOM      3  H2  UNL     1      -0.311   2.290  -0.602  1.00  0.00     0.172 HD
HETATM    4  C3  UNL     1      -1.742   0.809  -0.592  1.00  0.00     0.340 A 
HETATM    5  O2  UNL     1      -2.664   1.572  -0.993  1.00  0.00    -0.245 OA
HETATM    6  N3  UNL     1      -2.055  -0.476  -0.363  1.00  0.00    -0.248 N 
ATOM      7  H3  UNL     1      -3.003  -0.823  -0.507  1.00  0.00     0.192 HD
HETATM    8  N4  UNL     1      -1.088  -1.275   0.057  1.00  0.00    -0.259 N 
ATOM      9  H4  UNL     1      -1.295  -2.257   0.240  1.00  0.00     0.190 HD
HETATM   10  C4  UNL     1       0.177  -0.814   0.250  1.00  0.00     0.304 A 
HETATM   11  O3  UNL     1       1.101  -1.573   0.649  1.00  0.00    -0.263 OA
ENDROOT
BRANCH   1  12
HETATM   12  N1  UNL     1       1.686   0.990   0.182  1.00  0.00    -0.316 N 
ATOM     13  H1  UNL     1       1.866   1.976  -0.008  1.00  0.00     0.170 HD
BRANCH  12  14
HETATM   14  C1  UNL     1       2.742   0.149   0.633  1.00  0.00     0.354 C 
HETATM   15  O1  UNL     1       3.538  -0.281  -0.216  1.00  0.00    -0.283 OA
ENDBRANCH  12  14
ENDBRANCH   1  12
TORSDOF 2
