REMARK  3 active torsions:
REMARK  status: ('A' for Active; 'I' for Inactive)
REMARK    1  A    between atoms: C3_6  and  N3_7 
REMARK    2  A    between atoms: N3_7  and  C4_9 
REMARK    3  A    between atoms: C5_15  and  N6_16 
ROOT
HETATM    1  C1  UNL     1      -3.085  -0.414   0.368  1.00  0.00     0.176 C 
HETATM    2  N1  UNL     1      -1.652  -0.141   0.273  1.00  0.00    -0.183 N 
HETATM    3  C2  UNL     1      -0.764  -1.126   0.045  1.00  0.00     0.217 A 
HETATM    4  N2  UNL     1       0.557  -0.890  -0.045  1.00  0.00    -0.186 N 
ATOM      5  H2  UNL     1       1.194  -1.667  -0.219  1.00  0.00     0.185 HD
HETATM    6  C3  UNL     1       1.052   0.354   0.090  1.00  0.00     0.698 A 
HETATM    7  N5  UNL     1       0.161   1.334   0.318  1.00  0.00    -0.022 N 
ATOM      8  H5  UNL     1       0.501   2.290   0.426  1.00  0.00     0.203 HD
HETATM    9  C5  UNL     1      -1.161   1.104   0.409  1.00  0.00     0.693 A 
ENDROOT
BRANCH   6  10
HETATM   10  N3  UNL     1       2.324   0.606   0.007  1.00  0.00    -0.188 N 
ATOM     11  H3  UNL     1       2.636   1.571   0.118  1.00  0.00     0.185 HD
BRANCH  10  12
HETATM   12  C4  UNL     1       3.292  -0.388  -0.229  1.00  0.00     0.191 C 
HETATM   13  N4  UNL     1       4.390  -0.363   0.428  1.00  0.00    -0.395 N 
ATOM     14  H42 UNL     1       4.546   0.377   1.112  1.00  0.00     0.156 HD
ATOM     15  H41 UNL     1       5.092  -1.083   0.257  1.00  0.00     0.156 HD
ENDBRANCH  10  12
ENDBRANCH   6  10
BRANCH   9  16
HETATM   16  N6  UNL     1      -2.012   2.048   0.627  1.00  0.00    -0.234 N 
ATOM     17  H62 UNL     1      -3.015   1.874   0.696  1.00  0.00     0.174 HD
ATOM     18  H61 UNL     1      -1.640   2.992   0.730  1.00  0.00     0.174 HD
ENDBRANCH   9  16
TORSDOF 3
