REMARK  3 active torsions:
REMARK  status: ('A' for Active; 'I' for Inactive)
REMARK    1  A    between atoms: C2_4  and  N3_5 
REMARK    2  A    between atoms: C2_4  and  C4_14 
REMARK    3  A    between atoms: N3_5  and  C3_7 
ROOT
HETATM    1  N3  UNL     1       0.241   0.469  -0.481  1.00  0.00    -0.175 N 
ATOM      2  H3  UNL     1       0.088   1.030  -1.319  1.00  0.00     0.182 HD
ENDROOT
BRANCH   1   3
HETATM    3  C2  UNL     1      -0.901   0.147   0.335  1.00  0.00     0.284 A 
HETATM    4  N1  UNL     1      -1.720  -1.008  -0.064  1.00  0.00    -0.182 NA
HETATM    5  C1  UNL     1      -1.331  -1.615  -1.313  1.00  0.00     0.137 C 
HETATM    6  N2  UNL     1      -0.868  -1.056   1.034  1.00  0.00    -0.102 NA
BRANCH   3   7
HETATM    7  C4  UNL     1      -1.695   1.316   0.763  1.00  0.00     0.295 C 
HETATM    8  N7  UNL     1      -1.406   2.661   0.430  1.00  0.00    -0.057 NA
HETATM    9  O1  UNL     1      -2.702   1.102   1.475  1.00  0.00    -0.271 OA
ENDBRANCH   3   7
ENDBRANCH   1   3
BRANCH   1  10
HETATM   10  C3  UNL     1       1.430   0.096  -0.219  1.00  0.00     0.712 A 
HETATM   11  N4  UNL     1       2.023  -0.611   0.733  1.00  0.00    -0.116 N 
HETATM   12  N5  UNL     1       3.191  -0.451   0.164  1.00  0.00    -0.214 N 
ATOM     13  H4  UNL     1       1.698  -1.089   1.574  1.00  0.00     0.207 HD
HETATM   14  N6  UNL     1       2.623   0.258  -0.797  1.00  0.00    -0.116 N 
ATOM     15  H5  UNL     1       4.143  -0.749   0.374  1.00  0.00     0.209 HD
ATOM     16  H6  UNL     1       2.958   0.733  -1.635  1.00  0.00     0.207 HD
ENDBRANCH   1  10
TORSDOF 3
