REMARK  3 active torsions:
REMARK  status: ('A' for Active; 'I' for Inactive)
REMARK    1  A    between atoms: C10_11  and  O1_12 
REMARK    2  A    between atoms: C10_11  and  C11_14 
REMARK    3  A    between atoms: C11_14  and  N2_15 
ROOT
HETATM    1  C1  UNL     1      -2.963   0.742   2.666  1.00  0.00     0.310 C 
HETATM    2  N1  UNL     1      -3.208   0.504   1.257  1.00  0.00     0.090 N 
HETATM    3  C2  UNL     1      -4.260  -0.529   1.131  1.00  0.00     0.272 C 
HETATM    4  C3  UNL     1      -4.661  -0.756  -0.272  1.00  0.00     0.031 C 
HETATM    5  C4  UNL     1      -3.727  -0.326  -1.327  1.00  0.00     0.013 C 
HETATM    6  C5  UNL     1      -2.372   0.080  -0.901  1.00  0.00    -0.009 C 
HETATM    7  C6  UNL     1      -2.212   1.602  -1.042  1.00  0.00     0.012 C 
HETATM    8  C7  UNL     1      -0.959   1.852  -0.195  1.00  0.00     0.010 C 
HETATM    9  C8  UNL     1      -0.794   0.689   0.690  1.00  0.00     0.056 C 
HETATM   10  C9  UNL     1      -2.086  -0.070   0.582  1.00  0.00     0.238 C 
HETATM   11  C10 UNL     1       0.297  -0.316   0.257  1.00  0.00     0.090 C 
HETATM   12  C17 UNL     1      -0.249  -1.227  -0.824  1.00  0.00     0.041 C 
HETATM   13  C18 UNL     1      -1.252  -0.534  -1.725  1.00  0.00     0.014 C 
ENDROOT
BRANCH  11  14
HETATM   14  O1  UNL     1       0.537  -1.094   1.388  1.00  0.00    -0.388 OA
ATOM     15  H1  UNL     1       1.208  -1.712   1.122  1.00  0.00     0.210 HD
ENDBRANCH  11  14
BRANCH  11  16
HETATM   16  C11 UNL     1       1.501   0.423  -0.144  1.00  0.00     0.310 C 
BRANCH  16  17
HETATM   17  N2  UNL     1       2.707  -0.368  -0.407  1.00  0.00     0.091 N 
HETATM   18  C12 UNL     1       3.576   0.625  -1.115  1.00  0.00     0.272 C 
HETATM   19  C13 UNL     1       4.910   0.015  -1.398  1.00  0.00     0.030 C 
HETATM   20  C14 UNL     1       5.619  -0.092  -0.037  1.00  0.00     0.003 C 
HETATM   21  C15 UNL     1       4.787  -0.991   0.810  1.00  0.00     0.030 C 
HETATM   22  C16 UNL     1       3.347  -0.591   0.893  1.00  0.00     0.272 C 
ENDBRANCH  16  17
ENDBRANCH  11  16
TORSDOF 3
