REMARK  3 active torsions:
REMARK  status: ('A' for Active; 'I' for Inactive)
REMARK    1  A    between atoms: C2_2  and  C3_3 
REMARK    2  A    between atoms: C2_2  and  N2_16 
REMARK       I    between atoms: C3_3  and  N1_5 
REMARK    3  A    between atoms: N1_5  and  C4_7 
ROOT
HETATM    1  C3  UNL     1       0.792  -1.601  -0.460  1.00  0.00     0.240 C 
HETATM    2  O1  UNL     1       0.583  -2.832  -0.333  1.00  0.00    -0.271 OA
HETATM    3  N1  UNL     1      -0.309  -0.733  -0.372  1.00  0.00    -0.351 N 
ATOM      4  H1  UNL     1      -0.139   0.267  -0.477  1.00  0.00     0.163 HD
ENDROOT
BRANCH   1   5
HETATM    5  C2  UNL     1       2.180  -1.162  -0.693  1.00  0.00     0.167 C 
HETATM    6  C1  UNL     1       3.149  -1.872   0.227  1.00  0.00     0.042 C 
BRANCH   5   7
HETATM    7  N2  UNL     1       2.386   0.238  -0.768  1.00  0.00    -0.397 N 
HETATM    8  C13 UNL     1       2.232   0.977   0.435  1.00  0.00     0.148 C 
HETATM    9  C14 UNL     1       3.516   1.298   1.141  1.00  0.00     0.291 C 
HETATM   10  N3  UNL     1       4.672   1.191   0.276  1.00  0.00     0.087 N 
HETATM   11  C15 UNL     1       5.815   1.883   0.785  1.00  0.00     0.310 C 
HETATM   12  C16 UNL     1       4.339   1.687  -1.025  1.00  0.00     0.291 C 
HETATM   13  C17 UNL     1       3.388   0.687  -1.662  1.00  0.00     0.148 C 
ENDBRANCH   5   7
ENDBRANCH   1   5
BRANCH   3  14
HETATM   14  C4  UNL     1      -1.682  -1.174  -0.140  1.00  0.00     0.107 C 
HETATM   15  C5  UNL     1      -2.465  -0.877  -1.322  1.00  0.00    -0.002 C 
HETATM   16  C6  UNL     1      -2.993   0.419  -1.656  1.00  0.00    -0.006 C 
HETATM   17  C7  UNL     1      -3.595   1.358  -0.723  1.00  0.00    -0.027 C 
HETATM   18  C8  UNL     1      -4.537   0.970   0.314  1.00  0.00     0.027 C 
HETATM   19  C9  UNL     1      -5.146  -0.372   0.277  1.00  0.00     0.004 C 
HETATM   20  C10 UNL     1      -4.518  -1.434   1.084  1.00  0.00     0.000 C 
HETATM   21  C11 UNL     1      -3.289  -1.136   1.845  1.00  0.00     0.002 C 
HETATM   22  C12 UNL     1      -2.057  -0.713   1.205  1.00  0.00     0.029 C 
ENDBRANCH   3  14
TORSDOF 3
