REMARK  3 active torsions:
REMARK  status: ('A' for Active; 'I' for Inactive)
REMARK    1  A    between atoms: N1_2  and  C2_3 
REMARK    2  A    between atoms: N1_2  and  S1_17 
REMARK    3  A    between atoms: C12_13  and  O1_15 
ROOT
HETATM    1  C2  UNL     1       1.148  -0.390  -0.214  1.00  0.00     0.129 C 
HETATM    2  C3  UNL     1       0.128  -1.460  -0.626  1.00  0.00     0.030 C 
HETATM    3  C4  UNL     1      -0.725  -1.719   0.555  1.00  0.00     0.011 C 
HETATM    4  C5  UNL     1      -2.026  -0.983   0.598  1.00  0.00    -0.041 C 
HETATM    5  C6  UNL     1      -2.942  -1.663  -0.409  1.00  0.00     0.015 C 
HETATM    6  C7  UNL     1      -2.637  -1.307   1.960  1.00  0.00     0.015 C 
HETATM    7  C8  UNL     1      -1.928   0.490   0.351  1.00  0.00    -0.038 C 
HETATM    8  C9  UNL     1      -2.795   1.158   1.442  1.00  0.00     0.015 C 
HETATM    9  C10 UNL     1      -2.594   0.875  -0.954  1.00  0.00     0.015 C 
HETATM   10  C11 UNL     1      -0.597   1.097   0.552  1.00  0.00     0.049 C 
HETATM   11  C12 UNL     1       0.426   0.916  -0.500  1.00  0.00     0.076 C 
HETATM   12  C13 UNL     1       1.387   2.108  -0.404  1.00  0.00     0.048 C 
ENDROOT
BRANCH   1  13
HETATM   13  N1  UNL     1       2.409  -0.544  -0.756  1.00  0.00    -0.308 N 
HETATM   14  C1  UNL     1       2.737  -0.303  -2.078  1.00  0.00     0.163 C 
BRANCH  13  15
HETATM   15  S1  UNL     1       3.673  -0.693   0.341  1.00  0.00     0.224 S 
HETATM   16  C14 UNL     1       4.658   0.802   0.449  1.00  0.00     0.186 C 
HETATM   17  O2  UNL     1       3.255  -1.031   1.729  1.00  0.00    -0.206 OA
HETATM   18  O3  UNL     1       4.585  -1.812  -0.122  1.00  0.00    -0.206 OA
ENDBRANCH  13  15
ENDBRANCH   1  13
BRANCH  11  19
HETATM   19  O1  UNL     1      -0.130   0.963  -1.757  1.00  0.00    -0.388 OA
ATOM     20  H1  UNL     1      -0.581   1.780  -1.936  1.00  0.00     0.210 HD
ENDBRANCH  11  19
TORSDOF 3
