REMARK  0 active torsions:
REMARK  status: ('A' for Active; 'I' for Inactive)
REMARK       I    between atoms: N2_7  and  C6_9 
REMARK       I    between atoms: C6_9  and  N3_10 
REMARK       I    between atoms: C6_9  and  N4_14 
ROOT
HETATM    1  C1  UNL     1      -4.857  -2.518   0.240  1.00  0.00     0.309 C 
HETATM    2  N1  UNL     1      -3.541  -1.853   0.236  1.00  0.00     0.084 N 
HETATM    3  C2  UNL     1      -3.555  -0.928   1.338  1.00  0.00     0.272 C 
HETATM    4  C3  UNL     1      -2.227  -0.222   1.465  1.00  0.00     0.041 C 
HETATM    5  C4  UNL     1      -1.564   0.045   0.138  1.00  0.00     0.038 C 
HETATM    6  C5  UNL     1      -0.791   1.312   0.114  1.00  0.00    -0.010 C 
HETATM    7  N2  UNL     1       0.423   1.370   0.419  1.00  0.00    -0.345 N 
ATOM      8  H2  UNL     1       0.818   2.308   0.356  1.00  0.00     0.163 HD
HETATM    9  C6  UNL     1       1.337   0.405   0.827  1.00  0.00     0.520 C 
HETATM   10  N3  UNL     1       1.313   0.115   2.254  1.00  0.00    -0.030 N 
ATOM     11  H31 UNL     1       1.984  -0.593   2.553  1.00  0.00     0.279 HD
ATOM     12  H32 UNL     1       0.371  -0.142   2.548  1.00  0.00     0.279 HD
ATOM     13  H33 UNL     1       1.438   0.972   2.793  1.00  0.00     0.279 HD
HETATM   14  N4  UNL     1       2.715   0.673   0.486  1.00  0.00     0.138 N 
HETATM   15  C7  UNL     1       3.491  -0.441   0.983  1.00  0.00     0.277 C 
HETATM   16  C8  UNL     1       4.954  -0.313   0.771  1.00  0.00     0.030 C 
HETATM   17  C9  UNL     1       5.420  -0.255  -0.636  1.00  0.00     0.002 C 
HETATM   18  C10 UNL     1       4.501  -0.873  -1.638  1.00  0.00     0.002 C 
HETATM   19  C11 UNL     1       3.154  -0.248  -1.746  1.00  0.00     0.030 C 
HETATM   20  C12 UNL     1       2.945   0.967  -0.884  1.00  0.00     0.277 C 
HETATM   21  C13 UNL     1      -1.448   2.613  -0.287  1.00  0.00     0.052 C 
HETATM   22  C14 UNL     1      -2.368   2.398  -1.483  1.00  0.00     0.006 C 
HETATM   23  C15 UNL     1      -3.367   1.328  -1.033  1.00  0.00     0.007 C 
HETATM   24  C16 UNL     1      -2.564   0.037  -1.002  1.00  0.00     0.023 C 
HETATM   25  C17 UNL     1      -3.390  -1.190  -1.041  1.00  0.00     0.277 C 
ENDROOT
TORSDOF 0
