REMARK  9 active torsions:
REMARK  status: ('A' for Active; 'I' for Inactive)
REMARK    1  A    between atoms: C4_8  and  C5_9 
REMARK    2  A    between atoms: C5_9  and  O1_10 
REMARK    3  A    between atoms: C5_9  and  N3_12 
REMARK    4  A    between atoms: C10_17  and  O2_18 
REMARK    5  A    between atoms: O2_18  and  C11_19 
REMARK    6  A    between atoms: C11_19  and  C12_20 
REMARK    7  A    between atoms: C12_20  and  C13_21 
REMARK    8  A    between atoms: C13_21  and  O4_23 
REMARK    9  A    between atoms: O4_23  and  C14_24 
ROOT
HETATM    1  N3  UNL     1       4.295  -0.265  -0.791  1.00  0.00    -0.348 N 
HETATM    2  C6  UNL     1       3.827  -1.567  -0.430  1.00  0.00     0.089 C 
HETATM    3  C7  UNL     1       3.446  -2.139  -1.790  1.00  0.00     0.027 C 
HETATM    4  C8  UNL     1       3.123  -0.925  -2.640  1.00  0.00     0.030 C 
HETATM    5  C9  UNL     1       3.104   0.154  -1.601  1.00  0.00     0.116 C 
HETATM    6  C10 UNL     1       2.005  -0.113  -0.640  1.00  0.00     0.146 C 
HETATM    7  C21 UNL     1       2.522  -1.183   0.302  1.00  0.00     0.059 C 
ENDROOT
BRANCH   6   8
HETATM    8  O2  UNL     1       1.566   0.974   0.063  1.00  0.00    -0.383 OA
BRANCH   8   9
HETATM    9  C11 UNL     1       0.226   1.226  -0.030  1.00  0.00     0.178 C 
BRANCH   9  10
HETATM   10  C12 UNL     1      -0.672   0.138   0.454  1.00  0.00     0.137 C 
BRANCH  10  11
HETATM   11  C13 UNL     1      -2.088   0.581   0.280  1.00  0.00     0.261 C 
HETATM   12  O3  UNL     1      -2.362   1.702  -0.203  1.00  0.00    -0.265 OA
BRANCH  11  13
HETATM   13  O4  UNL     1      -3.159  -0.224   0.643  1.00  0.00    -0.314 OA
BRANCH  13  14
HETATM   14  C14 UNL     1      -4.484   0.132   0.506  1.00  0.00     0.164 C 
HETATM   15  C15 UNL     1      -5.266   0.156   1.799  1.00  0.00     0.072 C 
HETATM   16  C16 UNL     1      -6.686   0.164   1.271  1.00  0.00     0.121 C 
HETATM   17  C17 UNL     1      -7.629  -0.611   2.152  1.00  0.00     0.046 C 
HETATM   18  C18 UNL     1      -7.133   1.623   1.270  1.00  0.00     0.046 C 
HETATM   19  N4  UNL     1      -6.669  -0.410  -0.037  1.00  0.00    -0.061 N 
HETATM   20  C19 UNL     1      -5.309  -0.790  -0.346  1.00  0.00     0.212 C 
ATOM     21  H42 UNL     1      -7.326  -1.184  -0.135  1.00  0.00     0.278 HD
ATOM     22  H41 UNL     1      -7.075   0.205  -0.742  1.00  0.00     0.278 HD
HETATM   23  C20 UNL     1      -5.096  -0.600  -1.819  1.00  0.00     0.043 C 
ENDBRANCH  13  14
ENDBRANCH  11  13
ENDBRANCH  10  11
ENDBRANCH   9  10
ENDBRANCH   8   9
ENDBRANCH   6   8
BRANCH   1  24
HETATM   24  C5  UNL     1       5.430   0.511  -0.561  1.00  0.00     0.168 C 
BRANCH  24  25
HETATM   25  C4  UNL     1       6.619   0.233   0.189  1.00  0.00     0.106 A 
HETATM   26  C2  UNL     1       7.670   1.137   0.311  1.00  0.00     0.037 A 
HETATM   27  C1  UNL     1       7.776   2.483  -0.266  1.00  0.00     0.070 C 
HETATM   28  N1  UNL     1       8.603   0.561   1.067  1.00  0.00    -0.354 N 
HETATM   29  C3  UNL     1       8.183  -0.652   1.418  1.00  0.00     0.181 A 
ATOM     30  H1  UNL     1       9.494   0.981   1.333  1.00  0.00     0.166 HD
HETATM   31  N2  UNL     1       6.948  -0.859   0.873  1.00  0.00    -0.347 N 
ATOM     32  H2  UNL     1       6.380  -1.700   0.973  1.00  0.00     0.167 HD
ENDBRANCH  24  25
BRANCH  24  33
HETATM   33  O1  UNL     1       5.375   1.682  -1.136  1.00  0.00    -0.344 OA
ATOM     34  H1  UNL     1       4.587   1.866  -1.633  1.00  0.00     0.219 HD
ENDBRANCH  24  33
ENDBRANCH   1  24
TORSDOF 9
