REMARK  8 active torsions:
REMARK  status: ('A' for Active; 'I' for Inactive)
REMARK    1  A    between atoms: O1_2  and  C2_3 
REMARK    2  A    between atoms: C4_5  and  C5_6 
REMARK    3  A    between atoms: N2_15  and  C11_16 
REMARK    4  A    between atoms: C11_16  and  C12_17 
REMARK    5  A    between atoms: C13_18  and  C14_19 
REMARK    6  A    between atoms: C14_19  and  C15_20 
REMARK    7  A    between atoms: C19_26  and  O4_27 
REMARK    8  A    between atoms: C21_29  and  O5_30 
ROOT
HETATM    1  C15 UNL     1       5.588  -0.111   2.925  1.00  0.00     0.136 C 
HETATM    2  C16 UNL     1       5.812   1.342   2.841  1.00  0.00     0.060 C 
HETATM    3  N3  UNL     1       5.998   2.487   2.783  1.00  0.00    -0.197 NA
ENDROOT
BRANCH   1   4
HETATM    4  C14 UNL     1       4.100  -0.397   2.790  1.00  0.00     0.108 C 
BRANCH   4   5
HETATM    5  C13 UNL     1       3.570   0.081   1.510  1.00  0.00    -0.104 C 
HETATM    6  C12 UNL     1       3.135   0.499   0.448  1.00  0.00    -0.087 C 
BRANCH   6   7
HETATM    7  C11 UNL     1       2.615   1.015  -0.802  1.00  0.00     0.222 C 
BRANCH   7   8
HETATM    8  N2  UNL     1       1.695   0.076  -1.398  1.00  0.00    -0.311 N 
HETATM    9  C8  UNL     1       2.069  -0.959  -2.316  1.00  0.00     0.104 C 
HETATM   10  N1  UNL     1       1.165  -1.004  -3.450  1.00  0.00    -0.331 N 
HETATM   11  C9  UNL     1       1.989  -2.342  -1.660  1.00  0.00     0.063 C 
HETATM   12  C10 UNL     1       3.471  -0.816  -2.839  1.00  0.00     0.063 C 
HETATM   13  C7  UNL     1      -0.229  -0.944  -3.186  1.00  0.00     0.259 C 
ATOM     14  H1  UNL     1       1.519  -1.076  -4.404  1.00  0.00     0.165 HD
HETATM   15  C6  UNL     1      -0.741  -0.336  -1.942  1.00  0.00     0.100 C 
HETATM   16  O2  UNL     1      -1.001  -1.435  -4.067  1.00  0.00    -0.267 OA
HETATM   17  C5  UNL     1      -2.029  -0.343  -1.742  1.00  0.00     0.034 C 
HETATM   18  C17 UNL     1       0.293   0.171  -1.059  1.00  0.00     0.262 C 
HETATM   19  O3  UNL     1       0.003   0.699   0.019  1.00  0.00    -0.267 OA
BRANCH  17  20
HETATM   20  C4  UNL     1      -2.836   0.150  -0.682  1.00  0.00    -0.030 A 
HETATM   21  C3  UNL     1      -2.836   1.459  -0.294  1.00  0.00     0.051 A 
HETATM   22  C2  UNL     1      -3.625   1.877   0.759  1.00  0.00     0.104 A 
HETATM   23  C21 UNL     1      -4.423   0.985   1.433  1.00  0.00     0.133 A 
HETATM   24  C19 UNL     1      -4.440  -0.334   1.061  1.00  0.00     0.104 A 
HETATM   25  C18 UNL     1      -3.641  -0.737   0.002  1.00  0.00     0.051 A 
BRANCH  22  26
HETATM   26  O1  UNL     1      -3.580   3.218   1.104  1.00  0.00    -0.353 OA
HETATM   27  C1  UNL     1      -2.770   4.144   0.426  1.00  0.00     0.210 C 
ENDBRANCH  22  26
BRANCH  23  28
HETATM   28  O5  UNL     1      -5.209   1.424   2.488  1.00  0.00    -0.356 OA
ATOM     29  H5  UNL     1      -5.761   0.807   2.954  1.00  0.00     0.218 HD
ENDBRANCH  23  28
BRANCH  24  30
HETATM   30  O4  UNL     1      -5.258  -1.211   1.763  1.00  0.00    -0.353 OA
HETATM   31  C20 UNL     1      -5.272  -2.571   1.376  1.00  0.00     0.210 C 
ENDBRANCH  24  30
ENDBRANCH  17  20
ENDBRANCH   7   8
ENDBRANCH   6   7
ENDBRANCH   4   5
ENDBRANCH   1   4
TORSDOF 8
