REMARK  5 active torsions:
REMARK  status: ('A' for Active; 'I' for Inactive)
REMARK    1  A    between atoms: O1_2  and  C2_3 
REMARK    2  A    between atoms: C6_9  and  S1_10 
REMARK    3  A    between atoms: S1_10  and  C7_13 
REMARK    4  A    between atoms: C7_13  and  C8_14 
REMARK    5  A    between atoms: C20_30  and  O5_31 
ROOT
HETATM    1  C2  UNL     1       5.515  -0.419  -0.069  1.00  0.00     0.103 A 
HETATM    2  C3  UNL     1       4.444  -1.290   0.027  1.00  0.00     0.070 A 
HETATM    3  C4  UNL     1       3.133  -0.813  -0.030  1.00  0.00     0.047 A 
HETATM    4  N1  UNL     1       2.126  -1.680   0.066  1.00  0.00    -0.364 N 
ATOM      5  H1  UNL     1       2.315  -2.676   0.179  1.00  0.00     0.165 HD
HETATM    6  C5  UNL     1       0.863  -1.236   0.013  1.00  0.00     0.114 A 
HETATM    7  C6  UNL     1       0.587   0.091  -0.137  1.00  0.00     0.101 A 
HETATM    8  C17 UNL     1       1.645   0.984  -0.235  1.00  0.00     0.061 A 
HETATM    9  N2  UNL     1       1.331   2.209  -0.374  1.00  0.00    -0.397 N 
ATOM     10  H21 UNL     1       2.109   2.865  -0.446  1.00  0.00     0.156 HD
ATOM     11  H22 UNL     1       0.367   2.539  -0.413  1.00  0.00     0.156 HD
HETATM   12  C18 UNL     1       2.944   0.539  -0.182  1.00  0.00     0.021 A 
HETATM   13  C19 UNL     1       3.987   1.438  -0.281  1.00  0.00     0.055 A 
HETATM   14  C20 UNL     1       5.284   0.929  -0.221  1.00  0.00     0.102 A 
ENDROOT
BRANCH   7  15
HETATM   15  S1  UNL     1      -1.105   0.697  -0.209  1.00  0.00     0.180 S 
HETATM   16  O2  UNL     1      -1.209   1.484  -1.456  1.00  0.00    -0.222 OA
HETATM   17  O3  UNL     1      -1.163   1.575   1.043  1.00  0.00    -0.222 OA
BRANCH  15  18
HETATM   18  C7  UNL     1      -2.120  -0.680  -0.056  1.00  0.00     0.160 C 
BRANCH  18  19
HETATM   19  C8  UNL     1      -3.579  -0.626  -0.136  1.00  0.00    -0.001 C 
HETATM   20  C9  UNL     1      -4.163  -2.024   0.039  1.00  0.00    -0.012 C 
HETATM   21  C10 UNL     1      -5.445  -2.210  -0.158  1.00  0.00     0.047 C 
HETATM   22  C11 UNL     1      -6.202  -1.017  -0.536  1.00  0.00     0.154 C 
HETATM   23  O4  UNL     1      -7.438  -1.019  -0.724  1.00  0.00    -0.293 OA
HETATM   24  C12 UNL     1      -5.413   0.202  -0.683  1.00  0.00     0.069 C 
HETATM   25  C13 UNL     1      -4.159  -0.133  -1.461  1.00  0.00     0.028 C 
HETATM   26  C14 UNL     1      -4.462   0.320   0.553  1.00  0.00    -0.025 C 
HETATM   27  C15 UNL     1      -4.163   1.768   0.698  1.00  0.00     0.016 C 
HETATM   28  C16 UNL     1      -5.153  -0.217   1.807  1.00  0.00     0.016 C 
ENDBRANCH  18  19
ENDBRANCH  15  18
ENDBRANCH   7  15
BRANCH  14  29
HETATM   29  O5  UNL     1       6.360   1.793  -0.316  1.00  0.00    -0.353 OA
HETATM   30  C21 UNL     1       6.154   3.172  -0.472  1.00  0.00     0.210 C 
ENDBRANCH  14  29
BRANCH   1  31
HETATM   31  O1  UNL     1       6.822  -0.877  -0.015  1.00  0.00    -0.353 OA
HETATM   32  C1  UNL     1       7.175  -2.219   0.137  1.00  0.00     0.210 C 
ENDBRANCH   1  31
TORSDOF 5
