REMARK  7 active torsions:
REMARK  status: ('A' for Active; 'I' for Inactive)
REMARK    1  A    between atoms: C2_2  and  C3_3 
REMARK    2  A    between atoms: C4_4  and  O1_5 
REMARK    3  A    between atoms: C8_10  and  O2_12 
REMARK    4  A    between atoms: C15_20  and  O4_21 
REMARK    5  A    between atoms: C17_24  and  C18_25 
REMARK    6  A    between atoms: C18_25  and  C19_26 
REMARK    7  A    between atoms: C19_26  and  C20_27 
ROOT
HETATM    1  C3  UNL     1      -0.373   2.242  -0.487  1.00  0.00     0.044 C 
HETATM    2  C4  UNL     1      -1.361   3.166   0.120  1.00  0.00     0.130 C 
HETATM    3  C5  UNL     1      -2.782   2.611   0.285  1.00  0.00     0.074 C 
HETATM    4  C6  UNL     1      -2.683   1.133   0.338  1.00  0.00    -0.010 C 
HETATM    5  C7  UNL     1      -3.439   0.790  -0.695  1.00  0.00     0.021 C 
HETATM    6  C8  UNL     1      -3.735  -0.627  -1.195  1.00  0.00     0.076 C 
HETATM    7  C9  UNL     1      -5.001  -1.041  -0.495  1.00  0.00     0.051 C 
HETATM    8  C10 UNL     1      -2.606  -1.512  -0.613  1.00  0.00     0.021 C 
HETATM    9  C11 UNL     1      -2.709  -2.833  -1.332  1.00  0.00     0.013 C 
HETATM   10  C12 UNL     1      -1.216  -0.900  -0.836  1.00  0.00     0.030 C 
HETATM   11  C13 UNL     1      -0.646  -0.215   0.352  1.00  0.00     0.082 C 
HETATM   12  C14 UNL     1      -1.883   0.234   1.157  1.00  0.00     0.169 C 
HETATM   13  O3  UNL     1      -2.024  -0.193   2.306  1.00  0.00    -0.292 OA
HETATM   14  C15 UNL     1       0.324  -1.014   1.105  1.00  0.00     0.276 C 
HETATM   15  O5  UNL     1       1.598  -0.423   1.000  1.00  0.00    -0.354 OA
HETATM   16  C17 UNL     1       1.476   0.564   0.004  1.00  0.00     0.131 C 
HETATM   17  C24 UNL     1       0.093   1.059   0.201  1.00  0.00     0.046 C 
ENDROOT
BRANCH  16  18
HETATM   18  C18 UNL     1       1.922   0.087  -1.310  1.00  0.00     0.036 C 
BRANCH  18  19
HETATM   19  C19 UNL     1       3.418  -0.306  -1.298  1.00  0.00     0.030 C 
BRANCH  19  20
HETATM   20  C20 UNL     1       3.690  -1.393  -0.321  1.00  0.00    -0.025 C 
HETATM   21  C21 UNL     1       4.553  -1.218   0.675  1.00  0.00    -0.091 C 
HETATM   22  C22 UNL     1       4.812  -2.310   1.637  1.00  0.00     0.042 C 
HETATM   23  C23 UNL     1       5.273   0.075   0.839  1.00  0.00     0.042 C 
ENDBRANCH  19  20
ENDBRANCH  18  19
ENDBRANCH  16  18
BRANCH  14  24
HETATM   24  O4  UNL     1       0.097  -1.225   2.435  1.00  0.00    -0.365 OA
HETATM   25  C16 UNL     1       0.097  -2.587   2.763  1.00  0.00     0.204 C 
ENDBRANCH  14  24
BRANCH   1  26
HETATM   26  C2  UNL     1       0.875   3.118  -0.645  1.00  0.00    -0.029 C 
HETATM   27  C1  UNL     1       1.017   4.287  -0.090  1.00  0.00     0.007 C 
ENDBRANCH   1  26
BRANCH   2  28
HETATM   28  O1  UNL     1      -1.544   4.315  -0.658  1.00  0.00    -0.395 OA
ATOM     29  H1  UNL     1      -2.177   4.907  -0.269  1.00  0.00     0.210 HD
ENDBRANCH   2  28
BRANCH   6  30
HETATM   30  O2  UNL     1      -3.864  -0.707  -2.535  1.00  0.00    -0.386 OA
ATOM     31  H2  UNL     1      -4.048  -1.586  -2.845  1.00  0.00     0.211 HD
ENDBRANCH   6  30
TORSDOF 7
