REMARK  8 active torsions:
REMARK  status: ('A' for Active; 'I' for Inactive)
REMARK    1  A    between atoms: C4_4  and  C5_5 
REMARK    2  A    between atoms: C10_12  and  C11_13 
REMARK    3  A    between atoms: C11_13  and  O3_15 
REMARK    4  A    between atoms: C11_13  and  C13_17 
REMARK    5  A    between atoms: C13_17  and  C14_18 
REMARK    6  A    between atoms: C14_18  and  C15_19 
REMARK    7  A    between atoms: C15_19  and  O4_21 
REMARK    8  A    between atoms: C18_24  and  O5_25 
ROOT
HETATM    1  C1  UNL     1      -4.514  -1.010   2.582  1.00  0.00     0.043 C 
HETATM    2  C2  UNL     1      -3.787  -0.856   1.294  1.00  0.00    -0.078 C 
HETATM    3  C3  UNL     1      -4.032   0.188   0.509  1.00  0.00     0.008 C 
HETATM    4  C4  UNL     1      -3.282   0.319  -0.786  1.00  0.00     0.158 C 
HETATM    5  O1  UNL     1      -2.007   0.788  -0.657  1.00  0.00    -0.311 OA
HETATM    6  C8  UNL     1      -0.858   0.450  -0.073  1.00  0.00     0.277 C 
HETATM    7  O2  UNL     1      -0.427   1.192   0.896  1.00  0.00    -0.264 OA
HETATM    8  C9  UNL     1       0.066  -0.656  -0.325  1.00  0.00     0.119 A 
HETATM    9  C10 UNL     1       1.405  -0.321  -0.794  1.00  0.00    -0.025 A 
HETATM   10  C17 UNL     1       1.314  -1.165  -1.791  1.00  0.00     0.020 A 
HETATM   11  C18 UNL     1      -0.067  -1.589  -1.404  1.00  0.00     0.102 A 
HETATM   12  C19 UNL     1      -0.030  -2.738  -0.444  1.00  0.00     0.034 C 
HETATM   13  C20 UNL     1      -0.973  -3.859  -0.598  1.00  0.00     0.014 C 
HETATM   14  C21 UNL     1      -0.162  -1.751   0.654  1.00  0.00     0.088 C 
HETATM   15  C22 UNL     1      -1.426  -1.631   1.396  1.00  0.00     0.137 C 
HETATM   16  O6  UNL     1      -1.397  -1.232   2.577  1.00  0.00    -0.297 OA
HETATM   17  C23 UNL     1      -2.785  -1.924   0.935  1.00  0.00     0.112 C 
ENDROOT
BRANCH   9  18
HETATM   18  C11 UNL     1       2.526   0.639  -0.361  1.00  0.00     0.079 C 
HETATM   19  C12 UNL     1       3.672   0.461  -1.378  1.00  0.00     0.051 C 
BRANCH  18  20
HETATM   20  O3  UNL     1       2.135   1.946  -0.436  1.00  0.00    -0.386 OA
ATOM     21  H3  UNL     1       2.827   2.539  -0.169  1.00  0.00     0.211 HD
ENDBRANCH  18  20
BRANCH  18  22
HETATM   22  C13 UNL     1       3.006   0.190   0.963  1.00  0.00     0.045 C 
BRANCH  22  23
HETATM   23  C14 UNL     1       4.015   0.991   1.672  1.00  0.00     0.034 C 
BRANCH  23  24
HETATM   24  C15 UNL     1       5.329   1.341   1.143  1.00  0.00     0.114 C 
HETATM   25  C16 UNL     1       6.136   2.116   2.261  1.00  0.00     0.039 C 
BRANCH  24  26
HETATM   26  O4  UNL     1       5.309   2.386   0.159  1.00  0.00    -0.396 OA
ATOM     27  H4  UNL     1       6.165   2.614  -0.185  1.00  0.00     0.210 HD
ENDBRANCH  24  26
ENDBRANCH  23  24
ENDBRANCH  22  23
ENDBRANCH  18  22
ENDBRANCH   9  18
BRANCH  11  28
HETATM   28  O5  UNL     1      -0.923  -1.534  -2.416  1.00  0.00    -0.384 OA
ATOM     29  H5  UNL     1      -1.011  -2.153  -3.132  1.00  0.00     0.211 HD
ENDBRANCH  11  28
BRANCH   4  30
HETATM   30  C5  UNL     1      -4.060   1.384  -1.585  1.00  0.00     0.011 C 
HETATM   31  C6  UNL     1      -3.331   1.548  -2.908  1.00  0.00     0.012 C 
HETATM   32  C7  UNL     1      -3.995   2.721  -0.881  1.00  0.00     0.012 C 
ENDBRANCH   4  30
TORSDOF 8
