REMARK  6 active torsions:
REMARK  status: ('A' for Active; 'I' for Inactive)
REMARK    1  A    between atoms: C2_2  and  C3_3 
REMARK    2  A    between atoms: C5_5  and  C6_6 
REMARK    3  A    between atoms: C7_9  and  N1_10 
REMARK    4  A    between atoms: N3_16  and  C11_18 
REMARK    5  A    between atoms: C14_24  and  N5_25 
REMARK    6  A    between atoms: N5_25  and  O2_27 
ROOT
HETATM    1  N1  UNL     1      -1.614  -0.556  -0.627  1.00  0.00    -0.298 N 
HETATM    2  C8  UNL     1      -0.844  -1.593  -1.007  1.00  0.00     0.188 A 
HETATM    3  N2  UNL     1       0.441  -1.302  -0.744  1.00  0.00    -0.346 N 
ATOM      4  H2  UNL     1       1.241  -1.907  -0.930  1.00  0.00     0.167 HD
HETATM    5  C9  UNL     1       0.493  -0.064  -0.189  1.00  0.00     0.125 A 
HETATM    6  C10 UNL     1       1.322   0.912   0.330  1.00  0.00     0.149 A 
HETATM    7  N3  UNL     1       2.606   0.863   0.441  1.00  0.00    -0.341 N 
ATOM      8  H3  UNL     1       3.121   1.647   0.843  1.00  0.00     0.163 HD
HETATM    9  N6  UNL     1       0.494   1.920   0.691  1.00  0.00    -0.282 N 
ATOM     10  H6  UNL     1       0.805   2.796   1.112  1.00  0.00     0.188 HD
HETATM   11  N7  UNL     1      -0.762   1.628   0.431  1.00  0.00    -0.282 N 
ATOM     12  H7  UNL     1      -1.566   2.229   0.614  1.00  0.00     0.188 HD
HETATM   13  C16 UNL     1      -0.804   0.398  -0.119  1.00  0.00     0.156 A 
ENDROOT
BRANCH   7  14
HETATM   14  C11 UNL     1       3.295  -0.303  -0.006  1.00  0.00     0.334 C 
HETATM   15  N4  UNL     1       3.234  -1.423   0.878  1.00  0.00    -0.049 N 
HETATM   16  C12 UNL     1       4.399  -2.228   0.684  1.00  0.00     0.241 C 
ATOM     17  H42 UNL     1       3.111  -1.144   1.851  1.00  0.00     0.280 HD
ATOM     18  H41 UNL     1       2.371  -1.956   0.773  1.00  0.00     0.280 HD
HETATM   19  C13 UNL     1       5.325  -1.465  -0.259  1.00  0.00     0.086 C 
HETATM   20  C14 UNL     1       4.761  -0.085  -0.159  1.00  0.00     0.061 C 
BRANCH  20  21
HETATM   21  N5  UNL     1       5.406   1.033  -0.198  1.00  0.00    -0.272 N 
ATOM     22  H5  UNL     1       4.889   1.909  -0.117  1.00  0.00     0.193 HD
BRANCH  21  23
HETATM   23  O2  UNL     1       6.750   1.071  -0.343  1.00  0.00    -0.285 OA
HETATM   24  C15 UNL     1       7.484   2.188  -0.773  1.00  0.00     0.237 C 
ENDBRANCH  21  23
ENDBRANCH  20  21
ENDBRANCH   7  14
BRANCH   1  25
HETATM   25  C7  UNL     1      -3.071  -0.458  -0.734  1.00  0.00     0.238 C 
HETATM   26  C3  UNL     1      -3.668  -0.555   0.653  1.00  0.00     0.059 C 
HETATM   27  C4  UNL     1      -4.367   0.728   0.849  1.00  0.00     0.047 C 
HETATM   28  C5  UNL     1      -4.403   1.332  -0.532  1.00  0.00     0.153 C 
HETATM   29  O1  UNL     1      -3.489   0.699  -1.318  1.00  0.00    -0.358 OA
BRANCH  26  30
HETATM   30  C2  UNL     1      -4.479  -1.779   0.791  1.00  0.00    -0.028 C 
HETATM   31  C1  UNL     1      -5.744  -1.855   1.070  1.00  0.00     0.007 C 
ENDBRANCH  26  30
BRANCH  28  32
HETATM   32  C6  UNL     1      -5.796   1.342  -1.093  1.00  0.00     0.254 C 
HETATM   33  F1  UNL     1      -5.808   1.899  -2.357  1.00  0.00    -0.253 F 
ENDBRANCH  28  32
ENDBRANCH   1  25
TORSDOF 6
