REMARK  6 active torsions:
REMARK  status: ('A' for Active; 'I' for Inactive)
REMARK    1  A    between atoms: C6_11  and  N3_12 
REMARK    2  A    between atoms: N4_15  and  C7_16 
REMARK    3  A    between atoms: C8_18  and  C9_19 
REMARK    4  A    between atoms: C9_19  and  S1_20 
REMARK    5  A    between atoms: S1_20  and  C10_21 
REMARK    6  A    between atoms: C13_24  and  O2_25 
ROOT
HETATM    1  C1  UNL     1      -4.280  -1.896   0.752  1.00  0.00     0.044 C 
HETATM    2  C2  UNL     1      -3.565  -0.832   0.381  1.00  0.00     0.047 A 
HETATM    3  C3  UNL     1      -3.898   0.400  -0.325  1.00  0.00     0.078 A 
HETATM    4  C4  UNL     1      -2.597   0.855  -0.247  1.00  0.00     0.128 A 
HETATM    5  N1  UNL     1      -2.285   2.050  -0.780  1.00  0.00    -0.318 N 
ATOM      6  H1  UNL     1      -1.320   2.376  -0.716  1.00  0.00     0.170 HD
HETATM    7  C5  UNL     1      -3.190   2.835  -1.394  1.00  0.00     0.182 A 
HETATM    8 CL1  UNL     1      -2.753   4.390  -2.081  1.00  0.00    -0.045 Cl
HETATM    9  N2  UNL     1      -4.463   2.426  -1.490  1.00  0.00    -0.318 N 
ATOM     10  H2  UNL     1      -5.161   3.008  -1.953  1.00  0.00     0.170 HD
HETATM   11  C6  UNL     1      -4.807   1.229  -0.963  1.00  0.00     0.117 A 
HETATM   12  N4  UNL     1      -2.248  -0.354   0.451  1.00  0.00    -0.304 N 
ENDROOT
BRANCH  12  13
HETATM   13  C7  UNL     1      -1.020  -0.837   0.990  1.00  0.00     0.236 C 
HETATM   14  O1  UNL     1       0.044   0.062   0.769  1.00  0.00    -0.357 OA
HETATM   15  C8  UNL     1       1.087  -0.688   1.346  1.00  0.00     0.162 C 
HETATM   16  C13 UNL     1       0.998  -1.968   0.604  1.00  0.00     0.155 C 
HETATM   17  C14 UNL     1      -0.521  -2.122   0.429  1.00  0.00     0.062 C 
HETATM   18  C15 UNL     1      -0.901  -2.380  -0.987  1.00  0.00     0.017 C 
BRANCH  15  19
HETATM   19  C9  UNL     1       2.401   0.010   1.271  1.00  0.00     0.109 C 
BRANCH  19  20
HETATM   20  S1  UNL     1       2.951   0.377  -0.388  1.00  0.00    -0.162 SA
BRANCH  20  21
HETATM   21  C10 UNL     1       4.536   1.219  -0.345  1.00  0.00     0.039 C 
HETATM   22  C11 UNL     1       4.451   2.592   0.277  1.00  0.00     0.021 C 
HETATM   23  C12 UNL     1       5.590   0.441   0.413  1.00  0.00     0.021 C 
ENDBRANCH  20  21
ENDBRANCH  19  20
ENDBRANCH  15  19
BRANCH  16  24
HETATM   24  O2  UNL     1       1.560  -1.964  -0.641  1.00  0.00    -0.392 OA
ATOM     25  H2  UNL     1       1.503  -2.784  -1.117  1.00  0.00     0.210 HD
ENDBRANCH  16  24
ENDBRANCH  12  13
BRANCH  11  26
HETATM   26  N3  UNL     1      -6.048   0.894  -1.087  1.00  0.00    -0.385 N 
ATOM     27  H32 UNL     1      -6.307  -0.009  -0.690  1.00  0.00     0.157 HD
ATOM     28  H31 UNL     1      -6.717   1.504  -1.557  1.00  0.00     0.157 HD
ENDBRANCH  11  26
TORSDOF 6
