REMARK  4 active torsions:
REMARK  status: ('A' for Active; 'I' for Inactive)
REMARK    1  A    between atoms: C4_9  and  C5_10 
REMARK    2  A    between atoms: C5_10  and  S1_11 
REMARK    3  A    between atoms: S1_11  and  C6_12 
REMARK    4  A    between atoms: C7_17  and  C8_18 
ROOT
HETATM    1  C6  UNL     1       0.391  -1.266   0.715  1.00  0.00     0.160 A 
HETATM    2  N3  UNL     1       0.315  -0.329   1.654  1.00  0.00    -0.278 N 
ATOM      3  H3  UNL     1       1.073  -0.100   2.296  1.00  0.00     0.189 HD
HETATM    4  N4  UNL     1      -0.850   0.263   1.654  1.00  0.00    -0.286 N 
ATOM      5  H4  UNL     1      -1.138   1.012   2.283  1.00  0.00     0.188 HD
HETATM    6  C7  UNL     1      -1.612  -0.289   0.674  1.00  0.00     0.106 A 
HETATM    7  N5  UNL     1      -0.845  -1.226   0.102  1.00  0.00    -0.324 N 
ATOM      8  H5  UNL     1      -1.132  -1.823  -0.674  1.00  0.00     0.169 HD
ENDROOT
BRANCH   1   9
HETATM    9  S1  UNL     1       1.685  -2.397   0.227  1.00  0.00    -0.088 SA
BRANCH   9  10
HETATM   10  C5  UNL     1       2.723  -1.767  -1.062  1.00  0.00     0.129 C 
BRANCH  10  11
HETATM   11  C4  UNL     1       3.763  -0.809  -0.664  1.00  0.00     0.051 A 
HETATM   12  C3  UNL     1       4.508  -0.191  -1.686  1.00  0.00     0.111 A 
HETATM   13  N1  UNL     1       5.507   0.662  -1.373  1.00  0.00    -0.332 N 
HETATM   14  N2  UNL     1       4.212  -0.455  -2.907  1.00  0.00    -0.385 N 
HETATM   15  C2  UNL     1       5.859   0.975  -0.119  1.00  0.00     0.080 A 
ATOM     16  H1  UNL     1       6.025   1.094  -2.138  1.00  0.00     0.168 HD
HETATM   17  C1  UNL     1       6.969   1.926   0.191  1.00  0.00     0.089 C 
HETATM   18  N6  UNL     1       5.163   0.393   0.864  1.00  0.00    -0.322 N 
HETATM   19  C15 UNL     1       4.140  -0.479   0.610  1.00  0.00     0.200 A 
ATOM     20  H6  UNL     1       5.402   0.606   1.832  1.00  0.00     0.169 HD
HETATM   21  F1  UNL     1       3.528  -1.086   1.648  1.00  0.00    -0.185 F 
ATOM     22  H22 UNL     1       4.752  -0.007  -3.648  1.00  0.00     0.157 HD
ATOM     23  H21 UNL     1       3.457  -1.099  -3.143  1.00  0.00     0.157 HD
ENDBRANCH  10  11
ENDBRANCH   9  10
ENDBRANCH   1   9
BRANCH   6  24
HETATM   24  C8  UNL     1      -2.986   0.055   0.313  1.00  0.00     0.024 C 
HETATM   25  C9  UNL     1      -3.842  -1.121  -0.022  1.00  0.00     0.043 C 
HETATM   26  C10 UNL     1      -5.229  -1.098   0.461  1.00  0.00     0.169 C 
HETATM   27  O1  UNL     1      -5.748   0.086   0.876  1.00  0.00    -0.386 OA
HETATM   28  C11 UNL     1      -4.964   1.201   0.686  1.00  0.00     0.122 C 
HETATM   29  C12 UNL     1      -4.581   1.369  -0.769  1.00  0.00     0.033 C 
HETATM   30  C14 UNL     1      -3.642   0.927   1.399  1.00  0.00     0.049 C 
HETATM   31  C13 UNL     1      -3.089   1.034  -0.846  1.00  0.00     0.020 C 
ENDBRANCH   6  24
TORSDOF 4
