REMARK  6 active torsions:
REMARK  status: ('A' for Active; 'I' for Inactive)
REMARK    1  A    between atoms: N1_1  and  N2_4 
REMARK    2  A    between atoms: N2_4  and  C1_6 
REMARK    3  A    between atoms: C2_11  and  S1_12 
REMARK    4  A    between atoms: S1_12  and  C3_13 
REMARK    5  A    between atoms: C3_13  and  C4_14 
REMARK       I    between atoms: C4_14  and  N5_16 
REMARK    6  A    between atoms: N5_16  and  C5_18 
ROOT
HETATM    1  C3  UNL     1       1.586  -2.585  -1.784  1.00  0.00     0.184 C 
ENDROOT
BRANCH   1   2
HETATM    2  S1  UNL     1       2.989  -3.256  -0.888  1.00  0.00    -0.094 SA
BRANCH   2   3
HETATM    3  C2  UNL     1       3.986  -1.856  -0.332  1.00  0.00     0.130 A 
HETATM    4  N4  UNL     1       3.771  -0.563  -0.522  1.00  0.00    -0.286 N 
HETATM    5  N3  UNL     1       4.580   0.297  -0.060  1.00  0.00    -0.277 N 
ATOM      6  H4  UNL     1       2.949  -0.257  -1.043  1.00  0.00     0.188 HD
HETATM    7  C1  UNL     1       5.649  -0.129   0.621  1.00  0.00     0.180 A 
ATOM      8  H3  UNL     1       4.419   1.294  -0.205  1.00  0.00     0.189 HD
HETATM    9  S2  UNL     1       5.440  -1.825   0.567  1.00  0.00    -0.025 SA
BRANCH   7  10
HETATM   10  N2  UNL     1       6.600   0.587   1.177  1.00  0.00    -0.285 N 
ATOM     11  H2  UNL     1       7.371   0.142   1.674  1.00  0.00     0.188 HD
BRANCH  10  12
HETATM   12  N1  UNL     1       6.522   1.964   1.067  1.00  0.00    -0.343 N 
ATOM     13  H12 UNL     1       5.744   2.394   0.567  1.00  0.00     0.176 HD
ATOM     14  H11 UNL     1       7.260   2.520   1.499  1.00  0.00     0.176 HD
ENDBRANCH  10  12
ENDBRANCH   7  10
ENDBRANCH   2   3
ENDBRANCH   1   2
BRANCH   1  15
HETATM   15  C4  UNL     1       0.668  -1.815  -0.899  1.00  0.00     0.228 C 
HETATM   16  O1  UNL     1       0.978  -1.756   0.316  1.00  0.00    -0.273 OA
HETATM   17  N5  UNL     1      -0.490  -1.198  -1.450  1.00  0.00    -0.351 N 
ATOM     18  H5  UNL     1      -0.668  -1.298  -2.449  1.00  0.00     0.163 HD
BRANCH  17  19
HETATM   19  C5  UNL     1      -1.417  -0.441  -0.659  1.00  0.00     0.034 C 
HETATM   20  C6  UNL     1      -2.540   0.077  -1.543  1.00  0.00     0.035 C 
HETATM   21  C7  UNL     1      -3.512   0.944  -0.817  1.00  0.00    -0.012 C 
HETATM   22  C8  UNL     1      -4.145   0.116   0.280  1.00  0.00     0.009 C 
HETATM   23  C12 UNL     1      -2.766   2.108  -0.222  1.00  0.00     0.009 C 
HETATM   24  C9  UNL     1      -3.036  -0.380   1.168  1.00  0.00    -0.012 C 
HETATM   25  C10 UNL     1      -2.288   0.754   1.820  1.00  0.00     0.009 C 
HETATM   26  C14 UNL     1      -2.070  -1.262   0.429  1.00  0.00     0.035 C 
HETATM   27  C11 UNL     1      -1.714   1.613   0.731  1.00  0.00    -0.012 C 
HETATM   28  C13 UNL     1      -0.739   0.776  -0.071  1.00  0.00     0.035 C 
ENDBRANCH  17  19
ENDBRANCH   1  15
TORSDOF 6
