REMARK  11 active torsions:
REMARK  status: ('A' for Active; 'I' for Inactive)
REMARK    1  A    between atoms: O1_2  and  C2_3 
REMARK    2  A    between atoms: C2_3  and  C3_5 
REMARK    3  A    between atoms: C3_5  and  C4_6 
REMARK    4  A    between atoms: C3_5  and  C10_20 
REMARK    5  A    between atoms: C4_6  and  N1_7 
REMARK    6  A    between atoms: N1_7  and  C5_9 
REMARK    7  A    between atoms: N3_17  and  O4_18 
REMARK    8  A    between atoms: C10_20  and  C11_21 
REMARK    9  A    between atoms: C11_21  and  C12_23 
REMARK   10  A    between atoms: C13_24  and  O6_25 
REMARK   11  A    between atoms: C14_29  and  N5_30 
ROOT
HETATM    1  C3  UNL     1      -0.349  -1.602   1.555  1.00  0.00     0.131 C 
ENDROOT
BRANCH   1   2
HETATM    2  C2  UNL     1      -0.516  -3.122   1.530  1.00  0.00     0.268 C 
HETATM    3  O2  UNL     1      -0.606  -3.693   2.621  1.00  0.00    -0.264 OA
BRANCH   2   4
HETATM    4  O1  UNL     1      -0.565  -3.822   0.354  1.00  0.00    -0.326 OA
HETATM    5  C1  UNL     1      -0.719  -5.232   0.287  1.00  0.00     0.213 C 
ENDBRANCH   2   4
ENDBRANCH   1   2
BRANCH   1   6
HETATM    6  C4  UNL     1       0.999  -1.472   0.837  1.00  0.00     0.077 C 
BRANCH   6   7
HETATM    7  N1  UNL     1       1.518  -0.201   0.664  1.00  0.00    -0.353 N 
ATOM      8  H1  UNL     1       0.935   0.561   1.012  1.00  0.00     0.166 HD
BRANCH   7   9
HETATM    9  C5  UNL     1       2.616   0.152   0.134  1.00  0.00     0.139 A 
HETATM   10  C6  UNL     1       2.962   1.512   0.055  1.00  0.00     0.075 A 
HETATM   11  C7  UNL     1       4.153   1.903  -0.519  1.00  0.00     0.013 A 
HETATM   12  C8  UNL     1       4.544   3.333  -0.616  1.00  0.00     0.068 C 
HETATM   13  N2  UNL     1       5.000   0.980  -1.012  1.00  0.00    -0.311 N 
HETATM   14  C9  UNL     1       4.675  -0.331  -0.940  1.00  0.00     0.352 A 
ATOM     15  H2  UNL     1       5.881   1.268  -1.437  1.00  0.00     0.170 HD
HETATM   16  O3  UNL     1       5.463  -1.197  -1.399  1.00  0.00    -0.244 OA
HETATM   17  N3  UNL     1       3.507  -0.700  -0.376  1.00  0.00    -0.155 N 
BRANCH  17  18
HETATM   18  O4  UNL     1       3.256  -2.044  -0.345  1.00  0.00    -0.277 OA
ATOM     19  H4  UNL     1       3.890  -2.651  -0.708  1.00  0.00     0.245 HD
ENDBRANCH  17  18
ENDBRANCH   7   9
ENDBRANCH   6   7
ENDBRANCH   1   6
BRANCH   1  20
HETATM   20  C10 UNL     1      -1.499  -1.011   0.810  1.00  0.00     0.104 C 
BRANCH  20  21
HETATM   21  C11 UNL     1      -1.605   0.438   0.756  1.00  0.00     0.170 C 
HETATM   22  O5  UNL     1      -0.789   1.179   1.408  1.00  0.00    -0.292 OA
BRANCH  21  23
HETATM   23  C12 UNL     1      -2.607   1.162  -0.011  1.00  0.00     0.129 A 
HETATM   24  C13 UNL     1      -3.585   0.571  -0.769  1.00  0.00     0.174 A 
HETATM   25  N4  UNL     1      -4.485   1.321  -1.476  1.00  0.00    -0.170 N 
HETATM   26  C14 UNL     1      -4.434   2.662  -1.445  1.00  0.00     0.680 A 
ATOM     27  H4  UNL     1      -5.202   0.856  -2.033  1.00  0.00     0.186 HD
HETATM   28  N6  UNL     1      -3.503   3.276  -0.723  1.00  0.00    -0.155 N 
HETATM   29  C15 UNL     1      -2.607   2.547  -0.020  1.00  0.00     0.277 A 
ATOM     30  H6  UNL     1      -3.464   4.295  -0.699  1.00  0.00     0.187 HD
HETATM   31  O7  UNL     1      -1.754   3.167   0.641  1.00  0.00    -0.266 OA
BRANCH  24  32
HETATM   32  O6  UNL     1      -3.662  -0.804  -0.817  1.00  0.00    -0.345 OA
ATOM     33  H6  UNL     1      -4.340  -1.213  -1.342  1.00  0.00     0.219 HD
ENDBRANCH  24  32
BRANCH  26  34
HETATM   34  N5  UNL     1      -5.307   3.323  -2.130  1.00  0.00    -0.234 N 
ATOM     35  H52 UNL     1      -6.022   2.852  -2.684  1.00  0.00     0.174 HD
ATOM     36  H51 UNL     1      -5.268   4.342  -2.106  1.00  0.00     0.174 HD
ENDBRANCH  26  34
ENDBRANCH  21  23
ENDBRANCH  20  21
ENDBRANCH   1  20
TORSDOF 11
