REMARK  6 active torsions:
REMARK  status: ('A' for Active; 'I' for Inactive)
REMARK    1  A    between atoms: C2_2  and  C3_4 
REMARK    2  A    between atoms: C3_4  and  N1_5 
REMARK    3  A    between atoms: C3_4  and  C4_9 
REMARK       I    between atoms: C4_9  and  N2_11 
REMARK       I    between atoms: N2_11  and  C5_13 
REMARK       I    between atoms: C5_13  and  N3_14 
REMARK       I    between atoms: C5_13  and  N4_18 
REMARK       I    between atoms: N4_18  and  C6_20 
REMARK    4  A    between atoms: C6_20  and  C7_22 
REMARK    5  A    between atoms: N5_26  and  N6_27 
REMARK       I    between atoms: N6_27  and  C10_28 
REMARK    6  A    between atoms: C10_28  and  C11_30 
ROOT
HETATM    1  C4  UNL     1      -4.290   0.008  -0.253  1.00  0.00     0.258 C 
HETATM    2  O2  UNL     1      -4.644  -1.148  -0.561  1.00  0.00    -0.271 OA
HETATM    3  N2  UNL     1      -3.023   0.272   0.314  1.00  0.00    -0.315 N 
ATOM      4  H2  UNL     1      -2.763   1.235   0.529  1.00  0.00     0.166 HD
HETATM    5  C5  UNL     1      -2.109  -0.768   0.589  1.00  0.00     0.391 C 
HETATM    6  N3  UNL     1      -2.061  -0.847   2.094  1.00  0.00    -0.040 N 
ATOM      7  H31 UNL     1      -1.401  -1.598   2.293  1.00  0.00     0.279 HD
ATOM      8  H32 UNL     1      -2.974  -0.970   2.533  1.00  0.00     0.279 HD
ATOM      9  H33 UNL     1      -1.833   0.037   2.549  1.00  0.00     0.279 HD
HETATM   10  N4  UNL     1      -0.756  -0.543   0.154  1.00  0.00    -0.316 N 
ATOM     11  H4  UNL     1      -0.626   0.142  -0.591  1.00  0.00     0.166 HD
HETATM   12  C6  UNL     1       0.413  -1.167   0.646  1.00  0.00     0.246 C 
HETATM   13  O3  UNL     1       0.280  -2.015   1.576  1.00  0.00    -0.271 OA
ENDROOT
BRANCH   1  14
HETATM   14  C3  UNL     1      -5.290   1.121  -0.531  1.00  0.00     0.343 C 
BRANCH  14  15
HETATM   15  C2  UNL     1      -6.676   0.725  -0.299  1.00  0.00     0.162 C 
HETATM   16  C1  UNL     1      -7.424  -0.296  -1.147  1.00  0.00     0.093 C 
HETATM   17  O1  UNL     1      -7.307   1.219   0.615  1.00  0.00    -0.296 OA
ENDBRANCH  14  15
BRANCH  14  18
HETATM   18  N1  UNL     1      -4.937   2.260   0.287  1.00  0.00    -0.060 N 
ATOM     19  H13 UNL     1      -5.580   3.039   0.147  1.00  0.00     0.275 HD
ATOM     20  H12 UNL     1      -5.119   2.086   1.275  1.00  0.00     0.275 HD
ATOM     21  H11 UNL     1      -3.969   2.537   0.125  1.00  0.00     0.275 HD
ENDBRANCH  14  18
ENDBRANCH   1  14
BRANCH  12  22
HETATM   22  C7  UNL     1       1.715  -0.841   0.108  1.00  0.00     0.217 C 
HETATM   23  C8  UNL     1       2.075  -1.625  -1.166  1.00  0.00     0.113 C 
HETATM   24  S1  UNL     1       2.997  -3.022  -0.450  1.00  0.00    -0.144 SA
HETATM   25  C9  UNL     1       3.168  -2.313   1.245  1.00  0.00     0.231 C 
HETATM   26  N5  UNL     1       2.853  -0.965   0.941  1.00  0.00    -0.236 N 
BRANCH  26  27
HETATM   27  N6  UNL     1       3.767  -0.053   1.006  1.00  0.00    -0.280 NA
HETATM   28  C10 UNL     1       4.719   0.898   1.075  1.00  0.00     0.368 C 
HETATM   29  O4  UNL     1       4.987   1.705   2.035  1.00  0.00    -0.247 OA
BRANCH  28  30
HETATM   30  C11 UNL     1       5.702   1.145  -0.057  1.00  0.00     0.153 A 
HETATM   31  C12 UNL     1       6.948   1.729   0.058  1.00  0.00     0.042 A 
HETATM   32  C13 UNL     1       7.540   1.777  -1.174  1.00  0.00     0.003 A 
HETATM   33  C14 UNL     1       6.565   1.188  -2.030  1.00  0.00     0.203 A 
HETATM   34  O5  UNL     1       5.517   0.842  -1.306  1.00  0.00    -0.341 OA
ENDBRANCH  28  30
ENDBRANCH  26  27
ENDBRANCH  12  22
TORSDOF 6
