REMARK  8 active torsions:
REMARK  status: ('A' for Active; 'I' for Inactive)
REMARK    1  A    between atoms: C2_2  and  C3_3 
REMARK    2  A    between atoms: C3_3  and  N1_4 
REMARK    3  A    between atoms: C4_5  and  N2_6 
REMARK    4  A    between atoms: N2_6  and  C5_8 
REMARK    5  A    between atoms: C5_8  and  C6_9 
REMARK    6  A    between atoms: C6_9  and  C7_10 
REMARK    7  A    between atoms: C7_10  and  O1_11 
REMARK    8  A    between atoms: C8_13  and  N3_14 
ROOT
HETATM    1  N1  UNL     1      -0.697  -1.268   0.294  1.00  0.00    -0.281 N 
HETATM    2  C4  UNL     1       0.677  -1.115   0.254  1.00  0.00     0.150 A 
HETATM    3  C8  UNL     1       1.343  -2.167  -0.289  1.00  0.00     0.214 A 
HETATM    4  C9  UNL     1       0.712  -3.328  -0.780  1.00  0.00     0.286 A 
HETATM    5  O4  UNL     1       1.369  -4.274  -1.276  1.00  0.00    -0.265 OA
HETATM    6  N4  UNL     1      -0.602  -3.399  -0.705  1.00  0.00    -0.273 N 
ATOM      7  H4  UNL     1      -1.090  -4.226  -1.050  1.00  0.00     0.173 HD
HETATM    8  C10 UNL     1      -1.297  -2.380  -0.173  1.00  0.00     0.331 A 
HETATM    9  O5  UNL     1      -2.540  -2.562  -0.150  1.00  0.00    -0.246 OA
ENDROOT
BRANCH   1  10
HETATM   10  C3  UNL     1      -1.555  -0.256   0.805  1.00  0.00     0.164 C 
BRANCH  10  11
HETATM   11  C2  UNL     1      -2.097   0.763  -0.136  1.00  0.00     0.135 C 
HETATM   12  C1  UNL     1      -1.050   1.572  -0.881  1.00  0.00     0.037 C 
HETATM   13  C11 UNL     1      -3.066   0.315  -1.132  1.00  0.00     0.245 C 
HETATM   14  O6  UNL     1      -2.706   0.007  -2.321  1.00  0.00    -0.272 OA
HETATM   15  N5  UNL     1      -4.481   0.178  -0.891  1.00  0.00    -0.278 N 
HETATM   16  C12 UNL     1      -5.015   0.877   0.213  1.00  0.00     0.329 C 
ATOM     17  H5  UNL     1      -5.070  -0.399  -1.492  1.00  0.00     0.173 HD
HETATM   18  O7  UNL     1      -6.239   0.801   0.482  1.00  0.00    -0.247 OA
HETATM   19  N6  UNL     1      -4.153   1.669   1.017  1.00  0.00    -0.278 N 
HETATM   20  C13 UNL     1      -2.790   1.772   0.739  1.00  0.00     0.245 C 
ATOM     21  H6  UNL     1      -4.539   2.173   1.815  1.00  0.00     0.173 HD
HETATM   22  O8  UNL     1      -2.114   2.702   1.209  1.00  0.00    -0.272 OA
ENDBRANCH  10  11
ENDBRANCH   1  10
BRANCH   2  23
HETATM   23  N2  UNL     1       1.299   0.001   0.808  1.00  0.00    -0.353 N 
ATOM     24  H2  UNL     1       0.656   0.544   1.385  1.00  0.00     0.166 HD
BRANCH  23  25
HETATM   25  C5  UNL     1       2.576   0.572   0.780  1.00  0.00     0.065 C 
BRANCH  25  26
HETATM   26  C6  UNL     1       2.987   1.261  -0.505  1.00  0.00     0.070 C 
BRANCH  26  27
HETATM   27  C7  UNL     1       4.403   1.759  -0.268  1.00  0.00     0.169 C 
BRANCH  27  28
HETATM   28  O1  UNL     1       5.244   0.660   0.022  1.00  0.00    -0.401 OA
ATOM     29  H1  UNL     1       6.129   0.971   0.170  1.00  0.00     0.209 HD
ENDBRANCH  27  28
ENDBRANCH  26  27
ENDBRANCH  25  26
ENDBRANCH  23  25
ENDBRANCH   2  23
BRANCH   3  30
HETATM   30  N3  UNL     1       2.745  -2.258  -0.372  1.00  0.00    -0.106 N 
HETATM   31  O2  UNL     1       3.407  -2.547   0.629  1.00  0.00    -0.531 OA
HETATM   32  O3  UNL     1       3.372  -2.098  -1.568  1.00  0.00    -0.531 OA
ENDBRANCH   3  30
TORSDOF 8
