REMARK  4 active torsions:
REMARK  status: ('A' for Active; 'I' for Inactive)
REMARK    1  A    between atoms: C5_6  and  N2_7 
REMARK    2  A    between atoms: C7_12  and  C8_13 
REMARK    3  A    between atoms: C11_16  and  N4_17 
REMARK    4  A    between atoms: C15_25  and  C16_26 
ROOT
HETATM    1  C1  UNL     1      -2.621   1.854   6.914  1.00  0.00     0.231 C 
HETATM    2  N1  UNL     1      -2.055   1.582   5.964  1.00  0.00    -0.411 NA
HETATM    3  C2  UNL     1      -1.374   1.272   4.817  1.00  0.00     0.179 A 
HETATM    4  C3  UNL     1      -1.963   1.191   3.562  1.00  0.00     0.081 A 
HETATM    5  C4  UNL     1      -0.973   0.864   2.692  1.00  0.00     0.041 A 
HETATM    6  C5  UNL     1      -1.002   0.652   1.292  1.00  0.00     0.075 A 
HETATM    7  C12 UNL     1       0.211   0.331   0.729  1.00  0.00     0.019 A 
HETATM    8  C13 UNL     1       0.343   0.095  -0.622  1.00  0.00     0.017 A 
HETATM    9  C14 UNL     1       1.561  -0.229  -1.194  1.00  0.00     0.013 A 
HETATM   10  C15 UNL     1       2.691  -0.329  -0.433  1.00  0.00    -0.024 A 
HETATM   11  C22 UNL     1       2.572  -0.095   0.921  1.00  0.00     0.042 A 
HETATM   12  C23 UNL     1       1.370   0.228   1.511  1.00  0.00     0.047 A 
HETATM   13  N6  UNL     1       1.337   0.439   2.824  1.00  0.00    -0.341 N 
ATOM     14  H6  UNL     1       2.191   0.360   3.376  1.00  0.00     0.167 HD
HETATM   15  C24 UNL     1       0.190   0.752   3.414  1.00  0.00     0.120 A 
HETATM   16  N7  UNL     1      -0.059   1.003   4.717  1.00  0.00    -0.317 N 
ATOM     17  H7  UNL     1       0.619   0.991   5.479  1.00  0.00     0.170 HD
ENDROOT
BRANCH   6  18
HETATM   18  N2  UNL     1      -2.055   0.766   0.720  1.00  0.00    -0.190 N 
HETATM   19  C6  UNL     1      -2.809   0.739  -0.387  1.00  0.00     0.684 A 
HETATM   20  N3  UNL     1      -3.411  -0.442  -0.733  1.00  0.00    -0.192 N 
HETATM   21  N5  UNL     1      -3.052   1.776  -1.225  1.00  0.00    -0.177 N 
HETATM   22  C7  UNL     1      -4.181  -0.623  -1.788  1.00  0.00     0.052 A 
ATOM     23  H3  UNL     1      -3.251  -1.246  -0.126  1.00  0.00     0.184 HD
HETATM   24  C10 UNL     1      -4.411   0.454  -2.624  1.00  0.00     0.078 A 
HETATM   25  C11 UNL     1      -3.832   1.652  -2.320  1.00  0.00     0.116 A 
ATOM     26  H5  UNL     1      -2.631   2.682  -1.021  1.00  0.00     0.185 HD
ATOM     27  H2  UNL     1      -2.713   1.008   1.461  1.00  0.00     0.184 HD
BRANCH  22  28
HETATM   28  C8  UNL     1      -4.777  -1.914  -2.074  1.00  0.00     0.020 C 
HETATM   29  C9  UNL     1      -4.560  -2.937  -1.286  1.00  0.00     0.013 C 
ENDBRANCH  22  28
BRANCH  25  30
HETATM   30  N4  UNL     1      -4.045   2.664  -3.101  1.00  0.00    -0.385 N 
ATOM     31  H42 UNL     1      -4.634   2.570  -3.928  1.00  0.00     0.157 HD
ATOM     32  H41 UNL     1      -3.612   3.559  -2.874  1.00  0.00     0.157 HD
ENDBRANCH  25  30
ENDBRANCH   6  18
BRANCH  10  33
HETATM   33  C16 UNL     1       3.960  -0.672  -1.066  1.00  0.00    -0.026 A 
HETATM   34  C17 UNL     1       5.125  -0.175  -0.535  1.00  0.00     0.012 A 
HETATM   35  C18 UNL     1       6.350  -0.496  -1.132  1.00  0.00     0.001 A 
HETATM   36  C19 UNL     1       6.409  -1.305  -2.248  1.00  0.00     0.000 A 
HETATM   37  C20 UNL     1       5.239  -1.804  -2.780  1.00  0.00     0.001 A 
HETATM   38  C21 UNL     1       4.019  -1.480  -2.180  1.00  0.00     0.012 A 
ENDBRANCH  10  33
TORSDOF 4
