REMARK  4 active torsions:
REMARK  status: ('A' for Active; 'I' for Inactive)
REMARK    1  A    between atoms: C6_11  and  S1_12 
REMARK    2  A    between atoms: S1_12  and  N3_15 
REMARK    3  A    between atoms: N3_15  and  C7_17 
REMARK    4  A    between atoms: C12_22  and  C13_23 
ROOT
HETATM    1  C7  UNL     1       0.419   1.436   1.431  1.00  0.00     0.056 A 
HETATM    2  C8  UNL     1      -0.304   2.557   1.823  1.00  0.00     0.031 A 
HETATM    3  C9  UNL     1       0.068   3.857   1.486  1.00  0.00     0.002 A 
HETATM    4  C10 UNL     1       1.197   4.057   0.734  1.00  0.00     0.001 A 
HETATM    5  C11 UNL     1       1.932   2.966   0.332  1.00  0.00     0.017 A 
HETATM    6  C12 UNL     1       1.551   1.664   0.673  1.00  0.00     0.035 A 
ENDROOT
BRANCH   1   7
HETATM    7  N3  UNL     1       0.013   0.164   1.844  1.00  0.00    -0.280 N 
ATOM      8  H3  UNL     1       0.750  -0.495   2.094  1.00  0.00     0.179 HD
BRANCH   7   9
HETATM    9  S1  UNL     1      -1.619  -0.404   1.974  1.00  0.00     0.264 S 
HETATM   10  O2  UNL     1      -1.567  -1.873   2.413  1.00  0.00    -0.200 OA
HETATM   11  O3  UNL     1      -2.271   0.411   3.051  1.00  0.00    -0.200 OA
BRANCH   9  12
HETATM   12  C6  UNL     1      -2.467  -0.391   0.463  1.00  0.00     0.098 A 
HETATM   13  C5  UNL     1      -1.875   0.028  -0.722  1.00  0.00     0.026 A 
HETATM   14  C4  UNL     1      -2.628   0.002  -1.867  1.00  0.00     0.004 A 
HETATM   15  C3  UNL     1      -3.932  -0.417  -1.897  1.00  0.00     0.032 A 
HETATM   16  C2  UNL     1      -4.528  -0.835  -0.727  1.00  0.00     0.065 A 
HETATM   17  N2  UNL     1      -5.767  -1.297  -0.430  1.00  0.00    -0.297 N 
HETATM   18  C20 UNL     1      -3.796  -0.822   0.451  1.00  0.00     0.085 A 
HETATM   19  N1  UNL     1      -5.812  -1.558   0.851  1.00  0.00    -0.265 N 
ATOM     20  H2  UNL     1      -6.533  -1.420  -1.092  1.00  0.00     0.187 HD
HETATM   21  C1  UNL     1      -4.628  -1.284   1.439  1.00  0.00     0.274 A 
ATOM     22  H1  UNL     1      -6.631  -1.920   1.340  1.00  0.00     0.190 HD
HETATM   23  O1  UNL     1      -4.354  -1.430   2.667  1.00  0.00    -0.266 OA
ENDBRANCH   9  12
ENDBRANCH   7   9
ENDBRANCH   1   7
BRANCH   6  24
HETATM   24  C13 UNL     1       2.363   0.564   0.160  1.00  0.00     0.118 A 
HETATM   25  N4  UNL     1       2.180  -0.746   0.213  1.00  0.00    -0.340 N 
HETATM   26  C14 UNL     1       3.174  -1.387  -0.416  1.00  0.00     0.060 A 
ATOM     27  H4  UNL     1       1.391  -1.204   0.670  1.00  0.00     0.167 HD
HETATM   28  C15 UNL     1       3.474  -2.719  -0.656  1.00  0.00     0.032 A 
HETATM   29  C19 UNL     1       4.038  -0.434  -0.896  1.00  0.00     0.060 A 
HETATM   30  C16 UNL     1       4.602  -3.109  -1.355  1.00  0.00     0.002 A 
HETATM   31  C17 UNL     1       5.468  -2.148  -1.835  1.00  0.00     0.002 A 
HETATM   32  C18 UNL     1       5.179  -0.819  -1.602  1.00  0.00     0.032 A 
HETATM   33  N5  UNL     1       3.518   0.743  -0.530  1.00  0.00    -0.340 N 
ATOM     34  H5  UNL     1       3.933   1.651  -0.741  1.00  0.00     0.167 HD
ENDBRANCH   6  24
TORSDOF 4
