REMARK  5 active torsions:
REMARK  status: ('A' for Active; 'I' for Inactive)
REMARK    1  A    between atoms: C5_5  and  N1_6 
REMARK    2  A    between atoms: N1_6  and  S1_8 
REMARK    3  A    between atoms: S1_8  and  C6_11 
REMARK    4  A    between atoms: C10_15  and  C11_16 
REMARK    5  A    between atoms: C16_24  and  N3_25 
ROOT
HETATM    1  C6  UNL     1      -0.948   0.711   1.699  1.00  0.00     0.080 A 
HETATM    2  C7  UNL     1      -1.655  -0.342   2.239  1.00  0.00     0.025 A 
HETATM    3  C8  UNL     1      -1.009  -1.556   2.340  1.00  0.00     0.002 A 
HETATM    4  C9  UNL     1       0.297  -1.695   1.912  1.00  0.00     0.012 A 
HETATM    5  C10 UNL     1       1.013  -0.651   1.371  1.00  0.00    -0.024 A 
HETATM    6  C19 UNL     1       0.372   0.564   1.268  1.00  0.00     0.037 A 
ENDROOT
BRANCH   5   7
HETATM    7  C11 UNL     1       2.411  -0.829   0.923  1.00  0.00    -0.024 A 
HETATM    8  C12 UNL     1       3.250  -1.722   1.553  1.00  0.00     0.014 A 
HETATM    9  C13 UNL     1       4.550  -1.889   1.141  1.00  0.00     0.033 A 
HETATM   10  C14 UNL     1       5.061  -1.172   0.083  1.00  0.00     0.062 A 
HETATM   11  N2  UNL     1       6.342  -1.326  -0.335  1.00  0.00    -0.318 N 
HETATM   12  C17 UNL     1       4.238  -0.269  -0.566  1.00  0.00     0.061 A 
HETATM   13  C15 UNL     1       6.837  -0.625  -1.365  1.00  0.00     0.289 A 
ATOM     14  H2  UNL     1       6.945  -1.993   0.147  1.00  0.00     0.169 HD
HETATM   15  O3  UNL     1       8.026  -0.779  -1.740  1.00  0.00    -0.264 OA
HETATM   16  C16 UNL     1       5.996   0.264  -1.990  1.00  0.00     0.169 A 
HETATM   17  N4  UNL     1       4.720   0.437  -1.597  1.00  0.00    -0.336 N 
ATOM     18  H4  UNL     1       4.122   1.104  -2.084  1.00  0.00     0.168 HD
HETATM   19  C18 UNL     1       2.918  -0.111  -0.134  1.00  0.00     0.044 A 
BRANCH  16  20
HETATM   20  N3  UNL     1       6.390   0.981  -2.993  1.00  0.00    -0.381 N 
ATOM     21  H32 UNL     1       7.357   0.850  -3.291  1.00  0.00     0.157 HD
ATOM     22  H31 UNL     1       5.766   1.641  -3.457  1.00  0.00     0.157 HD
ENDBRANCH  16  20
ENDBRANCH   5   7
BRANCH   1  23
HETATM   23  S1  UNL     1      -1.744   2.247   1.565  1.00  0.00     0.263 S 
HETATM   24  O1  UNL     1      -0.718   3.343   1.711  1.00  0.00    -0.200 OA
HETATM   25  O2  UNL     1      -2.751   2.460   2.662  1.00  0.00    -0.200 OA
BRANCH  23  26
HETATM   26  N1  UNL     1      -2.577   2.455   0.071  1.00  0.00    -0.281 N 
ATOM     27  H1  UNL     1      -2.276   3.216  -0.538  1.00  0.00     0.179 HD
BRANCH  26  28
HETATM   28  C5  UNL     1      -3.639   1.651  -0.366  1.00  0.00     0.042 A 
HETATM   29  C4  UNL     1      -4.698   1.256   0.408  1.00  0.00     0.030 A 
HETATM   30  C3  UNL     1      -5.710   0.468  -0.075  1.00  0.00     0.009 A 
HETATM   31  C2  UNL     1      -5.700   0.034  -1.386  1.00  0.00    -0.062 A 
HETATM   32  C1  UNL     1      -6.805  -0.818  -1.890  1.00  0.00     0.048 C 
HETATM   33  C21 UNL     1      -4.637   0.423  -2.187  1.00  0.00     0.009 A 
HETATM   34  C20 UNL     1      -3.628   1.216  -1.683  1.00  0.00     0.030 A 
ENDBRANCH  26  28
ENDBRANCH  23  26
ENDBRANCH   1  23
TORSDOF 5
