REMARK  7 active torsions:
REMARK  status: ('A' for Active; 'I' for Inactive)
REMARK    1  A    between atoms: C6_8  and  N2_9 
REMARK    2  A    between atoms: N2_9  and  C7_11 
REMARK    3  A    between atoms: C8_14  and  N4_15 
REMARK    4  A    between atoms: N4_15  and  C9_16 
REMARK    5  A    between atoms: C9_16  and  C10_17 
REMARK    6  A    between atoms: C14_24  and  N6_25 
REMARK    7  A    between atoms: N6_25  and  C15_27 
ROOT
HETATM    1  C7  UNL     1       0.311   0.710   0.757  1.00  0.00     0.700 A 
HETATM    2  N3  UNL     1      -0.799   1.419   1.012  1.00  0.00    -0.148 N 
ATOM      3  H3  UNL     1      -0.705   2.312   1.496  1.00  0.00     0.188 HD
HETATM    4  C8  UNL     1      -2.053   1.001   0.653  1.00  0.00     0.287 A 
HETATM    5  N5  UNL     1      -2.103  -0.208   0.006  1.00  0.00    -0.148 N 
ATOM      6  H5  UNL     1      -3.015  -0.562  -0.282  1.00  0.00     0.188 HD
HETATM    7  C14 UNL     1      -1.027  -0.945  -0.267  1.00  0.00     0.700 A 
HETATM    8  N7  UNL     1       0.166  -0.453   0.125  1.00  0.00    -0.022 N 
ATOM      9  H7  UNL     1       1.003  -1.002  -0.073  1.00  0.00     0.203 HD
ENDROOT
BRANCH   1  10
HETATM   10  N2  UNL     1       1.439   1.204   1.143  1.00  0.00    -0.191 N 
ATOM     11  H2  UNL     1       1.429   2.105   1.621  1.00  0.00     0.184 HD
BRANCH  10  12
HETATM   12  C6  UNL     1       2.682   0.576   0.945  1.00  0.00     0.050 A 
HETATM   13  C5  UNL     1       3.092  -0.575   1.584  1.00  0.00     0.043 A 
HETATM   14  C4  UNL     1       4.342  -1.152   1.345  1.00  0.00    -0.006 A 
HETATM   15  C3  UNL     1       4.974  -2.275   1.843  1.00  0.00     0.100 A 
HETATM   16  C23 UNL     1       5.211  -0.576   0.450  1.00  0.00    -0.002 A 
HETATM   17  N1  UNL     1       6.181  -2.355   1.257  1.00  0.00    -0.368 N 
HETATM   18  C2  UNL     1       6.373  -1.342   0.399  1.00  0.00     0.016 A 
ATOM     19  H1  UNL     1       6.863  -3.091   1.441  1.00  0.00     0.165 HD
HETATM   20  C1  UNL     1       7.552  -1.048  -0.451  1.00  0.00     0.069 C 
HETATM   21  C22 UNL     1       4.814   0.576  -0.196  1.00  0.00     0.016 A 
HETATM   22  C21 UNL     1       3.569   1.139   0.051  1.00  0.00     0.031 A 
ENDBRANCH  10  12
ENDBRANCH   1  10
BRANCH   4  23
HETATM   23  N4  UNL     1      -3.002   1.678   0.909  1.00  0.00    -0.380 NA
BRANCH  23  24
HETATM   24  C9  UNL     1      -4.069   2.428   1.189  1.00  0.00     0.223 C 
BRANCH  24  25
HETATM   25  C10 UNL     1      -4.073   3.807   0.580  1.00  0.00     0.103 A 
HETATM   26  C11 UNL     1      -3.510   4.928   1.120  1.00  0.00     0.041 A 
HETATM   27  C12 UNL     1      -3.755   5.963   0.220  1.00  0.00     0.027 A 
HETATM   28  C13 UNL     1      -4.459   5.394  -0.820  1.00  0.00     0.142 A 
HETATM   29  O1  UNL     1      -4.623   4.109  -0.558  1.00  0.00    -0.320 OA
ENDBRANCH  24  25
ENDBRANCH  23  24
ENDBRANCH   4  23
BRANCH   7  30
HETATM   30  N6  UNL     1      -1.062  -2.071  -0.868  1.00  0.00    -0.191 N 
ATOM     31  H6  UNL     1      -0.171  -2.544  -1.020  1.00  0.00     0.184 HD
BRANCH  30  32
HETATM   32  C15 UNL     1      -2.211  -2.714  -1.336  1.00  0.00     0.049 A 
HETATM   33  C16 UNL     1      -2.938  -3.532  -0.499  1.00  0.00     0.030 A 
HETATM   34  C17 UNL     1      -4.085  -4.188  -0.928  1.00  0.00     0.002 A 
HETATM   35  C18 UNL     1      -4.511  -4.023  -2.215  1.00  0.00     0.000 A 
HETATM   36  C19 UNL     1      -3.806  -3.208  -3.086  1.00  0.00     0.002 A 
HETATM   37  C20 UNL     1      -2.656  -2.560  -2.630  1.00  0.00     0.030 A 
ENDBRANCH  30  32
ENDBRANCH   7  30
TORSDOF 7
