REMARK  5 active torsions:
REMARK  status: ('A' for Active; 'I' for Inactive)
REMARK    1  A    between atoms: N1_1  and  C1_4 
REMARK    2  A    between atoms: C3_8  and  C4_9 
REMARK    3  A    between atoms: C7_12  and  C8_13 
REMARK    4  A    between atoms: N5_27  and  C17_28 
REMARK    5  A    between atoms: C17_28  and  C18_29 
ROOT
HETATM    1  C1  UNL     1      -4.575   2.335  -1.350  1.00  0.00     0.168 A 
HETATM    2  N2  UNL     1      -3.662   3.247  -0.965  1.00  0.00    -0.346 N 
ATOM      3  H2  UNL     1      -3.901   4.238  -0.922  1.00  0.00     0.167 HD
HETATM    4  C2  UNL     1      -2.442   2.827  -0.642  1.00  0.00     0.120 A 
HETATM    5  C3  UNL     1      -2.064   1.492  -0.683  1.00  0.00     0.063 A 
HETATM    6  N5  UNL     1      -2.972   0.582  -1.064  1.00  0.00    -0.305 N 
HETATM    7  C24 UNL     1      -4.222   1.015  -1.396  1.00  0.00     0.292 A 
HETATM    8  O2  UNL     1      -5.127   0.187  -1.771  1.00  0.00    -0.264 OA
ENDROOT
BRANCH   5   9
HETATM    9  C4  UNL     1      -0.678   1.128  -0.431  1.00  0.00    -0.008 A 
HETATM   10  C5  UNL     1      -0.137   1.162   0.798  1.00  0.00     0.014 A 
HETATM   11  C6  UNL     1       1.196   0.814   0.961  1.00  0.00     0.014 A 
HETATM   12  C7  UNL     1       1.996   0.430  -0.096  1.00  0.00    -0.009 A 
HETATM   13  C15 UNL     1       1.433   0.399  -1.344  1.00  0.00     0.014 A 
HETATM   14  C16 UNL     1       0.109   0.742  -1.524  1.00  0.00     0.014 A 
BRANCH  12  15
HETATM   15  C8  UNL     1       3.403   0.065   0.091  1.00  0.00     0.044 A 
HETATM   16  C9  UNL     1       4.263  -0.327  -0.913  1.00  0.00     0.045 A 
HETATM   17  C10 UNL     1       5.510  -0.598  -0.395  1.00  0.00     0.010 A 
HETATM   18  C11 UNL     1       6.712  -1.018  -0.949  1.00  0.00     0.021 A 
HETATM   19  C14 UNL     1       5.395  -0.361   0.962  1.00  0.00     0.118 A 
HETATM   20  C12 UNL     1       7.777  -1.188  -0.106  1.00  0.00     0.075 A 
HETATM   21  C13 UNL     1       7.668  -0.953   1.250  1.00  0.00     0.246 A 
HETATM   22  O1  UNL     1       8.675  -1.118   2.021  1.00  0.00    -0.268 OA
HETATM   23  N3  UNL     1       6.484  -0.549   1.729  1.00  0.00    -0.309 N 
ATOM     24  H3  UNL     1       6.404  -0.374   2.731  1.00  0.00     0.170 HD
HETATM   25  N4  UNL     1       4.119   0.035   1.221  1.00  0.00    -0.341 N 
ATOM     26  H4  UNL     1       3.760   0.275   2.145  1.00  0.00     0.167 HD
ENDBRANCH  12  15
ENDBRANCH   5   9
BRANCH   6  27
HETATM   27  C17 UNL     1      -2.768  -0.834  -1.099  1.00  0.00     0.171 C 
BRANCH  27  28
HETATM   28  C18 UNL     1      -3.408  -1.511   0.056  1.00  0.00    -0.040 A 
HETATM   29  C19 UNL     1      -4.487  -2.387  -0.186  1.00  0.00     0.009 A 
HETATM   30  C20 UNL     1      -5.138  -3.032   0.820  1.00  0.00     0.001 A 
HETATM   31  C21 UNL     1      -4.746  -2.836   2.133  1.00  0.00     0.000 A 
HETATM   32  C22 UNL     1      -3.702  -1.994   2.415  1.00  0.00     0.001 A 
HETATM   33  C23 UNL     1      -3.050  -1.344   1.365  1.00  0.00     0.009 A 
ENDBRANCH  27  28
ENDBRANCH   6  27
BRANCH   1  34
HETATM   34  N1  UNL     1      -5.780   2.671  -1.679  1.00  0.00    -0.381 N 
ATOM     35  H12 UNL     1      -6.043   3.656  -1.645  1.00  0.00     0.157 HD
ATOM     36  H11 UNL     1      -6.472   1.980  -1.971  1.00  0.00     0.157 HD
ENDBRANCH   1  34
TORSDOF 5
