REMARK  10 active torsions:
REMARK  status: ('A' for Active; 'I' for Inactive)
REMARK    1  A    between atoms: N1_1  and  C1_4 
REMARK    2  A    between atoms: C3_6  and  C4_7 
REMARK    3  A    between atoms: C8_11  and  C9_12 
REMARK    4  A    between atoms: C11_14  and  C12_15 
REMARK    5  A    between atoms: C16_19  and  O1_20 
REMARK    6  A    between atoms: O1_20  and  C17_21 
REMARK    7  A    between atoms: C21_25  and  N2_26 
REMARK    8  A    between atoms: N2_26  and  S1_28 
REMARK    9  A    between atoms: S1_28  and  N3_29 
REMARK   10  A    between atoms: C25_42  and  N6_43 
ROOT
HETATM    1  C9  UNL     1      -1.917  -1.089   0.043  1.00  0.00     0.111 A 
HETATM    2  C10 UNL     1      -1.005  -2.069   0.371  1.00  0.00     0.072 A 
HETATM    3  C11 UNL     1       0.194  -1.776  -0.245  1.00  0.00     0.068 A 
HETATM    4  N4  UNL     1      -0.042  -0.634  -0.918  1.00  0.00    -0.260 N 
ATOM      5  H4  UNL     1       0.645  -0.140  -1.487  1.00  0.00     0.195 HD
HETATM    6  O4  UNL     1      -1.264  -0.254  -0.740  1.00  0.00    -0.237 OA
ENDROOT
BRANCH   3   7
HETATM    7  C12 UNL     1       1.448  -2.531  -0.185  1.00  0.00    -0.005 A 
HETATM    8  C13 UNL     1       1.555  -3.692   0.545  1.00  0.00     0.014 A 
HETATM    9  C14 UNL     1       2.725  -4.417   0.614  1.00  0.00     0.004 A 
HETATM   10  C15 UNL     1       3.849  -3.956  -0.085  1.00  0.00     0.037 A 
HETATM   11  C16 UNL     1       3.761  -2.800  -0.819  1.00  0.00     0.076 A 
HETATM   12  C23 UNL     1       2.580  -2.100  -0.867  1.00  0.00     0.051 A 
BRANCH  11  13
HETATM   13  O1  UNL     1       4.857  -2.346  -1.503  1.00  0.00    -0.311 OA
BRANCH  13  14
HETATM   14  C17 UNL     1       5.815  -1.492  -1.018  1.00  0.00     0.078 A 
HETATM   15  C18 UNL     1       6.918  -2.026  -0.386  1.00  0.00     0.037 A 
HETATM   16  C19 UNL     1       7.898  -1.190   0.112  1.00  0.00     0.005 A 
HETATM   17  C20 UNL     1       7.751   0.165  -0.035  1.00  0.00     0.030 A 
HETATM   18  C21 UNL     1       6.649   0.754  -0.670  1.00  0.00     0.046 A 
HETATM   19  C22 UNL     1       5.700  -0.137  -1.148  1.00  0.00     0.067 A 
BRANCH  18  20
HETATM   20  N2  UNL     1       6.528   2.151  -0.804  1.00  0.00    -0.268 N 
ATOM     21  H2  UNL     1       7.353   2.665  -1.112  1.00  0.00     0.180 HD
BRANCH  20  22
HETATM   22  S1  UNL     1       5.103   3.060  -0.491  1.00  0.00     0.317 S 
HETATM   23  O2  UNL     1       3.845   2.355  -0.880  1.00  0.00    -0.183 OA
HETATM   24  O3  UNL     1       5.155   4.329  -1.326  1.00  0.00    -0.183 OA
BRANCH  22  25
HETATM   25  N3  UNL     1       5.043   3.577   1.169  1.00  0.00    -0.311 N 
ATOM     26  H32 UNL     1       5.767   3.361   1.855  1.00  0.00     0.170 HD
ATOM     27  H31 UNL     1       4.197   4.116   1.355  1.00  0.00     0.170 HD
ENDBRANCH  22  25
ENDBRANCH  20  22
ENDBRANCH  18  20
ENDBRANCH  13  14
ENDBRANCH  11  13
ENDBRANCH   3   7
BRANCH   1  28
HETATM   28  C8  UNL     1      -3.306  -0.956   0.443  1.00  0.00     0.001 A 
HETATM   29  C7  UNL     1      -3.922  -1.869   1.265  1.00  0.00     0.014 A 
HETATM   30  C6  UNL     1      -5.253  -1.722   1.635  1.00  0.00     0.002 A 
HETATM   31  C5  UNL     1      -5.981  -0.631   1.168  1.00  0.00     0.014 A 
HETATM   32  C4  UNL     1      -5.398   0.298   0.347  1.00  0.00    -0.008 A 
HETATM   33  C24 UNL     1      -4.078   0.117   0.003  1.00  0.00     0.028 A 
BRANCH  32  34
HETATM   34  C3  UNL     1      -6.150   1.446  -0.149  1.00  0.00     0.063 A 
HETATM   35  C2  UNL     1      -5.596   2.397  -0.976  1.00  0.00     0.079 A 
HETATM   36  C1  UNL     1      -6.352   3.487  -1.432  1.00  0.00     0.116 A 
HETATM   37  N7  UNL     1      -7.630   3.586  -1.046  1.00  0.00    -0.177 N 
HETATM   38  C25 UNL     1      -8.194   2.671  -0.240  1.00  0.00     0.677 A 
ATOM     39  H7  UNL     1      -8.189   4.375  -1.372  1.00  0.00     0.185 HD
HETATM   40  N5  UNL     1      -7.449   1.624   0.192  1.00  0.00    -0.191 N 
ATOM     41  H5  UNL     1      -7.888   0.936   0.804  1.00  0.00     0.184 HD
BRANCH  36  42
HETATM   42  N1  UNL     1      -5.812   4.341  -2.190  1.00  0.00    -0.385 N 
ATOM     43  H12 UNL     1      -4.838   4.266  -2.484  1.00  0.00     0.157 HD
ATOM     44  H11 UNL     1      -6.362   5.134  -2.522  1.00  0.00     0.157 HD
ENDBRANCH  36  42
BRANCH  38  45
HETATM   45  N6  UNL     1      -9.430   2.823   0.095  1.00  0.00    -0.234 N 
ATOM     46  H62 UNL     1      -9.858   2.128   0.707  1.00  0.00     0.174 HD
ATOM     47  H61 UNL     1      -9.991   3.611  -0.230  1.00  0.00     0.174 HD
ENDBRANCH  38  45
ENDBRANCH  32  34
ENDBRANCH   1  28
TORSDOF 10
