REMARK  9 active torsions:
REMARK  status: ('A' for Active; 'I' for Inactive)
REMARK    1  A    between atoms: N1_1  and  C1_4 
REMARK    2  A    between atoms: C4_7  and  C5_8 
REMARK    3  A    between atoms: C6_9  and  C7_10 
REMARK    4  A    between atoms: C7_10  and  N2_11 
REMARK    5  A    between atoms: N2_11  and  C8_13 
REMARK    6  A    between atoms: C11_16  and  C12_17 
REMARK    7  A    between atoms: C16_21  and  C17_22 
REMARK    8  A    between atoms: C27_38  and  C28_39 
REMARK    9  A    between atoms: C28_39  and  O1_40 
ROOT
HETATM    1  C7  UNL     1      -3.239   0.615  -0.110  1.00  0.00     0.177 C 
ENDROOT
BRANCH   1   2
HETATM    2  C6  UNL     1      -4.700   0.630  -0.354  1.00  0.00     0.044 A 
HETATM    3  C5  UNL     1      -5.476  -0.362   0.165  1.00  0.00     0.060 A 
HETATM    4  C29 UNL     1      -6.834  -0.318  -0.084  1.00  0.00     0.114 A 
HETATM    5  N6  UNL     1      -7.344   0.699  -0.828  1.00  0.00    -0.330 N 
HETATM    6  N7  UNL     1      -7.587  -1.244   0.397  1.00  0.00    -0.385 N 
HETATM    7  C27 UNL     1      -6.565   1.668  -1.331  1.00  0.00     0.107 A 
ATOM      8  H6  UNL     1      -8.347   0.726  -1.009  1.00  0.00     0.168 HD
HETATM    9  N5  UNL     1      -5.245   1.616  -1.083  1.00  0.00    -0.345 N 
ATOM     10  H5  UNL     1      -4.641   2.346  -1.459  1.00  0.00     0.167 HD
ATOM     11  H72 UNL     1      -7.204  -2.007   0.955  1.00  0.00     0.157 HD
ATOM     12  H71 UNL     1      -8.590  -1.212   0.213  1.00  0.00     0.157 HD
BRANCH   3  13
HETATM   13  C4  UNL     1      -4.832  -1.406   0.951  1.00  0.00     0.064 A 
HETATM   14  C3  UNL     1      -4.334  -2.576   0.413  1.00  0.00     0.036 A 
HETATM   15  C2  UNL     1      -3.727  -3.540   1.217  1.00  0.00     0.051 A 
HETATM   16  C1  UNL     1      -3.623  -3.317   2.575  1.00  0.00     0.113 A 
HETATM   17  N9  UNL     1      -4.123  -2.162   3.051  1.00  0.00    -0.285 N 
HETATM   18  N8  UNL     1      -4.701  -1.248   2.281  1.00  0.00    -0.298 N 
ATOM     19  H9  UNL     1      -4.055  -1.980   4.052  1.00  0.00     0.188 HD
ATOM     20  H8  UNL     1      -5.058  -0.396   2.713  1.00  0.00     0.187 HD
BRANCH  16  21
HETATM   21  N1  UNL     1      -3.063  -4.192   3.358  1.00  0.00    -0.384 N 
ATOM     22  H12 UNL     1      -2.684  -5.068   2.997  1.00  0.00     0.157 HD
ATOM     23  H11 UNL     1      -2.986  -4.027   4.362  1.00  0.00     0.157 HD
ENDBRANCH  16  21
ENDBRANCH   3  13
BRANCH   7  24
HETATM   24  C28 UNL     1      -7.170   2.770  -2.145  1.00  0.00     0.240 C 
BRANCH  24  25
HETATM   25  O1  UNL     1      -8.522   2.562  -2.250  1.00  0.00    -0.393 OA
ATOM     26  H1  UNL     1      -8.906   3.261  -2.766  1.00  0.00     0.209 HD
ENDBRANCH  24  25
ENDBRANCH   7  24
ENDBRANCH   1   2
BRANCH   1  27
HETATM   27  N2  UNL     1      -2.566   1.720  -0.717  1.00  0.00    -0.384 N 
ATOM     28  H2  UNL     1      -3.096   2.414  -1.245  1.00  0.00     0.160 HD
BRANCH  27  29
HETATM   29  C8  UNL     1      -1.162   1.849  -0.584  1.00  0.00     0.028 A 
HETATM   30  C9  UNL     1      -0.449   2.899  -1.140  1.00  0.00     0.030 A 
HETATM   31  C10 UNL     1       0.923   2.999  -0.994  1.00  0.00     0.014 A 
HETATM   32  C11 UNL     1       1.618   2.046  -0.285  1.00  0.00    -0.026 A 
HETATM   33  C25 UNL     1       0.935   1.001   0.272  1.00  0.00     0.014 A 
HETATM   34  C26 UNL     1      -0.433   0.920   0.115  1.00  0.00     0.030 A 
BRANCH  32  35
HETATM   35  C12 UNL     1       3.058   2.201  -0.163  1.00  0.00    -0.025 A 
HETATM   36  C13 UNL     1       3.641   3.450  -0.120  1.00  0.00     0.012 A 
HETATM   37  C14 UNL     1       5.012   3.565  -0.004  1.00  0.00     0.002 A 
HETATM   38  C15 UNL     1       5.785   2.422   0.068  1.00  0.00     0.015 A 
HETATM   39  C16 UNL     1       5.232   1.161   0.027  1.00  0.00     0.009 A 
HETATM   40  C24 UNL     1       3.867   1.079  -0.088  1.00  0.00     0.027 A 
BRANCH  39  41
HETATM   41  C17 UNL     1       6.040  -0.053   0.102  1.00  0.00     0.116 A 
HETATM   42  N3  UNL     1       5.570  -1.311   0.068  1.00  0.00    -0.340 N 
HETATM   43  C18 UNL     1       6.582  -2.192   0.159  1.00  0.00     0.060 A 
ATOM     44  H3  UNL     1       4.585  -1.562  -0.015  1.00  0.00     0.167 HD
HETATM   45  C19 UNL     1       6.665  -3.572   0.172  1.00  0.00     0.032 A 
HETATM   46  C23 UNL     1       7.745  -1.441   0.255  1.00  0.00     0.060 A 
HETATM   47  C20 UNL     1       7.870  -4.232   0.279  1.00  0.00     0.002 A 
HETATM   48  C21 UNL     1       9.049  -3.490   0.377  1.00  0.00     0.002 A 
HETATM   49  C22 UNL     1       8.941  -2.118   0.361  1.00  0.00     0.032 A 
HETATM   50  N4  UNL     1       7.379  -0.147   0.218  1.00  0.00    -0.340 N 
ATOM     51  H4  UNL     1       8.020   0.645   0.270  1.00  0.00     0.167 HD
ENDBRANCH  39  41
ENDBRANCH  32  35
ENDBRANCH  27  29
ENDBRANCH   1  27
TORSDOF 9
