REMARK  10 active torsions:
REMARK  status: ('A' for Active; 'I' for Inactive)
REMARK    1  A    between atoms: N1_1  and  C1_4 
REMARK    2  A    between atoms: C2_7  and  N3_8 
REMARK    3  A    between atoms: C3_13  and  N5_14 
REMARK    4  A    between atoms: N5_14  and  C4_16 
REMARK    5  A    between atoms: C7_19  and  C8_20 
REMARK       I    between atoms: C8_20  and  N6_22 
REMARK    6  A    between atoms: N6_22  and  C9_24 
REMARK    7  A    between atoms: C12_27  and  O2_28 
REMARK    8  A    between atoms: O2_28  and  C13_29 
REMARK    9  A    between atoms: C16_32  and  N7_33 
REMARK       I    between atoms: N7_33  and  C17_35 
REMARK   10  A    between atoms: C17_35  and  C18_37 
ROOT
HETATM    1  C8  UNL     1      -2.077  -0.643   0.029  1.00  0.00     0.256 C 
HETATM    2  O1  UNL     1      -1.299  -0.177   0.889  1.00  0.00    -0.267 OA
HETATM    3  N6  UNL     1      -1.739  -0.963  -1.297  1.00  0.00    -0.323 N 
ATOM      4  H6  UNL     1      -2.463  -1.335  -1.912  1.00  0.00     0.169 HD
ENDROOT
BRANCH   1   5
HETATM    5  C7  UNL     1      -3.458  -0.860   0.488  1.00  0.00     0.032 A 
HETATM    6  C6  UNL     1      -4.448  -0.950  -0.453  1.00  0.00     0.019 A 
HETATM    7  C5  UNL     1      -5.748  -1.163  -0.012  1.00  0.00     0.031 A 
HETATM    8  C4  UNL     1      -6.019  -1.279   1.334  1.00  0.00     0.049 A 
HETATM    9  C27 UNL     1      -5.031  -1.191   2.297  1.00  0.00     0.031 A 
HETATM   10  C26 UNL     1      -3.746  -0.979   1.851  1.00  0.00     0.019 A 
BRANCH   8  11
HETATM   11  N5  UNL     1      -7.366  -1.499   1.750  1.00  0.00    -0.191 N 
ATOM     12  H5  UNL     1      -7.641  -2.431   2.060  1.00  0.00     0.184 HD
BRANCH  11  13
HETATM   13  C3  UNL     1      -8.246  -0.558   1.747  1.00  0.00     0.711 A 
HETATM   14  N4  UNL     1      -9.495  -0.804   2.143  1.00  0.00    -0.021 N 
HETATM   15  C2  UNL     1     -10.465   0.119   2.169  1.00  0.00     0.705 A 
ATOM     16  H4  UNL     1      -9.725  -1.751   2.444  1.00  0.00     0.203 HD
HETATM   17  N2  UNL     1     -10.146   1.361   1.770  1.00  0.00    -0.022 N 
HETATM   18  C1  UNL     1      -8.903   1.674   1.359  1.00  0.00     0.705 A 
ATOM     19  H2  UNL     1     -10.864   2.086   1.779  1.00  0.00     0.203 HD
HETATM   20  N8  UNL     1      -7.957   0.696   1.353  1.00  0.00    -0.021 N 
ATOM     21  H8  UNL     1      -7.011   0.918   1.044  1.00  0.00     0.203 HD
BRANCH  15  22
HETATM   22  N3  UNL     1     -11.636  -0.177   2.557  1.00  0.00    -0.234 N 
ATOM     23  H32 UNL     1     -12.375   0.526   2.577  1.00  0.00     0.174 HD
ATOM     24  H31 UNL     1     -11.878  -1.120   2.860  1.00  0.00     0.174 HD
ENDBRANCH  15  22
BRANCH  18  25
HETATM   25  N1  UNL     1      -8.636   2.883   0.982  1.00  0.00    -0.234 N 
ATOM     26  H12 UNL     1      -9.345   3.616   0.986  1.00  0.00     0.174 HD
ATOM     27  H11 UNL     1      -7.694   3.120   0.671  1.00  0.00     0.174 HD
ENDBRANCH  18  25
ENDBRANCH  11  13
ENDBRANCH   8  11
ENDBRANCH   1   5
BRANCH   3  28
HETATM   28  C9  UNL     1      -0.435  -0.789  -1.810  1.00  0.00     0.035 A 
HETATM   29  C10 UNL     1       0.715  -0.664  -1.083  1.00  0.00     0.032 A 
HETATM   30  C11 UNL     1       1.967  -0.472  -1.685  1.00  0.00     0.039 A 
HETATM   31  C12 UNL     1       2.098  -0.400  -3.042  1.00  0.00     0.076 A 
HETATM   32  C24 UNL     1       0.953  -0.524  -3.802  1.00  0.00     0.039 A 
HETATM   33  C25 UNL     1      -0.258  -0.710  -3.207  1.00  0.00     0.032 A 
BRANCH  31  34
HETATM   34  O2  UNL     1       3.342  -0.208  -3.669  1.00  0.00    -0.311 OA
BRANCH  34  35
HETATM   35  C13 UNL     1       4.440  -0.096  -2.795  1.00  0.00     0.076 A 
HETATM   36  C14 UNL     1       5.148  -1.190  -2.402  1.00  0.00     0.039 A 
HETATM   37  C15 UNL     1       6.231  -1.049  -1.535  1.00  0.00     0.032 A 
HETATM   38  C16 UNL     1       6.596   0.196  -1.069  1.00  0.00     0.035 A 
HETATM   39  C22 UNL     1       5.858   1.295  -1.485  1.00  0.00     0.032 A 
HETATM   40  C23 UNL     1       4.801   1.147  -2.331  1.00  0.00     0.039 A 
BRANCH  38  41
HETATM   41  N7  UNL     1       7.682   0.441  -0.208  1.00  0.00    -0.321 N 
HETATM   42  C17 UNL     1       8.732  -0.418   0.144  1.00  0.00     0.279 C 
HETATM   43  O3  UNL     1       8.809  -1.574  -0.315  1.00  0.00    -0.265 OA
ATOM     44  H7  UNL     1       7.708   1.368   0.217  1.00  0.00     0.169 HD
BRANCH  42  45
HETATM   45  C18 UNL     1       9.781   0.062   1.090  1.00  0.00     0.142 A 
HETATM   46  C19 UNL     1       9.811   1.309   1.661  1.00  0.00     0.045 A 
HETATM   47  C20 UNL     1      10.951   1.322   2.464  1.00  0.00     0.027 A 
HETATM   48  C21 UNL     1      11.536   0.086   2.326  1.00  0.00     0.143 A 
HETATM   49  O4  UNL     1      10.804  -0.620   1.502  1.00  0.00    -0.317 OA
ENDBRANCH  42  45
ENDBRANCH  38  41
ENDBRANCH  34  35
ENDBRANCH  31  34
ENDBRANCH   3  28
TORSDOF 10
