REMARK  8 active torsions:
REMARK  status: ('A' for Active; 'I' for Inactive)
REMARK    1  A    between atoms: C1_4  and  C2_6 
REMARK    2  A    between atoms: C4_10  and  C5_11 
REMARK    3  A    between atoms: C8_14  and  N4_15 
REMARK       I    between atoms: N4_15  and  C9_17 
REMARK    4  A    between atoms: C9_17  and  C10_19 
REMARK    5  A    between atoms: C14_24  and  C15_25 
REMARK       I    between atoms: C15_25  and  N6_27 
REMARK    6  A    between atoms: N6_27  and  C16_29 
REMARK    7  A    between atoms: C19_32  and  N7_33 
REMARK    8  A    between atoms: C20_38  and  C21_39 
ROOT
HETATM    1  C10 UNL     1      -0.079  -2.069  -2.769  1.00  0.00     0.033 A 
HETATM    2  C11 UNL     1      -0.137  -2.801  -3.934  1.00  0.00     0.019 A 
HETATM    3  C12 UNL     1      -1.266  -2.777  -4.728  1.00  0.00     0.028 A 
HETATM    4  C13 UNL     1      -2.377  -2.032  -4.401  1.00  0.00     0.062 A 
HETATM    5  N5  UNL     1      -3.541  -2.001  -5.212  1.00  0.00    -0.101 NA
HETATM    6  C14 UNL     1      -2.322  -1.289  -3.222  1.00  0.00     0.057 A 
HETATM    7  C26 UNL     1      -1.193  -1.317  -2.434  1.00  0.00     0.036 A 
ENDROOT
BRANCH   1   8
HETATM    8  C9  UNL     1       1.123  -2.088  -1.892  1.00  0.00     0.256 C 
HETATM    9  N4  UNL     1       1.417  -1.013  -1.041  1.00  0.00    -0.323 N 
ATOM     10  H4  UNL     1       0.789  -0.209  -1.046  1.00  0.00     0.169 HD
HETATM   11  O1  UNL     1       1.825  -3.103  -1.974  1.00  0.00    -0.267 OA
BRANCH   9  12
HETATM   12  C8  UNL     1       2.533  -0.981  -0.179  1.00  0.00     0.035 A 
HETATM   13  C7  UNL     1       2.952   0.271   0.294  1.00  0.00     0.030 A 
HETATM   14  C6  UNL     1       4.005   0.417   1.152  1.00  0.00     0.016 A 
HETATM   15  C5  UNL     1       4.702  -0.677   1.589  1.00  0.00    -0.001 A 
HETATM   16  C28 UNL     1       4.332  -1.922   1.156  1.00  0.00     0.016 A 
HETATM   17  C27 UNL     1       3.247  -2.059   0.274  1.00  0.00     0.030 A 
BRANCH  15  18
HETATM   18  C4  UNL     1       5.827  -0.472   2.515  1.00  0.00     0.103 A 
HETATM   19  C3  UNL     1       6.645  -1.440   3.056  1.00  0.00     0.128 A 
HETATM   20  N3  UNL     1       7.527  -0.801   3.838  1.00  0.00    -0.341 N 
HETATM   21  C2  UNL     1       7.277   0.534   3.794  1.00  0.00     0.189 A 
ATOM     22  H3  UNL     1       8.268  -1.246   4.380  1.00  0.00     0.167 HD
HETATM   23  O3  UNL     1       6.257   0.672   2.992  1.00  0.00    -0.288 OA
BRANCH  21  24
HETATM   24  C1  UNL     1       8.015   1.579   4.508  1.00  0.00     0.161 C 
HETATM   25  N1  UNL     1       7.672   2.807   4.376  1.00  0.00    -0.384 N 
ATOM     26  H12 UNL     1       8.186   3.535   4.873  1.00  0.00     0.157 HD
ATOM     27  H11 UNL     1       6.885   3.039   3.770  1.00  0.00     0.157 HD
HETATM   28  N2  UNL     1       9.104   1.258   5.347  1.00  0.00    -0.079 NA
ENDBRANCH  21  24
ENDBRANCH  15  18
ENDBRANCH   9  12
ENDBRANCH   1   8
BRANCH   6  29
HETATM   29  C15 UNL     1      -3.485  -0.480  -2.833  1.00  0.00     0.258 C 
HETATM   30  O2  UNL     1      -4.466  -0.527  -3.633  1.00  0.00    -0.267 OA
HETATM   31  N6  UNL     1      -3.535   0.282  -1.687  1.00  0.00    -0.321 N 
ATOM     32  H6  UNL     1      -2.707   0.254  -1.092  1.00  0.00     0.169 HD
BRANCH  31  33
HETATM   33  C16 UNL     1      -4.593   1.094  -1.239  1.00  0.00     0.063 A 
HETATM   34  C17 UNL     1      -5.396   1.674  -2.223  1.00  0.00     0.036 A 
HETATM   35  C18 UNL     1      -6.334   2.615  -1.870  1.00  0.00     0.050 A 
HETATM   36  C19 UNL     1      -6.465   2.970  -0.553  1.00  0.00     0.099 A 
HETATM   37  N8  UNL     1      -5.702   2.417   0.387  1.00  0.00    -0.340 N 
HETATM   38  C20 UNL     1      -4.759   1.477   0.085  1.00  0.00     0.072 A 
ATOM     39  H8  UNL     1      -5.825   2.703   1.358  1.00  0.00     0.167 HD
BRANCH  36  40
HETATM   40  N7  UNL     1      -7.347   3.865  -0.187  1.00  0.00    -0.385 N 
ATOM     41  H72 UNL     1      -7.932   4.289  -0.907  1.00  0.00     0.157 HD
ATOM     42  H71 UNL     1      -7.445   4.129   0.793  1.00  0.00     0.157 HD
ENDBRANCH  36  40
BRANCH  38  43
HETATM   43  C21 UNL     1      -3.948   0.913   1.136  1.00  0.00     0.008 A 
HETATM   44  C22 UNL     1      -3.738   1.712   2.271  1.00  0.00     0.016 A 
HETATM   45  C23 UNL     1      -3.061   1.223   3.367  1.00  0.00     0.018 A 
HETATM   46  C24 UNL     1      -2.573  -0.062   3.377  1.00  0.00     0.087 A 
HETATM   47  N9  UNL     1      -2.765  -0.829   2.309  1.00  0.00    -0.374 N 
HETATM   48  C25 UNL     1      -3.437  -0.351   1.219  1.00  0.00     0.101 A 
ATOM     49  H9  UNL     1      -2.407  -1.784   2.303  1.00  0.00     0.164 HD
ENDBRANCH  38  43
ENDBRANCH  31  33
ENDBRANCH   6  29
TORSDOF 8
