REMARK  7 active torsions:
REMARK  status: ('A' for Active; 'I' for Inactive)
REMARK    1  A    between atoms: C3_3  and  C4_4 
REMARK    2  A    between atoms: C4_4  and  C5_5 
REMARK    3  A    between atoms: C6_6  and  C7_7 
REMARK    4  A    between atoms: C7_7  and  C8_8 
REMARK    5  A    between atoms: C8_8  and  C9_9 
REMARK    6  A    between atoms: C12_15  and  O1_16 
REMARK    7  A    between atoms: C14_19  and  O2_21 
ROOT
HETATM    1  C5  UNL     1      -0.567  -0.455  -0.338  1.00  0.00     0.065 C 
HETATM    2  C6  UNL     1       0.907  -0.492  -0.450  1.00  0.00     0.002 C 
HETATM    3  C11 UNL     1       1.360  -1.686  -0.991  1.00  0.00     0.021 C 
HETATM    4  C12 UNL     1       0.350  -2.702  -1.349  1.00  0.00     0.144 C 
HETATM    5  C13 UNL     1      -0.340  -2.948   0.007  1.00  0.00     0.074 C 
HETATM    6  C14 UNL     1      -1.145  -1.661   0.311  1.00  0.00     0.065 C 
HETATM    7  C15 UNL     1      -2.490  -1.998  -0.363  1.00  0.00     0.046 C 
ENDROOT
BRANCH   2   8
HETATM    8  C7  UNL     1       1.908   0.446  -0.091  1.00  0.00    -0.064 C 
BRANCH   8   9
HETATM    9  C8  UNL     1       2.792   1.274   0.226  1.00  0.00    -0.049 C 
BRANCH   9  10
HETATM   10  C9  UNL     1       3.607   2.223   0.596  1.00  0.00     0.053 C 
HETATM   11  C10 UNL     1       5.143   2.138   0.602  1.00  0.00     0.078 C 
HETATM   12  N1  UNL     1       3.127   3.390   1.064  1.00  0.00    -0.396 N 
ATOM     13  H12 UNL     1       2.109   3.446   1.060  1.00  0.00     0.156 HD
ATOM     14  H11 UNL     1       3.764   4.132   1.353  1.00  0.00     0.156 HD
ENDBRANCH   9  10
ENDBRANCH   8   9
ENDBRANCH   2   8
BRANCH   1  15
HETATM   15  C4  UNL     1      -1.027   0.845   0.188  1.00  0.00     0.040 C 
BRANCH  15  16
HETATM   16  C3  UNL     1      -2.477   1.051   0.394  1.00  0.00    -0.030 C 
HETATM   17  C2  UNL     1      -3.064   2.016  -0.306  1.00  0.00    -0.035 C 
HETATM   18  C1  UNL     1      -4.508   2.301  -0.174  1.00  0.00     0.036 C 
ENDBRANCH  15  16
ENDBRANCH   1  15
BRANCH   6  19
HETATM   19  O2  UNL     1      -1.247  -1.605   1.689  1.00  0.00    -0.389 OA
ATOM     20  H2  UNL     1      -1.616  -2.376   2.104  1.00  0.00     0.210 HD
ENDBRANCH   6  19
BRANCH   4  21
HETATM   21  O1  UNL     1       1.005  -3.848  -1.704  1.00  0.00    -0.392 OA
ATOM     22  H1  UNL     1       0.355  -4.502  -1.934  1.00  0.00     0.210 HD
ENDBRANCH   4  21
TORSDOF 7
