REMARK  5 active torsions:
REMARK  status: ('A' for Active; 'I' for Inactive)
REMARK    1  A    between atoms: C5_7  and  C6_8 
REMARK    2  A    between atoms: C6_8  and  C7_9 
REMARK    3  A    between atoms: C7_9  and  C8_10 
REMARK    4  A    between atoms: C8_10  and  C9_11 
REMARK    5  A    between atoms: C11_13  and  N2_14 
ROOT
HETATM    1  C6  UNL     1      -0.008  -1.777   0.244  1.00  0.00     0.076 C 
ENDROOT
BRANCH   1   2
HETATM    2  C5  UNL     1      -1.272  -0.985   0.230  1.00  0.00     0.083 A 
HETATM    3  N1  UNL     1      -2.048  -0.894  -0.860  1.00  0.00    -0.343 N 
HETATM    4  C4  UNL     1      -3.103  -0.117  -0.556  1.00  0.00     0.080 A 
ATOM      5  H1  UNL     1      -1.869  -1.336  -1.762  1.00  0.00     0.167 HD
HETATM    6  C3  UNL     1      -4.271   0.451  -1.018  1.00  0.00     0.058 A 
HETATM    7  C13 UNL     1      -2.932   0.263   0.775  1.00  0.00     0.134 A 
HETATM    8  C2  UNL     1      -4.818   1.176   0.019  1.00  0.00     0.009 A 
HETATM    9  C1  UNL     1      -6.092   1.966  -0.019  1.00  0.00     0.068 C 
HETATM   10  N6  UNL     1      -4.001   1.044   1.067  1.00  0.00    -0.344 N 
ATOM     11  H6  UNL     1      -4.162   1.478   1.976  1.00  0.00     0.167 HD
HETATM   12  N5  UNL     1      -1.800  -0.282   1.238  1.00  0.00    -0.330 N 
ATOM     13  H5  UNL     1      -1.415  -0.181   2.177  1.00  0.00     0.168 HD
ENDBRANCH   1   2
BRANCH   1  14
HETATM   14  C7  UNL     1       1.172  -0.922  -0.170  1.00  0.00     0.009 C 
BRANCH  14  15
HETATM   15  C8  UNL     1       2.429  -1.725  -0.152  1.00  0.00     0.026 C 
BRANCH  15  16
HETATM   16  C9  UNL     1       3.627  -0.928  -0.555  1.00  0.00     0.089 C 
HETATM   17  C10 UNL     1       3.886   0.261   0.347  1.00  0.00     0.101 C 
HETATM   18  C11 UNL     1       5.090   0.932  -0.195  1.00  0.00     0.077 C 
HETATM   19  N3  UNL     1       5.276   0.915  -1.597  1.00  0.00    -0.343 N 
HETATM   20  C12 UNL     1       4.259   0.548  -2.302  1.00  0.00     0.177 C 
ATOM     21  H3  UNL     1       6.163   1.178  -2.026  1.00  0.00     0.167 HD
HETATM   22  N4  UNL     1       3.478  -0.371  -1.908  1.00  0.00    -0.381 N 
ATOM     23  H4  UNL     1       2.749  -0.723  -2.528  1.00  0.00     0.160 HD
BRANCH  18  24
HETATM   24  N2  UNL     1       5.897   1.492   0.628  1.00  0.00    -0.389 N 
ATOM     25  H22 UNL     1       5.763   1.504   1.639  1.00  0.00     0.157 HD
ATOM     26  H21 UNL     1       6.726   1.954   0.255  1.00  0.00     0.157 HD
ENDBRANCH  18  24
ENDBRANCH  15  16
ENDBRANCH  14  15
ENDBRANCH   1  14
TORSDOF 5
