REMARK  10 active torsions:
REMARK  status: ('A' for Active; 'I' for Inactive)
REMARK    1  A    between atoms: C2_2  and  N1_3 
REMARK    2  A    between atoms: N1_3  and  C3_5 
REMARK    3  A    between atoms: C4_6  and  N2_7 
REMARK    4  A    between atoms: N2_7  and  C5_9 
REMARK    5  A    between atoms: C5_9  and  C6_10 
REMARK    6  A    between atoms: C6_10  and  O1_11 
REMARK    7  A    between atoms: C7_13  and  C8_14 
REMARK    8  A    between atoms: C8_14  and  N3_15 
REMARK    9  A    between atoms: C9_20  and  N4_21 
REMARK   10  A    between atoms: C12_26  and  N6_27 
ROOT
HETATM    1  C3  UNL     1      -0.841   0.478  -0.392  1.00  0.00     0.154 C 
HETATM    2  C4  UNL     1      -1.610  -0.617   0.356  1.00  0.00     0.134 C 
HETATM    3  C7  UNL     1      -0.729  -1.792  -0.015  1.00  0.00     0.174 C 
HETATM    4  O2  UNL     1       0.547  -1.340   0.045  1.00  0.00    -0.355 OA
HETATM    5  C9  UNL     1       0.490   0.106   0.114  1.00  0.00     0.255 C 
ENDROOT
BRANCH   5   6
HETATM    6  N4  UNL     1       1.670   0.485  -0.591  1.00  0.00    -0.298 N 
HETATM    7  C10 UNL     1       1.941   1.153  -1.697  1.00  0.00     0.188 A 
HETATM    8  N5  UNL     1       3.257   1.186  -1.879  1.00  0.00    -0.346 N 
HETATM    9  C11 UNL     1       3.864   0.537  -0.889  1.00  0.00     0.122 A 
ATOM     10  H5  UNL     1       3.730   1.640  -2.660  1.00  0.00     0.167 HD
HETATM   11  C12 UNL     1       5.177   0.233  -0.537  1.00  0.00     0.131 A 
HETATM   12  C14 UNL     1       2.870   0.088  -0.069  1.00  0.00     0.142 A 
HETATM   13  N7  UNL     1       5.475  -0.483   0.576  1.00  0.00    -0.337 N 
HETATM   14  C13 UNL     1       4.473  -0.921   1.376  1.00  0.00     0.183 A 
ATOM     15  H7  UNL     1       6.446  -0.690   0.809  1.00  0.00     0.168 HD
HETATM   16  N8  UNL     1       3.208  -0.626   1.035  1.00  0.00    -0.336 N 
ATOM     17  H8  UNL     1       2.457  -0.958   1.641  1.00  0.00     0.168 HD
BRANCH  11  18
HETATM   18  N6  UNL     1       6.086   0.679  -1.331  1.00  0.00    -0.383 N 
ATOM     19  H62 UNL     1       5.862   1.217  -2.168  1.00  0.00     0.157 HD
ATOM     20  H61 UNL     1       7.047   0.456  -1.073  1.00  0.00     0.157 HD
ENDBRANCH  11  18
ENDBRANCH   5   6
BRANCH   1  21
HETATM   21  N1  UNL     1      -1.450   1.692  -0.077  1.00  0.00    -0.392 N 
ATOM     22  H1  UNL     1      -2.436   1.671   0.183  1.00  0.00     0.159 HD
BRANCH  21  23
HETATM   23  C2  UNL     1      -0.807   2.946  -0.090  1.00  0.00     0.051 C 
HETATM   24  C1  UNL     1       0.222   3.254   0.948  1.00  0.00     0.054 C 
ENDBRANCH  21  23
ENDBRANCH   1  21
BRANCH   2  25
HETATM   25  N2  UNL     1      -2.935  -0.804   0.355  1.00  0.00    -0.411 N 
ATOM     26  H2  UNL     1      -3.326  -1.643  -0.074  1.00  0.00     0.153 HD
BRANCH  25  27
HETATM   27  C5  UNL     1      -3.798   0.149   0.942  1.00  0.00     0.140 C 
BRANCH  27  28
HETATM   28  C6  UNL     1      -5.215  -0.451   1.129  1.00  0.00     0.183 C 
BRANCH  28  29
HETATM   29  O1  UNL     1      -5.087  -1.580   1.975  1.00  0.00    -0.399 OA
ATOM     30  H1  UNL     1      -5.955  -1.948   2.090  1.00  0.00     0.209 HD
ENDBRANCH  28  29
ENDBRANCH  27  28
ENDBRANCH  25  27
ENDBRANCH   2  25
BRANCH   3  31
HETATM   31  C8  UNL     1      -1.084  -2.478  -1.278  1.00  0.00     0.263 C 
BRANCH  31  32
HETATM   32  N3  UNL     1      -0.250  -3.640  -1.488  1.00  0.00    -0.077 N 
ATOM     33  H33 UNL     1       0.741  -3.403  -1.454  1.00  0.00     0.274 HD
ATOM     34  H32 UNL     1      -0.284  -4.276  -0.692  1.00  0.00     0.274 HD
ATOM     35  H31 UNL     1      -0.495  -4.113  -2.358  1.00  0.00     0.274 HD
ENDBRANCH  31  32
ENDBRANCH   3  31
TORSDOF 10
