REMARK  11 active torsions:
REMARK  status: ('A' for Active; 'I' for Inactive)
REMARK    1  A    between atoms: N1_2  and  C2_4 
REMARK    2  A    between atoms: C3_7  and  N3_8 
REMARK    3  A    between atoms: N3_8  and  C4_10 
REMARK    4  A    between atoms: C4_10  and  C5_11 
REMARK    5  A    between atoms: C5_11  and  C6_12 
REMARK    6  A    between atoms: C6_12  and  N4_13 
REMARK    7  A    between atoms: C7_19  and  S1_20 
REMARK    8  A    between atoms: C9_22  and  N6_23 
REMARK       I    between atoms: N6_23  and  C10_25 
REMARK       I    between atoms: C10_25  and  N8_30 
REMARK    9  A    between atoms: N7_26  and  O1_28 
REMARK   10  A    between atoms: N8_30  and  O2_32 
REMARK   11  A    between atoms: O2_32  and  N9_33 
ROOT
HETATM    1  C2  UNL     1      -1.049  -1.655   0.288  1.00  0.00     0.694 C 
HETATM    2  N2  UNL     1       0.258  -1.634  -0.084  1.00  0.00    -0.022 N 
ATOM      3  H2  UNL     1       0.691  -2.542  -0.250  1.00  0.00     0.203 HD
HETATM    4  C3  UNL     1       1.061  -0.544  -0.262  1.00  0.00     0.693 C 
HETATM    5  N5  UNL     1       0.620   0.701  -0.602  1.00  0.00    -0.182 N 
ATOM      6  H5  UNL     1       1.324   1.342  -0.967  1.00  0.00     0.185 HD
HETATM    7  C7  UNL     1      -0.653   1.193  -0.513  1.00  0.00     0.131 C 
HETATM    8  C9  UNL     1      -1.706   0.702   0.217  1.00  0.00     0.170 C 
HETATM    9  N10 UNL     1      -1.935  -0.646   0.358  1.00  0.00    -0.173 N 
ATOM     10  H10 UNL     1      -2.902  -0.916   0.539  1.00  0.00     0.186 HD
ENDROOT
BRANCH   8  11
HETATM   11  N6  UNL     1      -2.464   1.456   0.773  1.00  0.00    -0.170 N 
HETATM   12  C10 UNL     1      -2.943   2.643   1.145  1.00  0.00     0.725 C 
HETATM   13  N7  UNL     1      -4.136   2.721   1.721  1.00  0.00    -0.097 N 
HETATM   14  N8  UNL     1      -2.330   3.933   1.033  1.00  0.00    -0.070 N 
ATOM     15  H7  UNL     1      -4.530   3.614   2.018  1.00  0.00     0.213 HD
ATOM     16  H8  UNL     1      -1.369   4.077   1.342  1.00  0.00     0.215 HD
ATOM     17  H6  UNL     1      -3.119   0.812   1.216  1.00  0.00     0.186 HD
BRANCH  13  18
HETATM   18  O1  UNL     1      -4.809   1.545   1.896  1.00  0.00    -0.276 OA
ATOM     19  H1  UNL     1      -5.663   1.601   2.308  1.00  0.00     0.245 HD
ENDBRANCH  13  18
BRANCH  14  20
HETATM   20  O2  UNL     1      -3.032   4.940   0.520  1.00  0.00    -0.149 OA
BRANCH  20  21
HETATM   21  N9  UNL     1      -4.058   4.544  -0.270  1.00  0.00    -0.286 N 
ATOM     22  H92 UNL     1      -4.261   3.560  -0.446  1.00  0.00     0.186 HD
ATOM     23  H91 UNL     1      -4.596   5.316  -0.663  1.00  0.00     0.186 HD
ENDBRANCH  20  21
ENDBRANCH  14  20
ENDBRANCH   8  11
BRANCH   7  24
HETATM   24  S1  UNL     1      -0.936   2.650  -1.493  1.00  0.00    -0.112 SA
HETATM   25  C8  UNL     1      -1.494   2.148  -3.144  1.00  0.00     0.097 C 
ENDBRANCH   7  24
BRANCH   1  26
HETATM   26  N1  UNL     1      -1.473  -2.825   0.615  1.00  0.00    -0.230 N 
HETATM   27  C1  UNL     1      -0.614  -3.986   0.577  1.00  0.00     0.165 C 
ATOM     28  H1  UNL     1      -2.443  -2.936   0.909  1.00  0.00     0.177 HD
ENDBRANCH   1  26
BRANCH   4  29
HETATM   29  N3  UNL     1       2.324  -0.703  -0.094  1.00  0.00    -0.225 N 
ATOM     30  H3  UNL     1       2.954   0.089  -0.218  1.00  0.00     0.177 HD
BRANCH  29  31
HETATM   31  C4  UNL     1       2.858  -1.989   0.267  1.00  0.00     0.139 C 
BRANCH  31  32
HETATM   32  C5  UNL     1       4.270  -1.849   0.822  1.00  0.00     0.047 C 
BRANCH  32  33
HETATM   33  C6  UNL     1       5.200  -1.228  -0.183  1.00  0.00     0.231 C 
BRANCH  33  34
HETATM   34  N4  UNL     1       5.248  -2.059  -1.355  1.00  0.00    -0.079 N 
ATOM     35  H43 UNL     1       5.500  -3.023  -1.137  1.00  0.00     0.274 HD
ATOM     36  H42 UNL     1       4.321  -2.237  -1.742  1.00  0.00     0.274 HD
ATOM     37  H41 UNL     1       5.879  -1.638  -2.037  1.00  0.00     0.274 HD
ENDBRANCH  33  34
ENDBRANCH  32  33
ENDBRANCH  31  32
ENDBRANCH  29  31
ENDBRANCH   4  29
TORSDOF 11
