REMARK  7 active torsions:
REMARK  status: ('A' for Active; 'I' for Inactive)
REMARK    1  A    between atoms: N1_1  and  C1_4 
REMARK    2  A    between atoms: N4_9  and  C2_10 
REMARK    3  A    between atoms: C2_10  and  C3_11 
REMARK    4  A    between atoms: C3_11  and  N5_12 
REMARK    5  A    between atoms: N5_12  and  C4_15 
REMARK    6  A    between atoms: C4_15  and  C5_16 
REMARK    7  A    between atoms: C8_23  and  N8_24 
ROOT
HETATM    1  C5  UNL     1       0.854  -0.801   0.465  1.00  0.00    -0.016 A 
HETATM    2  C6  UNL     1       0.609   0.605   0.489  1.00  0.00     0.098 A 
HETATM    3  N6  UNL     1       1.584   1.482   0.248  1.00  0.00    -0.350 N 
ATOM      4  H6  UNL     1       1.384   2.482   0.275  1.00  0.00     0.166 HD
HETATM    5  C7  UNL     1       2.825   1.060  -0.030  1.00  0.00     0.135 A 
HETATM    6  N7  UNL     1       3.681   2.076  -0.236  1.00  0.00    -0.176 N 
ATOM      7  H7  UNL     1       3.269   2.971  -0.501  1.00  0.00     0.186 HD
HETATM    8  C8  UNL     1       5.026   2.041  -0.130  1.00  0.00     0.680 C 
HETATM    9  N9  UNL     1       5.871   1.043  -0.450  1.00  0.00    -0.153 N 
ATOM     10  H9  UNL     1       6.840   1.303  -0.635  1.00  0.00     0.187 HD
HETATM   11  C9  UNL     1       5.562  -0.269  -0.550  1.00  0.00     0.310 C 
HETATM   12  O1  UNL     1       6.519  -1.023  -0.884  1.00  0.00    -0.263 OA
HETATM   13  C10 UNL     1       4.343  -0.887  -0.327  1.00  0.00     0.253 C 
HETATM   14  O2  UNL     1       4.343  -2.129  -0.360  1.00  0.00    -0.281 OA
HETATM   15  C11 UNL     1       3.104  -0.297  -0.067  1.00  0.00     0.065 A 
HETATM   16  C12 UNL     1       2.101  -1.257   0.184  1.00  0.00     0.029 A 
ENDROOT
BRANCH   1  17
HETATM   17  C4  UNL     1      -0.334  -1.590   0.811  1.00  0.00     0.272 C 
BRANCH  17  18
HETATM   18  N5  UNL     1      -1.300  -1.685  -0.269  1.00  0.00    -0.070 N 
ATOM     19  H52 UNL     1      -1.355  -2.635  -0.637  1.00  0.00     0.277 HD
ATOM     20  H51 UNL     1      -0.968  -1.209  -1.108  1.00  0.00     0.277 HD
BRANCH  18  21
HETATM   21  C3  UNL     1      -2.586  -1.205   0.129  1.00  0.00     0.256 C 
BRANCH  21  22
HETATM   22  C2  UNL     1      -3.661  -1.520  -0.864  1.00  0.00     0.199 C 
BRANCH  22  23
HETATM   23  N4  UNL     1      -4.851  -0.755  -0.403  1.00  0.00    -0.203 N 
HETATM   24  N3  UNL     1      -5.786  -1.047   0.462  1.00  0.00    -0.211 N 
HETATM   25  N2  UNL     1      -6.671  -0.010   0.498  1.00  0.00    -0.115 N 
ATOM     26  H3  UNL     1      -5.844  -1.902   1.015  1.00  0.00     0.210 HD
HETATM   27  C1  UNL     1      -6.278   0.934  -0.368  1.00  0.00     0.707 A 
ATOM     28  H2  UNL     1      -7.500   0.039   1.090  1.00  0.00     0.207 HD
HETATM   29  N10 UNL     1      -5.163   0.455  -0.902  1.00  0.00    -0.113 N 
ATOM     30  H10 UNL     1      -4.609   0.944  -1.605  1.00  0.00     0.207 HD
BRANCH  27  31
HETATM   31  N1  UNL     1      -6.874   2.069  -0.613  1.00  0.00    -0.232 N 
ATOM     32  H12 UNL     1      -7.732   2.438  -0.202  1.00  0.00     0.174 HD
ATOM     33  H11 UNL     1      -6.575   2.788  -1.272  1.00  0.00     0.174 HD
ENDBRANCH  27  31
ENDBRANCH  22  23
ENDBRANCH  21  22
ENDBRANCH  18  21
ENDBRANCH  17  18
ENDBRANCH   1  17
BRANCH   8  34
HETATM   34  N8  UNL     1       5.571   3.116   0.338  1.00  0.00    -0.234 N 
ATOM     35  H82 UNL     1       4.931   3.872   0.580  1.00  0.00     0.174 HD
ATOM     36  H81 UNL     1       6.588   3.090   0.418  1.00  0.00     0.174 HD
ENDBRANCH   8  34
TORSDOF 7
