REMARK  10 active torsions:
REMARK  status: ('A' for Active; 'I' for Inactive)
REMARK    1  A    between atoms: N1_1  and  N2_4 
REMARK    2  A    between atoms: N2_4  and  C1_6 
REMARK    3  A    between atoms: C2_9  and  N4_10 
REMARK    4  A    between atoms: N4_10  and  C3_12 
REMARK    5  A    between atoms: C3_12  and  C4_13 
REMARK    6  A    between atoms: C4_13  and  C5_14 
REMARK    7  A    between atoms: C5_14  and  C6_15 
REMARK    8  A    between atoms: C6_15  and  S1_16 
REMARK    9  A    between atoms: S1_16  and  N5_19 
REMARK   10  A    between atoms: N5_19  and  C7_21 
ROOT
HETATM    1  N4  UNL     1       1.342  -0.103  -0.391  1.00  0.00    -0.394 N 
ATOM      2  H4  UNL     1       1.395  -1.097  -0.616  1.00  0.00     0.155 HD
ENDROOT
BRANCH   1   3
HETATM    3  C2  UNL     1       2.186   0.498   0.590  1.00  0.00     0.274 A 
HETATM    4  N3  UNL     1       3.088  -0.463   1.201  1.00  0.00    -0.332 N 
HETATM    5  C1  UNL     1       4.307  -0.131   1.117  1.00  0.00     0.198 A 
ATOM      6  H3  UNL     1       2.771  -1.321   1.653  1.00  0.00     0.165 HD
HETATM    7  N8  UNL     1       4.419   1.132   0.432  1.00  0.00    -0.294 N 
HETATM    8  C8  UNL     1       3.103   1.537   0.105  1.00  0.00     0.266 A 
ATOM      9  H8  UNL     1       5.280   1.637   0.223  1.00  0.00     0.172 HD
HETATM   10  O3  UNL     1       2.797   2.587  -0.487  1.00  0.00    -0.269 OA
BRANCH   5  11
HETATM   11  N2  UNL     1       5.428  -0.875   1.623  1.00  0.00    -0.278 N 
ATOM     12  H2  UNL     1       5.267  -1.647   2.269  1.00  0.00     0.189 HD
BRANCH  11  13
HETATM   13  N1  UNL     1       6.726  -0.560   1.247  1.00  0.00    -0.343 N 
ATOM     14  H12 UNL     1       6.870   0.215   0.600  1.00  0.00     0.176 HD
ATOM     15  H11 UNL     1       7.521  -1.088   1.606  1.00  0.00     0.176 HD
ENDBRANCH  11  13
ENDBRANCH   5  11
ENDBRANCH   1   3
BRANCH   1  16
HETATM   16  C3  UNL     1       0.422   0.769  -1.036  1.00  0.00     0.116 C 
BRANCH  16  17
HETATM   17  C4  UNL     1      -0.423  -0.024  -2.013  1.00  0.00     0.020 C 
BRANCH  17  18
HETATM   18  C5  UNL     1      -1.223  -1.119  -1.351  1.00  0.00     0.018 C 
BRANCH  18  19
HETATM   19  C6  UNL     1      -2.131  -0.480  -0.343  1.00  0.00     0.163 C 
BRANCH  19  20
HETATM   20  S1  UNL     1      -3.148  -1.656   0.524  1.00  0.00     0.232 S 
HETATM   21  O1  UNL     1      -2.321  -2.654   1.270  1.00  0.00    -0.206 OA
HETATM   22  O2  UNL     1      -4.045  -2.357  -0.481  1.00  0.00    -0.206 OA
BRANCH  20  23
HETATM   23  N5  UNL     1      -4.120  -0.770   1.630  1.00  0.00    -0.262 N 
ATOM     24  H5  UNL     1      -3.959  -0.873   2.632  1.00  0.00     0.180 HD
BRANCH  23  25
HETATM   25  C7  UNL     1      -5.051   0.024   1.217  1.00  0.00     0.191 A 
HETATM   26  N6  UNL     1      -5.963   0.837   1.734  1.00  0.00    -0.272 N 
HETATM   27  N7  UNL     1      -6.561   1.316   0.673  1.00  0.00    -0.265 N 
ATOM     28  H6  UNL     1      -6.152   1.039   2.716  1.00  0.00     0.189 HD
HETATM   29  S2  UNL     1      -5.574   0.420  -0.330  1.00  0.00     0.041 SA
ATOM     30  H7  UNL     1      -7.325   1.974   0.520  1.00  0.00     0.195 HD
ENDBRANCH  23  25
ENDBRANCH  20  23
ENDBRANCH  19  20
ENDBRANCH  18  19
ENDBRANCH  17  18
ENDBRANCH  16  17
ENDBRANCH   1  16
TORSDOF 10
