REMARK  10 active torsions:
REMARK  status: ('A' for Active; 'I' for Inactive)
REMARK    1  A    between atoms: C2_2  and  C3_3 
REMARK    2  A    between atoms: C4_4  and  C5_5 
REMARK    3  A    between atoms: C7_11  and  N3_12 
REMARK    4  A    between atoms: N3_12  and  C8_13 
REMARK    5  A    between atoms: N3_12  and  C10_17 
REMARK    6  A    between atoms: C8_13  and  C9_14 
REMARK    7  A    between atoms: C9_14  and  O1_15 
REMARK    8  A    between atoms: C10_17  and  C11_18 
REMARK    9  A    between atoms: C11_18  and  O2_19 
REMARK   10  A    between atoms: C12_23  and  N5_24 
REMARK       I    between atoms: N5_24  and  C13_26 
REMARK       I    between atoms: C13_26  and  N6_27 
REMARK       I    between atoms: C13_26  and  N7_31 
ROOT
HETATM    1  C5  UNL     1       2.703   0.426   0.228  1.00  0.00     0.163 A 
HETATM    2  N1  UNL     1       1.716   1.319   0.352  1.00  0.00    -0.319 N 
ATOM      3  H1  UNL     1       1.857   2.301   0.588  1.00  0.00     0.169 HD
HETATM    4  C6  UNL     1       0.517   0.761   0.127  1.00  0.00     0.153 A 
HETATM    5  N2  UNL     1      -0.748   1.235   0.132  1.00  0.00    -0.174 N 
ATOM      6  H2  UNL     1      -0.911   2.219   0.343  1.00  0.00     0.186 HD
HETATM    7  C7  UNL     1      -1.801   0.433  -0.137  1.00  0.00     0.683 A 
HETATM    8  N4  UNL     1      -1.573  -0.843  -0.409  1.00  0.00    -0.174 N 
ATOM      9  H4  UNL     1      -2.375  -1.440  -0.610  1.00  0.00     0.186 HD
HETATM   10  C12 UNL     1      -0.325  -1.411  -0.437  1.00  0.00     0.150 A 
HETATM   11  C14 UNL     1       0.749  -0.573  -0.158  1.00  0.00     0.124 A 
HETATM   12  N8  UNL     1       2.073  -0.738  -0.089  1.00  0.00    -0.329 N 
ATOM     13  H8  UNL     1       2.551  -1.624  -0.253  1.00  0.00     0.168 HD
ENDROOT
BRANCH  10  14
HETATM   14  N5  UNL     1      -0.216  -2.599  -0.690  1.00  0.00    -0.325 N 
HETATM   15  C13 UNL     1       0.690  -3.632  -0.846  1.00  0.00     0.481 C 
HETATM   16  N6  UNL     1       1.348  -3.678  -2.147  1.00  0.00    -0.033 N 
HETATM   17  N7  UNL     1       0.011  -4.947  -0.720  1.00  0.00    -0.033 N 
ATOM     18  H63 UNL     1       0.653  -3.702  -2.894  1.00  0.00     0.278 HD
ATOM     19  H62 UNL     1       1.794  -2.783  -2.349  1.00  0.00     0.278 HD
ATOM     20  H61 UNL     1       2.016  -4.440  -2.262  1.00  0.00     0.278 HD
ATOM     21  H73 UNL     1      -0.504  -5.025   0.157  1.00  0.00     0.278 HD
ATOM     22  H72 UNL     1      -0.774  -5.031  -1.366  1.00  0.00     0.278 HD
ATOM     23  H71 UNL     1       0.679  -5.709  -0.835  1.00  0.00     0.278 HD
ATOM     24  H5  UNL     1      -1.151  -2.975  -0.846  1.00  0.00     0.165 HD
ENDBRANCH  10  14
BRANCH   7  25
HETATM   25  N3  UNL     1      -3.089   1.026  -0.104  1.00  0.00    -0.213 N 
BRANCH  25  26
HETATM   26  C8  UNL     1      -3.846   0.918   1.125  1.00  0.00     0.167 C 
BRANCH  26  27
HETATM   27  C9  UNL     1      -5.064   0.024   0.934  1.00  0.00     0.184 C 
BRANCH  27  28
HETATM   28  O1  UNL     1      -5.777  -0.063   2.140  1.00  0.00    -0.399 OA
ATOM     29  H1  UNL     1      -6.537  -0.621   2.021  1.00  0.00     0.209 HD
ENDBRANCH  27  28
ENDBRANCH  26  27
ENDBRANCH  25  26
BRANCH  25  30
HETATM   30  C10 UNL     1      -3.570   1.703  -1.279  1.00  0.00     0.167 C 
BRANCH  30  31
HETATM   31  C11 UNL     1      -3.677   3.198  -1.081  1.00  0.00     0.184 C 
BRANCH  31  32
HETATM   32  O2  UNL     1      -2.456   3.774  -0.769  1.00  0.00    -0.399 OA
ATOM     33  H2  UNL     1      -2.523   4.713  -0.645  1.00  0.00     0.209 HD
ENDBRANCH  31  32
ENDBRANCH  30  31
ENDBRANCH  25  30
ENDBRANCH   7  25
BRANCH   1  34
HETATM   34  C4  UNL     1       4.110   0.642   0.393  1.00  0.00    -0.030 C 
HETATM   35  C3  UNL     1       5.300   0.847   0.537  1.00  0.00    -0.099 C 
BRANCH  35  36
HETATM   36  C2  UNL     1       6.746   1.088   0.705  1.00  0.00     0.090 C 
HETATM   37  C1  UNL     1       7.044   1.767   2.021  1.00  0.00     0.018 C 
ENDBRANCH  35  36
ENDBRANCH   1  34
TORSDOF 10
