REMARK  6 active torsions:
REMARK  status: ('A' for Active; 'I' for Inactive)
REMARK    1  A    between atoms: C2_2  and  C3_3 
REMARK    2  A    between atoms: C3_3  and  C4_4 
REMARK    3  A    between atoms: C4_4  and  C5_5 
REMARK    4  A    between atoms: C13_18  and  N4_19 
REMARK       I    between atoms: N4_19  and  C14_21 
REMARK    5  A    between atoms: C14_21  and  C15_23 
REMARK    6  A    between atoms: C15_23  and  N5_24 
ROOT
HETATM    1  C5  UNL     1      -1.478   1.029  -0.135  1.00  0.00     0.038 C 
HETATM    2  C6  UNL     1      -2.708   0.313   0.260  1.00  0.00     0.278 C 
HETATM    3  N1  UNL     1      -3.219  -0.484  -0.862  1.00  0.00     0.082 N 
HETATM    4  C7  UNL     1      -3.947   0.491  -1.654  1.00  0.00     0.309 C 
HETATM    5  C8  UNL     1      -4.294  -1.251  -0.231  1.00  0.00     0.309 C 
HETATM    6  N2  UNL     1      -2.293  -1.213  -1.549  1.00  0.00     0.115 N 
HETATM    7  C9  UNL     1      -2.465  -1.064  -3.017  1.00  0.00     0.302 C 
HETATM    8  C10 UNL     1      -2.088  -2.456  -3.559  1.00  0.00     0.264 C 
HETATM    9  N3  UNL     1      -2.957  -3.200  -2.637  1.00  0.00    -0.047 N 
ATOM     10  H31 UNL     1      -2.958  -4.216  -2.725  1.00  0.00     0.279 HD
ATOM     11  H32 UNL     1      -3.963  -3.122  -2.789  1.00  0.00     0.279 HD
HETATM   12  C11 UNL     1      -2.445  -2.658  -1.412  1.00  0.00     0.502 C 
HETATM   13  C12 UNL     1      -0.902  -0.956  -1.352  1.00  0.00     0.300 C 
HETATM   14  C13 UNL     1      -0.477  -0.110  -0.188  1.00  0.00     0.118 C 
ENDROOT
BRANCH  14  15
HETATM   15  N4  UNL     1       0.845   0.373  -0.384  1.00  0.00    -0.353 N 
HETATM   16  C14 UNL     1       1.980  -0.011   0.383  1.00  0.00     0.244 C 
HETATM   17  O1  UNL     1       1.757  -0.845   1.296  1.00  0.00    -0.272 OA
ATOM     18  H4  UNL     1       0.992   1.049  -1.134  1.00  0.00     0.163 HD
BRANCH  16  19
HETATM   19  C15 UNL     1       3.329   0.494   0.167  1.00  0.00     0.339 C 
BRANCH  19  20
HETATM   20  N5  UNL     1       4.324  -0.023   1.047  1.00  0.00    -0.063 N 
HETATM   21  C16 UNL     1       3.890   0.127   2.424  1.00  0.00     0.273 C 
HETATM   22  C17 UNL     1       5.596   0.666   0.925  1.00  0.00     0.237 C 
HETATM   23  C18 UNL     1       6.453  -0.196   0.023  1.00  0.00     0.029 C 
HETATM   24  C19 UNL     1       5.624  -1.418  -0.295  1.00  0.00     0.029 C 
HETATM   25  C20 UNL     1       4.624  -1.428   0.843  1.00  0.00     0.237 C 
ENDBRANCH  19  20
ENDBRANCH  16  19
ENDBRANCH  14  15
BRANCH   1  26
HETATM   26  C4  UNL     1      -1.029   2.233   0.542  1.00  0.00     0.008 C 
BRANCH  26  27
HETATM   27  C3  UNL     1      -0.708   2.288   1.967  1.00  0.00     0.000 C 
BRANCH  27  28
HETATM   28  C2  UNL     1      -1.878   2.080   2.874  1.00  0.00    -0.005 C 
HETATM   29  C1  UNL     1      -2.911   3.174   2.682  1.00  0.00     0.005 C 
ENDBRANCH  27  28
ENDBRANCH  26  27
ENDBRANCH   1  26
TORSDOF 6
