REMARK  11 active torsions:
REMARK  status: ('A' for Active; 'I' for Inactive)
REMARK    1  A    between atoms: C3_3  and  C4_4 
REMARK    2  A    between atoms: C4_4  and  N1_5 
REMARK    3  A    between atoms: N1_5  and  C5_6 
REMARK    4  A    between atoms: C5_6  and  C6_7 
REMARK    5  A    between atoms: C6_7  and  N2_8 
REMARK    6  A    between atoms: N2_8  and  C7_9 
REMARK    7  A    between atoms: C7_9  and  C8_10 
REMARK    8  A    between atoms: C8_10  and  O1_11 
REMARK    9  A    between atoms: C15_20  and  C16_21 
REMARK   10  A    between atoms: C17_22  and  C18_23 
REMARK   11  A    between atoms: C18_23  and  N3_24 
ROOT
HETATM    1  C1  UNL     1      -2.407   5.122   0.002  1.00  0.00     0.112 C 
HETATM    2  C2  UNL     1      -1.733   3.934  -0.520  1.00  0.00    -0.109 C 
HETATM    3  C3  UNL     1      -1.183   2.927  -0.955  1.00  0.00    -0.077 C 
ENDROOT
BRANCH   3   4
HETATM    4  C4  UNL     1      -0.535   1.738  -1.501  1.00  0.00     0.358 C 
BRANCH   4   5
HETATM    5  N1  UNL     1      -0.164   0.846  -0.435  1.00  0.00     0.025 N 
HETATM    6  C13 UNL     1       0.049   1.461   0.833  1.00  0.00     0.273 C 
HETATM    7  C14 UNL     1       1.452   2.020   0.657  1.00  0.00     0.098 C 
HETATM    8  C15 UNL     1       2.029   0.913  -0.188  1.00  0.00     0.087 C 
HETATM    9  N4  UNL     1       1.075   0.302  -0.765  1.00  0.00    -0.212 N 
ATOM     10  H4  UNL     1       1.202  -0.491  -1.394  1.00  0.00     0.194 HD
BRANCH   5  11
HETATM   11  C5  UNL     1      -1.068  -0.287  -0.321  1.00  0.00     0.294 C 
BRANCH  11  12
HETATM   12  C6  UNL     1      -2.459   0.200  -0.153  1.00  0.00     0.268 C 
BRANCH  12  13
HETATM   13  N2  UNL     1      -3.425  -0.899  -0.029  1.00  0.00    -0.059 N 
HETATM   14  C9  UNL     1      -4.710  -0.344  -0.449  1.00  0.00     0.263 C 
HETATM   15  C10 UNL     1      -5.156   0.735   0.519  1.00  0.00     0.195 C 
HETATM   16  O2  UNL     1      -5.374   0.073   1.750  1.00  0.00    -0.388 OA
HETATM   17  C11 UNL     1      -4.141  -0.312   2.214  1.00  0.00     0.195 C 
HETATM   18  C12 UNL     1      -3.427  -1.299   1.343  1.00  0.00     0.263 C 
BRANCH  13  19
HETATM   19  C7  UNL     1      -3.070  -1.914  -0.960  1.00  0.00     0.263 C 
BRANCH  19  20
HETATM   20  C8  UNL     1      -4.216  -2.792  -1.396  1.00  0.00     0.192 C 
BRANCH  20  21
HETATM   21  O1  UNL     1      -4.825  -3.473  -0.379  1.00  0.00    -0.399 OA
ATOM     22  H1  UNL     1      -5.547  -4.026  -0.654  1.00  0.00     0.209 HD
ENDBRANCH  20  21
ENDBRANCH  19  20
ENDBRANCH  13  19
ENDBRANCH  12  13
ENDBRANCH  11  12
ENDBRANCH   5  11
BRANCH   8  23
HETATM   23  C16 UNL     1       3.439   0.609  -0.311  1.00  0.00    -0.050 C 
HETATM   24  C17 UNL     1       4.616   0.343  -0.431  1.00  0.00    -0.072 C 
BRANCH  24  25
HETATM   25  C18 UNL     1       6.029   0.008  -0.597  1.00  0.00     0.329 C 
BRANCH  25  26
HETATM   26  N3  UNL     1       6.283  -1.250   0.050  1.00  0.00    -0.069 N 
HETATM   27  C19 UNL     1       6.071  -1.091   1.465  1.00  0.00     0.272 C 
HETATM   28  C20 UNL     1       5.399  -2.260  -0.497  1.00  0.00     0.272 C 
HETATM   29  C21 UNL     1       7.646  -1.706  -0.225  1.00  0.00     0.272 C 
ENDBRANCH  25  26
ENDBRANCH  24  25
ENDBRANCH   8  23
ENDBRANCH   4   5
ENDBRANCH   3   4
TORSDOF 11
