REMARK  6 active torsions:
REMARK  status: ('A' for Active; 'I' for Inactive)
REMARK    1  A    between atoms: C3_3  and  C4_4 
REMARK    2  A    between atoms: C4_4  and  C5_5 
REMARK    3  A    between atoms: C5_5  and  N1_6 
REMARK    4  A    between atoms: N3_10  and  C8_11 
REMARK    5  A    between atoms: C8_11  and  C9_12 
REMARK    6  A    between atoms: C9_12  and  N4_13 
ROOT
HETATM    1  N1  UNL     1       2.823  -0.525   0.678  1.00  0.00    -0.062 N 
HETATM    2  C6  UNL     1       2.560   0.777   1.277  1.00  0.00     0.255 C 
HETATM    3  C7  UNL     1       1.184   1.313   0.927  1.00  0.00     0.170 C 
HETATM    4  N2  UNL     1       0.902   1.246  -0.467  1.00  0.00    -0.045 NA
HETATM    5  N3  UNL     1       0.643  -0.048  -0.945  1.00  0.00     0.015 N 
HETATM    6  C18 UNL     1       1.912  -0.425  -1.618  1.00  0.00     0.288 C 
HETATM    7  C19 UNL     1       3.087  -0.327  -0.710  1.00  0.00     0.267 C 
HETATM    8  C20 UNL     1       0.437  -0.989   0.107  1.00  0.00     0.288 C 
HETATM    9  C21 UNL     1       1.646  -1.386   0.863  1.00  0.00     0.267 C 
ENDROOT
BRANCH   5  10
HETATM   10  C8  UNL     1      -0.337   0.037  -1.955  1.00  0.00     0.290 C 
BRANCH  10  11
HETATM   11  C9  UNL     1      -1.405  -0.978  -2.038  1.00  0.00     0.302 C 
BRANCH  11  12
HETATM   12  N4  UNL     1      -2.257  -1.022  -0.876  1.00  0.00     0.091 N 
HETATM   13  C10 UNL     1      -3.287  -2.017  -0.972  1.00  0.00     0.287 C 
HETATM   14  C11 UNL     1      -4.203  -1.623   0.194  1.00  0.00     0.114 C 
HETATM   15  C12 UNL     1      -5.584  -1.611  -0.331  1.00  0.00     0.224 C 
HETATM   16  C16 UNL     1      -3.897  -0.179   0.491  1.00  0.00     0.056 C 
HETATM   17  O1  UNL     1      -6.162  -2.665  -0.747  1.00  0.00    -0.273 OA
HETATM   18  N5  UNL     1      -6.119  -0.307  -0.293  1.00  0.00    -0.352 N 
HETATM   19  C13 UNL     1      -5.221   0.513   0.469  1.00  0.00     0.032 C 
ATOM     20  H5  UNL     1      -6.989  -0.001  -0.729  1.00  0.00     0.163 HD
HETATM   21  C14 UNL     1      -5.744   0.543   1.899  1.00  0.00     0.038 C 
HETATM   22  C15 UNL     1      -5.086   1.908  -0.095  1.00  0.00     0.038 C 
HETATM   23  C17 UNL     1      -3.027   0.196  -0.716  1.00  0.00     0.280 C 
ENDBRANCH  11  12
ENDBRANCH  10  11
ENDBRANCH   5  10
BRANCH   1  24
HETATM   24  C5  UNL     1       3.852  -1.165   1.433  1.00  0.00     0.241 C 
BRANCH  24  25
HETATM   25  C4  UNL     1       5.274  -0.887   1.207  1.00  0.00     0.054 C 
BRANCH  25  26
HETATM   26  C3  UNL     1       5.676   0.489   1.433  1.00  0.00    -0.029 C 
HETATM   27  C2  UNL     1       6.289   1.270   0.592  1.00  0.00    -0.035 C 
HETATM   28  C1  UNL     1       6.698   0.877  -0.779  1.00  0.00     0.036 C 
ENDBRANCH  25  26
ENDBRANCH  24  25
ENDBRANCH   1  24
TORSDOF 6
