REMARK  6 active torsions:
REMARK  status: ('A' for Active; 'I' for Inactive)
REMARK    1  A    between atoms: C2_2  and  O1_3 
REMARK    2  A    between atoms: O1_3  and  C3_4 
REMARK    3  A    between atoms: C3_4  and  C4_5 
REMARK    4  A    between atoms: C4_5  and  N1_6 
REMARK    5  A    between atoms: N2_9  and  C7_10 
REMARK    6  A    between atoms: C7_10  and  C8_11 
REMARK       I    between atoms: C8_11  and  N3_13 
ROOT
HETATM    1  N1  UNL     1      -1.618  -0.060   0.097  1.00  0.00    -0.061 N 
HETATM    2  C5  UNL     1      -1.224   0.966   1.053  1.00  0.00     0.265 C 
HETATM    3  C6  UNL     1       0.259   0.788   1.293  1.00  0.00     0.266 C 
HETATM    4  N2  UNL     1       0.999   0.488   0.116  1.00  0.00    -0.055 N 
HETATM    5  C10 UNL     1       0.294   0.916  -1.107  1.00  0.00     0.266 C 
HETATM    6  C11 UNL     1      -1.094   0.381  -1.174  1.00  0.00     0.265 C 
HETATM    7  C12 UNL     1       1.292  -0.886  -0.095  1.00  0.00     0.249 C 
HETATM    8  C13 UNL     1       0.156  -1.834   0.056  1.00  0.00     0.009 C 
HETATM    9  C14 UNL     1      -0.142  -2.614  -1.210  1.00  0.00     0.013 C 
HETATM   10  C15 UNL     1       0.300  -4.024  -1.000  1.00  0.00     0.005 C 
HETATM   11  C16 UNL     1       0.255  -4.225   0.498  1.00  0.00    -0.018 C 
HETATM   12  C17 UNL     1       1.282  -5.293   0.819  1.00  0.00     0.010 C 
HETATM   13  C18 UNL     1       0.626  -2.889   1.076  1.00  0.00     0.017 C 
HETATM   14  C19 UNL     1      -1.121  -1.305   0.571  1.00  0.00     0.248 C 
ENDROOT
BRANCH   4  15
HETATM   15  C7  UNL     1       2.243   1.242   0.083  1.00  0.00     0.340 C 
BRANCH  15  16
HETATM   16  C8  UNL     1       3.065   1.121   1.276  1.00  0.00     0.249 C 
HETATM   17  O2  UNL     1       2.777   0.429   2.290  1.00  0.00    -0.271 OA
HETATM   18  N3  UNL     1       4.287   1.809   1.353  1.00  0.00    -0.302 N 
HETATM   19  C9  UNL     1       4.885   2.510   0.510  1.00  0.00     0.203 C 
ATOM     20  H3  UNL     1       4.767   1.721   2.249  1.00  0.00     0.171 HD
HETATM   21  N4  UNL     1       4.416   2.776  -0.799  1.00  0.00    -0.066 NA
HETATM   22  N5  UNL     1       6.151   3.116   0.851  1.00  0.00    -0.066 NA
ENDBRANCH  15  16
ENDBRANCH   4  15
BRANCH   1  23
HETATM   23  C4  UNL     1      -3.037  -0.181  -0.070  1.00  0.00     0.263 C 
BRANCH  23  24
HETATM   24  C3  UNL     1      -3.849   1.040  -0.092  1.00  0.00     0.195 C 
BRANCH  24  25
HETATM   25  O1  UNL     1      -3.799   1.825   1.048  1.00  0.00    -0.390 OA
BRANCH  25  26
HETATM   26  C2  UNL     1      -4.578   2.952   0.968  1.00  0.00     0.163 C 
HETATM   27  C1  UNL     1      -4.210   3.879  -0.151  1.00  0.00     0.033 C 
ENDBRANCH  25  26
ENDBRANCH  24  25
ENDBRANCH  23  24
ENDBRANCH   1  23
TORSDOF 6
