REMARK  8 active torsions:
REMARK  status: ('A' for Active; 'I' for Inactive)
REMARK    1  A    between atoms: C4_6  and  C5_7 
REMARK    2  A    between atoms: C5_7  and  C6_8 
REMARK    3  A    between atoms: C6_8  and  C7_9 
REMARK    4  A    between atoms: C7_9  and  C8_10 
REMARK    5  A    between atoms: C8_10  and  C9_11 
REMARK    6  A    between atoms: N3_15  and  C11_16 
REMARK    7  A    between atoms: C16_21  and  C17_22 
REMARK    8  A    between atoms: N5_27  and  O1_28 
ROOT
HETATM    1  C1  UNL     1      -1.017   1.252  -3.546  1.00  0.00     0.065 C 
HETATM    2  C2  UNL     1      -0.308   0.726  -2.561  1.00  0.00     0.119 A 
HETATM    3  N1  UNL     1       0.993   0.168  -2.705  1.00  0.00    -0.327 N 
ATOM      4  H1  UNL     1       1.520   0.113  -3.577  1.00  0.00     0.169 HD
HETATM    5  C3  UNL     1       1.440  -0.300  -1.441  1.00  0.00     0.117 A 
HETATM    6  C4  UNL     1       2.617  -0.889  -1.172  1.00  0.00     0.023 C 
HETATM    7  N2  UNL     1       0.391  -0.015  -0.538  1.00  0.00    -0.277 N 
ATOM      8  H2  UNL     1       0.418  -0.236   0.457  1.00  0.00     0.189 HD
HETATM    9  N3  UNL     1      -0.682   0.603  -1.171  1.00  0.00    -0.241 N 
ENDROOT
BRANCH   9  10
HETATM   10  C11 UNL     1      -1.919   1.098  -0.652  1.00  0.00     0.071 A 
HETATM   11  C12 UNL     1      -3.002   0.474  -0.255  1.00  0.00     0.043 A 
HETATM   12  C13 UNL     1      -3.281  -0.870  -0.216  1.00  0.00    -0.044 A 
HETATM   13  C20 UNL     1      -3.988   1.374   0.184  1.00  0.00     0.146 A 
HETATM   14  C14 UNL     1      -2.261  -1.873  -0.669  1.00  0.00     0.049 C 
HETATM   15  C15 UNL     1      -4.490  -1.276   0.241  1.00  0.00     0.037 A 
HETATM   16  C16 UNL     1      -5.487  -0.375   0.684  1.00  0.00     0.036 A 
HETATM   17  N4  UNL     1      -5.210   0.930   0.644  1.00  0.00    -0.317 N 
HETATM   18  C19 UNL     1      -6.051   1.818   1.030  1.00  0.00     0.130 C 
HETATM   19  N5  UNL     1      -3.526   2.560   0.065  1.00  0.00    -0.237 N 
HETATM   20  C21 UNL     1      -2.185   2.565  -0.463  1.00  0.00     0.218 A 
BRANCH  16  21
HETATM   21  C17 UNL     1      -6.588  -0.931   1.089  1.00  0.00    -0.001 C 
HETATM   22  C18 UNL     1      -7.870  -0.491   1.619  1.00  0.00     0.038 C 
ENDBRANCH  16  21
BRANCH  19  23
HETATM   23  O1  UNL     1      -4.105   3.789   0.360  1.00  0.00    -0.285 OA
ATOM     24  H1  UNL     1      -3.762   4.670   0.272  1.00  0.00     0.245 HD
ENDBRANCH  19  23
ENDBRANCH   9  10
BRANCH   6  25
HETATM   25  C5  UNL     1       2.984  -1.337   0.172  1.00  0.00     0.031 C 
BRANCH  25  26
HETATM   26  C6  UNL     1       4.223  -0.610   0.623  1.00  0.00     0.004 C 
BRANCH  26  27
HETATM   27  C7  UNL     1       5.356  -0.893  -0.309  1.00  0.00     0.000 C 
BRANCH  27  28
HETATM   28  C8  UNL     1       6.633  -0.182   0.111  1.00  0.00    -0.000 C 
BRANCH  28  29
HETATM   29  C9  UNL     1       7.095  -0.596   1.488  1.00  0.00    -0.005 C 
HETATM   30  C10 UNL     1       8.378   0.196   1.765  1.00  0.00     0.005 C 
ENDBRANCH  28  29
ENDBRANCH  27  28
ENDBRANCH  26  27
ENDBRANCH  25  26
ENDBRANCH   6  25
TORSDOF 8
