REMARK  0 active torsions:
REMARK  status: ('A' for Active; 'I' for Inactive)
ROOT
HETATM    1  N1  UNL     1       4.374   0.903  -0.373  1.00  0.00    -0.075 NA
HETATM    2  C1  UNL     1       3.057   0.622   0.120  1.00  0.00     0.156 C 
HETATM    3  N2  UNL     1       2.343  -0.407  -0.048  1.00  0.00    -0.362 N 
ATOM      4  H2  UNL     1       2.697  -1.185  -0.605  1.00  0.00     0.162 HD
HETATM    5  C2  UNL     1       1.055  -0.486   0.532  1.00  0.00     0.140 C 
HETATM    6  C3  UNL     1       0.172  -1.269  -0.418  1.00  0.00     0.032 C 
HETATM    7  C4  UNL     1      -1.208  -1.481   0.109  1.00  0.00     0.002 C 
HETATM    8  C5  UNL     1      -2.188  -0.795  -0.815  1.00  0.00     0.002 C 
HETATM    9  C6  UNL     1      -2.197   0.687  -0.680  1.00  0.00     0.020 C 
HETATM   10  C7  UNL     1      -1.918   1.188   0.709  1.00  0.00     0.120 C 
HETATM   11  N3  UNL     1      -0.541   1.525   0.890  1.00  0.00    -0.386 N 
ATOM     12  H3  UNL     1      -0.391   2.504   1.133  1.00  0.00     0.159 HD
HETATM   13  C8  UNL     1       0.518   0.862   0.811  1.00  0.00     0.072 C 
HETATM   14  S1  UNL     1       2.082   1.743   1.133  1.00  0.00    -0.042 SA
ENDROOT
TORSDOF 0
