REMARK  2 active torsions:
REMARK  status: ('A' for Active; 'I' for Inactive)
REMARK    1  A    between atoms: S1_2  and  C2_3 
REMARK    2  A    between atoms: C3_6  and  N2_7 
ROOT
HETATM    1  C2  UNL     1       1.737   0.376  -0.646  1.00  0.00     0.105 C 
HETATM    2  N1  UNL     1       0.877   0.950  -1.321  1.00  0.00    -0.350 N 
ATOM      3  H1  UNL     1       1.161   1.567  -2.081  1.00  0.00     0.162 HD
HETATM    4  C3  UNL     1      -0.457   0.766  -1.059  1.00  0.00     0.301 C 
HETATM    5  C4  UNL     1      -0.755   0.035   0.190  1.00  0.00     0.060 C 
HETATM    6  C5  UNL     1      -1.835  -0.973   0.199  1.00  0.00     0.025 C 
HETATM    7  C6  UNL     1      -2.626  -0.059   1.143  1.00  0.00     0.003 C 
HETATM    8  C7  UNL     1      -1.379   0.813   1.314  1.00  0.00     0.025 C 
HETATM    9  S2  UNL     1       0.918  -0.618   0.592  1.00  0.00    -0.091 SA
ENDROOT
BRANCH   4  10
HETATM   10  N2  UNL     1      -1.099   0.188  -2.235  1.00  0.00    -0.057 N 
ATOM     11  H23 UNL     1      -0.942   0.744  -3.075  1.00  0.00     0.276 HD
ATOM     12  H22 UNL     1      -0.642  -0.670  -2.544  1.00  0.00     0.276 HD
ATOM     13  H21 UNL     1      -2.091   0.051  -2.040  1.00  0.00     0.276 HD
ENDBRANCH   4  10
BRANCH   1  14
HETATM   14  S1  UNL     1       3.489   0.506  -0.856  1.00  0.00    -0.110 SA
HETATM   15  C1  UNL     1       4.299  -0.524   0.380  1.00  0.00     0.097 C 
ENDBRANCH   1  14
TORSDOF 2
