REMARK  0 active torsions:
REMARK  status: ('A' for Active; 'I' for Inactive)
ROOT
HETATM    1  N1  UNL     1       3.744  -0.469  -0.461  1.00  0.00    -0.075 NA
HETATM    2  C1  UNL     1       2.411  -0.165  -0.095  1.00  0.00     0.150 C 
HETATM    3  N2  UNL     1       1.304  -0.536  -0.567  1.00  0.00    -0.363 N 
ATOM      4  H2  UNL     1       1.281  -1.176  -1.361  1.00  0.00     0.162 HD
HETATM    5  C2  UNL     1       0.088  -0.071  -0.003  1.00  0.00     0.042 C 
HETATM    6  C3  UNL     1      -0.337   1.122  -0.794  1.00  0.00     0.042 C 
HETATM    7  C4  UNL     1      -1.782   1.385  -0.883  1.00  0.00     0.076 C 
HETATM    8  S1  UNL     1      -2.691   0.733   0.537  1.00  0.00    -0.169 SA
HETATM    9  C5  UNL     1      -2.159  -1.018   0.638  1.00  0.00     0.076 C 
HETATM   10  C6  UNL     1      -0.868  -1.235  -0.075  1.00  0.00     0.042 C 
HETATM   11  C7  UNL     1       0.285   0.253   1.465  1.00  0.00     0.113 C 
HETATM   12  S2  UNL     1       2.005   0.916   1.285  1.00  0.00    -0.095 SA
ENDROOT
TORSDOF 0
