REMARK  0 active torsions:
REMARK  status: ('A' for Active; 'I' for Inactive)
ROOT
HETATM    1  S1  UNL     1      -1.073   3.071  -1.205  1.00  0.00    -0.064 SA
HETATM    2  C1  UNL     1      -0.306   2.065  -0.167  1.00  0.00     0.098 C 
HETATM    3  C2  UNL     1      -1.187   1.256   0.749  1.00  0.00     0.071 C 
HETATM    4  C3  UNL     1      -2.259   0.582   0.006  1.00  0.00     0.007 C 
HETATM    5  C4  UNL     1      -2.054  -0.817  -0.409  1.00  0.00     0.002 C 
HETATM    6  C5  UNL     1      -1.129  -1.643   0.407  1.00  0.00     0.026 C 
HETATM    7  C6  UNL     1       0.207  -1.794  -0.280  1.00  0.00     0.167 C 
HETATM    8  O1  UNL     1       1.278  -1.492   0.557  1.00  0.00    -0.389 OA
HETATM    9  C7  UNL     1       2.246  -0.816  -0.179  1.00  0.00     0.196 C 
HETATM   10  C8  UNL     1       2.708   0.453   0.470  1.00  0.00     0.227 C 
HETATM   11  O2  UNL     1       1.683   1.290   0.864  1.00  0.00    -0.277 OA
HETATM   12  N1  UNL     1       1.110   1.960  -0.131  1.00  0.00    -0.260 N 
ATOM     13  H1  UNL     1       1.679   2.393  -0.858  1.00  0.00     0.195 HD
ENDROOT
TORSDOF 0
