REMARK  10 active torsions:
REMARK  status: ('A' for Active; 'I' for Inactive)
REMARK    1  A    between atoms: C4_4  and  C5_5 
REMARK    2  A    between atoms: C5_5  and  C6_6 
REMARK    3  A    between atoms: C6_6  and  N1_7 
REMARK    4  A    between atoms: C7_8  and  C8_9 
REMARK    5  A    between atoms: C8_9  and  C9_10 
REMARK    6  A    between atoms: C10_11  and  N2_12 
REMARK    7  A    between atoms: N2_12  and  N3_14 
REMARK    8  A    between atoms: C13_21  and  C14_22 
REMARK    9  A    between atoms: C14_22  and  C15_23 
REMARK   10  A    between atoms: C15_23  and  O1_24 
ROOT
HETATM    1  C9  UNL     1      -1.535   1.912   0.535  1.00  0.00     0.022 A 
HETATM    2  C10 UNL     1      -2.250   2.745   1.426  1.00  0.00     0.075 A 
HETATM    3  C11 UNL     1      -3.396   2.105   1.804  1.00  0.00     0.120 A 
HETATM    4  N4  UNL     1      -3.443   0.921   1.206  1.00  0.00    -0.363 N 
ATOM      5  H4  UNL     1      -4.186   0.228   1.302  1.00  0.00     0.165 HD
HETATM    6  C12 UNL     1      -2.312   0.794   0.433  1.00  0.00     0.041 A 
HETATM    7  C13 UNL     1      -2.035  -0.316  -0.250  1.00  0.00     0.006 C 
ENDROOT
BRANCH   1   8
HETATM    8  C8  UNL     1      -0.410   2.256  -0.021  1.00  0.00     0.047 C 
BRANCH   8   9
HETATM    9  C7  UNL     1       0.475   1.602  -0.937  1.00  0.00     0.053 A 
HETATM   10  N1  UNL     1       1.671   0.997  -0.624  1.00  0.00    -0.326 N 
HETATM   11  C18 UNL     1       2.186   0.601  -1.791  1.00  0.00     0.158 A 
HETATM   12  N5  UNL     1       1.372   0.923  -2.839  1.00  0.00    -0.339 N 
HETATM   13 BR1  UNL     1       3.857  -0.236  -2.114  1.00  0.00    -0.010 Br
HETATM   14  C16 UNL     1       0.322   1.539  -2.299  1.00  0.00     0.122 A 
HETATM   15  C17 UNL     1       1.596   0.653  -4.255  1.00  0.00     0.158 C 
BRANCH  10  16
HETATM   16  C6  UNL     1       2.169   0.927   0.728  1.00  0.00     0.136 C 
BRANCH  16  17
HETATM   17  C5  UNL     1       1.735  -0.170   1.588  1.00  0.00     0.060 C 
BRANCH  17  18
HETATM   18  C4  UNL     1       2.164  -1.506   1.152  1.00  0.00    -0.046 A 
HETATM   19  C2  UNL     1       3.209  -2.527   0.905  1.00  0.00    -0.039 A 
HETATM   20  C1  UNL     1       4.506  -2.786   0.959  1.00  0.00     0.024 C 
HETATM   21  C3  UNL     1       1.842  -2.753   0.669  1.00  0.00     0.019 A 
ENDBRANCH  17  18
ENDBRANCH  16  17
ENDBRANCH  10  16
ENDBRANCH   8   9
ENDBRANCH   1   8
BRANCH   2  22
HETATM   22  N2  UNL     1      -1.803   4.035   1.832  1.00  0.00    -0.305 N 
ATOM     23  H2  UNL     1      -2.259   4.867   1.457  1.00  0.00     0.186 HD
BRANCH  22  24
HETATM   24  N3  UNL     1      -0.838   4.163   2.660  1.00  0.00    -0.345 N 
ATOM     25  H32 UNL     1      -0.393   3.321   3.025  1.00  0.00     0.176 HD
ATOM     26  H31 UNL     1      -0.518   5.087   2.951  1.00  0.00     0.176 HD
ENDBRANCH  22  24
ENDBRANCH   2  22
BRANCH   7  27
HETATM   27  C14 UNL     1      -3.025  -1.417  -0.235  1.00  0.00     0.055 C 
BRANCH  27  28
HETATM   28  C15 UNL     1      -2.923  -2.320   0.963  1.00  0.00     0.168 C 
BRANCH  28  29
HETATM   29  O1  UNL     1      -1.712  -2.960   1.082  1.00  0.00    -0.401 OA
ATOM     30  H1  UNL     1      -1.648  -3.531   1.839  1.00  0.00     0.209 HD
ENDBRANCH  28  29
ENDBRANCH  27  28
ENDBRANCH   7  27
TORSDOF 10
