REMARK  2 active torsions:
REMARK  status: ('A' for Active; 'I' for Inactive)
REMARK    1  A    between atoms: O1_1  and  C1_3 
REMARK    2  A    between atoms: C1_3  and  O2_4 
ROOT
HETATM    1  C1  UNL     1       3.230  -1.184   0.033  1.00  0.00     0.164 C 
HETATM    2  C2  UNL     1       4.023   0.063  -0.137  1.00  0.00     0.068 C 
HETATM    3  C3  UNL     1       3.407   1.282   0.479  1.00  0.00     0.006 C 
HETATM    4  C4  UNL     1       2.251   1.831  -0.288  1.00  0.00     0.006 C 
HETATM    5  C5  UNL     1       1.427   0.779  -0.985  1.00  0.00     0.074 C 
HETATM    6  C6  UNL     1       0.892  -0.266  -0.054  1.00  0.00     0.234 C 
HETATM    7  C7  UNL     1       1.921  -1.002   0.718  1.00  0.00     0.142 C 
HETATM    8  O3  UNL     1       0.062   0.403   0.876  1.00  0.00    -0.194 OA
HETATM    9  O4  UNL     1      -1.081   0.738   0.372  1.00  0.00    -0.195 OA
HETATM   10  C8  UNL     1      -1.823  -0.353  -0.100  1.00  0.00     0.229 C 
HETATM   11  C9  UNL     1      -2.856  -0.687   0.959  1.00  0.00     0.074 C 
HETATM   12  C10 UNL     1      -4.257  -0.721   0.401  1.00  0.00     0.006 C 
HETATM   13  C11 UNL     1      -4.630   0.528  -0.342  1.00  0.00     0.000 C 
HETATM   14  C12 UNL     1      -3.465   1.198  -1.006  1.00  0.00     0.006 C 
HETATM   15  C13 UNL     1      -2.476   0.106  -1.391  1.00  0.00     0.074 C 
HETATM   16  O5  UNL     1      -1.006  -1.455  -0.298  1.00  0.00    -0.195 OA
HETATM   17  O6  UNL     1       0.145  -1.165  -0.815  1.00  0.00    -0.194 OA
ENDROOT
BRANCH   1  18
HETATM   18  O1  UNL     1       2.963  -1.777  -1.223  1.00  0.00    -0.365 OA
ATOM     19  H1  UNL     1       2.489  -1.108  -1.702  1.00  0.00     0.213 HD
ENDBRANCH   1  18
BRANCH   1  20
HETATM   20  O2  UNL     1       3.936  -2.181   0.747  1.00  0.00    -0.365 OA
ATOM     21  H2  UNL     1       4.115  -1.783   1.591  1.00  0.00     0.213 HD
ENDBRANCH   1  20
TORSDOF 2
