REMARK  0 active torsions:
REMARK  status: ('A' for Active; 'I' for Inactive)
ROOT
HETATM    1  N1  UNL     1       2.470   3.727   0.409  1.00  0.00    -0.374 N 
ATOM      2  H11 UNL     1       1.920   4.565   0.221  1.00  0.00     0.158 HD
ATOM      3  H12 UNL     1       3.394   3.784   0.838  1.00  0.00     0.158 HD
HETATM    4  C1  UNL     1       2.032   2.558   0.116  1.00  0.00     0.175 C 
HETATM    5  O1  UNL     1       2.790   1.404   0.375  1.00  0.00    -0.331 OA
HETATM    6  C2  UNL     1       2.456   0.268  -0.389  1.00  0.00     0.178 C 
HETATM    7  C3  UNL     1       3.222  -0.953  -0.011  1.00  0.00     0.037 C 
HETATM    8  C4  UNL     1       2.647  -2.120  -0.810  1.00  0.00     0.076 C 
HETATM    9  S1  UNL     1       1.908  -3.367   0.245  1.00  0.00    -0.169 SA
HETATM   10  C5  UNL     1       0.447  -2.799   1.103  1.00  0.00     0.075 C 
HETATM   11  C6  UNL     1      -0.764  -2.670   0.241  1.00  0.00     0.037 C 
HETATM   12  C7  UNL     1      -1.493  -1.393   0.644  1.00  0.00     0.233 C 
HETATM   13  N2  UNL     1      -2.609  -1.123  -0.220  1.00  0.00    -0.075 N 
ATOM     14  H21 UNL     1      -3.494  -1.338   0.239  1.00  0.00     0.277 HD
ATOM     15  H22 UNL     1      -2.658  -1.796  -0.985  1.00  0.00     0.277 HD
HETATM   16  C8  UNL     1      -2.589   0.239  -0.716  1.00  0.00     0.232 C 
HETATM   17  C9  UNL     1      -2.844   1.217   0.397  1.00  0.00     0.028 C 
HETATM   18  C10 UNL     1      -2.227   2.583   0.114  1.00  0.00     0.012 C 
HETATM   19  C11 UNL     1      -0.823   2.620   0.696  1.00  0.00     0.083 C 
HETATM   20  S2  UNL     1       0.408   2.457  -0.638  1.00  0.00    -0.087 SA
ENDROOT
TORSDOF 0
