REMARK  1 active torsions:
REMARK  status: ('A' for Active; 'I' for Inactive)
REMARK    1  A    between atoms: N3_17  and  O1_19 
ROOT
HETATM    1  C1  UNL     1       3.319   1.132   0.842  1.00  0.00     0.030 C 
HETATM    2  C2  UNL     1       2.146   1.118  -0.108  1.00  0.00     0.120 C 
HETATM    3  S1  UNL     1       2.511  -0.049  -1.444  1.00  0.00    -0.104 SA
HETATM    4  C3  UNL     1       1.723  -1.582  -0.978  1.00  0.00     0.060 C 
HETATM    5  N1  UNL     1       2.238  -2.707  -1.303  1.00  0.00    -0.396 N 
ATOM      6  H11 UNL     1       1.788  -3.583  -1.037  1.00  0.00     0.156 HD
ATOM      7  H12 UNL     1       3.109  -2.684  -1.834  1.00  0.00     0.156 HD
HETATM    8  C4  UNL     1       0.436  -1.616  -0.193  1.00  0.00     0.170 C 
HETATM    9  C5  UNL     1       0.633  -2.326   1.041  1.00  0.00     0.072 C 
HETATM   10  N2  UNL     1       0.812  -2.900   2.021  1.00  0.00    -0.196 NA
HETATM   11  C6  UNL     1      -0.115  -0.211  -0.030  1.00  0.00     0.084 C 
HETATM   12  C7  UNL     1      -0.455   0.279  -1.422  1.00  0.00     0.025 C 
HETATM   13  C8  UNL     1      -1.885   0.492  -1.720  1.00  0.00     0.002 C 
HETATM   14  C9  UNL     1      -2.773   0.968  -0.647  1.00  0.00     0.006 C 
HETATM   15  C10 UNL     1      -2.132   1.057   0.717  1.00  0.00     0.056 C 
HETATM   16  C11 UNL     1      -1.289  -0.144   0.847  1.00  0.00     0.027 C 
HETATM   17  N3  UNL     1      -1.649  -1.003   1.694  1.00  0.00    -0.276 N 
ATOM     18  H3  UNL     1      -1.071  -1.838   1.789  1.00  0.00     0.193 HD
HETATM   19  C12 UNL     1       0.922   0.680   0.575  1.00  0.00     0.156 C 
HETATM   20  O2  UNL     1       0.751   1.076   1.712  1.00  0.00    -0.295 OA
ENDROOT
BRANCH  17  21
HETATM   21  O1  UNL     1      -2.739  -0.909   2.487  1.00  0.00    -0.290 OA
ATOM     22  H1  UNL     1      -3.011  -1.557   3.126  1.00  0.00     0.244 HD
ENDBRANCH  17  21
TORSDOF 1
