REMARK  7 active torsions:
REMARK  status: ('A' for Active; 'I' for Inactive)
REMARK       I    between atoms: C2_2  and  N1_4 
REMARK    1  A    between atoms: N1_4  and  C3_5 
REMARK       I    between atoms: N1_4  and  C12_16 
REMARK    2  A    between atoms: C3_5  and  C4_6 
REMARK    3  A    between atoms: C4_6  and  N2_7 
REMARK    4  A    between atoms: N2_7  and  C7_10 
REMARK    5  A    between atoms: C7_10  and  C8_11 
REMARK    6  A    between atoms: C8_11  and  N3_12 
REMARK       I    between atoms: C12_16  and  N4_18 
REMARK    7  A    between atoms: N4_18  and  C13_20 
ROOT
HETATM    1  C1  UNL     1       1.008   3.586   1.787  1.00  0.00     0.117 C 
HETATM    2  C2  UNL     1       2.256   2.795   1.843  1.00  0.00     0.223 C 
HETATM    3  O1  UNL     1       3.062   3.025   2.766  1.00  0.00    -0.273 OA
HETATM    4  N1  UNL     1       2.556   1.795   0.891  1.00  0.00    -0.268 N 
HETATM    5  C12 UNL     1       3.771   1.081   1.008  1.00  0.00     0.343 C 
HETATM    6  O2  UNL     1       4.547   1.357   1.951  1.00  0.00    -0.246 OA
HETATM    7  N4  UNL     1       4.152   0.060   0.099  1.00  0.00    -0.141 N 
ATOM      8  H4  UNL     1       4.191   0.275  -0.897  1.00  0.00     0.189 HD
ENDROOT
BRANCH   4   9
HETATM    9  C3  UNL     1       1.610   1.509  -0.204  1.00  0.00     0.164 C 
BRANCH   9  10
HETATM   10  C4  UNL     1       0.637   0.455   0.176  1.00  0.00     0.257 C 
BRANCH  10  11
HETATM   11  N2  UNL     1      -0.322   0.107  -0.819  1.00  0.00    -0.072 N 
HETATM   12  C5  UNL     1       0.182  -0.834  -1.801  1.00  0.00     0.272 C 
HETATM   13  C6  UNL     1      -0.677   1.306  -1.561  1.00  0.00     0.272 C 
BRANCH  11  14
HETATM   14  C7  UNL     1      -1.545  -0.402  -0.225  1.00  0.00     0.264 C 
BRANCH  14  15
HETATM   15  C8  UNL     1      -2.759   0.007  -0.987  1.00  0.00     0.264 C 
BRANCH  15  16
HETATM   16  N3  UNL     1      -3.988  -0.494  -0.406  1.00  0.00    -0.077 N 
HETATM   17  C9  UNL     1      -5.002  -0.447  -1.445  1.00  0.00     0.271 C 
HETATM   18  C10 UNL     1      -3.868  -1.884  -0.001  1.00  0.00     0.271 C 
HETATM   19  C11 UNL     1      -4.454   0.289   0.704  1.00  0.00     0.271 C 
ENDBRANCH  15  16
ENDBRANCH  14  15
ENDBRANCH  11  14
ENDBRANCH  10  11
ENDBRANCH   9  10
ENDBRANCH   4   9
BRANCH   7  20
HETATM   20  C13 UNL     1       4.453  -1.140   0.495  1.00  0.00     0.687 A 
HETATM   21  N5  UNL     1       4.463  -1.615   1.759  1.00  0.00    -0.199 N 
HETATM   22  C14 UNL     1       4.828  -2.912   1.768  1.00  0.00     0.144 A 
ATOM     23  H5  UNL     1       4.228  -1.070   2.588  1.00  0.00     0.183 HD
HETATM   24  C15 UNL     1       5.055  -3.261   0.467  1.00  0.00     0.112 A 
HETATM   25 BR1  UNL     1       5.604  -5.012  -0.080  1.00  0.00    -0.029 Br
HETATM   26  N6  UNL     1       4.822  -2.175  -0.281  1.00  0.00    -0.183 N 
ATOM     27  H6  UNL     1       4.912  -2.138  -1.296  1.00  0.00     0.185 HD
ENDBRANCH   7  20
TORSDOF 7
