REMARK  7 active torsions:
REMARK  status: ('A' for Active; 'I' for Inactive)
REMARK    1  A    between atoms: C4_9  and  C5_10 
REMARK    2  A    between atoms: C5_10  and  S1_11 
REMARK    3  A    between atoms: S1_11  and  C6_12 
REMARK    4  A    between atoms: S1_11  and  C10_18 
REMARK    5  A    between atoms: C6_12  and  C7_13 
REMARK    6  A    between atoms: C7_13  and  N3_14 
REMARK    7  A    between atoms: N4_24  and  O3_25 
ROOT
HETATM    1  S1  UNL     1      -0.445   0.696  -0.336  1.00  0.00    -0.161 SA
ENDROOT
BRANCH   1   2
HETATM    2  C5  UNL     1      -1.371  -0.456  -1.073  1.00  0.00     0.116 C 
BRANCH   2   3
HETATM    3  C4  UNL     1      -2.329  -1.209  -0.216  1.00  0.00     0.044 A 
HETATM    4  C2  UNL     1      -2.547  -2.500   0.023  1.00  0.00     0.034 A 
HETATM    5  C1  UNL     1      -1.496  -3.585  -0.017  1.00  0.00     0.070 C 
HETATM    6  N1  UNL     1      -3.799  -2.752   0.458  1.00  0.00    -0.302 N 
HETATM    7  N2  UNL     1      -4.411  -1.584   0.517  1.00  0.00    -0.266 N 
ATOM      8  H1  UNL     1      -4.194  -3.663   0.694  1.00  0.00     0.186 HD
HETATM    9  C3  UNL     1      -3.582  -0.572   0.121  1.00  0.00     0.268 A 
ATOM     10  H2  UNL     1      -5.377  -1.454   0.819  1.00  0.00     0.190 HD
HETATM   11  O1  UNL     1      -3.850   0.604   0.061  1.00  0.00    -0.266 OA
ENDBRANCH   2   3
ENDBRANCH   1   2
BRANCH   1  12
HETATM   12  C6  UNL     1       0.858   0.128   0.800  1.00  0.00     0.106 C 
BRANCH  12  13
HETATM   13  C7  UNL     1       1.836  -0.671  -0.050  1.00  0.00     0.320 C 
BRANCH  13  14
HETATM   14  N3  UNL     1       3.070  -0.904   0.638  1.00  0.00     0.006 N 
HETATM   15  C8  UNL     1       3.349  -2.130   1.252  1.00  0.00     0.355 C 
HETATM   16  C9  UNL     1       4.110  -0.764  -0.446  1.00  0.00     0.355 C 
HETATM   17  O2  UNL     1       3.383   0.096   1.533  1.00  0.00    -0.065 OA
ENDBRANCH  13  14
ENDBRANCH  12  13
ENDBRANCH   1  12
BRANCH   1  18
HETATM   18  C10 UNL     1      -0.497   2.347  -0.418  1.00  0.00     0.089 A 
HETATM   19  C11 UNL     1       0.194   3.093  -1.396  1.00  0.00     0.040 A 
HETATM   20  C12 UNL     1       0.237   4.441  -1.441  1.00  0.00     0.023 A 
HETATM   21  C13 UNL     1      -0.426   5.176  -0.485  1.00  0.00     0.029 A 
HETATM   22 BR1  UNL     1      -0.355   7.097  -0.481  1.00  0.00    -0.050 Br
HETATM   23  C14 UNL     1      -1.102   4.480   0.468  1.00  0.00     0.143 A 
HETATM   24  N4  UNL     1      -1.118   3.120   0.480  1.00  0.00    -0.229 N 
BRANCH  24  25
HETATM   25  O3  UNL     1      -1.809   2.542   1.527  1.00  0.00    -0.282 OA
ATOM     26  H3  UNL     1      -2.250   3.091   2.165  1.00  0.00     0.245 HD
ENDBRANCH  24  25
ENDBRANCH   1  18
TORSDOF 7
