REMARK  7 active torsions:
REMARK  status: ('A' for Active; 'I' for Inactive)
REMARK    1  A    between atoms: C1_2  and  C2_4 
REMARK    2  A    between atoms: C2_4  and  N2_5 
REMARK    3  A    between atoms: N3_8  and  C5_9 
REMARK    4  A    between atoms: C5_9  and  C6_10 
REMARK    5  A    between atoms: C6_10  and  C7_11 
REMARK    6  A    between atoms: C7_11  and  C8_12 
REMARK    7  A    between atoms: N4_16  and  C11_17 
ROOT
HETATM    1  N2  UNL     1      -0.197   1.586  -0.284  1.00  0.00     0.018 N 
HETATM    2  C3  UNL     1      -0.805   1.728   1.057  1.00  0.00     0.280 C 
HETATM    3  C4  UNL     1      -1.965   0.789   1.097  1.00  0.00     0.268 C 
HETATM    4  N3  UNL     1      -1.678  -0.140   0.014  1.00  0.00    -0.036 N 
HETATM    5  C9  UNL     1      -0.694  -1.056   0.516  1.00  0.00     0.284 C 
HETATM    6  C10 UNL     1       0.481  -1.200  -0.426  1.00  0.00     0.093 C 
HETATM    7  N4  UNL     1       1.466  -0.227  -0.318  1.00  0.00    -0.344 N 
HETATM    8  C17 UNL     1       1.142   1.107  -0.165  1.00  0.00     0.304 C 
HETATM    9  C18 UNL     1      -1.119   0.764  -0.982  1.00  0.00     0.486 C 
ENDROOT
BRANCH   7  10
HETATM   10  C11 UNL     1       2.732  -0.676   0.207  1.00  0.00     0.090 C 
HETATM   11  C12 UNL     1       3.374  -1.713  -0.676  1.00  0.00     0.026 C 
HETATM   12  C13 UNL     1       4.859  -1.788  -0.606  1.00  0.00     0.002 C 
HETATM   13  C14 UNL     1       5.270  -1.419   0.811  1.00  0.00     0.000 C 
HETATM   14  C15 UNL     1       5.037   0.089   0.886  1.00  0.00     0.002 C 
HETATM   15  C16 UNL     1       3.612   0.459   0.599  1.00  0.00     0.026 C 
ENDBRANCH   7  10
BRANCH   1  16
HETATM   16  C2  UNL     1      -0.076   2.924  -0.821  1.00  0.00     0.282 C 
BRANCH  16  17
HETATM   17  C1  UNL     1      -1.215   3.778  -0.886  1.00  0.00     0.278 C 
HETATM   18  N1  UNL     1      -1.022   5.111  -1.435  1.00  0.00    -0.057 NA
HETATM   19  O1  UNL     1      -2.369   3.518  -0.526  1.00  0.00    -0.270 OA
ENDBRANCH  16  17
ENDBRANCH   1  16
BRANCH   4  20
HETATM   20  C5  UNL     1      -2.855  -0.737  -0.541  1.00  0.00     0.240 C 
BRANCH  20  21
HETATM   21  C6  UNL     1      -3.681  -1.540   0.409  1.00  0.00     0.029 C 
BRANCH  21  22
HETATM   22  C7  UNL     1      -4.866  -2.084  -0.375  1.00  0.00     0.012 C 
BRANCH  22  23
HETATM   23  C8  UNL     1      -5.758  -2.916   0.503  1.00  0.00     0.085 C 
HETATM   24 BR1  UNL     1      -7.233  -3.573  -0.554  1.00  0.00    -0.097 Br
ENDBRANCH  22  23
ENDBRANCH  21  22
ENDBRANCH  20  21
ENDBRANCH   4  20
TORSDOF 7
