REMARK  14 active torsions:
REMARK  status: ('A' for Active; 'I' for Inactive)
REMARK    1  A    between atoms: C4_4  and  C5_5 
REMARK    2  A    between atoms: C5_5  and  O1_6 
REMARK    3  A    between atoms: O1_6  and  C6_7 
REMARK    4  A    between atoms: C6_7  and  C7_8 
REMARK    5  A    between atoms: C7_8  and  C8_9 
REMARK    6  A    between atoms: C8_9  and  C9_10 
REMARK    7  A    between atoms: C9_10  and  O2_11 
REMARK    8  A    between atoms: O2_11  and  C10_12 
REMARK    9  A    between atoms: C13_17  and  C14_18 
REMARK   10  A    between atoms: C14_18  and  O5_19 
REMARK   11  A    between atoms: C15_21  and  O6_22 
REMARK   12  A    between atoms: C19_27  and  O7_28 
REMARK   13  A    between atoms: C20_30  and  O8_31 
REMARK   14  A    between atoms: C22_34  and  O9_35 
ROOT
HETATM    1  C10 UNL     1      -1.036   1.575  -1.199  1.00  0.00     0.176 C 
HETATM    2  C11 UNL     1      -2.213   2.000  -0.301  1.00  0.00     0.206 C 
HETATM    3  O3  UNL     1      -3.206   1.057  -0.511  1.00  0.00    -0.350 OA
HETATM    4  C12 UNL     1      -2.976  -0.182   0.039  1.00  0.00     0.200 C 
HETATM    5  O4  UNL     1      -1.560  -0.349  -0.020  1.00  0.00    -0.342 OA
HETATM    6  C13 UNL     1      -1.174   0.094  -1.309  1.00  0.00     0.179 C 
HETATM    7  C15 UNL     1      -3.479  -0.350   1.437  1.00  0.00     0.184 C 
HETATM    8  C16 UNL     1      -4.667  -1.166   1.686  1.00  0.00     0.018 C 
HETATM    9  C17 UNL     1      -5.705  -0.328   2.454  1.00  0.00     0.012 C 
HETATM   10  C18 UNL     1      -5.421  -1.763   0.529  1.00  0.00     0.048 C 
HETATM   11  C19 UNL     1      -5.034  -1.046  -0.691  1.00  0.00     0.096 A 
HETATM   12  C20 UNL     1      -4.348  -1.441  -1.868  1.00  0.00     0.165 A 
HETATM   13  C21 UNL     1      -3.499  -1.325  -0.750  1.00  0.00     0.119 A 
ENDROOT
BRANCH   1  14
HETATM   14  O2  UNL     1       0.156   2.054  -0.709  1.00  0.00    -0.381 OA
BRANCH  14  15
HETATM   15  C9  UNL     1       0.750   2.999  -1.487  1.00  0.00     0.168 C 
BRANCH  15  16
HETATM   16  C8  UNL     1       2.016   3.580  -0.948  1.00  0.00     0.028 C 
BRANCH  16  17
HETATM   17  C7  UNL     1       3.134   2.639  -0.722  1.00  0.00     0.028 C 
BRANCH  17  18
HETATM   18  C6  UNL     1       2.884   1.545   0.279  1.00  0.00     0.168 C 
BRANCH  18  19
HETATM   19  O1  UNL     1       4.046   0.758   0.393  1.00  0.00    -0.386 OA
BRANCH  19  20
HETATM   20  C5  UNL     1       3.898  -0.268   1.295  1.00  0.00     0.211 C 
BRANCH  20  21
HETATM   21  C4  UNL     1       5.188  -1.019   1.322  1.00  0.00     0.026 A 
HETATM   22  C3  UNL     1       6.342  -0.769   0.597  1.00  0.00     0.046 A 
HETATM   23  C2  UNL     1       7.284  -1.712   0.938  1.00  0.00     0.052 A 
HETATM   24  C1  UNL     1       8.669  -1.859   0.430  1.00  0.00     0.077 C 
HETATM   25  O10 UNL     1       6.733  -2.493   1.822  1.00  0.00    -0.292 OA
HETATM   26  C22 UNL     1       5.504  -2.135   2.088  1.00  0.00     0.192 A 
BRANCH  26  27
HETATM   27  O9  UNL     1       4.664  -2.765   2.981  1.00  0.00    -0.340 OA
ATOM     28  H9  UNL     1       4.880  -3.528   3.505  1.00  0.00     0.220 HD
ENDBRANCH  26  27
ENDBRANCH  20  21
ENDBRANCH  19  20
ENDBRANCH  18  19
ENDBRANCH  17  18
ENDBRANCH  16  17
ENDBRANCH  15  16
ENDBRANCH  14  15
ENDBRANCH   1  14
BRANCH   6  29
HETATM   29  C14 UNL     1      -0.018  -0.649  -1.870  1.00  0.00     0.198 C 
BRANCH  29  30
HETATM   30  O5  UNL     1       0.312  -0.158  -3.127  1.00  0.00    -0.398 OA
ATOM     31  H5  UNL     1       1.052  -0.634  -3.486  1.00  0.00     0.209 HD
ENDBRANCH  29  30
ENDBRANCH   6  29
BRANCH   7  32
HETATM   32  O6  UNL     1      -3.600   0.907   2.079  1.00  0.00    -0.390 OA
ATOM     33  H6  UNL     1      -3.920   0.800   2.967  1.00  0.00     0.210 HD
ENDBRANCH   7  32
BRANCH  11  34
HETATM   34  O7  UNL     1      -5.450   0.294  -0.647  1.00  0.00    -0.387 OA
ATOM     35  H7  UNL     1      -5.199   0.758  -1.437  1.00  0.00     0.210 HD
ENDBRANCH  11  34
BRANCH  12  36
HETATM   36  O8  UNL     1      -4.621  -2.737  -2.365  1.00  0.00    -0.392 OA
ATOM     37  H8  UNL     1      -4.162  -3.002  -3.153  1.00  0.00     0.210 HD
ENDBRANCH  12  36
TORSDOF 14
