REMARK  14 active torsions:
REMARK  status: ('A' for Active; 'I' for Inactive)
REMARK    1  A    between atoms: O1_1  and  C1_3 
REMARK    2  A    between atoms: C1_3  and  C2_4 
REMARK    3  A    between atoms: C3_5  and  C4_6 
REMARK    4  A    between atoms: C4_6  and  O2_7 
REMARK    5  A    between atoms: O2_7  and  C5_8 
REMARK    6  A    between atoms: N1_11  and  C8_12 
REMARK    7  A    between atoms: C8_12  and  C9_13 
REMARK    8  A    between atoms: C12_17  and  O3_18 
REMARK    9  A    between atoms: O3_18  and  C13_19 
REMARK   10  A    between atoms: C14_21  and  C15_22 
REMARK   11  A    between atoms: C15_22  and  O5_23 
REMARK   12  A    between atoms: C16_25  and  O6_26 
REMARK   13  A    between atoms: C17_28  and  O7_29 
REMARK   14  A    between atoms: C18_31  and  O8_32 
ROOT
HETATM    1  C9  UNL     1       0.230   1.464  -0.966  1.00  0.00     0.092 A 
HETATM    2  C10 UNL     1      -0.143   0.688  -2.049  1.00  0.00     0.064 A 
HETATM    3  C11 UNL     1      -1.421   0.193  -2.096  1.00  0.00     0.069 A 
HETATM    4  S1  UNL     1      -1.945  -0.738  -3.349  1.00  0.00    -0.077 SA
HETATM    5  C12 UNL     1      -2.306   0.477  -1.067  1.00  0.00     0.115 A 
HETATM    6  C19 UNL     1      -1.867   1.253  -0.025  1.00  0.00     0.181 A 
HETATM    7  O9  UNL     1      -0.619   1.719  -0.009  1.00  0.00    -0.319 OA
ENDROOT
BRANCH   5   8
HETATM    8  O3  UNL     1      -3.564  -0.032  -1.150  1.00  0.00    -0.314 OA
BRANCH   8   9
HETATM    9  C13 UNL     1      -4.586   0.143  -0.217  1.00  0.00     0.298 C 
HETATM   10  O4  UNL     1      -5.692   0.652  -0.911  1.00  0.00    -0.348 OA
HETATM   11  C14 UNL     1      -6.787   0.808  -0.057  1.00  0.00     0.179 C 
HETATM   12  C16 UNL     1      -7.241  -0.567   0.372  1.00  0.00     0.180 C 
HETATM   13  C17 UNL     1      -6.133  -1.178   1.198  1.00  0.00     0.183 C 
HETATM   14  C18 UNL     1      -4.912  -1.263   0.315  1.00  0.00     0.205 C 
BRANCH  11  15
HETATM   15  C15 UNL     1      -7.891   1.470  -0.852  1.00  0.00     0.198 C 
BRANCH  15  16
HETATM   16  O5  UNL     1      -7.510   2.704  -1.335  1.00  0.00    -0.398 OA
ATOM     17  H5  UNL     1      -8.203   3.120  -1.834  1.00  0.00     0.209 HD
ENDBRANCH  15  16
ENDBRANCH  11  15
BRANCH  12  18
HETATM   18  O6  UNL     1      -8.370  -0.463   1.171  1.00  0.00    -0.390 OA
ATOM     19  H6  UNL     1      -8.656  -1.328   1.441  1.00  0.00     0.210 HD
ENDBRANCH  12  18
BRANCH  13  20
HETATM   20  O7  UNL     1      -6.421  -2.439   1.661  1.00  0.00    -0.390 OA
ATOM     21  H7  UNL     1      -5.724  -2.823   2.180  1.00  0.00     0.210 HD
ENDBRANCH  13  20
BRANCH  14  22
HETATM   22  O8  UNL     1      -3.808  -1.682   1.027  1.00  0.00    -0.388 OA
ATOM     23  H8  UNL     1      -4.009  -2.550   1.356  1.00  0.00     0.210 HD
ENDBRANCH  14  22
ENDBRANCH   8   9
ENDBRANCH   5   8
BRANCH   1  24
HETATM   24  C8  UNL     1       1.620   1.985  -0.944  1.00  0.00     0.127 C 
BRANCH  24  25
HETATM   25  N1  UNL     1       2.525   1.087  -0.346  1.00  0.00    -0.367 N 
HETATM   26  C7  UNL     1       3.873   1.439  -0.251  1.00  0.00     0.130 C 
HETATM   27  C6  UNL     1       4.541   0.993   1.053  1.00  0.00     0.052 C 
HETATM   28  C5  UNL     1       4.296  -0.502   1.129  1.00  0.00     0.128 C 
HETATM   29  C21 UNL     1       2.813  -0.680   1.345  1.00  0.00     0.076 C 
HETATM   30  C20 UNL     1       2.077  -0.133   0.152  1.00  0.00     0.066 C 
BRANCH  28  31
HETATM   31  O2  UNL     1       5.071  -1.136   2.052  1.00  0.00    -0.382 OA
BRANCH  31  32
HETATM   32  C4  UNL     1       5.929  -2.090   1.565  1.00  0.00     0.195 C 
BRANCH  32  33
HETATM   33  C3  UNL     1       6.908  -1.511   0.590  1.00  0.00    -0.003 C 
HETATM   34  C2  UNL     1       8.214  -1.565   0.796  1.00  0.00    -0.003 C 
BRANCH  34  35
HETATM   35  C1  UNL     1       9.124  -0.970  -0.215  1.00  0.00     0.191 C 
BRANCH  35  36
HETATM   36  O1  UNL     1       9.888   0.048   0.388  1.00  0.00    -0.397 OA
ATOM     37  H1  UNL     1      10.470   0.429  -0.259  1.00  0.00     0.209 HD
ENDBRANCH  35  36
ENDBRANCH  34  35
ENDBRANCH  32  33
ENDBRANCH  31  32
ENDBRANCH  28  31
ENDBRANCH  24  25
ENDBRANCH   1  24
TORSDOF 14
