REMARK  14 active torsions:
REMARK  status: ('A' for Active; 'I' for Inactive)
REMARK    1  A    between atoms: C2_2  and  C3_3 
REMARK    2  A    between atoms: C3_3  and  C4_4 
REMARK    3  A    between atoms: C4_4  and  C5_5 
REMARK    4  A    between atoms: C5_5  and  C6_6 
REMARK    5  A    between atoms: C6_6  and  O1_7 
REMARK    6  A    between atoms: C6_6  and  C7_9 
REMARK    7  A    between atoms: C8_11  and  O2_12 
REMARK    8  A    between atoms: C10_14  and  O3_15 
REMARK    9  A    between atoms: C13_19  and  O4_20 
REMARK   10  A    between atoms: O4_20  and  C14_21 
REMARK   11  A    between atoms: C16_24  and  C17_25 
REMARK   12  A    between atoms: C17_25  and  O6_26 
REMARK   13  A    between atoms: C18_28  and  O7_29 
REMARK   14  A    between atoms: C19_31  and  O8_32 
ROOT
HETATM    1  C7  UNL     1      -2.512   1.407   0.078  1.00  0.00     0.111 C 
HETATM    2  S1  UNL     1      -2.914   2.766   1.247  1.00  0.00    -0.124 SA
HETATM    3  C8  UNL     1      -1.704   3.955   0.622  1.00  0.00     0.219 C 
HETATM    4  C10 UNL     1      -1.023   3.250  -0.503  1.00  0.00     0.120 C 
HETATM    5  C11 UNL     1       0.434   3.668  -0.478  1.00  0.00     0.049 C 
HETATM    6  C12 UNL     1       1.233   2.511  -1.034  1.00  0.00     0.064 C 
HETATM    7  C13 UNL     1       1.104   1.302  -0.106  1.00  0.00     0.261 C 
HETATM    8  O9  UNL     1      -0.143   1.223   0.454  1.00  0.00    -0.352 OA
HETATM    9  C20 UNL     1      -1.139   1.783  -0.355  1.00  0.00     0.178 C 
ENDROOT
BRANCH   7  10
HETATM   10  O4  UNL     1       1.485   0.198  -0.838  1.00  0.00    -0.351 OA
BRANCH  10  11
HETATM   11  C14 UNL     1       2.627  -0.396  -0.300  1.00  0.00     0.179 C 
HETATM   12  C15 UNL     1       3.753  -0.349  -1.283  1.00  0.00     0.203 C 
HETATM   13  O5  UNL     1       4.703  -1.321  -1.123  1.00  0.00    -0.378 OA
HETATM   14  C16 UNL     1       4.675  -1.875   0.167  1.00  0.00     0.176 C 
HETATM   15  C18 UNL     1       3.419  -2.729   0.199  1.00  0.00     0.180 C 
HETATM   16  C19 UNL     1       2.249  -1.785   0.128  1.00  0.00     0.180 C 
BRANCH  14  17
HETATM   17  C17 UNL     1       5.887  -2.758   0.355  1.00  0.00     0.198 C 
BRANCH  17  18
HETATM   18  O6  UNL     1       7.053  -2.032   0.204  1.00  0.00    -0.398 OA
ATOM     19  H6  UNL     1       7.815  -2.587   0.322  1.00  0.00     0.209 HD
ENDBRANCH  17  18
ENDBRANCH  14  17
BRANCH  15  20
HETATM   20  O7  UNL     1       3.422  -3.531  -0.943  1.00  0.00    -0.390 OA
ATOM     21  H7  UNL     1       2.637  -4.065  -0.923  1.00  0.00     0.210 HD
ENDBRANCH  15  20
BRANCH  16  22
HETATM   22  O8  UNL     1       1.750  -1.674   1.447  1.00  0.00    -0.390 OA
ATOM     23  H8  UNL     1       1.511  -2.553   1.718  1.00  0.00     0.210 HD
ENDBRANCH  16  22
ENDBRANCH  10  11
ENDBRANCH   7  10
BRANCH   4  24
HETATM   24  O3  UNL     1      -1.532   3.660  -1.742  1.00  0.00    -0.384 OA
ATOM     25  H3  UNL     1      -1.098   3.211  -2.458  1.00  0.00     0.210 HD
ENDBRANCH   4  24
BRANCH   1  26
HETATM   26  C6  UNL     1      -2.568   0.115   0.873  1.00  0.00     0.134 C 
BRANCH  26  27
HETATM   27  C5  UNL     1      -2.247  -1.010  -0.045  1.00  0.00     0.033 C 
BRANCH  27  28
HETATM   28  C4  UNL     1      -2.316  -2.378   0.518  1.00  0.00     0.002 C 
BRANCH  28  29
HETATM   29  C3  UNL     1      -3.626  -2.839   1.036  1.00  0.00    -0.000 C 
BRANCH  29  30
HETATM   30  C2  UNL     1      -4.734  -2.880   0.015  1.00  0.00    -0.005 C 
HETATM   31  C1  UNL     1      -4.375  -3.835  -1.131  1.00  0.00     0.005 C 
ENDBRANCH  29  30
ENDBRANCH  28  29
ENDBRANCH  27  28
ENDBRANCH  26  27
BRANCH  26  32
HETATM   32  O1  UNL     1      -3.859  -0.006   1.357  1.00  0.00    -0.394 OA
ATOM     33  H1  UNL     1      -4.064   0.713   1.943  1.00  0.00     0.210 HD
ENDBRANCH  26  32
ENDBRANCH   1  26
BRANCH   3  34
HETATM   34  O2  UNL     1      -2.418   5.036   0.101  1.00  0.00    -0.377 OA
HETATM   35  C9  UNL     1      -2.074   6.235   0.744  1.00  0.00     0.203 C 
ENDBRANCH   3  34
TORSDOF 14
