REMARK  15 active torsions:
REMARK  status: ('A' for Active; 'I' for Inactive)
REMARK    1  A    between atoms: C2_2  and  C3_3 
REMARK    2  A    between atoms: C3_3  and  C4_4 
REMARK    3  A    between atoms: C4_4  and  C5_5 
REMARK    4  A    between atoms: C5_5  and  C6_6 
REMARK    5  A    between atoms: C6_6  and  O1_7 
REMARK    6  A    between atoms: C7_10  and  O3_11 
REMARK    7  A    between atoms: C7_10  and  C8_13 
REMARK    8  A    between atoms: C8_13  and  C9_14 
REMARK    9  A    between atoms: C13_18  and  O4_19 
REMARK   10  A    between atoms: C14_21  and  O5_22 
REMARK   11  A    between atoms: O5_22  and  C15_23 
REMARK   12  A    between atoms: C18_27  and  O7_28 
REMARK   13  A    between atoms: O7_28  and  C19_29 
REMARK   14  A    between atoms: C21_32  and  O9_33 
REMARK   15  A    between atoms: C22_35  and  O10_36 
ROOT
HETATM    1  C6  UNL     1      -1.162  -0.017   0.009  1.00  0.00     0.194 C 
HETATM    2  O2  UNL     1      -2.221  -0.853  -0.122  1.00  0.00    -0.317 OA
HETATM    3  C7  UNL     1      -2.730  -1.254   1.136  1.00  0.00     0.168 C 
HETATM    4  C12 UNL     1      -1.728  -2.212   1.661  1.00  0.00     0.102 C 
HETATM    5  C13 UNL     1      -0.290  -1.759   1.597  1.00  0.00     0.157 C 
HETATM    6  C14 UNL     1       0.022  -0.623   0.716  1.00  0.00     0.216 C 
ENDROOT
BRANCH   6   7
HETATM    7  O5  UNL     1       0.707   0.379   1.332  1.00  0.00    -0.345 OA
BRANCH   7   8
HETATM    8  C15 UNL     1       1.952   0.656   0.877  1.00  0.00     0.292 C 
HETATM    9  O6  UNL     1       2.208   1.914   0.406  1.00  0.00    -0.351 OA
HETATM   10  C16 UNL     1       3.247   1.832  -0.515  1.00  0.00     0.152 C 
HETATM   11  C17 UNL     1       3.972   3.161  -0.612  1.00  0.00     0.042 C 
HETATM   12  C18 UNL     1       4.224   0.744  -0.294  1.00  0.00     0.191 C 
HETATM   13  C21 UNL     1       4.312   0.202   1.094  1.00  0.00     0.183 C 
HETATM   14  C22 UNL     1       3.055   0.379   1.900  1.00  0.00     0.204 C 
BRANCH  12  15
HETATM   15  O7  UNL     1       5.537   1.115  -0.709  1.00  0.00    -0.311 OA
BRANCH  15  16
HETATM   16  C19 UNL     1       6.219   0.473  -1.728  1.00  0.00     0.255 C 
HETATM   17  C20 UNL     1       7.564   0.803  -2.201  1.00  0.00     0.126 C 
HETATM   18  O8  UNL     1       5.603  -0.489  -2.293  1.00  0.00    -0.266 OA
ENDBRANCH  15  16
ENDBRANCH  12  15
BRANCH  13  19
HETATM   19  O9  UNL     1       4.570  -1.192   1.084  1.00  0.00    -0.390 OA
ATOM     20  H9  UNL     1       4.626  -1.537   1.967  1.00  0.00     0.210 HD
ENDBRANCH  13  19
BRANCH  14  21
HETATM   21  O10 UNL     1       3.245   1.498   2.725  1.00  0.00    -0.388 OA
ATOM     22  H10 UNL     1       3.930   1.326   3.360  1.00  0.00     0.210 HD
ENDBRANCH  14  21
ENDBRANCH   7   8
ENDBRANCH   6   7
BRANCH   1  23
HETATM   23  C5  UNL     1      -0.747   0.389  -1.415  1.00  0.00     0.071 C 
BRANCH  23  24
HETATM   24  C4  UNL     1      -1.966   0.999  -2.105  1.00  0.00     0.005 C 
BRANCH  24  25
HETATM   25  C3  UNL     1      -1.513   1.385  -3.497  1.00  0.00    -0.000 C 
BRANCH  25  26
HETATM   26  C2  UNL     1      -2.645   2.009  -4.292  1.00  0.00    -0.005 C 
HETATM   27  C1  UNL     1      -3.135   3.255  -3.578  1.00  0.00     0.005 C 
ENDBRANCH  25  26
ENDBRANCH  24  25
ENDBRANCH  23  24
ENDBRANCH   1  23
BRANCH   1  28
HETATM   28  O1  UNL     1      -1.573   1.168   0.607  1.00  0.00    -0.363 OA
ATOM     29  H1  UNL     1      -1.829   0.917   1.487  1.00  0.00     0.213 HD
ENDBRANCH   1  28
BRANCH   5  30
HETATM   30  O4  UNL     1       0.480  -2.891   1.310  1.00  0.00    -0.393 OA
ATOM     31  H4  UNL     1       1.385  -2.606   1.270  1.00  0.00     0.210 HD
ENDBRANCH   5  30
BRANCH   3  32
HETATM   32  O3  UNL     1      -2.852  -0.207   2.029  1.00  0.00    -0.365 OA
ATOM     33  H3  UNL     1      -3.194  -0.476   2.874  1.00  0.00     0.213 HD
ENDBRANCH   3  32
BRANCH   3  34
HETATM   34  C8  UNL     1      -4.064  -1.841   0.887  1.00  0.00     0.072 C 
BRANCH  34  35
HETATM   35  C9  UNL     1      -4.897  -2.336   1.987  1.00  0.00    -0.018 C 
HETATM   36  C10 UNL     1      -4.350  -3.459   2.802  1.00  0.00     0.009 C 
HETATM   37  C11 UNL     1      -6.260  -2.806   1.434  1.00  0.00     0.009 C 
ENDBRANCH  34  35
ENDBRANCH   3  34
TORSDOF 15
