REMARK  15 active torsions:
REMARK  status: ('A' for Active; 'I' for Inactive)
REMARK    1  A    between atoms: C2_2  and  O2_4 
REMARK    2  A    between atoms: O2_4  and  C3_5 
REMARK    3  A    between atoms: C9_11  and  O3_12 
REMARK    4  A    between atoms: C10_14  and  C11_15 
REMARK    5  A    between atoms: C11_15  and  O4_16 
REMARK    6  A    between atoms: O4_16  and  C12_17 
REMARK    7  A    between atoms: C12_17  and  C13_18 
REMARK    8  A    between atoms: C13_18  and  O5_19 
REMARK    9  A    between atoms: O5_19  and  C14_20 
REMARK   10  A    between atoms: C14_20  and  C15_21 
REMARK   11  A    between atoms: C15_21  and  O6_22 
REMARK   12  A    between atoms: O6_22  and  C16_23 
REMARK   13  A    between atoms: C19_27  and  O8_28 
REMARK   14  A    between atoms: C20_30  and  O9_31 
REMARK   15  A    between atoms: C21_33  and  O10_34 
ROOT
HETATM    1  C13 UNL     1      -0.331  -0.947   0.197  1.00  0.00     0.193 C 
ENDROOT
BRANCH   1   2
HETATM    2  C12 UNL     1      -0.901  -2.068  -0.592  1.00  0.00     0.193 C 
BRANCH   2   3
HETATM    3  O4  UNL     1      -2.179  -2.217  -0.812  1.00  0.00    -0.388 OA
BRANCH   3   4
HETATM    4  C11 UNL     1      -3.097  -1.476  -1.395  1.00  0.00     0.177 C 
BRANCH   4   5
HETATM    5  C10 UNL     1      -3.452  -0.209  -0.736  1.00  0.00     0.068 C 
HETATM    6  C3  UNL     1      -4.551   0.550  -1.527  1.00  0.00     0.140 C 
HETATM    7  C4  UNL     1      -4.434   1.955  -0.977  1.00  0.00     0.034 C 
HETATM    8  C5  UNL     1      -4.790   2.008   0.458  1.00  0.00     0.014 C 
HETATM    9  C6  UNL     1      -4.668   0.771   1.249  1.00  0.00    -0.021 C 
HETATM   10  C7  UNL     1      -3.946   1.077   2.574  1.00  0.00     0.017 C 
HETATM   11  C8  UNL     1      -6.089   0.390   1.707  1.00  0.00     0.017 C 
HETATM   12  C9  UNL     1      -4.076  -0.423   0.623  1.00  0.00     0.134 C 
BRANCH   6  13
HETATM   13  O2  UNL     1      -4.300   0.482  -2.904  1.00  0.00    -0.316 OA
BRANCH  13  14
HETATM   14  C2  UNL     1      -5.280  -0.027  -3.774  1.00  0.00     0.255 C 
HETATM   15  C1  UNL     1      -5.059  -0.118  -5.232  1.00  0.00     0.126 C 
HETATM   16  O1  UNL     1      -6.357  -0.403  -3.243  1.00  0.00    -0.266 OA
ENDBRANCH  13  14
ENDBRANCH   6  13
BRANCH  12  17
HETATM   17  O3  UNL     1      -4.995  -1.498   0.541  1.00  0.00    -0.394 OA
ATOM     18  H3  UNL     1      -4.613  -2.268   0.137  1.00  0.00     0.210 HD
ENDBRANCH  12  17
ENDBRANCH   4   5
ENDBRANCH   3   4
ENDBRANCH   2   3
ENDBRANCH   1   2
BRANCH   1  19
HETATM   19  O5  UNL     1       1.048  -1.004   0.339  1.00  0.00    -0.387 OA
BRANCH  19  20
HETATM   20  C14 UNL     1       1.774  -0.956  -0.815  1.00  0.00     0.194 C 
BRANCH  20  21
HETATM   21  C15 UNL     1       3.279  -0.974  -0.536  1.00  0.00     0.197 C 
BRANCH  21  22
HETATM   22  O6  UNL     1       3.639   0.126   0.245  1.00  0.00    -0.356 OA
BRANCH  22  23
HETATM   23  C16 UNL     1       5.005   0.136   0.515  1.00  0.00     0.291 C 
HETATM   24  O7  UNL     1       5.571   1.272   0.034  1.00  0.00    -0.351 OA
HETATM   25  C17 UNL     1       6.831   1.581   0.429  1.00  0.00     0.152 C 
HETATM   26  C18 UNL     1       7.807   0.994  -0.579  1.00  0.00     0.042 C 
HETATM   27  C19 UNL     1       7.253   1.147   1.784  1.00  0.00     0.178 C 
HETATM   28  C20 UNL     1       6.665  -0.166   2.231  1.00  0.00     0.183 C 
HETATM   29  C21 UNL     1       5.169  -0.075   2.000  1.00  0.00     0.204 C 
BRANCH  27  30
HETATM   30  O8  UNL     1       6.925   2.096   2.757  1.00  0.00    -0.390 OA
ATOM     31  H8  UNL     1       7.195   1.818   3.624  1.00  0.00     0.210 HD
ENDBRANCH  27  30
BRANCH  28  32
HETATM   32  O9  UNL     1       6.854  -0.239   3.621  1.00  0.00    -0.390 OA
ATOM     33  H9  UNL     1       6.483  -1.067   3.903  1.00  0.00     0.210 HD
ENDBRANCH  28  32
BRANCH  29  34
HETATM   34  O10 UNL     1       4.639  -1.321   2.328  1.00  0.00    -0.388 OA
ATOM     35  H10 UNL     1       4.742  -1.454   3.263  1.00  0.00     0.210 HD
ENDBRANCH  29  34
ENDBRANCH  22  23
ENDBRANCH  21  22
ENDBRANCH  20  21
ENDBRANCH  19  20
ENDBRANCH   1  19
TORSDOF 15
