REMARK  14 active torsions:
REMARK  status: ('A' for Active; 'I' for Inactive)
REMARK       I    between atoms: C1_2  and  N1_3 
REMARK    1  A    between atoms: C1_2  and  O2_12 
REMARK    2  A    between atoms: N1_3  and  C2_5 
REMARK    3  A    between atoms: O2_12  and  C9_13 
REMARK    4  A    between atoms: C9_13  and  C10_14 
REMARK    5  A    between atoms: C10_14  and  C11_15 
REMARK    6  A    between atoms: C11_15  and  C12_16 
REMARK    7  A    between atoms: C12_16  and  C13_17 
REMARK    8  A    between atoms: C13_17  and  N2_18 
REMARK    9  A    between atoms: C15_20  and  C16_21 
REMARK   10  A    between atoms: C17_23  and  C18_24 
REMARK   11  A    between atoms: C18_24  and  O4_25 
REMARK   12  A    between atoms: C19_27  and  O5_28 
REMARK   13  A    between atoms: C20_30  and  O6_31 
REMARK   14  A    between atoms: C21_33  and  O7_34 
ROOT
HETATM    1  N2  UNL     1      -2.531  -3.268   0.364  1.00  0.00    -0.285 N 
HETATM    2  C14 UNL     1      -2.785  -1.949   0.422  1.00  0.00     0.136 A 
HETATM    3  C15 UNL     1      -4.070  -1.681  -0.003  1.00  0.00     0.072 A 
HETATM    4  N3  UNL     1      -4.571  -2.896  -0.316  1.00  0.00    -0.284 N 
ATOM      5  H3  UNL     1      -5.513  -3.069  -0.668  1.00  0.00     0.184 HD
HETATM    6  N4  UNL     1      -3.659  -3.827  -0.098  1.00  0.00    -0.020 NA
ENDROOT
BRANCH   1   7
HETATM    7  C13 UNL     1      -1.301  -3.905   0.729  1.00  0.00     0.146 C 
BRANCH   7   8
HETATM    8  C12 UNL     1      -0.333  -4.042  -0.413  1.00  0.00     0.022 C 
BRANCH   8   9
HETATM    9  C11 UNL     1       0.023  -2.705  -0.958  1.00  0.00     0.004 C 
BRANCH   9  10
HETATM   10  C10 UNL     1       1.005  -2.764  -2.102  1.00  0.00     0.027 C 
BRANCH  10  11
HETATM   11  C9  UNL     1       2.302  -3.391  -1.751  1.00  0.00     0.180 C 
BRANCH  11  12
HETATM   12  O2  UNL     1       3.029  -2.771  -0.725  1.00  0.00    -0.304 OA
BRANCH  12  13
HETATM   13  C1  UNL     1       3.491  -1.494  -0.784  1.00  0.00     0.360 C 
HETATM   14  O1  UNL     1       3.282  -0.769  -1.816  1.00  0.00    -0.239 OA
HETATM   15  N1  UNL     1       4.226  -0.859   0.256  1.00  0.00    -0.332 N 
ATOM     16  H1  UNL     1       4.426  -1.385   1.107  1.00  0.00     0.165 HD
BRANCH  15  17
HETATM   17  C2  UNL     1       4.706   0.518   0.152  1.00  0.00     0.087 C 
HETATM   18  C3  UNL     1       4.030   1.287   1.156  1.00  0.00     0.026 C 
HETATM   19  C4  UNL     1       3.761   2.791   1.039  1.00  0.00     0.013 C 
HETATM   20  C5  UNL     1       5.098   3.599   0.896  1.00  0.00     0.080 C 
HETATM   21  C6  UNL     1       6.065   2.665   0.494  1.00  0.00    -0.183 C 
HETATM   22  C7  UNL     1       6.988   1.689   0.099  1.00  0.00     0.082 C 
HETATM   23  C8  UNL     1       6.220   0.325   0.132  1.00  0.00     0.036 C 
ENDBRANCH  15  17
ENDBRANCH  12  13
ENDBRANCH  11  12
ENDBRANCH  10  11
ENDBRANCH   9  10
ENDBRANCH   8   9
ENDBRANCH   7   8
ENDBRANCH   1   7
BRANCH   3  24
HETATM   24  C16 UNL     1      -4.778  -0.376  -0.107  1.00  0.00     0.205 C 
HETATM   25  O3  UNL     1      -3.913   0.525  -0.690  1.00  0.00    -0.367 OA
HETATM   26  C17 UNL     1      -4.461   1.777  -0.889  1.00  0.00     0.177 C 
HETATM   27  C19 UNL     1      -5.747   2.014  -0.185  1.00  0.00     0.180 C 
HETATM   28  C20 UNL     1      -5.822   1.430   1.194  1.00  0.00     0.181 C 
HETATM   29  C21 UNL     1      -5.093   0.110   1.302  1.00  0.00     0.184 C 
BRANCH  26  30
HETATM   30  C18 UNL     1      -3.396   2.807  -0.584  1.00  0.00     0.198 C 
BRANCH  30  31
HETATM   31  O4  UNL     1      -3.921   4.090  -0.777  1.00  0.00    -0.398 OA
ATOM     32  H4  UNL     1      -3.252   4.737  -0.585  1.00  0.00     0.209 HD
ENDBRANCH  30  31
ENDBRANCH  26  30
BRANCH  27  33
HETATM   33  O5  UNL     1      -6.849   1.636  -0.980  1.00  0.00    -0.390 OA
ATOM     34  H5  UNL     1      -7.672   1.788  -0.530  1.00  0.00     0.210 HD
ENDBRANCH  27  33
BRANCH  28  35
HETATM   35  O6  UNL     1      -5.419   2.289   2.191  1.00  0.00    -0.390 OA
ATOM     36  H6  UNL     1      -5.467   1.919   3.065  1.00  0.00     0.210 HD
ENDBRANCH  28  35
BRANCH  29  37
HETATM   37  O7  UNL     1      -3.876   0.308   1.968  1.00  0.00    -0.390 OA
ATOM     38  H7  UNL     1      -4.072   0.611   2.847  1.00  0.00     0.210 HD
ENDBRANCH  29  37
ENDBRANCH   3  24
TORSDOF 14
