REMARK  5 active torsions:
REMARK  status: ('A' for Active; 'I' for Inactive)
REMARK    1  A    between atoms: C2_2  and  C4_4 
REMARK    2  A    between atoms: C5_7  and  N2_8 
REMARK    3  A    between atoms: N2_8  and  C6_10 
REMARK    4  A    between atoms: C6_10  and  C7_11 
REMARK    5  A    between atoms: C10_14  and  N3_15 
ROOT
HETATM    1  C4  UNL     1       4.321   0.381   0.280  1.00  0.00     0.104 A 
HETATM    2  N1  UNL     1       3.093   0.389  -0.292  1.00  0.00    -0.180 N 
ATOM      3  H1  UNL     1       2.926   0.950  -1.127  1.00  0.00     0.185 HD
HETATM    4  C5  UNL     1       2.098  -0.335   0.233  1.00  0.00     0.683 A 
HETATM    5  N4  UNL     1       2.338  -1.073   1.342  1.00  0.00    -0.141 N 
ATOM      6  H4  UNL     1       1.580  -1.626   1.743  1.00  0.00     0.189 HD
HETATM    7  C15 UNL     1       3.556  -1.099   1.935  1.00  0.00     0.339 A 
HETATM    8  O1  UNL     1       3.793  -1.774   2.956  1.00  0.00    -0.246 OA
HETATM    9  N5  UNL     1       4.544  -0.360   1.385  1.00  0.00    -0.297 N 
ATOM     10  H5  UNL     1       5.471  -0.362   1.811  1.00  0.00     0.172 HD
ENDROOT
BRANCH   4  11
HETATM   11  N2  UNL     1       0.911  -0.370  -0.261  1.00  0.00    -0.225 N 
ATOM     12  H2  UNL     1       0.724   0.185  -1.096  1.00  0.00     0.177 HD
BRANCH  11  13
HETATM   13  C6  UNL     1      -0.164  -1.140   0.289  1.00  0.00     0.142 C 
BRANCH  13  14
HETATM   14  C7  UNL     1      -1.339  -1.234  -0.700  1.00  0.00     0.004 C 
HETATM   15  C8  UNL     1      -2.409  -2.037  -0.074  1.00  0.00     0.008 C 
HETATM   16  C9  UNL     1      -3.804  -1.560  -0.275  1.00  0.00     0.036 C 
HETATM   17  C10 UNL     1      -3.827  -0.071  -0.007  1.00  0.00     0.222 C 
HETATM   18  C13 UNL     1      -3.065   0.570  -1.116  1.00  0.00     0.036 C 
HETATM   19  C14 UNL     1      -1.685   0.078  -1.265  1.00  0.00     0.008 C 
BRANCH  17  20
HETATM   20  N3  UNL     1      -5.131   0.449   0.198  1.00  0.00     0.084 N 
HETATM   21  C11 UNL     1      -5.035   1.868   0.447  1.00  0.00     0.309 C 
HETATM   22  C12 UNL     1      -6.075   0.123  -0.833  1.00  0.00     0.309 C 
ENDBRANCH  17  20
ENDBRANCH  13  14
ENDBRANCH  11  13
ENDBRANCH   4  11
BRANCH   1  23
HETATM   23  C2  UNL     1       5.416   1.179  -0.298  1.00  0.00     0.046 C 
HETATM   24  C1  UNL     1       5.929   2.232   0.660  1.00  0.00     0.017 C 
HETATM   25  C3  UNL     1       6.543   0.275  -0.735  1.00  0.00     0.017 C 
ENDBRANCH   1  23
TORSDOF 5
