REMARK  6 active torsions:
REMARK  status: ('A' for Active; 'I' for Inactive)
REMARK    1  A    between atoms: C2_2  and  C3_3 
REMARK    2  A    between atoms: C9_11  and  N2_12 
REMARK    3  A    between atoms: C14_19  and  N4_20 
REMARK    4  A    between atoms: N4_20  and  C15_22 
REMARK    5  A    between atoms: C15_22  and  C16_23 
REMARK    6  A    between atoms: C16_23  and  O1_24 
ROOT
HETATM    1  C3  UNL     1      -2.997  -1.281  -0.295  1.00  0.00    -0.019 C 
HETATM    2  C4  UNL     1      -2.178  -1.058   0.685  1.00  0.00    -0.046 C 
HETATM    3  C5  UNL     1      -2.548  -1.274   2.091  1.00  0.00     0.040 C 
HETATM    4  C6  UNL     1      -1.376  -1.423   3.029  1.00  0.00     0.011 C 
HETATM    5  C7  UNL     1      -0.094  -1.840   2.359  1.00  0.00     0.059 C 
HETATM    6  C8  UNL     1       0.241  -0.949   1.223  1.00  0.00     0.041 A 
HETATM    7  N1  UNL     1       1.492  -0.535   1.013  1.00  0.00    -0.194 N 
ATOM      8  H1  UNL     1       2.243  -0.860   1.622  1.00  0.00     0.184 HD
HETATM    9  C9  UNL     1       1.772   0.323  -0.014  1.00  0.00     0.682 A 
HETATM   10  N3  UNL     1       0.757   0.727  -0.792  1.00  0.00    -0.176 N 
ATOM     11  H3  UNL     1       0.957   1.367  -1.560  1.00  0.00     0.186 HD
HETATM   12  C14 UNL     1      -0.534   0.319  -0.601  1.00  0.00     0.129 A 
HETATM   13  C17 UNL     1      -0.818  -0.542   0.426  1.00  0.00     0.037 A 
ENDROOT
BRANCH  12  14
HETATM   14  N4  UNL     1      -1.489   0.741  -1.341  1.00  0.00    -0.373 N 
ATOM     15  H4  UNL     1      -2.446   0.425  -1.184  1.00  0.00     0.161 HD
BRANCH  14  16
HETATM   16  C15 UNL     1      -1.187   1.670  -2.399  1.00  0.00     0.147 C 
BRANCH  16  17
HETATM   17  C16 UNL     1      -1.448   3.096  -1.917  1.00  0.00     0.183 C 
BRANCH  17  18
HETATM   18  O1  UNL     1      -0.650   3.392  -0.816  1.00  0.00    -0.399 OA
ATOM     19  H1  UNL     1      -0.812   4.279  -0.516  1.00  0.00     0.209 HD
ENDBRANCH  17  18
ENDBRANCH  16  17
ENDBRANCH  14  16
ENDBRANCH  12  14
BRANCH   9  20
HETATM   20  N2  UNL     1       3.114   0.754  -0.223  1.00  0.00    -0.218 N 
HETATM   21  C10 UNL     1       4.053   0.034  -1.091  1.00  0.00     0.141 C 
HETATM   22  C11 UNL     1       5.410   0.620  -0.786  1.00  0.00     0.022 C 
HETATM   23  C12 UNL     1       5.078   2.016  -0.371  1.00  0.00     0.022 C 
HETATM   24  C13 UNL     1       3.763   1.911   0.345  1.00  0.00     0.141 C 
ENDBRANCH   9  20
BRANCH   1  25
HETATM   25  C2  UNL     1      -4.380  -1.764  -0.089  1.00  0.00     0.023 C 
HETATM   26  C1  UNL     1      -4.501  -3.132  -0.777  1.00  0.00     0.009 C 
ENDBRANCH   1  25
TORSDOF 6
