REMARK  5 active torsions:
REMARK  status: ('A' for Active; 'I' for Inactive)
REMARK    1  A    between atoms: C1_2  and  O2_3 
REMARK    2  A    between atoms: C1_2  and  C14_16 
REMARK    3  A    between atoms: O2_3  and  C2_4 
REMARK    4  A    between atoms: C16_18  and  C17_19 
REMARK    5  A    between atoms: C17_19  and  O3_20 
ROOT
HETATM    1  C2  UNL     1      -0.446   0.039   0.045  1.00  0.00     0.072 C 
HETATM    2  C3  UNL     1      -0.998  -1.350   0.416  1.00  0.00     0.043 C 
HETATM    3  C4  UNL     1      -2.282  -1.378   1.126  1.00  0.00    -0.011 C 
HETATM    4  C5  UNL     1      -3.393  -1.713   0.156  1.00  0.00     0.005 C 
HETATM    5  C6  UNL     1      -4.246  -0.559  -0.204  1.00  0.00     0.001 C 
HETATM    6  C7  UNL     1      -3.641   0.297  -1.303  1.00  0.00     0.005 C 
HETATM    7  C8  UNL     1      -2.491   1.167  -0.859  1.00  0.00    -0.011 C 
HETATM    8  C9  UNL     1      -2.708   1.760   0.490  1.00  0.00     0.009 C 
HETATM    9  C10 UNL     1      -2.030   1.078   1.607  1.00  0.00    -0.011 C 
HETATM   10  C11 UNL     1      -2.550  -0.247   2.055  1.00  0.00     0.009 C 
HETATM   11  C12 UNL     1      -0.595   0.925   1.294  1.00  0.00     0.043 C 
HETATM   12  C13 UNL     1      -1.116   0.582  -1.111  1.00  0.00     0.043 C 
ENDROOT
BRANCH   1  13
HETATM   13  O2  UNL     1       0.938  -0.145   0.056  1.00  0.00    -0.308 OA
BRANCH  13  14
HETATM   14  C1  UNL     1       1.746  -0.873  -0.771  1.00  0.00     0.290 C 
HETATM   15  O1  UNL     1       1.238  -1.406  -1.751  1.00  0.00    -0.263 OA
BRANCH  14  16
HETATM   16  C14 UNL     1       3.206  -0.989  -0.468  1.00  0.00     0.287 C 
HETATM   17  C15 UNL     1       4.171  -0.341  -1.436  1.00  0.00     0.078 C 
HETATM   18  C16 UNL     1       4.945  -0.121  -0.106  1.00  0.00     0.212 C 
HETATM   19  N1  UNL     1       3.587   0.146   0.425  1.00  0.00    -0.055 N 
ATOM     20  H12 UNL     1       3.143   1.063   0.379  1.00  0.00     0.278 HD
ATOM     21  H11 UNL     1       3.374   0.164   1.422  1.00  0.00     0.278 HD
BRANCH  18  22
HETATM   22  C17 UNL     1       5.817   1.076  -0.040  1.00  0.00     0.197 C 
BRANCH  22  23
HETATM   23  O3  UNL     1       7.064   0.770  -0.564  1.00  0.00    -0.399 OA
ATOM     24  H3  UNL     1       7.623   1.537  -0.522  1.00  0.00     0.209 HD
ENDBRANCH  22  23
ENDBRANCH  18  22
ENDBRANCH  14  16
ENDBRANCH  13  14
ENDBRANCH   1  13
TORSDOF 5
