REMARK  8 active torsions:
REMARK  status: ('A' for Active; 'I' for Inactive)
REMARK    1  A    between atoms: C2_2  and  C4_4 
REMARK    2  A    between atoms: C4_4  and  C5_5 
REMARK    3  A    between atoms: C5_5  and  C6_6 
REMARK    4  A    between atoms: C5_5  and  N2_13 
REMARK    5  A    between atoms: C6_6  and  O1_7 
REMARK    6  A    between atoms: N1_9  and  O2_11 
REMARK    7  A    between atoms: N2_13  and  C8_15 
REMARK    8  A    between atoms: C8_15  and  N3_17 
ROOT
HETATM    1  C5  UNL     1      -1.296   0.128  -0.373  1.00  0.00     0.163 C 
ENDROOT
BRANCH   1   2
HETATM    2  C4  UNL     1      -1.942  -0.980   0.351  1.00  0.00     0.037 C 
BRANCH   2   3
HETATM    3  C2  UNL     1      -3.234  -1.494  -0.136  1.00  0.00    -0.020 C 
HETATM    4  C1  UNL     1      -4.402  -0.562  -0.173  1.00  0.00     0.009 C 
HETATM    5  C3  UNL     1      -3.704  -2.698   0.718  1.00  0.00     0.009 C 
ENDBRANCH   2   3
ENDBRANCH   1   2
BRANCH   1   6
HETATM    6  C6  UNL     1      -2.041   1.370  -0.417  1.00  0.00     0.159 C 
HETATM    7  N1  UNL     1      -2.418   1.955  -1.530  1.00  0.00    -0.249 N 
ATOM      8  H1  UNL     1      -2.172   1.509  -2.414  1.00  0.00     0.196 HD
BRANCH   6   9
HETATM    9  O1  UNL     1      -2.416   2.051   0.746  1.00  0.00    -0.347 OA
ATOM     10  H1  UNL     1      -2.904   2.865   0.717  1.00  0.00     0.219 HD
ENDBRANCH   6   9
BRANCH   7  11
HETATM   11  O2  UNL     1      -3.116   3.119  -1.573  1.00  0.00    -0.288 OA
ATOM     12  H2  UNL     1      -3.389   3.542  -2.378  1.00  0.00     0.244 HD
ENDBRANCH   7  11
ENDBRANCH   1   6
BRANCH   1  13
HETATM   13  N2  UNL     1       0.094   0.335   0.086  1.00  0.00    -0.350 N 
HETATM   14  C7  UNL     1       0.242   0.584   1.488  1.00  0.00     0.153 C 
BRANCH  13  15
HETATM   15  C8  UNL     1       1.170   0.293  -0.795  1.00  0.00     0.172 C 
HETATM   16  S1  UNL     1       0.702  -0.009  -2.393  1.00  0.00    -0.041 SA
BRANCH  15  17
HETATM   17  N3  UNL     1       2.538   0.460  -0.564  1.00  0.00    -0.357 N 
HETATM   18  C9  UNL     1       3.180   0.723   0.673  1.00  0.00     0.132 C 
HETATM   19  C10 UNL     1       4.690   0.591   0.597  1.00  0.00     0.098 C 
HETATM   20  C11 UNL     1       5.142  -0.467  -0.299  1.00  0.00     0.130 C 
HETATM   21  O3  UNL     1       6.203  -1.038  -0.147  1.00  0.00    -0.298 OA
HETATM   22  C12 UNL     1       4.291  -0.884  -1.452  1.00  0.00     0.098 C 
HETATM   23  C13 UNL     1       3.435   0.355  -1.745  1.00  0.00     0.132 C 
ENDBRANCH  15  17
ENDBRANCH  13  15
ENDBRANCH   1  13
TORSDOF 8
