REMARK  7 active torsions:
REMARK  status: ('A' for Active; 'I' for Inactive)
REMARK    1  A    between atoms: C2_2  and  C4_4 
REMARK    2  A    between atoms: C5_5  and  O1_6 
REMARK    3  A    between atoms: O1_6  and  C6_7 
REMARK    4  A    between atoms: C6_7  and  C7_8 
REMARK    5  A    between atoms: C7_8  and  N1_9 
REMARK    6  A    between atoms: N1_9  and  C9_11 
REMARK    7  A    between atoms: C10_14  and  N3_15 
ROOT
HETATM    1  C9  UNL     1       2.674  -0.370   0.285  1.00  0.00     0.681 A 
HETATM    2  N2  UNL     1       2.870   0.491  -0.726  1.00  0.00    -0.176 N 
ATOM      3  H2  UNL     1       2.100   0.661  -1.373  1.00  0.00     0.186 HD
HETATM    4  C10 UNL     1       4.030   1.141  -0.930  1.00  0.00     0.133 A 
HETATM    5  C11 UNL     1       5.087   0.936  -0.079  1.00  0.00     0.070 A 
HETATM    6 BR1  UNL     1       6.722   1.852  -0.367  1.00  0.00    -0.046 Br
HETATM    7  C12 UNL     1       4.891   0.050   0.964  1.00  0.00     0.129 A 
HETATM    8  N4  UNL     1       3.702  -0.581   1.127  1.00  0.00    -0.200 N 
ATOM      9  H4  UNL     1       3.584  -1.230   1.905  1.00  0.00     0.183 HD
ENDROOT
BRANCH   1  10
HETATM   10  N1  UNL     1       1.462  -1.059   0.510  1.00  0.00    -0.220 N 
HETATM   11  C8  UNL     1       1.402  -1.981   1.663  1.00  0.00     0.168 C 
BRANCH  10  12
HETATM   12  C7  UNL     1       0.262  -0.974  -0.254  1.00  0.00     0.168 C 
BRANCH  12  13
HETATM   13  C6  UNL     1       0.258  -0.061  -1.421  1.00  0.00     0.208 C 
BRANCH  13  14
HETATM   14  O1  UNL     1      -1.055  -0.162  -2.011  1.00  0.00    -0.302 OA
BRANCH  14  15
HETATM   15  C5  UNL     1      -2.167   0.159  -1.286  1.00  0.00     0.054 C 
HETATM   16  C4  UNL     1      -3.136   0.440  -0.631  1.00  0.00    -0.072 C 
BRANCH  16  17
HETATM   17  C2  UNL     1      -4.298   0.771   0.185  1.00  0.00     0.059 C 
HETATM   18  C1  UNL     1      -5.330   1.470  -0.643  1.00  0.00     0.023 C 
HETATM   19  C3  UNL     1      -4.886  -0.531   0.733  1.00  0.00     0.023 C 
ENDBRANCH  16  17
ENDBRANCH  14  15
ENDBRANCH  13  14
ENDBRANCH  12  13
ENDBRANCH  10  12
ENDBRANCH   1  10
BRANCH   4  20
HETATM   20  N3  UNL     1       4.085   1.945  -1.944  1.00  0.00    -0.384 N 
ATOM     21  H32 UNL     1       3.299   2.097  -2.576  1.00  0.00     0.157 HD
ATOM     22  H31 UNL     1       4.965   2.438  -2.099  1.00  0.00     0.157 HD
ENDBRANCH   4  20
TORSDOF 7
