REMARK  5 active torsions:
REMARK  status: ('A' for Active; 'I' for Inactive)
REMARK       I    between atoms: C2_2  and  N1_4 
REMARK    1  A    between atoms: N1_4  and  C3_6 
REMARK    2  A    between atoms: C3_6  and  C4_7 
REMARK    3  A    between atoms: C4_7  and  C5_8 
REMARK    4  A    between atoms: C7_14  and  O3_15 
REMARK    5  A    between atoms: O3_15  and  C8_16 
ROOT
HETATM    1  C5  UNL     1       0.552  -0.974   0.810  1.00  0.00     0.141 C 
HETATM    2  O2  UNL     1       0.481  -0.359   2.082  1.00  0.00    -0.321 OA
HETATM    3  C6  UNL     1      -0.708   0.233   2.477  1.00  0.00     0.212 C 
HETATM    4  S1  UNL     1      -0.713   1.161   3.812  1.00  0.00    -0.033 SA
HETATM    5  N2  UNL     1      -1.892   0.029   1.729  1.00  0.00    -0.329 N 
ATOM      6  H2  UNL     1      -2.802   0.081   2.187  1.00  0.00     0.165 HD
HETATM    7  C7  UNL     1      -1.808  -0.253   0.317  1.00  0.00     0.144 C 
HETATM    8  C10 UNL     1      -2.475  -1.556  -0.049  1.00  0.00     0.062 C 
HETATM    9  C11 UNL     1      -1.934  -1.852  -1.431  1.00  0.00     0.006 C 
HETATM   10  C12 UNL     1      -0.507  -1.431  -1.323  1.00  0.00     0.012 C 
HETATM   11  C13 UNL     1      -0.412  -0.449  -0.176  1.00  0.00     0.071 C 
ENDROOT
BRANCH   1  12
HETATM   12  C4  UNL     1       1.996  -0.906   0.386  1.00  0.00     0.053 C 
BRANCH  12  13
HETATM   13  C3  UNL     1       2.498   0.512   0.298  1.00  0.00     0.125 C 
BRANCH  13  14
HETATM   14  N1  UNL     1       3.900   0.523  -0.113  1.00  0.00    -0.361 N 
HETATM   15  C2  UNL     1       4.600   1.720  -0.268  1.00  0.00     0.213 C 
HETATM   16  C1  UNL     1       6.022   1.731  -0.685  1.00  0.00     0.117 C 
HETATM   17  O1  UNL     1       4.041   2.824  -0.058  1.00  0.00    -0.274 OA
ATOM     18  H1  UNL     1       4.376  -0.361  -0.290  1.00  0.00     0.162 HD
ENDBRANCH  13  14
ENDBRANCH  12  13
ENDBRANCH   1  12
BRANCH   7  19
HETATM   19  O3  UNL     1      -2.421   0.762  -0.400  1.00  0.00    -0.340 OA
BRANCH  19  20
HETATM   20  C8  UNL     1      -3.743   0.977  -0.119  1.00  0.00     0.216 C 
HETATM   21  C9  UNL     1      -4.638   0.814  -1.325  1.00  0.00     0.057 C 
HETATM   22 CL1  UNL     1      -3.920   2.672   0.426  1.00  0.00    -0.096 Cl
ENDBRANCH  19  20
ENDBRANCH   7  19
TORSDOF 5
