REMARK  4 active torsions:
REMARK  status: ('A' for Active; 'I' for Inactive)
REMARK    1  A    between atoms: C2_2  and  C3_3 
REMARK    2  A    between atoms: C3_3  and  N1_4 
REMARK    3  A    between atoms: C6_7  and  C7_8 
REMARK    4  A    between atoms: C10_17  and  O1_18 
ROOT
HETATM    1  C7  UNL     1      -1.336   0.283   0.376  1.00  0.00     0.114 A 
HETATM    2  N2  UNL     1      -1.916   1.280   1.087  1.00  0.00    -0.327 N 
ATOM      3  H2  UNL     1      -1.304   1.939   1.569  1.00  0.00     0.169 HD
HETATM    4  C8  UNL     1      -3.220   1.456   1.197  1.00  0.00     0.122 A 
HETATM    5  N3  UNL     1      -3.699   2.425   1.890  1.00  0.00    -0.384 N 
ATOM      6  H31 UNL     1      -4.706   2.561   1.975  1.00  0.00     0.157 HD
ATOM      7  H32 UNL     1      -3.070   3.073   2.365  1.00  0.00     0.157 HD
HETATM    8  C9  UNL     1      -4.072   0.579   0.554  1.00  0.00     0.105 A 
HETATM    9 BR1  UNL     1      -5.950   0.853   0.721  1.00  0.00    -0.042 Br
HETATM   10  C10 UNL     1      -3.529  -0.441  -0.174  1.00  0.00     0.165 A 
HETATM   11  N4  UNL     1      -2.168  -0.558  -0.241  1.00  0.00    -0.321 N 
ATOM     12  H4  UNL     1      -1.771  -1.323  -0.787  1.00  0.00     0.169 HD
ENDROOT
BRANCH   1  13
HETATM   13  C6  UNL     1       0.094   0.210   0.345  1.00  0.00    -0.014 C 
HETATM   14  C5  UNL     1       0.848   1.107   1.007  1.00  0.00     0.014 C 
HETATM   15  C4  UNL     1       2.304   0.915   0.892  1.00  0.00     0.301 C 
HETATM   16  N1  UNL     1       2.689   0.870  -0.495  1.00  0.00     0.095 N 
HETATM   17  C13 UNL     1       1.893  -0.050  -1.272  1.00  0.00     0.277 C 
HETATM   18  C12 UNL     1       0.897  -0.812  -0.394  1.00  0.00     0.072 C 
BRANCH  16  19
HETATM   19  C3  UNL     1       4.112   0.608  -0.647  1.00  0.00     0.299 C 
BRANCH  19  20
HETATM   20  C2  UNL     1       4.486  -0.745  -0.244  1.00  0.00    -0.007 C 
HETATM   21  C1  UNL     1       5.352  -0.946   0.727  1.00  0.00     0.008 C 
ENDBRANCH  19  20
ENDBRANCH  16  19
ENDBRANCH   1  13
BRANCH  10  22
HETATM   22  O1  UNL     1      -4.242  -1.375  -0.855  1.00  0.00    -0.340 OA
HETATM   23  C11 UNL     1      -5.609  -1.562  -0.998  1.00  0.00     0.211 C 
ENDBRANCH  10  22
TORSDOF 4
