REMARK  5 active torsions:
REMARK  status: ('A' for Active; 'I' for Inactive)
REMARK    1  A    between atoms: C2_2  and  C4_4 
REMARK    2  A    between atoms: C4_4  and  N1_5 
REMARK    3  A    between atoms: N1_5  and  C5_7 
REMARK    4  A    between atoms: C6_10  and  C7_11 
REMARK    5  A    between atoms: C10_16  and  N4_17 
ROOT
HETATM    1  C5  UNL     1       0.518   0.458   0.020  1.00  0.00     0.128 A 
HETATM    2  N2  UNL     1      -0.340   1.543  -0.058  1.00  0.00    -0.331 N 
ATOM      3  H2  UNL     1       0.067   2.478  -0.088  1.00  0.00     0.168 HD
HETATM    4  C6  UNL     1      -1.662   1.433  -0.096  1.00  0.00     0.087 A 
HETATM    5  N3  UNL     1      -2.178   0.197  -0.056  1.00  0.00    -0.330 N 
ATOM      6  H3  UNL     1      -3.192   0.089  -0.084  1.00  0.00     0.168 HD
HETATM    7  C10 UNL     1      -1.415  -0.905   0.020  1.00  0.00     0.132 A 
HETATM    8  C14 UNL     1      -0.018  -0.798   0.060  1.00  0.00     0.121 A 
HETATM    9 CL1  UNL     1       0.924  -2.284   0.159  1.00  0.00    -0.076 Cl
ENDROOT
BRANCH   7  10
HETATM   10  N4  UNL     1      -1.984  -2.202   0.061  1.00  0.00    -0.341 N 
HETATM   11  C11 UNL     1      -2.358  -2.917   1.244  1.00  0.00     0.251 C 
HETATM   12  N5  UNL     1      -2.952  -4.163   0.793  1.00  0.00    -0.344 N 
HETATM   13  C12 UNL     1      -2.625  -4.330  -0.560  1.00  0.00     0.236 C 
ATOM     14  H5  UNL     1      -3.508  -4.803   1.360  1.00  0.00     0.164 HD
HETATM   15  O1  UNL     1      -2.640  -5.430  -1.171  1.00  0.00    -0.272 OA
HETATM   16  C13 UNL     1      -2.269  -2.994  -1.108  1.00  0.00     0.228 C 
ENDBRANCH   7  10
BRANCH   4  17
HETATM   17  C7  UNL     1      -2.528   2.650  -0.180  1.00  0.00     0.045 C 
HETATM   18  C8  UNL     1      -2.328   3.543   1.027  1.00  0.00     0.017 C 
HETATM   19  C9  UNL     1      -2.250   3.381  -1.477  1.00  0.00     0.017 C 
ENDBRANCH   4  17
BRANCH   1  20
HETATM   20  N1  UNL     1       1.754   0.670   0.050  1.00  0.00    -0.374 N 
ATOM     21  H1  UNL     1       2.007   1.657   0.012  1.00  0.00     0.161 HD
BRANCH  20  22
HETATM   22  C4  UNL     1       2.838  -0.187   0.125  1.00  0.00     0.125 C 
BRANCH  22  23
HETATM   23  C2  UNL     1       4.185   0.559   0.128  1.00  0.00    -0.005 C 
HETATM   24  C1  UNL     1       5.338  -0.424   0.210  1.00  0.00     0.011 C 
HETATM   25  C3  UNL     1       4.314   1.460  -1.067  1.00  0.00     0.011 C 
ENDBRANCH  22  23
ENDBRANCH  20  22
ENDBRANCH   1  20
TORSDOF 5
