REMARK  4 active torsions:
REMARK  status: ('A' for Active; 'I' for Inactive)
REMARK    1  A    between atoms: C2_2  and  C3_3 
REMARK    2  A    between atoms: C3_3  and  N1_4 
REMARK    3  A    between atoms: C7_8  and  C8_9 
REMARK    4  A    between atoms: N3_13  and  C10_15 
ROOT
HETATM    1  C8  UNL     1       0.651  -0.653   0.076  1.00  0.00     0.106 A 
HETATM    2  N2  UNL     1      -0.541  -0.570  -0.500  1.00  0.00    -0.329 N 
ATOM      3  H2  UNL     1      -0.585  -0.558  -1.519  1.00  0.00     0.168 HD
HETATM    4  C9  UNL     1      -1.732  -0.499   0.211  1.00  0.00     0.126 A 
HETATM    5  N3  UNL     1      -2.784  -0.426  -0.468  1.00  0.00    -0.368 N 
ATOM      6  H3  UNL     1      -2.610  -0.428  -1.473  1.00  0.00     0.161 HD
HETATM    7  C14 UNL     1      -1.663  -0.515   1.563  1.00  0.00     0.093 A 
HETATM    8 CL1  UNL     1      -3.034  -0.435   2.655  1.00  0.00    -0.079 Cl
HETATM    9  C15 UNL     1      -0.408  -0.603   2.175  1.00  0.00     0.117 A 
HETATM   10  N5  UNL     1       0.687  -0.667   1.409  1.00  0.00    -0.352 N 
ATOM     11  H5  UNL     1       1.596  -0.730   1.868  1.00  0.00     0.166 HD
ENDROOT
BRANCH   5  12
HETATM   12  C10 UNL     1      -4.114  -0.344  -0.157  1.00  0.00     0.110 C 
HETATM   13  C11 UNL     1      -5.021  -0.772  -1.365  1.00  0.00     0.054 C 
HETATM   14  C12 UNL     1      -6.354  -0.282  -0.792  1.00  0.00     0.234 C 
HETATM   15  N4  UNL     1      -6.051   0.856   0.051  1.00  0.00    -0.073 N 
HETATM   16  C13 UNL     1      -4.636   1.101  -0.074  1.00  0.00     0.257 C 
ATOM     17  H42 UNL     1      -6.621   1.675  -0.159  1.00  0.00     0.277 HD
ATOM     18  H41 UNL     1      -6.354   0.733   1.017  1.00  0.00     0.277 HD
ENDBRANCH   5  12
BRANCH   1  19
HETATM   19  C7  UNL     1       1.857  -0.727  -0.793  1.00  0.00     0.156 C 
HETATM   20  N1  UNL     1       2.937   0.092  -0.401  1.00  0.00    -0.362 N 
HETATM   21  C4  UNL     1       4.041  -0.639   0.070  1.00  0.00     0.064 C 
HETATM   22  C5  UNL     1       3.787  -2.092  -0.278  1.00  0.00     0.047 C 
HETATM   23  C6  UNL     1       2.375  -2.134  -0.756  1.00  0.00     0.038 C 
BRANCH  20  24
HETATM   24  C3  UNL     1       2.672   1.369   0.119  1.00  0.00     0.063 C 
BRANCH  24  25
HETATM   25  C2  UNL     1       3.626   2.469  -0.215  1.00  0.00     0.040 C 
HETATM   26  C1  UNL     1       5.038   2.236   0.244  1.00  0.00     0.010 C 
ENDBRANCH  24  25
ENDBRANCH  20  24
ENDBRANCH   1  19
TORSDOF 4
