REMARK  5 active torsions:
REMARK  status: ('A' for Active; 'I' for Inactive)
REMARK    1  A    between atoms: C4_4  and  N1_5 
REMARK    2  A    between atoms: N1_5  and  C5_7 
REMARK    3  A    between atoms: C5_7  and  C6_8 
REMARK    4  A    between atoms: C6_8  and  N2_9 
REMARK    5  A    between atoms: C11_18  and  C12_19 
ROOT
HETATM    1  C1  UNL     1      -2.377  -3.123   1.993  1.00  0.00     0.068 C 
HETATM    2  C2  UNL     1      -1.854  -2.057   1.101  1.00  0.00     0.010 A 
HETATM    3  C3  UNL     1      -0.492  -2.055   0.874  1.00  0.00     0.072 A 
HETATM    4  C4  UNL     1       0.035  -1.077   0.047  1.00  0.00     0.104 A 
HETATM    5  N4  UNL     1      -0.777  -0.160  -0.511  1.00  0.00    -0.332 N 
ATOM      6  H4  UNL     1      -0.372   0.553  -1.117  1.00  0.00     0.168 HD
HETATM    7  C11 UNL     1      -2.125  -0.153  -0.292  1.00  0.00     0.087 A 
HETATM    8  N5  UNL     1      -2.592  -1.120   0.516  1.00  0.00    -0.349 N 
ATOM      9  H5  UNL     1      -3.596  -1.136   0.695  1.00  0.00     0.167 HD
ENDROOT
BRANCH   4  10
HETATM   10  N1  UNL     1       1.292  -0.985  -0.229  1.00  0.00    -0.371 N 
ATOM     11  H1  UNL     1       1.591  -0.232  -0.849  1.00  0.00     0.161 HD
BRANCH  10  12
HETATM   12  C5  UNL     1       2.297  -1.877   0.282  1.00  0.00     0.166 C 
BRANCH  12  13
HETATM   13  C6  UNL     1       3.647  -1.387  -0.125  1.00  0.00     0.082 C 
BRANCH  13  14
HETATM   14  N2  UNL     1       4.019  -0.108   0.316  1.00  0.00    -0.369 N 
HETATM   15  C7  UNL     1       3.361   1.021  -0.201  1.00  0.00     0.082 C 
HETATM   16  C8  UNL     1       4.169   2.269  -0.291  1.00  0.00     0.158 C 
HETATM   17  N3  UNL     1       5.576   2.112  -0.387  1.00  0.00    -0.415 N 
HETATM   18  C9  UNL     1       6.084   0.786  -0.366  1.00  0.00     0.134 C 
ATOM     19  H3  UNL     1       6.196   2.918  -0.468  1.00  0.00     0.153 HD
HETATM   20  C10 UNL     1       5.360   0.053   0.772  1.00  0.00     0.146 C 
ENDBRANCH  13  14
ENDBRANCH  12  13
ENDBRANCH  10  12
ENDBRANCH   4  10
BRANCH   7  21
HETATM   21  C12 UNL     1      -2.994   0.851  -0.914  1.00  0.00     0.057 C 
HETATM   22  C13 UNL     1      -4.044   0.219  -1.799  1.00  0.00     0.013 C 
HETATM   23  C14 UNL     1      -5.349   0.320  -1.035  1.00  0.00     0.001 C 
HETATM   24  C15 UNL     1      -5.172   1.398  -0.000  1.00  0.00     0.005 C 
HETATM   25  C16 UNL     1      -3.713   1.756   0.035  1.00  0.00    -0.007 C 
HETATM   26  C17 UNL     1      -3.192   1.789   1.426  1.00  0.00     0.011 C 
ENDBRANCH   7  21
TORSDOF 5
