REMARK  3 active torsions:
REMARK  status: ('A' for Active; 'I' for Inactive)
REMARK    1  A    between atoms: C6_6  and  N1_7 
REMARK    2  A    between atoms: N2_9  and  N3_11 
REMARK    3  A    between atoms: N4_13  and  C7_15 
ROOT
HETATM    1  N1  UNL     1       1.580  -1.336   0.608  1.00  0.00    -0.316 N 
ATOM      2  H1  UNL     1       2.116  -2.191   0.761  1.00  0.00     0.182 HD
HETATM    3  N2  UNL     1       1.951  -0.250   1.141  1.00  0.00    -0.233 N 
ATOM      4  H2  UNL     1       1.399   0.591   0.973  1.00  0.00     0.209 HD
ENDROOT
BRANCH   1   5
HETATM    5  C6  UNL     1       0.386  -1.361  -0.224  1.00  0.00     0.100 C 
HETATM    6  C5  UNL     1      -0.823  -1.821   0.576  1.00  0.00     0.027 C 
HETATM    7  C4  UNL     1      -2.027  -1.972  -0.280  1.00  0.00     0.002 C 
HETATM    8  C3  UNL     1      -3.310  -1.460   0.210  1.00  0.00     0.000 C 
HETATM    9  C2  UNL     1      -3.381  -0.285   1.079  1.00  0.00     0.000 C 
HETATM   10  C1  UNL     1      -3.389   1.073   0.474  1.00  0.00     0.000 C 
HETATM   11  C13 UNL     1      -2.933   1.224  -0.922  1.00  0.00     0.000 C 
HETATM   12  C12 UNL     1      -1.514   1.723  -1.077  1.00  0.00     0.000 C 
HETATM   13  C11 UNL     1      -0.497   1.016  -0.247  1.00  0.00     0.002 C 
HETATM   14  C10 UNL     1       0.238  -0.069  -0.923  1.00  0.00     0.027 C 
ENDBRANCH   1   5
BRANCH   3  15
HETATM   15  N3  UNL     1       3.071  -0.157   1.939  1.00  0.00    -0.233 N 
HETATM   16  N4  UNL     1       4.238   0.131   1.503  1.00  0.00    -0.316 N 
ATOM     17  H4  UNL     1       5.028   0.184   2.146  1.00  0.00     0.182 HD
ATOM     18  H3  UNL     1       2.962  -0.328   2.939  1.00  0.00     0.209 HD
BRANCH  16  19
HETATM   19  C7  UNL     1       4.431   0.382   0.084  1.00  0.00     0.101 A 
HETATM   20  C8  UNL     1       5.803   0.154  -0.459  1.00  0.00     0.029 A 
HETATM   21  C9  UNL     1       5.263   1.543  -0.352  1.00  0.00     0.029 A 
ENDBRANCH  16  19
ENDBRANCH   3  15
TORSDOF 3
