REMARK  4 active torsions:
REMARK  status: ('A' for Active; 'I' for Inactive)
REMARK    1  A    between atoms: C4_4  and  C5_5 
REMARK    2  A    between atoms: C5_5  and  C6_6 
REMARK    3  A    between atoms: C6_6  and  C8_8 
REMARK    4  A    between atoms: C8_8  and  C9_9 
ROOT
HETATM    1  C6  UNL     1      -0.651   0.400   0.782  1.00  0.00    -0.050 C 
HETATM    2  C7  UNL     1      -0.794   0.547   2.188  1.00  0.00     0.049 C 
ENDROOT
BRANCH   1   3
HETATM    3  C5  UNL     1       0.238  -0.055   0.074  1.00  0.00     0.008 C 
BRANCH   3   4
HETATM    4  C4  UNL     1       1.487  -0.611   0.672  1.00  0.00     0.002 C 
HETATM    5  C2  UNL     1       2.440  -1.099  -0.057  1.00  0.00    -0.088 C 
HETATM    6  C1  UNL     1       3.638  -1.622   0.640  1.00  0.00     0.043 C 
HETATM    7  C3  UNL     1       2.383  -1.142  -1.524  1.00  0.00     0.043 C 
ENDBRANCH   3   4
ENDBRANCH   1   3
BRANCH   1   8
HETATM    8  C8  UNL     1      -2.175   0.860  -0.021  1.00  0.00    -0.005 C 
HETATM    9  C11 UNL     1      -2.571   1.333   1.065  1.00  0.00     0.070 A 
HETATM   10  S2  UNL     1      -3.313   2.077   2.573  1.00  0.00    -0.043 SA
HETATM   11  S3  UNL     1      -4.469   2.122   1.315  1.00  0.00    -0.043 SA
BRANCH   8  12
HETATM   12  C9  UNL     1      -1.736   0.335  -1.226  1.00  0.00     0.021 C 
HETATM   13  C10 UNL     1      -2.142   0.816  -2.434  1.00  0.00     0.058 C 
HETATM   14  S1  UNL     1      -3.295   2.198  -2.371  1.00  0.00    -0.065 SA
ENDBRANCH   8  12
ENDBRANCH   1   8
TORSDOF 4
