REMARK  5 active torsions:
REMARK  status: ('A' for Active; 'I' for Inactive)
REMARK    1  A    between atoms: C2_2  and  S1_6 
REMARK    2  A    between atoms: S1_6  and  C3_7 
REMARK    3  A    between atoms: C3_7  and  S2_9 
REMARK    4  A    between atoms: S2_9  and  C5_10 
REMARK    5  A    between atoms: C5_10  and  C6_11 
ROOT
HETATM    1  C3  UNL     1       2.192  -0.807  -0.729  1.00  0.00     0.110 C 
HETATM    2  C4  UNL     1       2.373  -2.111   0.083  1.00  0.00     0.033 C 
ENDROOT
BRANCH   1   3
HETATM    3  S1  UNL     1       2.894   0.547   0.222  1.00  0.00    -0.102 SA
BRANCH   3   4
HETATM    4  C2  UNL     1       4.675   0.279   0.296  1.00  0.00     0.037 C 
HETATM    5  C1  UNL     1       5.575   1.196   1.071  1.00  0.00     0.076 C 
HETATM    6  N1  UNL     1       5.188  -0.698  -0.309  1.00  0.00    -0.397 N 
ATOM      7  H12 UNL     1       6.196  -0.850  -0.267  1.00  0.00     0.156 HD
ATOM      8  H11 UNL     1       4.576  -1.321  -0.836  1.00  0.00     0.156 HD
ENDBRANCH   3   4
ENDBRANCH   1   3
BRANCH   1   9
HETATM    9  S2  UNL     1       0.515  -0.647  -1.222  1.00  0.00    -0.153 SA
BRANCH   9  10
HETATM   10  C5  UNL     1      -0.715  -0.615   0.040  1.00  0.00     0.079 C 
BRANCH  10  11
HETATM   11  C6  UNL     1      -1.508   0.681   0.171  1.00  0.00    -0.005 C 
HETATM   12  C7  UNL     1      -2.481   0.449   1.311  1.00  0.00     0.005 C 
HETATM   13  C8  UNL     1      -3.607  -0.431   0.830  1.00  0.00     0.000 C 
HETATM   14  C9  UNL     1      -4.485   0.405  -0.072  1.00  0.00     0.000 C 
HETATM   15  C10 UNL     1      -3.697   1.310  -0.949  1.00  0.00     0.000 C 
HETATM   16  C11 UNL     1      -2.247   0.964  -1.121  1.00  0.00     0.005 C 
ENDBRANCH  10  11
ENDBRANCH   9  10
ENDBRANCH   1   9
TORSDOF 5
