REMARK  3 active torsions:
REMARK  status: ('A' for Active; 'I' for Inactive)
REMARK    1  A    between atoms: C3_5  and  C4_6 
REMARK    2  A    between atoms: C4_6  and  C5_8 
REMARK    3  A    between atoms: C5_8  and  C6_9 
ROOT
HETATM    1  C4  UNL     1       0.976  -1.223   0.263  1.00  0.00     0.109 C 
HETATM    2  S1  UNL     1       0.671  -2.005  -1.358  1.00  0.00    -0.086 SA
ENDROOT
BRANCH   1   3
HETATM    3  C3  UNL     1       2.476  -0.894   0.292  1.00  0.00     0.031 A 
HETATM    4  N1  UNL     1       3.016  -0.038  -0.514  1.00  0.00    -0.356 N 
HETATM    5  C2  UNL     1       4.315   0.204  -0.441  1.00  0.00     0.047 A 
ATOM      6  H1  UNL     1       2.443   0.449  -1.203  1.00  0.00     0.166 HD
HETATM    7  C1  UNL     1       5.136   1.155  -1.278  1.00  0.00     0.076 C 
HETATM    8  S2  UNL     1       4.810  -0.828   0.830  1.00  0.00    -0.087 SA
HETATM    9  C12 UNL     1       3.291  -1.521   1.198  1.00  0.00     0.077 A 
ENDBRANCH   1   3
BRANCH   1  10
HETATM   10  C5  UNL     1       0.204   0.039   0.477  1.00  0.00     0.027 C 
BRANCH  10  11
HETATM   11  C6  UNL     1      -1.280  -0.085   0.522  1.00  0.00    -0.013 C 
HETATM   12  C7  UNL     1      -1.830   1.325   0.769  1.00  0.00     0.005 C 
HETATM   13  C8  UNL     1      -3.282   1.113   1.147  1.00  0.00     0.000 C 
HETATM   14  C9  UNL     1      -3.971   0.705  -0.134  1.00  0.00     0.000 C 
HETATM   15  C10 UNL     1      -3.398  -0.482  -0.789  1.00  0.00     0.000 C 
HETATM   16  C11 UNL     1      -1.939  -0.758  -0.604  1.00  0.00     0.005 C 
ENDBRANCH  10  11
ENDBRANCH   1  10
TORSDOF 3
