REMARK  4 active torsions:
REMARK  status: ('A' for Active; 'I' for Inactive)
REMARK    1  A    between atoms: N1_2  and  N2_4 
REMARK    2  A    between atoms: N3_6  and  C3_8 
REMARK    3  A    between atoms: C4_12  and  O1_13 
REMARK    4  A    between atoms: C5_15  and  C6_16 
ROOT
HETATM    1  C3  UNL     1      -0.317   1.066  -0.349  1.00  0.00     0.120 A 
HETATM    2  S1  UNL     1      -0.420   2.712  -0.764  1.00  0.00     0.008 SA
HETATM    3  N4  UNL     1      -2.044   2.974  -0.421  1.00  0.00    -0.305 N 
ATOM      4  H4  UNL     1      -2.572   3.841  -0.520  1.00  0.00     0.176 HD
HETATM    5  C4  UNL     1      -2.486   1.794   0.009  1.00  0.00     0.159 A 
HETATM    6  C5  UNL     1      -1.594   0.770   0.057  1.00  0.00     0.068 A 
ENDROOT
BRANCH   1   7
HETATM    7  N3  UNL     1       0.821   0.167  -0.397  1.00  0.00    -0.278 N 
HETATM    8  N2  UNL     1       1.935   0.680  -0.074  1.00  0.00    -0.245 N 
ATOM      9  H2  UNL     1       1.946   1.665   0.190  1.00  0.00     0.208 HD
ATOM     10  H3  UNL     1       0.731  -0.811  -0.672  1.00  0.00     0.189 HD
BRANCH   8  11
HETATM   11  N1  UNL     1       3.133  -0.003  -0.055  1.00  0.00    -0.322 N 
HETATM   12  C1  UNL     1       4.366   0.760  -0.125  1.00  0.00     0.172 C 
HETATM   13  C2  UNL     1       3.250  -1.440   0.031  1.00  0.00     0.172 C 
ENDBRANCH   8  11
ENDBRANCH   1   7
BRANCH   6  14
HETATM   14  C6  UNL     1      -1.939  -0.636   0.523  1.00  0.00     0.130 C 
HETATM   15  C7  UNL     1      -1.656  -1.598  -0.641  1.00  0.00     0.057 C 
HETATM   16  C8  UNL     1      -3.370  -0.813   0.870  1.00  0.00     0.057 C 
HETATM   17  F1  UNL     1      -1.165  -1.005   1.587  1.00  0.00    -0.238 F 
ENDBRANCH   6  14
BRANCH   5  18
HETATM   18  O1  UNL     1      -3.743   1.708   0.353  1.00  0.00    -0.345 OA
ATOM     19  H1  UNL     1      -4.058   0.866   0.660  1.00  0.00     0.219 HD
ENDBRANCH   5  18
TORSDOF 4
