REMARK  3 active torsions:
REMARK  status: ('A' for Active; 'I' for Inactive)
REMARK    1  A    between atoms: C2_2  and  C3_3 
REMARK    2  A    between atoms: C4_4  and  N1_5 
REMARK    3  A    between atoms: C5_9  and  O4_10 
ROOT
HETATM    1  C3  UNL     1       0.043   0.158  -0.499  1.00  0.00     0.021 A 
HETATM    2  C4  UNL     1       0.867  -0.888  -0.157  1.00  0.00     0.224 A 
HETATM    3  O3  UNL     1       2.085  -0.393   0.084  1.00  0.00    -0.263 OA
HETATM    4  C5  UNL     1       2.119   0.891  -0.074  1.00  0.00     0.203 A 
HETATM    5  C6  UNL     1       0.849   1.282  -0.443  1.00  0.00     0.080 A 
HETATM    6 BR1  UNL     1       0.274   3.061  -0.821  1.00  0.00    -0.045 Br
ENDROOT
BRANCH   2   7
HETATM    7  N1  UNL     1       0.559  -2.262  -0.058  1.00  0.00    -0.090 N 
HETATM    8  O1  UNL     1       1.459  -3.056   0.274  1.00  0.00    -0.530 OA
HETATM    9  O2  UNL     1      -0.673  -2.767  -0.306  1.00  0.00    -0.530 OA
ENDBRANCH   2   7
BRANCH   1  10
HETATM   10  C2  UNL     1      -1.395   0.112  -0.837  1.00  0.00     0.040 C 
HETATM   11  C1  UNL     1      -2.285   0.022   0.363  1.00  0.00     0.010 C 
ENDBRANCH   1  10
BRANCH   4  12
HETATM   12  O4  UNL     1       3.212   1.763   0.088  1.00  0.00    -0.340 OA
ATOM     13  H4  UNL     1       3.237   2.706  -0.028  1.00  0.00     0.220 HD
ENDBRANCH   4  12
TORSDOF 3
