REMARK  6 active torsions:
REMARK  status: ('A' for Active; 'I' for Inactive)
REMARK    1  A    between atoms: C2_2  and  N1_4 
REMARK    2  A    between atoms: C2_2  and  C11_18 
REMARK    3  A    between atoms: N1_4  and  C4_6 
REMARK    4  A    between atoms: C7_9  and  O1_10 
REMARK    5  A    between atoms: O1_10  and  C8_11 
REMARK    6  A    between atoms: C8_11  and  C9_12 
ROOT
HETATM    1  C4  UNL     1      -0.485   0.600   0.314  1.00  0.00     0.105 A 
HETATM    2  C5  UNL     1       0.007  -0.216  -0.683  1.00  0.00     0.040 A 
HETATM    3  C6  UNL     1       1.382  -0.254  -0.909  1.00  0.00     0.066 A 
HETATM    4  C7  UNL     1       2.269   0.496  -0.171  1.00  0.00     0.189 A 
HETATM    5  O2  UNL     1       1.762   1.251   0.757  1.00  0.00    -0.250 OA
HETATM    6  C10 UNL     1       0.464   1.321   1.010  1.00  0.00     0.316 A 
HETATM    7  O3  UNL     1       0.079   2.089   1.937  1.00  0.00    -0.257 OA
ENDROOT
BRANCH   1   8
HETATM    8  N1  UNL     1      -1.857   0.731   0.642  1.00  0.00    -0.374 N 
ATOM      9  H1  UNL     1      -2.099   1.373   1.397  1.00  0.00     0.160 HD
BRANCH   8  10
HETATM   10  C2  UNL     1      -2.941   0.030  -0.005  1.00  0.00     0.053 C 
HETATM   11  C1  UNL     1      -2.842  -1.456   0.109  1.00  0.00     0.041 C 
HETATM   12  C3  UNL     1      -3.026   0.395  -1.479  1.00  0.00     0.041 C 
BRANCH  10  13
HETATM   13  C11 UNL     1      -4.240   0.464   0.690  1.00  0.00     0.205 C 
HETATM   14 CL3  UNL     1      -4.188  -0.024   2.399  1.00  0.00    -0.106 Cl
HETATM   15 CL4  UNL     1      -4.386   2.238   0.591  1.00  0.00    -0.106 Cl
ENDBRANCH  10  13
ENDBRANCH   8  10
ENDBRANCH   1   8
BRANCH   4  16
HETATM   16  O1  UNL     1       3.643   0.493  -0.357  1.00  0.00    -0.328 OA
BRANCH  16  17
HETATM   17  C8  UNL     1       4.455  -0.482   0.248  1.00  0.00     0.213 C 
BRANCH  17  18
HETATM   18  C9  UNL     1       5.904  -0.244  -0.125  1.00  0.00     0.202 C 
HETATM   19 CL1  UNL     1       6.950  -1.457   0.624  1.00  0.00    -0.106 Cl
HETATM   20 CL2  UNL     1       6.114  -0.341  -1.880  1.00  0.00    -0.106 Cl
ENDBRANCH  17  18
ENDBRANCH  16  17
ENDBRANCH   4  16
TORSDOF 6
