REMARK  5 active torsions:
REMARK  status: ('A' for Active; 'I' for Inactive)
REMARK    1  A    between atoms: C4_5  and  C5_6 
REMARK    2  A    between atoms: C8_10  and  N2_11 
REMARK    3  A    between atoms: N2_11  and  C9_13 
REMARK    4  A    between atoms: C13_18  and  O2_19 
REMARK    5  A    between atoms: O2_19  and  C14_20 
ROOT
HETATM    1  C1  UNL     1       5.952  -0.981   0.491  1.00  0.00     0.060 C 
HETATM    2  C2  UNL     1       4.617  -0.366   0.313  1.00  0.00     0.019 C 
HETATM    3  C3  UNL     1       4.553   1.029   0.042  1.00  0.00     0.094 C 
HETATM    4  N1  UNL     1       4.521   2.194  -0.158  1.00  0.00    -0.192 NA
HETATM    5  C4  UNL     1       3.545  -1.087   0.456  1.00  0.00     0.031 C 
ENDROOT
BRANCH   5   6
HETATM    6  C5  UNL     1       2.161  -0.615   0.305  1.00  0.00    -0.007 A 
HETATM    7  C6  UNL     1       1.314  -0.649   1.392  1.00  0.00     0.058 A 
HETATM    8  C7  UNL     1      -0.020  -0.247   1.311  1.00  0.00     0.146 A 
HETATM    9  F1  UNL     1      -0.761  -0.294   2.429  1.00  0.00    -0.204 F 
HETATM   10  C8  UNL     1      -0.563   0.206   0.131  1.00  0.00     0.104 A 
HETATM   11  C13 UNL     1       0.286   0.239  -0.957  1.00  0.00     0.127 A 
HETATM   12  C15 UNL     1       1.622  -0.166  -0.868  1.00  0.00     0.080 A 
HETATM   13 CL1  UNL     1       2.609  -0.156  -2.312  1.00  0.00    -0.080 Cl
BRANCH  10  14
HETATM   14  N2  UNL     1      -1.930   0.592  -0.014  1.00  0.00    -0.359 N 
ATOM     15  H2  UNL     1      -2.181   0.995  -0.917  1.00  0.00     0.162 HD
BRANCH  14  16
HETATM   16  C9  UNL     1      -2.986   0.491   0.926  1.00  0.00     0.221 C 
HETATM   17  C10 UNL     1      -3.387  -0.940   1.152  1.00  0.00     0.056 C 
HETATM   18  C11 UNL     1      -4.713  -1.053   0.490  1.00  0.00     0.031 C 
HETATM   19  C12 UNL     1      -4.871   0.255  -0.240  1.00  0.00     0.170 C 
HETATM   20  O1  UNL     1      -4.093   1.180   0.434  1.00  0.00    -0.367 OA
ENDBRANCH  14  16
ENDBRANCH  10  14
BRANCH  11  21
HETATM   21  O2  UNL     1      -0.186   0.694  -2.200  1.00  0.00    -0.286 OA
BRANCH  21  22
HETATM   22  C14 UNL     1      -0.063   2.067  -2.589  1.00  0.00     0.505 C 
HETATM   23  F2  UNL     1       0.906   2.175  -3.590  1.00  0.00    -0.184 F 
HETATM   24  F3  UNL     1      -1.231   2.477  -3.173  1.00  0.00    -0.184 F 
ENDBRANCH  21  22
ENDBRANCH  11  21
ENDBRANCH   5   6
TORSDOF 5
