REMARK  6 active torsions:
REMARK  status: ('A' for Active; 'I' for Inactive)
REMARK    1  A    between atoms: C1_2  and  S1_4 
REMARK    2  A    between atoms: S1_4  and  C2_5 
REMARK    3  A    between atoms: C5_8  and  O1_9 
REMARK    4  A    between atoms: O1_9  and  C6_10 
REMARK    5  A    between atoms: C9_13  and  C10_14 
REMARK    6  A    between atoms: C10_14  and  N1_16 
ROOT
HETATM    1  C6  UNL     1       1.262   1.030   0.244  1.00  0.00     0.076 A 
HETATM    2  C7  UNL     1       1.153  -0.294  -0.099  1.00  0.00     0.038 A 
HETATM    3  C8  UNL     1       2.244  -1.171  -0.055  1.00  0.00     0.013 A 
HETATM    4  C9  UNL     1       3.443  -0.656   0.341  1.00  0.00    -0.020 A 
HETATM    5  C11 UNL     1       3.588   0.670   0.690  1.00  0.00     0.013 A 
HETATM    6  C12 UNL     1       2.475   1.511   0.634  1.00  0.00     0.038 A 
ENDROOT
BRANCH   1   7
HETATM    7  O1  UNL     1       0.185   1.896   0.212  1.00  0.00    -0.311 OA
BRANCH   7   8
HETATM    8  C5  UNL     1      -1.087   1.397  -0.094  1.00  0.00     0.076 A 
HETATM    9  C4  UNL     1      -1.548   1.363  -1.376  1.00  0.00     0.038 A 
HETATM   10  C3  UNL     1      -2.809   0.875  -1.646  1.00  0.00     0.021 A 
HETATM   11  C2  UNL     1      -3.679   0.392  -0.641  1.00  0.00     0.005 A 
HETATM   12  C14 UNL     1      -3.197   0.426   0.639  1.00  0.00     0.021 A 
HETATM   13  C13 UNL     1      -1.914   0.926   0.904  1.00  0.00     0.038 A 
BRANCH  11  14
HETATM   14  S1  UNL     1      -5.311   0.005  -1.161  1.00  0.00    -0.061 SA
BRANCH  14  15
HETATM   15  C1  UNL     1      -6.440  -0.644   0.025  1.00  0.00     0.420 C 
HETATM   16  F1  UNL     1      -6.758  -1.953  -0.267  1.00  0.00    -0.202 F 
HETATM   17  F2  UNL     1      -5.853  -0.782   1.326  1.00  0.00    -0.202 F 
ENDBRANCH  14  15
ENDBRANCH  11  14
ENDBRANCH   7   8
ENDBRANCH   1   7
BRANCH   4  18
HETATM   18  C10 UNL     1       4.671  -1.513   0.434  1.00  0.00     0.223 C 
HETATM   19 CL1  UNL     1       4.285  -3.188   0.132  1.00  0.00    -0.096 Cl
BRANCH  18  20
HETATM   20  N1  UNL     1       5.650  -0.955  -0.471  1.00  0.00    -0.311 N 
HETATM   21 CL2  UNL     1       5.228  -1.027  -2.125  1.00  0.00     0.007 Cl
ATOM     22  H1  UNL     1       6.527  -0.549  -0.146  1.00  0.00     0.176 HD
ENDBRANCH  18  20
ENDBRANCH   4  18
TORSDOF 6
