REMARK  6 active torsions:
REMARK  status: ('A' for Active; 'I' for Inactive)
REMARK    1  A    between atoms: C2_2  and  C4_5 
REMARK    2  A    between atoms: C4_5  and  N1_6 
REMARK    3  A    between atoms: N1_6  and  C5_8 
REMARK    4  A    between atoms: C5_8  and  O1_9 
REMARK    5  A    between atoms: C5_8  and  C7_14 
REMARK    6  A    between atoms: O1_9  and  C6_10 
ROOT
HETATM    1  C5  UNL     1       1.152  -0.389  -0.568  1.00  0.00     0.281 C 
ENDROOT
BRANCH   1   2
HETATM    2  N1  UNL     1      -0.127   0.195  -0.346  1.00  0.00    -0.390 N 
ATOM      3  H1  UNL     1      -0.231   1.198  -0.192  1.00  0.00     0.156 HD
BRANCH   2   4
HETATM    4  C4  UNL     1      -1.251  -0.669  -0.347  1.00  0.00     0.141 C 
BRANCH   4   5
HETATM    5  C2  UNL     1      -2.558   0.080  -0.104  1.00  0.00     0.045 C 
HETATM    6  C1  UNL     1      -3.669  -0.945  -0.128  1.00  0.00     0.034 C 
HETATM    7  C3  UNL     1      -2.546   0.816   1.205  1.00  0.00     0.034 C 
HETATM    8 CL1  UNL     1      -2.854   1.258  -1.401  1.00  0.00    -0.118 Cl
ENDBRANCH   4   5
ENDBRANCH   2   4
ENDBRANCH   1   2
BRANCH   1   9
HETATM    9  O1  UNL     1       1.457  -1.324   0.373  1.00  0.00    -0.295 OA
BRANCH   9  10
HETATM   10  C6  UNL     1       1.875  -2.547  -0.060  1.00  0.00     0.371 C 
HETATM   11  F1  UNL     1       3.042  -2.332  -0.812  1.00  0.00    -0.176 F 
HETATM   12 CL2  UNL     1       0.735  -3.495  -0.986  1.00  0.00    -0.034 Cl
HETATM   13 CL3  UNL     1       2.420  -3.565   1.321  1.00  0.00    -0.034 Cl
ENDBRANCH   9  10
ENDBRANCH   1   9
BRANCH   1  14
HETATM   14  C7  UNL     1       2.129   0.772  -0.425  1.00  0.00     0.101 A 
HETATM   15  N2  UNL     1       2.174   1.709   0.483  1.00  0.00    -0.358 N 
HETATM   16  C8  UNL     1       3.095   2.626   0.437  1.00  0.00     0.120 A 
ATOM     17  H2  UNL     1       1.483   1.722   1.233  1.00  0.00     0.165 HD
HETATM   18  C9  UNL     1       3.999   2.554  -0.597  1.00  0.00     0.091 A 
HETATM   19 CL4  UNL     1       5.352   3.638  -0.932  1.00  0.00    -0.075 Cl
HETATM   20  S1  UNL     1       3.455   1.165  -1.435  1.00  0.00    -0.059 SA
ENDBRANCH   1  14
TORSDOF 6
