REMARK  6 active torsions:
REMARK  status: ('A' for Active; 'I' for Inactive)
REMARK    1  A    between atoms: C2_2  and  C3_3 
REMARK    2  A    between atoms: C3_3  and  C4_5 
REMARK    3  A    between atoms: C5_6  and  N1_7 
REMARK    4  A    between atoms: N1_7  and  C6_9 
REMARK    5  A    between atoms: C12_15  and  C13_16 
REMARK    6  A    between atoms: N3_22  and  C14_23 
ROOT
HETATM    1  C4  UNL     1      -1.524  -0.217  -0.229  1.00  0.00     0.125 A 
HETATM    2  C5  UNL     1      -0.445  -1.075   0.080  1.00  0.00     0.092 A 
HETATM    3  C12 UNL     1      -0.900  -1.861   1.115  1.00  0.00     0.143 A 
HETATM    4  N2  UNL     1      -2.149  -1.493   1.396  1.00  0.00    -0.293 N 
ATOM      5  H2  UNL     1      -2.727  -1.912   2.124  1.00  0.00     0.187 HD
HETATM    6  N3  UNL     1      -2.544  -0.494   0.589  1.00  0.00    -0.286 N 
ENDROOT
BRANCH   2   7
HETATM    7  N1  UNL     1       0.855  -1.094  -0.524  1.00  0.00    -0.382 N 
ATOM      8  H1  UNL     1       0.926  -1.548  -1.435  1.00  0.00     0.160 HD
BRANCH   7   9
HETATM    9  C6  UNL     1       2.052  -0.552   0.005  1.00  0.00     0.082 C 
HETATM   10  C7  UNL     1       2.000   0.857   0.523  1.00  0.00     0.025 C 
HETATM   11  C8  UNL     1       3.444   1.326   0.720  1.00  0.00     0.002 C 
HETATM   12  C9  UNL     1       4.416   0.178   0.800  1.00  0.00     0.000 C 
HETATM   13  C10 UNL     1       4.465  -0.565  -0.528  1.00  0.00     0.002 C 
HETATM   14  C11 UNL     1       3.098  -0.509  -1.137  1.00  0.00     0.025 C 
ENDBRANCH   7   9
ENDBRANCH   2   7
BRANCH   1  15
HETATM   15  C3  UNL     1      -1.493   0.712  -1.318  1.00  0.00     0.179 C 
HETATM   16  O1  UNL     1      -0.433   0.705  -2.069  1.00  0.00    -0.291 OA
BRANCH  15  17
HETATM   17  C2  UNL     1      -2.483   1.705  -1.747  1.00  0.00     0.081 C 
HETATM   18  C1  UNL     1      -3.313   1.224  -2.920  1.00  0.00     0.013 C 
ENDBRANCH  15  17
ENDBRANCH   1  15
BRANCH   3  19
HETATM   19  C13 UNL     1      -0.138  -2.931   1.817  1.00  0.00     0.367 C 
HETATM   20  F1  UNL     1       0.310  -3.900   0.975  1.00  0.00    -0.181 F 
HETATM   21  F2  UNL     1       0.797  -2.396   2.664  1.00  0.00    -0.181 F 
HETATM   22 CL1  UNL     1      -1.311  -3.769   2.920  1.00  0.00    -0.041 Cl
ENDBRANCH   3  19
BRANCH   6  23
HETATM   23  C14 UNL     1      -3.866   0.061   0.749  1.00  0.00     0.145 C 
HETATM   24  C15 UNL     1      -3.841   1.170   1.812  1.00  0.00     0.028 C 
ENDBRANCH   6  23
TORSDOF 6
