REMARK  6 active torsions:
REMARK  status: ('A' for Active; 'I' for Inactive)
REMARK    1  A    between atoms: C2_2  and  C3_3 
REMARK    2  A    between atoms: C3_3  and  C4_4 
REMARK    3  A    between atoms: C3_3  and  N2_11 
REMARK    4  A    between atoms: C4_4  and  C5_5 
REMARK    5  A    between atoms: N1_7  and  O1_9 
REMARK    6  A    between atoms: C7_14  and  C8_15 
ROOT
HETATM    1  N2  UNL     1       0.318  -0.283   0.085  1.00  0.00    -0.290 N 
HETATM    2  N3  UNL     1       1.274   0.259  -0.648  1.00  0.00    -0.295 N 
ATOM      3  H3  UNL     1       1.100   0.895  -1.427  1.00  0.00     0.187 HD
HETATM    4  C7  UNL     1       2.485  -0.115  -0.259  1.00  0.00     0.116 A 
HETATM    5  C10 UNL     1       2.271  -0.962   0.808  1.00  0.00     0.064 A 
HETATM    6 BR1  UNL     1       3.620  -1.861   1.841  1.00  0.00    -0.047 Br
HETATM    7  C11 UNL     1       0.910  -1.057   1.009  1.00  0.00     0.044 A 
HETATM    8  C12 UNL     1       0.292  -1.885   2.077  1.00  0.00     0.071 C 
ENDROOT
BRANCH   1   9
HETATM    9  C3  UNL     1      -1.109  -0.099  -0.056  1.00  0.00     0.113 C 
BRANCH   9  10
HETATM   10  C2  UNL     1      -1.607  -0.609  -1.392  1.00  0.00     0.023 C 
HETATM   11  C1  UNL     1      -1.308  -2.075  -1.571  1.00  0.00     0.007 C 
ENDBRANCH   9  10
BRANCH   9  12
HETATM   12  C4  UNL     1      -1.420   1.386   0.108  1.00  0.00     0.081 C 
BRANCH  12  13
HETATM   13  C5  UNL     1      -2.879   1.631   0.039  1.00  0.00     0.008 C 
HETATM   14  C6  UNL     1      -3.820   1.009   1.000  1.00  0.00     0.065 C 
HETATM   15  N1  UNL     1      -3.349   2.398  -0.869  1.00  0.00    -0.278 N 
ATOM     16  H1  UNL     1      -4.352   2.576  -0.929  1.00  0.00     0.193 HD
BRANCH  15  17
HETATM   17  O1  UNL     1      -2.487   2.976  -1.759  1.00  0.00    -0.290 OA
ATOM     18  H1  UNL     1      -2.836   3.546  -2.434  1.00  0.00     0.244 HD
ENDBRANCH  15  17
ENDBRANCH  12  13
ENDBRANCH   9  12
ENDBRANCH   1   9
BRANCH   4  19
HETATM   19  C8  UNL     1       3.835   0.233  -0.774  1.00  0.00     0.284 C 
HETATM   20  C9  UNL     1       4.650   0.902   0.321  1.00  0.00     0.097 C 
HETATM   21  F1  UNL     1       4.469  -0.987  -1.041  1.00  0.00    -0.200 F 
HETATM   22  F2  UNL     1       3.796   1.037  -1.867  1.00  0.00    -0.200 F 
ENDBRANCH   4  19
TORSDOF 6
