REMARK  9 active torsions:
REMARK  status: ('A' for Active; 'I' for Inactive)
REMARK    1  A    between atoms: C4_5  and  C5_6 
REMARK    2  A    between atoms: C9_12  and  N2_13 
REMARK       I    between atoms: N2_13  and  C10_15 
REMARK    3  A    between atoms: C10_15  and  C11_17 
REMARK    4  A    between atoms: C13_21  and  O3_22 
REMARK    5  A    between atoms: O3_22  and  C14_23 
REMARK    6  A    between atoms: C16_28  and  C17_29 
REMARK    7  A    between atoms: C21_33  and  N4_34 
REMARK    8  A    between atoms: C23_40  and  N5_41 
REMARK    9  A    between atoms: N5_41  and  O4_43 
ROOT
HETATM    1  C5  UNL     1      -1.874   1.909  -0.271  1.00  0.00     0.000 A 
HETATM    2  C6  UNL     1      -2.982   2.706  -0.346  1.00  0.00     0.029 A 
HETATM    3  C7  UNL     1      -2.949   4.064  -0.016  1.00  0.00     0.088 A 
HETATM    4  N1  UNL     1      -1.780   4.541   0.377  1.00  0.00    -0.373 N 
ATOM      5  H1  UNL     1      -1.729   5.529   0.625  1.00  0.00     0.164 HD
HETATM    6  C8  UNL     1      -0.637   3.801   0.474  1.00  0.00     0.117 A 
HETATM    7  C9  UNL     1      -0.667   2.484   0.154  1.00  0.00     0.059 A 
ENDROOT
BRANCH   7   8
HETATM    8  N2  UNL     1       0.469   1.636   0.226  1.00  0.00    -0.320 N 
HETATM    9  C10 UNL     1       1.776   1.963   0.587  1.00  0.00     0.273 C 
HETATM   10  O2  UNL     1       2.021   3.192   0.924  1.00  0.00    -0.266 OA
ATOM     11  H2  UNL     1       0.308   0.659  -0.018  1.00  0.00     0.169 HD
BRANCH   9  12
HETATM   12  C11 UNL     1       2.971   1.143   0.665  1.00  0.00     0.110 A 
HETATM   13  N3  UNL     1       3.897   1.462   1.644  1.00  0.00    -0.358 N 
HETATM   14  C12 UNL     1       5.053   0.818   1.740  1.00  0.00     0.128 A 
ATOM     15  H3  UNL     1       3.686   2.209   2.306  1.00  0.00     0.165 HD
HETATM   16  C13 UNL     1       5.413  -0.197   0.891  1.00  0.00     0.129 A 
HETATM   17  C15 UNL     1       4.489  -0.524  -0.095  1.00  0.00     0.160 A 
HETATM   18  F3  UNL     1       4.777  -1.546  -0.922  1.00  0.00    -0.202 F 
HETATM   19  C16 UNL     1       3.259   0.141  -0.222  1.00  0.00     0.020 A 
BRANCH  16  20
HETATM   20  O3  UNL     1       6.595  -0.906   0.935  1.00  0.00    -0.286 OA
BRANCH  20  21
HETATM   21  C14 UNL     1       7.656  -0.774   1.804  1.00  0.00     0.505 C 
HETATM   22  F1  UNL     1       7.845  -1.912   2.591  1.00  0.00    -0.184 F 
HETATM   23  F2  UNL     1       8.850  -0.491   1.124  1.00  0.00    -0.184 F 
ENDBRANCH  20  21
ENDBRANCH  16  20
BRANCH  19  24
HETATM   24  C17 UNL     1       2.302  -0.281  -1.265  1.00  0.00     0.024 A 
HETATM   25  C18 UNL     1       2.921  -0.896  -2.530  1.00  0.00     0.010 A 
HETATM   26  C19 UNL     1       2.096   0.377  -2.562  1.00  0.00     0.010 A 
ENDBRANCH  19  24
ENDBRANCH   9  12
ENDBRANCH   7   8
BRANCH   1  27
HETATM   27  C4  UNL     1      -1.929   0.441  -0.616  1.00  0.00     0.160 C 
HETATM   28  O1  UNL     1      -1.872  -0.221   0.566  1.00  0.00    -0.369 OA
HETATM   29  C2  UNL     1      -1.882  -1.574   0.600  1.00  0.00     0.079 C 
HETATM   30  C1  UNL     1      -1.321  -2.307  -0.570  1.00  0.00     0.048 C 
HETATM   31  C3  UNL     1      -1.010  -1.968   1.817  1.00  0.00     0.048 C 
HETATM   32  C23 UNL     1      -3.258  -2.136   0.970  1.00  0.00     0.175 C 
HETATM   33  C22 UNL     1      -4.296  -1.808  -0.037  1.00  0.00     0.228 C 
HETATM   34  C21 UNL     1      -4.335  -0.329  -0.377  1.00  0.00     0.222 C 
HETATM   35  F4  UNL     1      -5.530  -2.133   0.545  1.00  0.00    -0.245 F 
HETATM   36  C20 UNL     1      -3.228   0.090  -1.308  1.00  0.00     0.072 C 
BRANCH  32  37
HETATM   37  N5  UNL     1      -3.589  -1.676   2.284  1.00  0.00    -0.294 N 
ATOM     38  H5  UNL     1      -2.971  -1.046   2.795  1.00  0.00     0.188 HD
BRANCH  37  39
HETATM   39  O4  UNL     1      -4.616  -2.058   2.760  1.00  0.00    -0.294 OA
ATOM     40  H4  UNL     1      -4.836  -1.753   3.632  1.00  0.00     0.244 HD
ENDBRANCH  37  39
ENDBRANCH  32  37
BRANCH  34  41
HETATM   41  N4  UNL     1      -5.606  -0.093  -1.104  1.00  0.00    -0.072 N 
ATOM     42  H43 UNL     1      -5.705   0.863  -1.445  1.00  0.00     0.274 HD
ATOM     43  H42 UNL     1      -5.644  -0.556  -2.012  1.00  0.00     0.274 HD
ATOM     44  H41 UNL     1      -6.356  -0.377  -0.473  1.00  0.00     0.274 HD
ENDBRANCH  34  41
ENDBRANCH   1  27
TORSDOF 9
