REMARK  8 active torsions:
REMARK  status: ('A' for Active; 'I' for Inactive)
REMARK    1  A    between atoms: O1_2  and  C2_3 
REMARK    2  A    between atoms: C3_6  and  N2_7 
REMARK    3  A    between atoms: N2_7  and  C4_9 
REMARK    4  A    between atoms: C4_9  and  C6_11 
REMARK    5  A    between atoms: C7_16  and  S1_17 
REMARK    6  A    between atoms: S1_17  and  C8_18 
REMARK    7  A    between atoms: C10_25  and  C11_26 
REMARK    8  A    between atoms: C13_28  and  C14_29 
ROOT
HETATM    1  C2  UNL     1       0.349   0.300  -0.026  1.00  0.00     0.171 A 
HETATM    2  N1  UNL     1       1.716   0.276   0.037  1.00  0.00    -0.170 N 
ATOM      3  H1  UNL     1       2.164   0.306   0.953  1.00  0.00     0.186 HD
HETATM    4  C3  UNL     1       2.487   0.215  -1.050  1.00  0.00     0.680 A 
HETATM    5  N5  UNL     1       1.862   0.176  -2.263  1.00  0.00    -0.201 N 
ATOM      6  H5  UNL     1       2.419   0.130  -3.116  1.00  0.00     0.183 HD
HETATM    7  C9  UNL     1       0.530   0.198  -2.346  1.00  0.00     0.124 A 
HETATM    8  C10 UNL     1      -0.301   0.260  -1.212  1.00  0.00     0.058 A 
ENDROOT
BRANCH   8   9
HETATM    9  C11 UNL     1      -1.729   0.300  -1.360  1.00  0.00     0.050 A 
HETATM   10  C12 UNL     1      -2.687   0.009  -0.450  1.00  0.00     0.038 A 
HETATM   11  C13 UNL     1      -4.067   0.037  -0.709  1.00  0.00    -0.047 A 
HETATM   12  C19 UNL     1      -4.421   0.385  -1.981  1.00  0.00     0.069 A 
HETATM   13  C20 UNL     1      -3.471   0.690  -2.946  1.00  0.00     0.189 A 
HETATM   14  F3  UNL     1      -3.839   1.037  -4.217  1.00  0.00    -0.186 F 
HETATM   15  N7  UNL     1      -2.190   0.639  -2.613  1.00  0.00    -0.332 N 
ATOM     16  H7  UNL     1      -1.501   0.865  -3.330  1.00  0.00     0.168 HD
BRANCH  11  17
HETATM   17  C14 UNL     1      -5.053  -0.279   0.323  1.00  0.00     0.031 A 
HETATM   18  C15 UNL     1      -6.024  -1.292   0.082  1.00  0.00     0.026 A 
HETATM   19  C16 UNL     1      -7.187  -1.487  -0.788  1.00  0.00     0.238 C 
HETATM   20  C18 UNL     1      -6.364   0.239   0.316  1.00  0.00     0.026 A 
HETATM   21  N6  UNL     1      -8.271  -0.958   0.068  1.00  0.00    -0.074 N 
HETATM   22  C17 UNL     1      -7.604  -0.059   1.032  1.00  0.00     0.238 C 
ATOM     23  H62 UNL     1      -9.027  -0.514  -0.453  1.00  0.00     0.277 HD
ATOM     24  H61 UNL     1      -8.839  -1.683   0.507  1.00  0.00     0.277 HD
ENDBRANCH  11  17
ENDBRANCH   8   9
BRANCH   1  25
HETATM   25  O1  UNL     1      -0.317   0.374   1.187  1.00  0.00    -0.340 OA
HETATM   26  C1  UNL     1      -0.436   1.708   1.721  1.00  0.00     0.211 C 
ENDBRANCH   1  25
BRANCH   4  27
HETATM   27  N2  UNL     1       3.774   0.189  -0.998  1.00  0.00    -0.216 N 
ATOM     28  H2  UNL     1       4.313   0.142  -1.863  1.00  0.00     0.178 HD
BRANCH  27  29
HETATM   29  C4  UNL     1       4.451   0.225   0.251  1.00  0.00     0.154 C 
HETATM   30  C5  UNL     1       4.379  -1.093   0.996  1.00  0.00     0.040 C 
BRANCH  29  31
HETATM   31  C6  UNL     1       5.924   0.493   0.068  1.00  0.00     0.091 A 
HETATM   32  N3  UNL     1       6.715   1.325   0.740  1.00  0.00    -0.294 N 
HETATM   33  N4  UNL     1       7.938   1.408   0.432  1.00  0.00    -0.287 N 
ATOM     34  H3  UNL     1       6.337   1.892   1.499  1.00  0.00     0.187 HD
HETATM   35  C7  UNL     1       8.425   0.667  -0.557  1.00  0.00     0.133 A 
ATOM     36  H4  UNL     1       8.551   2.044   0.943  1.00  0.00     0.188 HD
HETATM   37  S2  UNL     1       7.026  -0.183  -1.050  1.00  0.00    -0.047 SA
BRANCH  35  38
HETATM   38  S1  UNL     1      10.118   0.637  -1.145  1.00  0.00    -0.034 SA
BRANCH  38  39
HETATM   39  C8  UNL     1      11.056  -0.619  -0.216  1.00  0.00     0.422 C 
HETATM   40  F1  UNL     1      10.597  -1.898  -0.485  1.00  0.00    -0.202 F 
HETATM   41  F2  UNL     1      10.793  -0.389   1.135  1.00  0.00    -0.202 F 
ENDBRANCH  38  39
ENDBRANCH  35  38
ENDBRANCH  29  31
ENDBRANCH  27  29
ENDBRANCH   4  27
TORSDOF 8
