REMARK  3 active torsions:
REMARK  status: ('A' for Active; 'I' for Inactive)
REMARK    1  A    between atoms: N1_1  and  N2_4 
REMARK       I    between atoms: N2_4  and  C1_6 
REMARK    2  A    between atoms: C1_6  and  C2_8 
REMARK    3  A    between atoms: C5_14  and  C6_15 
ROOT
HETATM    1  C2  UNL     1      -0.136  -0.585  -0.839  1.00  0.00     0.178 A 
HETATM    2  N3  UNL     1      -1.422  -0.203  -0.758  1.00  0.00    -0.326 N 
ATOM      3  H3  UNL     1      -2.067  -0.544  -1.471  1.00  0.00     0.168 HD
HETATM    4  C3  UNL     1      -1.913   0.599   0.202  1.00  0.00     0.120 A 
HETATM    5  N4  UNL     1      -3.289   0.961   0.223  1.00  0.00    -0.083 NA
HETATM    6  C4  UNL     1      -1.016   1.041   1.149  1.00  0.00     0.080 A 
HETATM    7  C5  UNL     1       0.319   0.687   1.124  1.00  0.00     0.102 A 
HETATM    8  N6  UNL     1       0.712  -0.119   0.123  1.00  0.00    -0.334 N 
ATOM      9  H6  UNL     1       1.693  -0.396   0.080  1.00  0.00     0.168 HD
ENDROOT
BRANCH   1  10
HETATM   10  C1  UNL     1       0.345  -1.458  -1.905  1.00  0.00     0.303 C 
HETATM   11  N2  UNL     1       1.679  -1.881  -2.027  1.00  0.00    -0.270 N 
ATOM     12  H2  UNL     1       2.353  -1.560  -1.332  1.00  0.00     0.189 HD
HETATM   13  O1  UNL     1      -0.501  -1.840  -2.747  1.00  0.00    -0.263 OA
BRANCH  11  14
HETATM   14  N1  UNL     1       2.132  -2.716  -3.047  1.00  0.00    -0.342 N 
ATOM     15  H12 UNL     1       1.445  -3.028  -3.734  1.00  0.00     0.176 HD
ATOM     16  H11 UNL     1       3.101  -3.023  -3.136  1.00  0.00     0.176 HD
ENDBRANCH  11  14
ENDBRANCH   1  10
BRANCH   7  17
HETATM   17  C6  UNL     1       1.250   1.174   2.147  1.00  0.00     0.281 C 
HETATM   18  N5  UNL     1       0.752   2.021   3.169  1.00  0.00    -0.056 NA
HETATM   19  O2  UNL     1       2.465   0.872   2.155  1.00  0.00    -0.269 OA
ENDBRANCH   7  17
TORSDOF 3
