REMARK  4 active torsions:
REMARK  status: ('A' for Active; 'I' for Inactive)
REMARK    1  A    between atoms: C2_2  and  N1_3 
REMARK    2  A    between atoms: C4_8  and  C5_9 
REMARK       I    between atoms: C5_9  and  N3_11 
REMARK    3  A    between atoms: N3_11  and  N4_12 
REMARK    4  A    between atoms: C6_17  and  N6_18 
ROOT
HETATM    1  N1  UNL     1      -1.646   0.125   0.014  1.00  0.00    -0.108 N 
HETATM    2  C3  UNL     1      -0.747   1.057   0.453  1.00  0.00     0.346 A 
HETATM    3  O1  UNL     1      -1.113   2.176   0.853  1.00  0.00    -0.246 OA
HETATM    4  N2  UNL     1       0.587   0.799   0.470  1.00  0.00    -0.288 N 
ATOM      5  H2  UNL     1       1.243   1.507   0.801  1.00  0.00     0.172 HD
HETATM    6  C4  UNL     1       1.031  -0.383   0.052  1.00  0.00     0.210 A 
HETATM    7  N5  UNL     1       0.163  -1.277  -0.369  1.00  0.00    -0.169 N 
ATOM      8  H5  UNL     1       0.512  -2.181  -0.688  1.00  0.00     0.186 HD
HETATM    9  C6  UNL     1      -1.184  -1.053  -0.399  1.00  0.00     0.688 A 
ENDROOT
BRANCH   6  10
HETATM   10  C5  UNL     1       2.495  -0.645   0.090  1.00  0.00     0.379 C 
HETATM   11  O2  UNL     1       2.814  -1.801  -0.329  1.00  0.00    -0.246 OA
HETATM   12  N3  UNL     1       3.374   0.302   0.543  1.00  0.00    -0.285 NA
BRANCH  12  13
HETATM   13  N4  UNL     1       4.210   1.202   0.975  1.00  0.00    -0.276 N 
ATOM     14  H42 UNL     1       3.558   0.473   0.684  1.00  0.00     0.191 HD
ATOM     15  H41 UNL     1       4.865   1.907   1.312  1.00  0.00     0.191 HD
ENDBRANCH  12  13
ENDBRANCH   6  10
BRANCH   9  16
HETATM   16  N6  UNL     1      -1.955  -1.987  -0.770  1.00  0.00    -0.234 N 
ATOM     17  H62 UNL     1      -2.961  -1.820  -0.792  1.00  0.00     0.174 HD
ATOM     18  H61 UNL     1      -1.601  -2.890  -1.086  1.00  0.00     0.174 HD
ENDBRANCH   9  16
BRANCH   1  19
HETATM   19  C2  UNL     1      -2.999   0.533   0.066  1.00  0.00     0.110 C 
HETATM   20  C1  UNL     1      -3.871   0.403  -0.891  1.00  0.00     0.031 C 
ENDBRANCH   1  19
TORSDOF 4
