REMARK  3 active torsions:
REMARK  status: ('A' for Active; 'I' for Inactive)
REMARK    1  A    between atoms: C2_3  and  N2_4 
REMARK    2  A    between atoms: N4_9  and  C3_10 
REMARK    3  A    between atoms: N5_11  and  N6_13 
REMARK       I    between atoms: N6_13  and  C4_15 
ROOT
HETATM    1  C1  UNL     1      -4.063   1.367   0.067  1.00  0.00     0.180 C 
HETATM    2  N1  UNL     1      -2.772   0.713   0.024  1.00  0.00    -0.134 N 
HETATM    3  C2  UNL     1      -2.585  -0.603   0.219  1.00  0.00     0.697 A 
HETATM    4  N3  UNL     1      -1.266  -0.815   0.100  1.00  0.00    -0.120 N 
ATOM      5  H3  UNL     1      -0.812  -1.723   0.197  1.00  0.00     0.206 HD
HETATM    6  N4  UNL     1      -0.638   0.317  -0.160  1.00  0.00    -0.185 N 
HETATM    7  C5  UNL     1      -1.570   1.264  -0.207  1.00  0.00     0.363 A 
HETATM    8  O1  UNL     1      -1.338   2.476  -0.434  1.00  0.00    -0.244 OA
ENDROOT
BRANCH   6   9
HETATM    9  C3  UNL     1       0.784   0.458  -0.349  1.00  0.00     0.228 C 
HETATM   10  N5  UNL     1       1.540  -0.483  -0.767  1.00  0.00    -0.292 N 
ATOM     11  H5  UNL     1       1.158  -1.402  -0.991  1.00  0.00     0.188 HD
BRANCH  10  12
HETATM   12  N6  UNL     1       2.901  -0.220  -0.908  1.00  0.00    -0.273 N 
HETATM   13  C4  UNL     1       3.782  -0.527   0.164  1.00  0.00     0.200 C 
HETATM   14  N7  UNL     1       3.758   0.264   1.180  1.00  0.00    -0.372 N 
HETATM   15  N8  UNL     1       4.664  -1.639   0.162  1.00  0.00    -0.062 NA
ATOM     16  H72 UNL     1       3.124   1.063   1.181  1.00  0.00     0.158 HD
ATOM     17  H71 UNL     1       4.390   0.044   1.949  1.00  0.00     0.158 HD
ATOM     18  H6  UNL     1       3.261   0.188  -1.771  1.00  0.00     0.189 HD
ENDBRANCH  10  12
ENDBRANCH   6   9
BRANCH   3  19
HETATM   19  N2  UNL     1      -3.497  -1.508   0.475  1.00  0.00    -0.233 N 
ATOM     20  H22 UNL     1      -4.500  -1.347   0.565  1.00  0.00     0.174 HD
ATOM     21  H21 UNL     1      -3.355  -2.507   0.623  1.00  0.00     0.174 HD
ENDBRANCH   3  19
TORSDOF 3
