REMARK  2 active torsions:
REMARK  status: ('A' for Active; 'I' for Inactive)
REMARK    1  A    between atoms: C1_2  and  N1_3 
REMARK    2  A    between atoms: N1_3  and  C2_5 
ROOT
HETATM    1  C2  UNL     1       0.038   0.235  -0.203  1.00  0.00     0.154 C 
HETATM    2  C3  UNL     1      -0.964  -0.918  -0.370  1.00  0.00     0.040 C 
HETATM    3  C4  UNL     1      -1.957   0.134   0.148  1.00  0.00     0.083 C 
HETATM    4  C5  UNL     1      -0.815   0.663   0.928  1.00  0.00     0.149 C 
HETATM    5  O2  UNL     1      -0.692   1.194   2.000  1.00  0.00    -0.296 OA
ENDROOT
BRANCH   1   6
HETATM    6  N1  UNL     1       1.369  -0.197   0.136  1.00  0.00    -0.357 N 
ATOM      7  H1  UNL     1       1.486  -0.859   0.903  1.00  0.00     0.162 HD
BRANCH   6   8
HETATM    8  C1  UNL     1       2.516   0.253  -0.544  1.00  0.00     0.349 C 
HETATM    9  O1  UNL     1       2.387   1.062  -1.483  1.00  0.00    -0.284 OA
ENDBRANCH   6   8
ENDBRANCH   1   6
TORSDOF 2
