REMARK  2 active torsions:
REMARK  status: ('A' for Active; 'I' for Inactive)
REMARK    1  A    between atoms: C1_2  and  N1_3 
REMARK    2  A    between atoms: N1_3  and  C2_5 
ROOT
HETATM    1  C2  UNL     1       0.454  -0.063  -0.028  1.00  0.00     0.083 C 
HETATM    2  C3  UNL     1      -0.576  -1.007  -0.593  1.00  0.00     0.025 C 
HETATM    3  C4  UNL     1      -1.760  -0.683   0.299  1.00  0.00     0.002 C 
HETATM    4  C5  UNL     1      -1.569   0.749   0.756  1.00  0.00     0.002 C 
HETATM    5  C6  UNL     1      -0.358   1.239  -0.038  1.00  0.00     0.025 C 
ENDROOT
BRANCH   1   6
HETATM    6  N1  UNL     1       1.659   0.033  -0.750  1.00  0.00    -0.364 N 
ATOM      7  H1  UNL     1       1.656   0.265  -1.743  1.00  0.00     0.162 HD
BRANCH   6   8
HETATM    8  C1  UNL     1       2.877  -0.201  -0.062  1.00  0.00     0.348 C 
HETATM    9  O1  UNL     1       2.886  -0.489   1.162  1.00  0.00    -0.284 OA
ENDBRANCH   6   8
ENDBRANCH   1   6
TORSDOF 2
