REMARK  1 active torsions:
REMARK  status: ('A' for Active; 'I' for Inactive)
REMARK    1  A    between atoms: N2_4  and  N3_6 
ROOT
HETATM    1  N3  UNL     1       1.642   1.178  -0.300  1.00  0.00    -0.293 N 
ATOM      2  H3  UNL     1       1.606   2.197  -0.304  1.00  0.00     0.188 HD
HETATM    3  C1  UNL     1       0.549   0.511  -0.209  1.00  0.00     0.032 C 
HETATM    4  C2  UNL     1      -0.837   1.024  -0.102  1.00  0.00     0.083 C 
HETATM    5  C3  UNL     1      -1.699  -0.210  -0.249  1.00  0.00     0.238 C 
HETATM    6  N4  UNL     1      -0.888  -1.219   0.416  1.00  0.00    -0.070 N 
ATOM      7  H41 UNL     1      -1.234  -2.175   0.340  1.00  0.00     0.277 HD
ATOM      8  H42 UNL     1      -0.910  -1.193   1.435  1.00  0.00     0.277 HD
HETATM    9  C4  UNL     1       0.430  -0.979  -0.189  1.00  0.00     0.286 C 
ENDROOT
BRANCH   1  10
HETATM   10  N2  UNL     1       2.865   0.545  -0.392  1.00  0.00    -0.249 N 
HETATM   11  N1  UNL     1       3.558   0.158   0.591  1.00  0.00    -0.331 N 
ATOM     12  H12 UNL     1       3.169   0.335   1.517  1.00  0.00     0.178 HD
ATOM     13  H11 UNL     1       4.462  -0.310   0.523  1.00  0.00     0.178 HD
ATOM     14  H2  UNL     1       3.238   0.377  -1.326  1.00  0.00     0.207 HD
ENDBRANCH   1  10
TORSDOF 1
