REMARK  11 active torsions:
REMARK  status: ('A' for Active; 'I' for Inactive)
REMARK    1  A    between atoms: C2_2  and  O1_4 
REMARK    2  A    between atoms: O1_4  and  C4_5 
REMARK       I    between atoms: C4_5  and  N1_7 
REMARK    3  A    between atoms: N1_7  and  C5_9 
REMARK    4  A    between atoms: C5_9  and  C6_10 
REMARK    5  A    between atoms: C5_9  and  C24_41 
REMARK       I    between atoms: C6_10  and  N2_12 
REMARK    6  A    between atoms: C10_16  and  C11_17 
REMARK       I    between atoms: C11_17  and  N3_19 
REMARK    7  A    between atoms: N4_22  and  C14_23 
REMARK    8  A    between atoms: C14_23  and  O5_24 
REMARK    9  A    between atoms: C14_23  and  C15_26 
REMARK   10  A    between atoms: C15_26  and  N5_27 
REMARK       I    between atoms: N5_27  and  C16_29 
REMARK   11  A    between atoms: C16_29  and  C17_31 
ROOT
HETATM    1  C11 UNL     1      -0.052  -1.631  -0.049  1.00  0.00     0.242 C 
HETATM    2  O4  UNL     1      -0.853  -1.480  -1.014  1.00  0.00    -0.271 OA
HETATM    3  N3  UNL     1       1.338  -1.487  -0.267  1.00  0.00    -0.347 N 
HETATM    4  C12 UNL     1       2.268  -1.652   0.798  1.00  0.00     0.145 C 
HETATM    5  C13 UNL     1       3.696  -1.369   0.330  1.00  0.00     0.144 C 
HETATM    6  N4  UNL     1       3.825  -0.232  -0.520  1.00  0.00    -0.360 N 
HETATM    7  C22 UNL     1       2.688   0.086  -1.421  1.00  0.00     0.144 C 
HETATM    8  C23 UNL     1       1.811  -1.138  -1.610  1.00  0.00     0.145 C 
ENDROOT
BRANCH   1   9
HETATM    9  C10 UNL     1      -0.518  -1.956   1.334  1.00  0.00     0.179 C 
HETATM   10  N2  UNL     1      -1.925  -1.639   1.417  1.00  0.00    -0.337 N 
HETATM   11  C6  UNL     1      -2.533  -0.370   1.137  1.00  0.00     0.244 C 
HETATM   12  C7  UNL     1      -2.688  -2.815   1.845  1.00  0.00     0.127 C 
HETATM   13  O3  UNL     1      -1.758   0.554   0.740  1.00  0.00    -0.271 OA
HETATM   14  C8  UNL     1      -1.791  -3.956   1.371  1.00  0.00     0.022 C 
HETATM   15  C9  UNL     1      -0.419  -3.417   1.620  1.00  0.00     0.037 C 
BRANCH  11  16
HETATM   16  C5  UNL     1      -3.961  -0.084   1.275  1.00  0.00     0.186 C 
BRANCH  16  17
HETATM   17  N1  UNL     1      -4.432   0.688   0.106  1.00  0.00    -0.323 N 
HETATM   18  C4  UNL     1      -5.569   0.243  -0.618  1.00  0.00     0.361 C 
HETATM   19  O2  UNL     1      -6.226  -0.787  -0.330  1.00  0.00    -0.238 OA
ATOM     20  H1  UNL     1      -3.943   1.536  -0.179  1.00  0.00     0.165 HD
BRANCH  18  21
HETATM   21  O1  UNL     1      -5.981   0.992  -1.708  1.00  0.00    -0.299 OA
BRANCH  21  22
HETATM   22  C2  UNL     1      -7.079   0.681  -2.509  1.00  0.00     0.125 C 
HETATM   23  C1  UNL     1      -8.087   1.815  -2.362  1.00  0.00     0.040 C 
HETATM   24  C3  UNL     1      -6.768   0.557  -3.981  1.00  0.00     0.040 C 
ENDBRANCH  21  22
ENDBRANCH  18  21
ENDBRANCH  16  17
BRANCH  16  25
HETATM   25  C24 UNL     1      -4.246   0.745   2.530  1.00  0.00    -0.022 C 
HETATM   26  C25 UNL     1      -3.771  -0.042   3.725  1.00  0.00     0.017 C 
HETATM   27  C26 UNL     1      -5.756   0.862   2.667  1.00  0.00     0.017 C 
HETATM   28  C27 UNL     1      -3.593   2.087   2.508  1.00  0.00     0.017 C 
ENDBRANCH  16  25
ENDBRANCH  11  16
ENDBRANCH   1   9
BRANCH   6  29
HETATM   29  C14 UNL     1       4.929   0.614  -0.628  1.00  0.00     0.142 C 
BRANCH  29  30
HETATM   30  O5  UNL     1       4.753   1.621  -1.460  1.00  0.00    -0.348 OA
ATOM     31  H5  UNL     1       5.505   2.197  -1.534  1.00  0.00     0.219 HD
ENDBRANCH  29  30
BRANCH  29  32
HETATM   32  C15 UNL     1       6.244   0.605  -0.005  1.00  0.00     0.098 A 
HETATM   33  C20 UNL     1       6.288   0.595   1.513  1.00  0.00     0.042 A 
HETATM   34  C21 UNL     1       6.815  -0.550   0.733  1.00  0.00     0.042 A 
BRANCH  32  35
HETATM   35  N5  UNL     1       7.257   1.499  -0.586  1.00  0.00    -0.339 N 
HETATM   36  C16 UNL     1       7.675   1.391  -1.932  1.00  0.00     0.269 C 
HETATM   37  O6  UNL     1       7.151   0.493  -2.635  1.00  0.00    -0.266 OA
ATOM     38  H5  UNL     1       7.672   2.222   0.002  1.00  0.00     0.164 HD
BRANCH  36  39
HETATM   39  C17 UNL     1       8.702   2.308  -2.503  1.00  0.00     0.107 A 
HETATM   40  C18 UNL     1       9.102   2.197  -3.816  1.00  0.00     0.086 A 
HETATM   41  S1  UNL     1      10.254   3.451  -3.936  1.00  0.00    -0.094 SA
HETATM   42  C19 UNL     1      10.161   4.037  -2.333  1.00  0.00     0.138 A 
HETATM   43  N6  UNL     1       9.258   3.242  -1.797  1.00  0.00    -0.355 N 
ATOM     44  H6  UNL     1       8.994   3.362  -0.819  1.00  0.00     0.166 HD
ENDBRANCH  36  39
ENDBRANCH  32  35
ENDBRANCH  29  32
ENDBRANCH   6  29
TORSDOF 11
