REMARK  9 active torsions:
REMARK  status: ('A' for Active; 'I' for Inactive)
REMARK    1  A    between atoms: C3_5  and  C4_6 
REMARK    2  A    between atoms: C7_9  and  C8_10 
REMARK    3  A    between atoms: C8_10  and  C9_11 
REMARK    4  A    between atoms: C9_11  and  O1_12 
REMARK    5  A    between atoms: O1_12  and  C10_13 
REMARK    6  A    between atoms: C10_13  and  C11_15 
REMARK    7  A    between atoms: C13_19  and  N3_20 
REMARK       I    between atoms: N3_20  and  C14_22 
REMARK       I    between atoms: C14_22  and  N4_24 
REMARK    8  A    between atoms: N4_24  and  C15_26 
REMARK    9  A    between atoms: C15_26  and  C16_27 
REMARK       I    between atoms: C16_27  and  N5_29 
ROOT
HETATM    1  C11 UNL     1      -1.157  -1.031   0.490  1.00  0.00     0.206 C 
HETATM    2  N2  UNL     1      -0.112  -0.023   0.766  1.00  0.00    -0.319 N 
HETATM    3  C12 UNL     1       0.692   1.096   0.920  1.00  0.00     0.247 C 
HETATM    4  O3  UNL     1       0.503   2.375   0.896  1.00  0.00    -0.271 OA
HETATM    5  C13 UNL     1       1.933   0.356   1.138  1.00  0.00     0.211 C 
HETATM    6  C21 UNL     1       0.992  -0.841   1.293  1.00  0.00     0.183 C 
HETATM    7  S1  UNL     1       1.068  -2.019  -0.139  1.00  0.00    -0.129 SA
HETATM    8  C22 UNL     1      -0.613  -1.584  -0.832  1.00  0.00     0.033 C 
HETATM    9  C23 UNL     1      -0.435  -0.459  -1.838  1.00  0.00     0.029 C 
HETATM   10  C24 UNL     1      -1.334  -2.764  -1.319  1.00  0.00     0.029 C 
ENDROOT
BRANCH   5  11
HETATM   11  N3  UNL     1       2.842   0.116   0.052  1.00  0.00    -0.327 N 
HETATM   12  C14 UNL     1       4.233   0.120   0.287  1.00  0.00     0.317 C 
HETATM   13  O4  UNL     1       4.697   0.432   1.388  1.00  0.00    -0.247 OA
HETATM   14  N4  UNL     1       5.080  -0.261  -0.787  1.00  0.00    -0.334 N 
ATOM     15  H4  UNL     1       4.648  -0.483  -1.684  1.00  0.00     0.164 HD
ATOM     16  H3  UNL     1       2.483  -0.057  -0.887  1.00  0.00     0.165 HD
BRANCH  14  17
HETATM   17  C15 UNL     1       6.509  -0.352  -0.683  1.00  0.00     0.227 C 
BRANCH  17  18
HETATM   18  C16 UNL     1       7.116   0.973  -0.480  1.00  0.00     0.245 C 
HETATM   19  O5  UNL     1       6.420   2.038  -0.423  1.00  0.00    -0.271 OA
HETATM   20  N5  UNL     1       8.527   1.094  -0.353  1.00  0.00    -0.267 N 
HETATM   21  C17 UNL     1       9.290   2.296  -0.249  1.00  0.00     0.157 C 
HETATM   22  C20 UNL     1       9.477   0.004  -0.275  1.00  0.00     0.327 C 
HETATM   23  C18 UNL     1      10.408   1.880   0.705  1.00  0.00     0.147 C 
HETATM   24  N6  UNL     1      10.727   0.537   0.200  1.00  0.00    -0.337 N 
HETATM   25  C19 UNL     1      11.987  -0.157   0.160  1.00  0.00     0.154 C 
HETATM   26  O6  UNL     1       9.265  -1.185  -0.562  1.00  0.00    -0.247 OA
ENDBRANCH  17  18
ENDBRANCH  14  17
ENDBRANCH   5  11
BRANCH   1  27
HETATM   27  C10 UNL     1      -2.482  -0.484   0.496  1.00  0.00     0.283 C 
HETATM   28  O2  UNL     1      -2.776   0.637   0.111  1.00  0.00    -0.263 OA
BRANCH  27  29
HETATM   29  O1  UNL     1      -3.517  -1.317   1.021  1.00  0.00    -0.319 OA
BRANCH  29  30
HETATM   30  C9  UNL     1      -4.829  -0.764   1.090  1.00  0.00     0.184 C 
BRANCH  30  31
HETATM   31  C8  UNL     1      -5.462  -0.499  -0.207  1.00  0.00     0.075 C 
BRANCH  31  32
HETATM   32  C7  UNL     1      -6.669   0.322  -0.319  1.00  0.00     0.013 A 
HETATM   33  C3  UNL     1      -7.989   0.243   0.009  1.00  0.00     0.047 A 
HETATM   34  N1  UNL     1      -8.773   1.184  -0.519  1.00  0.00    -0.353 N 
HETATM   35  C2  UNL     1      -8.295   2.131  -1.297  1.00  0.00     0.047 A 
ATOM     36  H1  UNL     1      -9.772   1.169  -0.314  1.00  0.00     0.166 HD
HETATM   37  C1  UNL     1      -9.017   3.292  -1.955  1.00  0.00     0.076 C 
HETATM   38  S2  UNL     1      -6.655   1.748  -1.343  1.00  0.00    -0.079 SA
BRANCH  33  39
HETATM   39  C4  UNL     1      -8.527  -0.646   1.103  1.00  0.00    -0.060 C 
HETATM   40  C5  UNL     1      -9.526  -1.666   0.694  1.00  0.00     0.045 C 
HETATM   41  C6  UNL     1      -7.851  -0.729   2.404  1.00  0.00     0.045 C 
ENDBRANCH  33  39
ENDBRANCH  31  32
ENDBRANCH  30  31
ENDBRANCH  29  30
ENDBRANCH  27  29
ENDBRANCH   1  27
TORSDOF 9
