REMARK  10 active torsions:
REMARK  status: ('A' for Active; 'I' for Inactive)
REMARK    1  A    between atoms: C2_2  and  O1_5 
REMARK    2  A    between atoms: O1_5  and  C5_6 
REMARK       I    between atoms: C5_6  and  N1_8 
REMARK    3  A    between atoms: C8_11  and  N2_12 
REMARK       I    between atoms: N2_12  and  C9_14 
REMARK    4  A    between atoms: C9_14  and  C10_16 
REMARK    5  A    between atoms: C10_16  and  O4_17 
REMARK    6  A    between atoms: C10_16  and  N3_19 
REMARK    7  A    between atoms: C11_20  and  C12_21 
REMARK    8  A    between atoms: C17_31  and  C18_32 
REMARK    9  A    between atoms: C18_32  and  C19_34 
REMARK   10  A    between atoms: C19_34  and  C20_35 
ROOT
HETATM    1  N3  UNL     1      -2.278  -1.392   0.797  1.00  0.00    -0.273 N 
HETATM    2  C11 UNL     1      -2.590  -2.549   0.033  1.00  0.00     0.119 C 
HETATM    3  C13 UNL     1      -3.078  -3.590   1.035  1.00  0.00     0.112 C 
HETATM    4  C14 UNL     1      -3.607  -4.813   0.406  1.00  0.00     0.039 C 
HETATM    5  C15 UNL     1      -2.161  -3.801   2.186  1.00  0.00     0.039 C 
HETATM    6  S1  UNL     1      -4.439  -2.539   1.660  1.00  0.00     0.205 S 
HETATM    7  O7  UNL     1      -5.534  -2.654   0.679  1.00  0.00    -0.220 OA
HETATM    8  O8  UNL     1      -4.807  -2.938   3.036  1.00  0.00    -0.220 OA
HETATM    9  C16 UNL     1      -3.521  -1.042   1.542  1.00  0.00     0.142 C 
HETATM   10  C17 UNL     1      -4.158   0.205   1.332  1.00  0.00     0.092 C 
ENDROOT
BRANCH   1  11
HETATM   11  C10 UNL     1      -1.104  -0.658   1.065  1.00  0.00     0.218 C 
BRANCH  11  12
HETATM   12  C9  UNL     1       0.272  -0.947   0.768  1.00  0.00     0.293 C 
HETATM   13  N2  UNL     1       1.321   0.025   1.003  1.00  0.00    -0.349 N 
ATOM     14  H2  UNL     1       1.063   0.934   1.388  1.00  0.00     0.163 HD
HETATM   15  O3  UNL     1       0.677  -2.020   0.297  1.00  0.00    -0.264 OA
BRANCH  13  16
HETATM   16  C8  UNL     1       2.703  -0.229   0.720  1.00  0.00     0.087 C 
HETATM   17  C7  UNL     1       3.468  -0.108   2.013  1.00  0.00     0.045 C 
HETATM   18  C6  UNL     1       4.916  -0.482   1.757  1.00  0.00     0.130 C 
HETATM   19  N1  UNL     1       5.453   0.356   0.714  1.00  0.00    -0.328 N 
HETATM   20  C5  UNL     1       6.823   0.289   0.407  1.00  0.00     0.363 C 
HETATM   21  C26 UNL     1       4.593   1.254  -0.003  1.00  0.00     0.130 C 
HETATM   22  O2  UNL     1       7.637  -0.471   0.997  1.00  0.00    -0.238 OA
HETATM   23  C25 UNL     1       3.244   0.700  -0.318  1.00  0.00     0.045 C 
BRANCH  20  24
HETATM   24  O1  UNL     1       7.344   1.087  -0.593  1.00  0.00    -0.294 OA
BRANCH  24  25
HETATM   25  C2  UNL     1       8.718   1.037  -0.919  1.00  0.00     0.061 C 
HETATM   26  C1  UNL     1       8.958   2.025  -2.046  1.00  0.00     0.046 C 
HETATM   27  C3  UNL     1       9.546   1.524   0.265  1.00  0.00     0.046 C 
HETATM   28  C4  UNL     1       9.184  -0.328  -1.327  1.00  0.00     0.046 C 
ENDBRANCH  24  25
ENDBRANCH  20  24
ENDBRANCH  13  16
ENDBRANCH  11  12
BRANCH  11  29
HETATM   29  O4  UNL     1      -1.217   0.489   1.697  1.00  0.00    -0.342 OA
ATOM     30  H4  UNL     1      -2.127   0.680   1.893  1.00  0.00     0.219 HD
ENDBRANCH  11  29
ENDBRANCH   1  11
BRANCH   2  31
HETATM   31  C12 UNL     1      -1.804  -3.075  -1.014  1.00  0.00     0.225 C 
HETATM   32  O5  UNL     1      -1.423  -4.283  -1.107  1.00  0.00    -0.643 OA
HETATM   33  O6  UNL     1      -1.368  -2.271  -2.093  1.00  0.00    -0.643 OA
ENDBRANCH   2  31
BRANCH  10  34
HETATM   34  C18 UNL     1      -4.684   0.718   0.097  1.00  0.00     0.152 C 
HETATM   35  O9  UNL     1      -4.642   0.171  -0.961  1.00  0.00    -0.293 OA
BRANCH  34  36
HETATM   36  C19 UNL     1      -5.346   2.066   0.151  1.00  0.00     0.087 C 
BRANCH  36  37
HETATM   37  C20 UNL     1      -5.934   2.512  -1.134  1.00  0.00    -0.007 C 
HETATM   38  C21 UNL     1      -7.008   1.660  -1.711  1.00  0.00     0.005 C 
HETATM   39  C22 UNL     1      -8.317   2.244  -1.214  1.00  0.00     0.000 C 
HETATM   40  C23 UNL     1      -8.041   3.722  -1.223  1.00  0.00     0.000 C 
HETATM   41  C24 UNL     1      -6.589   3.867  -0.884  1.00  0.00     0.005 C 
ENDBRANCH  36  37
ENDBRANCH  34  36
ENDBRANCH  10  34
TORSDOF 10
