REMARK  8 active torsions:
REMARK  status: ('A' for Active; 'I' for Inactive)
REMARK    1  A    between atoms: O1_2  and  C2_3 
REMARK    2  A    between atoms: C2_3  and  C3_4 
REMARK    3  A    between atoms: C4_5  and  C5_6 
REMARK       I    between atoms: C5_6  and  N1_8 
REMARK    4  A    between atoms: C7_10  and  O3_11 
REMARK    5  A    between atoms: C9_14  and  C10_15 
REMARK       I    between atoms: C10_15  and  N2_17 
REMARK    6  A    between atoms: C20_29  and  C21_30 
REMARK       I    between atoms: C21_30  and  N4_32 
REMARK    7  A    between atoms: C22_34  and  C23_35 
REMARK    8  A    between atoms: C25_38  and  C26_39 
ROOT
HETATM    1  C10 UNL     1       0.570  -0.073  -0.376  1.00  0.00     0.226 C 
HETATM    2  O4  UNL     1       0.939   0.303  -1.534  1.00  0.00    -0.273 OA
HETATM    3  N2  UNL     1      -0.763  -0.452  -0.187  1.00  0.00    -0.332 N 
HETATM    4  C11 UNL     1      -1.765  -0.468  -1.269  1.00  0.00     0.179 C 
HETATM    5  C12 UNL     1      -2.360  -1.834  -0.971  1.00  0.00     0.007 C 
HETATM    6  N3  UNL     1      -2.726  -2.979  -1.299  1.00  0.00    -0.385 N 
ATOM      7  H3  UNL     1      -2.643  -3.326  -2.254  1.00  0.00     0.160 HD
HETATM    8  C13 UNL     1      -3.267  -3.765  -0.249  1.00  0.00     0.030 C 
HETATM    9  C14 UNL     1      -2.814  -5.189  -0.397  1.00  0.00     0.031 C 
HETATM   10  C15 UNL     1      -3.733  -5.681  -1.498  1.00  0.00     0.002 C 
HETATM   11  C16 UNL     1      -5.013  -4.928  -1.300  1.00  0.00     0.002 C 
HETATM   12  C17 UNL     1      -4.751  -3.874  -0.247  1.00  0.00     0.031 C 
HETATM   13  C18 UNL     1      -2.716  -3.110   1.011  1.00  0.00     0.044 C 
HETATM   14  C19 UNL     1      -2.660  -1.675   0.510  1.00  0.00     0.067 C 
HETATM   15  C20 UNL     1      -1.492  -0.886   0.991  1.00  0.00     0.189 C 
ENDROOT
BRANCH   1  16
HETATM   16  C9  UNL     1       1.642  -0.062   0.652  1.00  0.00     0.098 C 
HETATM   17  C8  UNL     1       1.960  -1.457   1.039  1.00  0.00     0.049 C 
HETATM   18  C7  UNL     1       3.325  -1.944   0.608  1.00  0.00     0.137 C 
HETATM   19  C6  UNL     1       4.330  -0.968   1.198  1.00  0.00     0.157 C 
HETATM   20  N1  UNL     1       4.080   0.285   0.559  1.00  0.00    -0.345 N 
HETATM   21  C5  UNL     1       5.223   1.103   0.180  1.00  0.00     0.243 C 
HETATM   22  C28 UNL     1       2.790   0.808   0.257  1.00  0.00     0.140 C 
HETATM   23  O2  UNL     1       6.343   0.603   0.462  1.00  0.00    -0.268 OA
BRANCH  18  24
HETATM   24  O3  UNL     1       3.523  -3.193   1.147  1.00  0.00    -0.394 OA
ATOM     25  H3  UNL     1       2.895  -3.803   0.778  1.00  0.00     0.210 HD
ENDBRANCH  18  24
BRANCH  21  26
HETATM   26  C4  UNL     1       5.056   2.367  -0.459  1.00  0.00     0.072 C 
HETATM   27  C3  UNL     1       5.949   3.186  -0.841  1.00  0.00     0.005 C 
BRANCH  27  28
HETATM   28  C2  UNL     1       7.394   3.082  -0.741  1.00  0.00     0.194 C 
BRANCH  28  29
HETATM   29  O1  UNL     1       7.992   3.118  -2.014  1.00  0.00    -0.392 OA
HETATM   30  C1  UNL     1       9.389   3.015  -1.875  1.00  0.00     0.201 C 
ENDBRANCH  28  29
ENDBRANCH  27  28
ENDBRANCH  21  26
ENDBRANCH   1  16
BRANCH  15  31
HETATM   31  C21 UNL     1      -1.873   0.313   1.814  1.00  0.00     0.245 C 
HETATM   32  O5  UNL     1      -2.545   0.022   2.868  1.00  0.00    -0.271 OA
HETATM   33  N4  UNL     1      -1.566   1.598   1.529  1.00  0.00    -0.335 N 
HETATM   34  C22 UNL     1      -1.954   2.679   1.122  1.00  0.00     0.103 C 
ATOM     35  H4  UNL     1      -0.577   1.713   1.752  1.00  0.00     0.168 HD
BRANCH  34  36
HETATM   36  C23 UNL     1      -3.319   3.060   0.660  1.00  0.00    -0.013 A 
HETATM   37  C24 UNL     1      -4.319   2.133   0.654  1.00  0.00     0.063 A 
HETATM   38  S1  UNL     1      -5.658   3.006   0.064  1.00  0.00    -0.096 SA
HETATM   39  C25 UNL     1      -4.918   4.525  -0.160  1.00  0.00     0.070 A 
HETATM   40  C27 UNL     1      -3.628   4.298   0.239  1.00  0.00     0.037 A 
BRANCH  39  41
HETATM   41  C26 UNL     1      -5.508   5.771  -0.657  1.00  0.00     0.271 C 
HETATM   42  N5  UNL     1      -6.866   5.772  -1.018  1.00  0.00    -0.057 NA
HETATM   43  O6  UNL     1      -4.808   6.779  -0.747  1.00  0.00    -0.270 OA
ENDBRANCH  39  41
ENDBRANCH  34  36
ENDBRANCH  15  31
TORSDOF 8
