REMARK  3 active torsions:
REMARK  status: ('A' for Active; 'I' for Inactive)
REMARK    1  A    between atoms: C4_6  and  C5_7 
REMARK    2  A    between atoms: C5_7  and  C6_8 
REMARK    3  A    between atoms: C6_8  and  C7_9 
ROOT
HETATM    1  C6  UNL     1       2.113   0.293   0.332  1.00  0.00     0.081 C 
ENDROOT
BRANCH   1   2
HETATM    2  C5  UNL     1       1.019  -0.744   0.450  1.00  0.00     0.032 C 
BRANCH   2   3
HETATM    3  C4  UNL     1      -0.284  -0.103   0.871  1.00  0.00     0.077 C 
HETATM    4  N1  UNL     1      -1.286  -1.105   0.971  1.00  0.00    -0.417 N 
HETATM    5  C3  UNL     1      -2.154  -1.217  -0.166  1.00  0.00     0.114 C 
ATOM      6  H1  UNL     1      -1.382  -1.702   1.792  1.00  0.00     0.153 HD
HETATM    7  C2  UNL     1      -3.354  -0.325  -0.113  1.00  0.00     0.019 C 
HETATM    8  C1  UNL     1      -3.044   1.113  -0.445  1.00  0.00     0.002 C 
HETATM    9  C9  UNL     1      -1.988   1.595   0.510  1.00  0.00     0.002 C 
HETATM   10  C8  UNL     1      -0.656   1.062  -0.004  1.00  0.00     0.024 C 
ENDBRANCH   2   3
ENDBRANCH   1   2
BRANCH   1  11
HETATM   11  C7  UNL     1       3.379  -0.322  -0.076  1.00  0.00     0.113 A 
HETATM   12  N2  UNL     1       3.709  -1.599  -0.349  1.00  0.00    -0.272 N 
HETATM   13  N3  UNL     1       5.005  -1.626  -0.676  1.00  0.00    -0.227 N 
ATOM     14  H2  UNL     1       3.082  -2.402  -0.313  1.00  0.00     0.190 HD
HETATM   15  N4  UNL     1       5.497  -0.406  -0.617  1.00  0.00    -0.227 N 
ATOM     16  H3  UNL     1       5.531  -2.462  -0.931  1.00  0.00     0.210 HD
HETATM   17  N5  UNL     1       4.533   0.385  -0.259  1.00  0.00    -0.272 N 
ATOM     18  H4  UNL     1       6.459  -0.133  -0.816  1.00  0.00     0.210 HD
ATOM     19  H5  UNL     1       4.624   1.393  -0.132  1.00  0.00     0.190 HD
ENDBRANCH   1  11
TORSDOF 3
