REMARK  5 active torsions:
REMARK  status: ('A' for Active; 'I' for Inactive)
REMARK    1  A    between atoms: S1_2  and  C2_3 
REMARK    2  A    between atoms: C2_3  and  C3_4 
REMARK    3  A    between atoms: C6_7  and  O1_8 
REMARK    4  A    between atoms: C7_10  and  C8_11 
REMARK    5  A    between atoms: C8_11  and  O2_12 
ROOT
HETATM    1  C3  UNL     1       0.483  -0.636   0.746  1.00  0.00     0.131 C 
HETATM    2  C4  UNL     1      -0.136  -1.820   0.053  1.00  0.00     0.035 C 
HETATM    3  C5  UNL     1      -1.535  -1.528  -0.375  1.00  0.00     0.037 C 
HETATM    4  C6  UNL     1      -2.032  -0.155  -0.080  1.00  0.00     0.149 C 
HETATM    5  C7  UNL     1      -0.987   0.887   0.143  1.00  0.00     0.174 C 
HETATM    6  O3  UNL     1       0.313   0.437  -0.146  1.00  0.00    -0.375 OA
ENDROOT
BRANCH   1   7
HETATM    7  C2  UNL     1       1.910  -0.854   1.129  1.00  0.00     0.105 C 
BRANCH   7   8
HETATM    8  S1  UNL     1       2.998  -0.941  -0.304  1.00  0.00    -0.171 SA
HETATM    9  C1  UNL     1       4.137   0.464  -0.371  1.00  0.00     0.089 C 
ENDBRANCH   7   8
ENDBRANCH   1   7
BRANCH   5  10
HETATM   10  C8  UNL     1      -1.294   2.203  -0.541  1.00  0.00     0.198 C 
BRANCH  10  11
HETATM   11  O2  UNL     1      -2.585   2.556  -0.116  1.00  0.00    -0.398 OA
ATOM     12  H2  UNL     1      -2.778   3.381  -0.545  1.00  0.00     0.209 HD
ENDBRANCH  10  11
ENDBRANCH   5  10
BRANCH   4  13
HETATM   13  O1  UNL     1      -2.921   0.187  -1.114  1.00  0.00    -0.393 OA
ATOM     14  H1  UNL     1      -3.238   1.063  -0.926  1.00  0.00     0.210 HD
ENDBRANCH   4  13
TORSDOF 5
