REMARK  5 active torsions:
REMARK  status: ('A' for Active; 'I' for Inactive)
REMARK    1  A    between atoms: N1_2  and  N2_4 
REMARK    2  A    between atoms: N2_4  and  C2_6 
REMARK    3  A    between atoms: C6_12  and  N4_13 
REMARK    4  A    between atoms: N4_13  and  C7_15 
REMARK    5  A    between atoms: C7_15  and  C8_16 
ROOT
HETATM    1  C2  UNL     1      -1.584   0.214  -0.284  1.00  0.00     0.068 C 
HETATM    2  C3  UNL     1      -2.459   1.302  -0.851  1.00  0.00     0.064 C 
HETATM    3  C4  UNL     1      -2.301   2.510   0.040  1.00  0.00     0.026 C 
HETATM    4  C5  UNL     1      -0.821   2.897  -0.021  1.00  0.00     0.121 C 
HETATM    5  N3  UNL     1      -0.058   1.839   0.620  1.00  0.00    -0.375 N 
ATOM      6  H3  UNL     1       0.766   2.073   1.173  1.00  0.00     0.161 HD
HETATM    7  C6  UNL     1      -0.422   0.586   0.492  1.00  0.00     0.121 C 
ENDROOT
BRANCH   7   8
HETATM    8  N4  UNL     1       0.389  -0.351   1.163  1.00  0.00    -0.374 N 
ATOM      9  H4  UNL     1      -0.060  -1.063   1.740  1.00  0.00     0.161 HD
BRANCH   8  10
HETATM   10  C7  UNL     1       1.818  -0.344   1.067  1.00  0.00     0.126 C 
BRANCH  10  11
HETATM   11  C8  UNL     1       2.369  -0.707  -0.279  1.00  0.00     0.003 A 
HETATM   12  C9  UNL     1       3.901  -0.681  -0.314  1.00  0.00     0.007 A 
HETATM   13  C10 UNL     1       3.100   0.269  -1.123  1.00  0.00     0.007 A 
ENDBRANCH  10  11
ENDBRANCH   8  10
ENDBRANCH   7   8
BRANCH   1  14
HETATM   14  N2  UNL     1      -1.945  -0.982  -0.542  1.00  0.00    -0.306 N 
ATOM     15  H2  UNL     1      -2.789  -1.081  -1.105  1.00  0.00     0.186 HD
BRANCH  14  16
HETATM   16  N1  UNL     1      -1.339  -2.153  -0.156  1.00  0.00    -0.341 N 
HETATM   17  C1  UNL     1      -2.142  -3.183   0.472  1.00  0.00     0.167 C 
ATOM     18  H1  UNL     1      -0.341  -2.295  -0.309  1.00  0.00     0.179 HD
ENDBRANCH  14  16
ENDBRANCH   1  14
TORSDOF 5
