REMARK  4 active torsions:
REMARK  status: ('A' for Active; 'I' for Inactive)
REMARK    1  A    between atoms: N1_2  and  C2_3 
REMARK    2  A    between atoms: N1_2  and  C5_14 
REMARK    3  A    between atoms: C2_3  and  C3_4 
REMARK    4  A    between atoms: C4_10  and  N4_11 
ROOT
HETATM    1  C3  UNL     1       2.664  -1.180   0.042  1.00  0.00     0.112 A 
HETATM    2  N2  UNL     1       3.081  -2.484   0.231  1.00  0.00    -0.237 N 
ATOM      3  H2  UNL     1       2.525  -3.315   0.027  1.00  0.00     0.197 HD
HETATM    4  O1  UNL     1       4.276  -2.490   0.703  1.00  0.00    -0.155 OA
HETATM    5  N3  UNL     1       4.734  -1.298   0.859  1.00  0.00    -0.224 N 
ATOM      6  H3  UNL     1       5.654  -1.039   1.214  1.00  0.00     0.198 HD
HETATM    7  C4  UNL     1       3.753  -0.456   0.458  1.00  0.00     0.151 A 
ENDROOT
BRANCH   1   8
HETATM    8  C2  UNL     1       1.383  -0.841  -0.545  1.00  0.00     0.095 C 
BRANCH   8   9
HETATM    9  N1  UNL     1       0.570   0.108   0.145  1.00  0.00    -0.290 NA
HETATM   10  C1  UNL     1       0.806   1.463  -0.278  1.00  0.00     0.116 C 
BRANCH   9  11
HETATM   11  C5  UNL     1      -0.813  -0.190   0.155  1.00  0.00     0.062 C 
HETATM   12  C6  UNL     1      -1.450  -0.174  -1.205  1.00  0.00     0.020 C 
HETATM   13  C7  UNL     1      -2.812   0.480  -1.217  1.00  0.00     0.002 C 
HETATM   14  C8  UNL     1      -3.649   0.006  -0.036  1.00  0.00     0.000 C 
HETATM   15  C9  UNL     1      -2.927   0.197   1.283  1.00  0.00     0.002 C 
HETATM   16  C10 UNL     1      -1.586   0.834   0.988  1.00  0.00     0.020 C 
ENDBRANCH   9  11
ENDBRANCH   8   9
ENDBRANCH   1   8
BRANCH   7  17
HETATM   17  N4  UNL     1       3.849   0.817   0.506  1.00  0.00    -0.382 N 
ATOM     18  H42 UNL     1       3.110   1.452   0.204  1.00  0.00     0.157 HD
ATOM     19  H41 UNL     1       4.658   1.355   0.815  1.00  0.00     0.157 HD
ENDBRANCH   7  17
TORSDOF 4
