REMARK  4 active torsions:
REMARK  status: ('A' for Active; 'I' for Inactive)
REMARK    1  A    between atoms: N1_2  and  C2_5 
REMARK    2  A    between atoms: C2_5  and  C3_6 
REMARK    3  A    between atoms: C3_6  and  N2_7 
REMARK    4  A    between atoms: N2_7  and  C4_9 
ROOT
HETATM    1  C4  UNL     1      -0.315   0.008   0.476  1.00  0.00     0.136 C 
HETATM    2  N3  UNL     1      -0.906  -0.844  -0.286  1.00  0.00    -0.367 N 
ATOM      3  H3  UNL     1      -0.287  -1.356  -0.914  1.00  0.00     0.162 HD
HETATM    4  C5  UNL     1      -2.309  -1.196  -0.398  1.00  0.00     0.079 C 
HETATM    5  C6  UNL     1      -2.743  -1.067  -1.817  1.00  0.00     0.032 C 
HETATM    6  C7  UNL     1      -3.180  -0.461   0.596  1.00  0.00     0.025 C 
HETATM    7  C8  UNL     1      -3.435   0.968   0.203  1.00  0.00     0.013 C 
HETATM    8  C9  UNL     1      -2.467   1.926   0.847  1.00  0.00     0.082 C 
HETATM    9  S1  UNL     1      -1.104   1.051   1.680  1.00  0.00    -0.095 SA
ENDROOT
BRANCH   1  10
HETATM   10  N2  UNL     1       1.078   0.133   0.361  1.00  0.00    -0.369 N 
ATOM     11  H2  UNL     1       1.486   1.045   0.157  1.00  0.00     0.161 HD
BRANCH  10  12
HETATM   12  C3  UNL     1       1.936  -1.006   0.527  1.00  0.00     0.149 C 
BRANCH  12  13
HETATM   13  C2  UNL     1       3.365  -0.467   0.593  1.00  0.00     0.251 C 
BRANCH  13  14
HETATM   14  N1  UNL     1       3.650   0.221  -0.620  1.00  0.00    -0.077 N 
HETATM   15  C1  UNL     1       4.978   0.848  -0.568  1.00  0.00     0.267 C 
ATOM     16  H12 UNL     1       2.922   0.898  -0.849  1.00  0.00     0.276 HD
ATOM     17  H11 UNL     1       3.553  -0.390  -1.431  1.00  0.00     0.276 HD
ENDBRANCH  13  14
ENDBRANCH  12  13
ENDBRANCH  10  12
ENDBRANCH   1  10
TORSDOF 4
