REMARK  8 active torsions:
REMARK  status: ('A' for Active; 'I' for Inactive)
REMARK    1  A    between atoms: C2_2  and  N1_3 
REMARK    2  A    between atoms: N1_3  and  C3_6 
REMARK    3  A    between atoms: C3_6  and  C4_7 
REMARK    4  A    between atoms: C4_7  and  C5_8 
REMARK    5  A    between atoms: C5_8  and  C6_9 
REMARK    6  A    between atoms: C6_9  and  N2_10 
REMARK    7  A    between atoms: N2_10  and  C7_12 
REMARK    8  A    between atoms: C9_19  and  N6_20 
ROOT
HETATM    1  C7  UNL     1       2.201   0.069   0.025  1.00  0.00     0.695 A 
HETATM    2  N3  UNL     1       2.707   1.322  -0.100  1.00  0.00    -0.162 N 
ATOM      3  H3  UNL     1       2.050   2.091  -0.230  1.00  0.00     0.187 HD
HETATM    4  C8  UNL     1       4.011   1.613  -0.064  1.00  0.00     0.221 A 
HETATM    5  N4  UNL     1       4.516   2.946  -0.189  1.00  0.00    -0.062 NA
HETATM    6  N5  UNL     1       4.867   0.584   0.106  1.00  0.00    -0.163 N 
ATOM      7  H5  UNL     1       5.871   0.758   0.138  1.00  0.00     0.187 HD
HETATM    8  C9  UNL     1       4.394  -0.687   0.235  1.00  0.00     0.692 A 
HETATM    9  N7  UNL     1       3.072  -0.937   0.195  1.00  0.00    -0.023 N 
ATOM     10  H7  UNL     1       2.732  -1.893   0.294  1.00  0.00     0.203 HD
ENDROOT
BRANCH   1  11
HETATM   11  N2  UNL     1       0.942  -0.177  -0.017  1.00  0.00    -0.225 N 
ATOM     12  H2  UNL     1       0.275   0.584  -0.145  1.00  0.00     0.177 HD
BRANCH  11  13
HETATM   13  C6  UNL     1       0.480  -1.526   0.117  1.00  0.00     0.138 C 
BRANCH  13  14
HETATM   14  C5  UNL     1      -0.991  -1.702  -0.187  1.00  0.00     0.022 C 
BRANCH  14  15
HETATM   15  C4  UNL     1      -1.797  -0.868   0.772  1.00  0.00     0.029 C 
BRANCH  15  16
HETATM   16  C3  UNL     1      -3.285  -1.006   0.513  1.00  0.00     0.232 C 
BRANCH  16  17
HETATM   17  N1  UNL     1      -3.659  -0.574  -0.813  1.00  0.00    -0.075 N 
ATOM     18  H12 UNL     1      -4.593  -0.890  -1.075  1.00  0.00     0.277 HD
ATOM     19  H11 UNL     1      -3.134  -1.058  -1.541  1.00  0.00     0.277 HD
BRANCH  17  20
HETATM   20  C2  UNL     1      -3.520   0.870  -0.898  1.00  0.00     0.228 C 
HETATM   21  C1  UNL     1      -4.597   1.534  -0.028  1.00  0.00     0.034 C 
ENDBRANCH  17  20
ENDBRANCH  16  17
ENDBRANCH  15  16
ENDBRANCH  14  15
ENDBRANCH  13  14
ENDBRANCH  11  13
ENDBRANCH   1  11
BRANCH   8  22
HETATM   22  N6  UNL     1       5.221  -1.665   0.396  1.00  0.00    -0.234 N 
ATOM     23  H62 UNL     1       6.223  -1.476   0.426  1.00  0.00     0.174 HD
ATOM     24  H61 UNL     1       4.867  -2.617   0.493  1.00  0.00     0.174 HD
ENDBRANCH   8  22
TORSDOF 8
