REMARK  6 active torsions:
REMARK  status: ('A' for Active; 'I' for Inactive)
REMARK    1  A    between atoms: O1_2  and  C2_3 
REMARK    2  A    between atoms: C2_3  and  N1_4 
REMARK    3  A    between atoms: N1_4  and  C3_7 
REMARK    4  A    between atoms: C3_7  and  C4_8 
REMARK    5  A    between atoms: C9_13  and  N2_14 
REMARK       I    between atoms: N2_14  and  C10_16 
REMARK    6  A    between atoms: N4_18  and  N5_20 
ROOT
HETATM    1  C4  UNL     1      -0.053  -1.417  -0.264  1.00  0.00    -0.006 A 
HETATM    2  C5  UNL     1       0.087  -2.640   0.300  1.00  0.00     0.011 A 
HETATM    3  C6  UNL     1      -0.941  -3.269   0.919  1.00  0.00     0.001 A 
HETATM    4  C7  UNL     1      -2.201  -2.653   0.968  1.00  0.00     0.002 A 
HETATM    5  C8  UNL     1      -2.356  -1.413   0.388  1.00  0.00     0.030 A 
HETATM    6  C9  UNL     1      -1.280  -0.799  -0.220  1.00  0.00     0.042 A 
ENDROOT
BRANCH   6   7
HETATM    7  N2  UNL     1      -1.397   0.523  -0.756  1.00  0.00    -0.329 N 
HETATM    8  C10 UNL     1      -2.572   1.245  -0.879  1.00  0.00     0.207 C 
HETATM    9  N3  UNL     1      -3.226   1.115  -2.181  1.00  0.00    -0.062 NA
HETATM   10  N4  UNL     1      -3.136   2.054  -0.085  1.00  0.00    -0.280 N 
ATOM     11  H4  UNL     1      -4.002   2.439  -0.464  1.00  0.00     0.189 HD
ATOM     12  H2  UNL     1      -0.539   0.973  -1.076  1.00  0.00     0.168 HD
BRANCH  10  13
HETATM   13  N5  UNL     1      -2.854   2.521   1.142  1.00  0.00    -0.343 N 
ATOM     14  H52 UNL     1      -1.986   2.124   1.500  1.00  0.00     0.176 HD
ATOM     15  H51 UNL     1      -3.308   3.173   1.782  1.00  0.00     0.176 HD
ENDBRANCH  10  13
ENDBRANCH   6   7
BRANCH   1  16
HETATM   16  C3  UNL     1       1.083  -0.656  -0.830  1.00  0.00     0.275 C 
BRANCH  16  17
HETATM   17  N1  UNL     1       1.912  -0.487   0.409  1.00  0.00    -0.050 N 
ATOM     18  H12 UNL     1       2.429  -1.338   0.631  1.00  0.00     0.280 HD
ATOM     19  H11 UNL     1       1.329  -0.434   1.244  1.00  0.00     0.280 HD
BRANCH  17  20
HETATM   20  C2  UNL     1       2.774   0.631   0.307  1.00  0.00     0.399 C 
BRANCH  20  21
HETATM   21  O1  UNL     1       4.079   0.249   0.156  1.00  0.00    -0.369 OA
HETATM   22  C1  UNL     1       4.875   1.399   0.147  1.00  0.00     0.203 C 
ENDBRANCH  20  21
ENDBRANCH  17  20
ENDBRANCH  16  17
ENDBRANCH   1  16
TORSDOF 6
