REMARK  8 active torsions:
REMARK  status: ('A' for Active; 'I' for Inactive)
REMARK    1  A    between atoms: N1_1  and  C1_5 
REMARK    2  A    between atoms: C1_5  and  C2_6 
REMARK    3  A    between atoms: C1_5  and  C9_13 
REMARK    4  A    between atoms: C2_6  and  C3_7 
REMARK    5  A    between atoms: C9_13  and  N2_14 
REMARK    6  A    between atoms: C9_13  and  C10_18 
REMARK    7  A    between atoms: C10_18  and  N3_19 
REMARK    8  A    between atoms: C10_18  and  C11_23 
ROOT
HETATM    1  C9  UNL     1      -0.573  -1.427  -0.441  1.00  0.00     0.244 C 
ENDROOT
BRANCH   1   2
HETATM    2  C1  UNL     1       0.510  -0.534   0.021  1.00  0.00     0.220 C 
BRANCH   2   3
HETATM    3  N1  UNL     1       0.503  -0.328   1.459  1.00  0.00    -0.073 N 
ATOM      4  H13 UNL     1       0.691  -1.171   2.002  1.00  0.00     0.274 HD
ATOM      5  H12 UNL     1       1.297   0.210   1.808  1.00  0.00     0.274 HD
ATOM      6  H11 UNL     1      -0.405   0.097   1.648  1.00  0.00     0.274 HD
ENDBRANCH   2   3
BRANCH   2   7
HETATM    7  C2  UNL     1       1.881  -1.176  -0.265  1.00  0.00     0.073 C 
BRANCH   7   8
HETATM    8  C3  UNL     1       2.942  -0.227   0.180  1.00  0.00    -0.056 A 
HETATM    9  C4  UNL     1       3.490  -0.210   1.425  1.00  0.00     0.007 A 
HETATM   10  C5  UNL     1       4.467   0.698   1.762  1.00  0.00     0.001 A 
HETATM   11  C6  UNL     1       4.933   1.630   0.857  1.00  0.00     0.000 A 
HETATM   12  C7  UNL     1       4.397   1.637  -0.410  1.00  0.00     0.001 A 
HETATM   13  C8  UNL     1       3.422   0.722  -0.730  1.00  0.00     0.007 A 
ENDBRANCH   7   8
ENDBRANCH   2   7
ENDBRANCH   1   2
BRANCH   1  14
HETATM   14  N2  UNL     1      -0.447  -1.552  -1.906  1.00  0.00    -0.071 N 
ATOM     15  H23 UNL     1      -0.443  -0.651  -2.384  1.00  0.00     0.274 HD
ATOM     16  H22 UNL     1       0.479  -1.863  -2.201  1.00  0.00     0.274 HD
ATOM     17  H21 UNL     1      -1.195  -2.168  -2.225  1.00  0.00     0.274 HD
ENDBRANCH   1  14
BRANCH   1  18
HETATM   18  C10 UNL     1      -1.962  -1.148  -0.077  1.00  0.00     0.223 C 
BRANCH  18  19
HETATM   19  N3  UNL     1      -2.799  -2.213  -0.677  1.00  0.00    -0.072 N 
ATOM     20  H33 UNL     1      -2.662  -2.308  -1.683  1.00  0.00     0.274 HD
ATOM     21  H32 UNL     1      -2.499  -3.152  -0.413  1.00  0.00     0.274 HD
ATOM     22  H31 UNL     1      -3.768  -2.018  -0.423  1.00  0.00     0.274 HD
ENDBRANCH  18  19
BRANCH  18  23
HETATM   23  C11 UNL     1      -2.603   0.114  -0.499  1.00  0.00     0.040 C 
HETATM   24  C12 UNL     1      -4.025   0.063   0.035  1.00  0.00    -0.024 C 
HETATM   25  C13 UNL     1      -4.452   1.302   0.253  1.00  0.00    -0.030 C 
HETATM   26  C14 UNL     1      -3.369   2.257  -0.112  1.00  0.00     0.027 C 
HETATM   27  C15 UNL     1      -2.141   1.368   0.186  1.00  0.00     0.014 C 
ENDBRANCH  18  23
ENDBRANCH   1  18
TORSDOF 8
