REMARK  5 active torsions:
REMARK  status: ('A' for Active; 'I' for Inactive)
REMARK       I    between atoms: C2_4  and  N2_5 
REMARK       I    between atoms: C2_4  and  N4_9 
REMARK    1  A    between atoms: N4_9  and  C4_11 
REMARK    2  A    between atoms: C4_11  and  C6_13 
REMARK    3  A    between atoms: C6_13  and  N5_14 
REMARK    4  A    between atoms: N5_14  and  C7_16 
REMARK    5  A    between atoms: C7_16  and  C8_17 
ROOT
HETATM    1  C1  UNL     1      -1.719  -2.529   0.013  1.00  0.00     0.165 C 
HETATM    2  N1  UNL     1      -2.593  -1.637   0.742  1.00  0.00    -0.230 N 
ATOM      3  H1  UNL     1      -3.107  -2.005   1.542  1.00  0.00     0.177 HD
HETATM    4  C2  UNL     1      -2.751  -0.398   0.426  1.00  0.00     0.682 C 
HETATM    5  N2  UNL     1      -3.633   0.377   1.213  1.00  0.00    -0.126 N 
ATOM      6  H2  UNL     1      -3.246   0.906   1.994  1.00  0.00     0.197 HD
HETATM    7  C3  UNL     1      -5.014   0.456   0.976  1.00  0.00     0.196 C 
HETATM    8  N3  UNL     1      -6.149   0.514   0.770  1.00  0.00    -0.171 NA
HETATM    9  N4  UNL     1      -2.036   0.105  -0.683  1.00  0.00    -0.220 N 
ATOM     10  H4  UNL     1      -1.936  -0.501  -1.497  1.00  0.00     0.178 HD
ENDROOT
BRANCH   9  11
HETATM   11  C4  UNL     1      -1.441   1.408  -0.745  1.00  0.00     0.112 C 
HETATM   12  C5  UNL     1      -2.559   2.445  -0.578  1.00  0.00     0.034 C 
BRANCH  11  13
HETATM   13  C6  UNL     1      -0.479   1.658   0.390  1.00  0.00     0.139 C 
BRANCH  13  14
HETATM   14  N5  UNL     1       0.615   0.759   0.452  1.00  0.00    -0.415 N 
ATOM     15  H5  UNL     1       0.718   0.080   1.206  1.00  0.00     0.153 HD
BRANCH  14  16
HETATM   16  C7  UNL     1       1.561   0.867  -0.608  1.00  0.00     0.152 C 
BRANCH  16  17
HETATM   17  C8  UNL     1       2.655  -0.094  -0.467  1.00  0.00    -0.041 A 
HETATM   18  C9  UNL     1       2.637  -1.370  -1.022  1.00  0.00     0.009 A 
HETATM   19  C10 UNL     1       3.705  -2.232  -0.853  1.00  0.00     0.001 A 
HETATM   20  C11 UNL     1       4.817  -1.862  -0.134  1.00  0.00     0.000 A 
HETATM   21  C12 UNL     1       4.845  -0.600   0.419  1.00  0.00     0.001 A 
HETATM   22  C13 UNL     1       3.781   0.249   0.246  1.00  0.00     0.009 A 
ENDBRANCH  16  17
ENDBRANCH  14  16
ENDBRANCH  13  14
ENDBRANCH  11  13
ENDBRANCH   9  11
TORSDOF 5
