REMARK  5 active torsions:
REMARK  status: ('A' for Active; 'I' for Inactive)
REMARK    1  A    between atoms: N1_2  and  C3_4 
REMARK    2  A    between atoms: C3_4  and  C4_5 
REMARK    3  A    between atoms: C4_5  and  O1_6 
REMARK    4  A    between atoms: C4_5  and  C5_8 
REMARK    5  A    between atoms: C4_5  and  C11_14 
ROOT
HETATM    1  C4  UNL     1       0.346   0.268  -0.463  1.00  0.00     0.159 C 
ENDROOT
BRANCH   1   2
HETATM    2  C3  UNL     1       1.519   0.556   0.435  1.00  0.00     0.106 C 
BRANCH   2   3
HETATM    3  N1  UNL     1       2.489  -0.436   0.542  1.00  0.00    -0.398 N 
HETATM    4  C1  UNL     1       3.599  -0.181   1.395  1.00  0.00     0.148 C 
HETATM    5  C2  UNL     1       2.682  -1.358  -0.489  1.00  0.00     0.148 C 
ENDBRANCH   2   3
ENDBRANCH   1   2
BRANCH   1   6
HETATM    6  O1  UNL     1       0.775   0.045  -1.768  1.00  0.00    -0.373 OA
ATOM      7  H1  UNL     1       0.035  -0.137  -2.335  1.00  0.00     0.212 HD
ENDBRANCH   1   6
BRANCH   1   8
HETATM    8  C5  UNL     1      -0.572   1.471  -0.450  1.00  0.00    -0.013 A 
HETATM    9  C6  UNL     1      -0.888   2.078  -1.644  1.00  0.00     0.011 A 
HETATM   10  C7  UNL     1      -1.729   3.170  -1.601  1.00  0.00     0.001 A 
HETATM   11  C8  UNL     1      -2.220   3.617  -0.393  1.00  0.00     0.000 A 
HETATM   12  C9  UNL     1      -1.901   3.008   0.784  1.00  0.00     0.001 A 
HETATM   13  C10 UNL     1      -1.052   1.903   0.752  1.00  0.00     0.011 A 
ENDBRANCH   1   8
BRANCH   1  14
HETATM   14  C11 UNL     1      -0.493  -0.843   0.052  1.00  0.00     0.055 A 
HETATM   15  C12 UNL     1      -0.674  -1.221   1.349  1.00  0.00     0.032 A 
HETATM   16  C13 UNL     1      -1.540  -2.298   1.380  1.00  0.00     0.047 A 
HETATM   17  C14 UNL     1      -1.868  -2.549   0.069  1.00  0.00     0.116 A 
HETATM   18  N2  UNL     1      -2.738  -3.576  -0.372  1.00  0.00    -0.083 NA
HETATM   19  N3  UNL     1      -1.220  -1.654  -0.715  1.00  0.00    -0.345 N 
ATOM     20  H3  UNL     1      -1.279  -1.608  -1.732  1.00  0.00     0.167 HD
ENDBRANCH   1  14
TORSDOF 5
