REMARK  9 active torsions:
REMARK  status: ('A' for Active; 'I' for Inactive)
REMARK    1  A    between atoms: C2_2  and  C4_4 
REMARK    2  A    between atoms: C6_8  and  N2_9 
REMARK    3  A    between atoms: C7_14  and  C8_15 
REMARK    4  A    between atoms: C9_16  and  C10_17 
REMARK    5  A    between atoms: C10_17  and  C11_18 
REMARK    6  A    between atoms: C11_18  and  O1_19 
REMARK    7  A    between atoms: C11_18  and  C12_21 
REMARK    8  A    between atoms: C12_21  and  N4_22 
REMARK    9  A    between atoms: N4_22  and  N5_23 
ROOT
HETATM    1  C4  UNL     1      -1.842  -0.134   0.400  1.00  0.00    -0.011 A 
HETATM    2  C5  UNL     1      -2.741   0.478   1.264  1.00  0.00     0.116 A 
HETATM    3  N1  UNL     1      -2.321   1.500   2.026  1.00  0.00    -0.202 N 
ATOM      4  H1  UNL     1      -3.004   1.929   2.651  1.00  0.00     0.183 HD
HETATM    5  C6  UNL     1      -1.089   2.000   2.034  1.00  0.00     0.676 A 
HETATM    6  N3  UNL     1      -0.212   1.417   1.200  1.00  0.00    -0.192 N 
ATOM      7  H3  UNL     1       0.747   1.764   1.165  1.00  0.00     0.184 HD
HETATM    8  C7  UNL     1      -0.572   0.368   0.395  1.00  0.00     0.057 A 
ENDROOT
BRANCH   8   9
HETATM    9  C8  UNL     1       0.466  -0.245  -0.437  1.00  0.00     0.027 C 
HETATM   10  C9  UNL     1       1.667   0.344  -0.408  1.00  0.00    -0.022 C 
BRANCH  10  11
HETATM   11  C10 UNL     1       2.759  -0.237  -1.225  1.00  0.00     0.065 C 
BRANCH  11  12
HETATM   12  C11 UNL     1       3.881  -0.778  -0.339  1.00  0.00     0.175 C 
BRANCH  12  13
HETATM   13  O1  UNL     1       4.847  -1.302  -1.221  1.00  0.00    -0.389 OA
ATOM     14  H1  UNL     1       5.544  -1.638  -0.670  1.00  0.00     0.210 HD
ENDBRANCH  12  13
BRANCH  12  15
HETATM   15  C12 UNL     1       4.526   0.282   0.447  1.00  0.00     0.212 C 
BRANCH  15  16
HETATM   16  N4  UNL     1       4.840   1.383  -0.051  1.00  0.00    -0.347 NA
BRANCH  16  17
HETATM   17  N5  UNL     1       4.922   2.565  -0.416  1.00  0.00    -0.281 N 
ATOM     18  H52 UNL     1       4.069   2.807   0.088  1.00  0.00     0.191 HD
ATOM     19  H51 UNL     1       5.179   3.464  -0.823  1.00  0.00     0.191 HD
ENDBRANCH  16  17
ENDBRANCH  15  16
ENDBRANCH  12  15
ENDBRANCH  11  12
ENDBRANCH  10  11
ENDBRANCH   8   9
BRANCH   1  20
HETATM   20  C2  UNL     1      -2.263  -1.178  -0.552  1.00  0.00     0.014 C 
HETATM   21  C1  UNL     1      -3.398  -2.054  -0.065  1.00  0.00     0.015 C 
HETATM   22  C3  UNL     1      -2.976  -0.374  -1.717  1.00  0.00     0.015 C 
ENDBRANCH   1  20
BRANCH   5  23
HETATM   23  N2  UNL     1      -0.723   3.005   2.784  1.00  0.00    -0.234 N 
ATOM     24  H22 UNL     1      -1.389   3.448   3.417  1.00  0.00     0.174 HD
ATOM     25  H21 UNL     1       0.222   3.389   2.790  1.00  0.00     0.174 HD
ENDBRANCH   5  23
TORSDOF 9
