REMARK  7 active torsions:
REMARK  status: ('A' for Active; 'I' for Inactive)
REMARK    1  A    between atoms: C2_2  and  C3_3 
REMARK    2  A    between atoms: C3_3  and  N1_4 
REMARK    3  A    between atoms: C3_3  and  C10_14 
REMARK    4  A    between atoms: N1_4  and  C4_6 
REMARK    5  A    between atoms: C4_6  and  C5_7 
REMARK    6  A    between atoms: C5_7  and  C6_8 
REMARK    7  A    between atoms: C10_14  and  N3_17 
ROOT
HETATM    1  C3  UNL     1      -1.718  -0.790   0.087  1.00  0.00     0.134 C 
ENDROOT
BRANCH   1   2
HETATM    2  C2  UNL     1      -1.700  -1.201   1.524  1.00  0.00    -0.010 C 
HETATM    3  C1  UNL     1      -1.389  -2.451   1.848  1.00  0.00     0.009 C 
ENDBRANCH   1   2
BRANCH   1   4
HETATM    4  N1  UNL     1      -0.489  -0.979  -0.601  1.00  0.00    -0.411 N 
ATOM      5  H1  UNL     1      -0.423  -1.612  -1.398  1.00  0.00     0.153 HD
BRANCH   4   6
HETATM    6  C4  UNL     1       0.644  -0.257  -0.141  1.00  0.00     0.119 C 
BRANCH   6   7
HETATM    7  C5  UNL     1       1.816  -0.674  -1.049  1.00  0.00     0.059 C 
BRANCH   7   8
HETATM    8  C6  UNL     1       3.063   0.013  -0.669  1.00  0.00    -0.040 A 
HETATM    9  C7  UNL     1       3.992  -0.443   0.240  1.00  0.00     0.025 A 
HETATM   10  C8  UNL     1       5.022   0.472   0.330  1.00  0.00     0.088 A 
HETATM   11  N2  UNL     1       4.732   1.467  -0.505  1.00  0.00    -0.375 N 
HETATM   12  C9  UNL     1       3.549   1.218  -1.126  1.00  0.00     0.094 A 
ATOM     13  H2  UNL     1       5.311   2.293  -0.656  1.00  0.00     0.164 HD
ENDBRANCH   7   8
ENDBRANCH   6   7
ENDBRANCH   4   6
ENDBRANCH   1   4
BRANCH   1  14
HETATM   14  C10 UNL     1      -2.409   0.513  -0.150  1.00  0.00     0.139 C 
HETATM   15  C11 UNL     1      -1.845   1.696   0.550  1.00  0.00     0.048 C 
HETATM   16  C12 UNL     1      -3.870   0.328   0.213  1.00  0.00     0.048 C 
BRANCH  14  17
HETATM   17  N3  UNL     1      -2.278   0.772  -1.595  1.00  0.00    -0.069 N 
ATOM     18  H33 UNL     1      -1.315   0.752  -1.929  1.00  0.00     0.275 HD
ATOM     19  H32 UNL     1      -2.624   0.012  -2.181  1.00  0.00     0.275 HD
ATOM     20  H31 UNL     1      -2.750   1.662  -1.757  1.00  0.00     0.275 HD
ENDBRANCH  14  17
ENDBRANCH   1  14
TORSDOF 7
