REMARK  7 active torsions:
REMARK  status: ('A' for Active; 'I' for Inactive)
REMARK    1  A    between atoms: C6_6  and  C7_7 
REMARK    2  A    between atoms: C7_7  and  C8_8 
REMARK    3  A    between atoms: C9_9  and  C10_10 
REMARK    4  A    between atoms: C10_10  and  N1_11 
REMARK    5  A    between atoms: C10_10  and  C11_15 
REMARK    6  A    between atoms: C11_15  and  C12_16 
REMARK    7  A    between atoms: C12_16  and  N2_17 
ROOT
HETATM    1  C10 UNL     1       1.391  -1.108   0.295  1.00  0.00     0.207 C 
ENDROOT
BRANCH   1   2
HETATM    2  C9  UNL     1       0.896   0.254   0.585  1.00  0.00     0.002 C 
HETATM    3  C8  UNL     1      -0.408   0.506   0.742  1.00  0.00    -0.028 C 
BRANCH   3   4
HETATM    4  C7  UNL     1      -1.498  -0.453   0.661  1.00  0.00     0.036 C 
BRANCH   4   5
HETATM    5  C6  UNL     1      -2.530  -0.180  -0.420  1.00  0.00     0.017 C 
HETATM    6  C2  UNL     1      -3.214   1.109  -0.289  1.00  0.00    -0.085 C 
HETATM    7  C1  UNL     1      -2.787   2.334  -0.521  1.00  0.00     0.014 C 
HETATM    8  C3  UNL     1      -4.619   0.799   0.184  1.00  0.00     0.034 C 
HETATM    9  C4  UNL     1      -4.896  -0.523  -0.533  1.00  0.00     0.005 C 
HETATM   10  C5  UNL     1      -3.593  -1.230  -0.285  1.00  0.00     0.009 C 
ENDBRANCH   4   5
ENDBRANCH   3   4
ENDBRANCH   1   2
BRANCH   1  11
HETATM   11  N1  UNL     1       1.258  -1.449  -1.111  1.00  0.00    -0.072 N 
ATOM     12  H13 UNL     1       0.297  -1.329  -1.431  1.00  0.00     0.275 HD
ATOM     13  H12 UNL     1       1.714  -0.756  -1.704  1.00  0.00     0.275 HD
ATOM     14  H11 UNL     1       1.600  -2.389  -1.311  1.00  0.00     0.275 HD
ENDBRANCH   1  11
BRANCH   1  15
HETATM   15  C11 UNL     1       2.831  -1.275   0.659  1.00  0.00     0.056 C 
BRANCH  15  16
HETATM   16  C12 UNL     1       3.756  -0.356  -0.068  1.00  0.00     0.122 C 
BRANCH  16  17
HETATM   17  N2  UNL     1       5.115  -0.622   0.374  1.00  0.00    -0.388 N 
HETATM   18  C13 UNL     1       5.953   0.342   0.390  1.00  0.00     0.185 C 
HETATM   19  N3  UNL     1       5.556   1.635  -0.016  1.00  0.00    -0.097 NA
ATOM     20  H2  UNL     1       5.394  -1.559   0.665  1.00  0.00     0.159 HD
ENDBRANCH  16  17
ENDBRANCH  15  16
ENDBRANCH   1  15
TORSDOF 7
