REMARK  6 active torsions:
REMARK  status: ('A' for Active; 'I' for Inactive)
REMARK    1  A    between atoms: C4_4  and  C5_5 
REMARK    2  A    between atoms: C5_5  and  C6_6 
REMARK    3  A    between atoms: C6_6  and  N1_7 
REMARK    4  A    between atoms: N1_7  and  C7_10 
REMARK    5  A    between atoms: C7_10  and  C8_11 
REMARK    6  A    between atoms: C8_11  and  C9_12 
ROOT
HETATM    1  N1  UNL     1       0.392   0.912  -1.313  1.00  0.00    -0.074 N 
ATOM      2  H11 UNL     1       0.423   1.912  -1.113  1.00  0.00     0.277 HD
ATOM      3  H12 UNL     1       0.665   0.949  -2.295  1.00  0.00     0.277 HD
ENDROOT
BRANCH   1   4
HETATM    4  C6  UNL     1      -0.914   0.373  -1.141  1.00  0.00     0.237 C 
BRANCH   4   5
HETATM    5  C5  UNL     1      -1.435   0.628   0.250  1.00  0.00     0.066 C 
BRANCH   5   6
HETATM    6  C4  UNL     1      -2.788   0.047   0.322  1.00  0.00    -0.057 A 
HETATM    7  C3  UNL     1      -3.871   0.814  -0.002  1.00  0.00     0.007 A 
HETATM    8  C2  UNL     1      -5.137   0.263   0.070  1.00  0.00     0.001 A 
HETATM    9  C1  UNL     1      -5.351  -1.044   0.460  1.00  0.00     0.000 A 
HETATM   10  C13 UNL     1      -4.225  -1.776   0.778  1.00  0.00     0.001 A 
HETATM   11  C12 UNL     1      -2.956  -1.250   0.713  1.00  0.00     0.007 A 
ENDBRANCH   5   6
ENDBRANCH   4   5
ENDBRANCH   1   4
BRANCH   1  12
HETATM   12  C7  UNL     1       1.342   0.167  -0.512  1.00  0.00     0.238 C 
BRANCH  12  13
HETATM   13  C8  UNL     1       2.695   0.815  -0.789  1.00  0.00     0.086 C 
BRANCH  13  14
HETATM   14  C9  UNL     1       3.783   0.162  -0.034  1.00  0.00     0.027 A 
HETATM   15  C10 UNL     1       5.108   0.553  -0.099  1.00  0.00     0.114 A 
HETATM   16  N2  UNL     1       5.812  -0.251   0.706  1.00  0.00    -0.360 N 
HETATM   17  C11 UNL     1       4.998  -1.144   1.288  1.00  0.00     0.180 A 
ATOM     18  H2  UNL     1       6.819  -0.193   0.855  1.00  0.00     0.166 HD
HETATM   19  N3  UNL     1       3.749  -0.866   0.812  1.00  0.00    -0.355 N 
ATOM     20  H3  UNL     1       2.904  -1.376   1.069  1.00  0.00     0.166 HD
ENDBRANCH  13  14
ENDBRANCH  12  13
ENDBRANCH   1  12
TORSDOF 6
