REMARK  6 active torsions:
REMARK  status: ('A' for Active; 'I' for Inactive)
REMARK    1  A    between atoms: N2_3  and  C2_5 
REMARK    2  A    between atoms: C2_5  and  C3_6 
REMARK    3  A    between atoms: C2_5  and  C8_13 
REMARK    4  A    between atoms: C3_6  and  N3_7 
REMARK    5  A    between atoms: N3_7  and  C4_9 
REMARK    6  A    between atoms: C4_9  and  C5_10 
ROOT
HETATM    1  C2  UNL     1      -0.673  -0.403  -0.017  1.00  0.00     0.132 C 
ENDROOT
BRANCH   1   2
HETATM    2  N2  UNL     1      -0.909  -1.716  -0.552  1.00  0.00    -0.378 N 
HETATM    3  C1  UNL     1      -1.208  -2.788   0.039  1.00  0.00     0.185 C 
HETATM    4  N1  UNL     1      -1.362  -2.854   1.437  1.00  0.00    -0.097 NA
ATOM      5  H2  UNL     1      -0.821  -1.792  -1.565  1.00  0.00     0.160 HD
ENDBRANCH   1   2
BRANCH   1   6
HETATM    6  C3  UNL     1       0.544   0.118  -0.796  1.00  0.00     0.148 C 
BRANCH   6   7
HETATM    7  N3  UNL     1       1.653  -0.720  -0.625  1.00  0.00    -0.400 N 
ATOM      8  H3  UNL     1       1.989  -1.281  -1.408  1.00  0.00     0.158 HD
BRANCH   7   9
HETATM    9  C4  UNL     1       2.306  -0.793   0.616  1.00  0.00     0.060 C 
BRANCH   9  10
HETATM   10  C5  UNL     1       3.007   0.533   0.871  1.00  0.00     0.024 A 
HETATM   11  C6  UNL     1       4.054   0.884  -0.200  1.00  0.00     0.010 A 
HETATM   12  C7  UNL     1       4.425   0.600   1.236  1.00  0.00     0.010 A 
ENDBRANCH   9  10
ENDBRANCH   7   9
ENDBRANCH   6   7
ENDBRANCH   1   6
BRANCH   1  13
HETATM   13  C8  UNL     1      -1.874   0.438  -0.347  1.00  0.00    -0.034 A 
HETATM   14  C9  UNL     1      -3.172  -0.046  -0.258  1.00  0.00     0.009 A 
HETATM   15  C10 UNL     1      -4.291   0.707  -0.534  1.00  0.00     0.001 A 
HETATM   16  C11 UNL     1      -4.143   2.011  -0.921  1.00  0.00     0.000 A 
HETATM   17  C12 UNL     1      -2.870   2.520  -1.019  1.00  0.00     0.001 A 
HETATM   18  C13 UNL     1      -1.757   1.761  -0.741  1.00  0.00     0.009 A 
ENDBRANCH   1  13
TORSDOF 6
