REMARK  3 active torsions:
REMARK  status: ('A' for Active; 'I' for Inactive)
REMARK    1  A    between atoms: N1_1  and  C1_4 
REMARK    2  A    between atoms: C2_7  and  C3_8 
REMARK    3  A    between atoms: C4_13  and  C5_14 
ROOT
HETATM    1  C3  UNL     1       1.800   0.335   0.326  1.00  0.00     0.136 A 
HETATM    2  N3  UNL     1       0.828   1.079   0.843  1.00  0.00    -0.290 N 
ATOM      3  H3  UNL     1       1.055   1.939   1.343  1.00  0.00     0.188 HD
HETATM    4  N4  UNL     1      -0.375   0.722   0.715  1.00  0.00    -0.295 N 
ATOM      5  H4  UNL     1      -1.117   1.297   1.115  1.00  0.00     0.187 HD
HETATM    6  C4  UNL     1      -0.685  -0.389   0.068  1.00  0.00     0.090 A 
HETATM    7  S1  UNL     1       0.883  -0.940  -0.376  1.00  0.00    -0.050 SA
ENDROOT
BRANCH   1   8
HETATM    8  C2  UNL     1       3.256   0.548   0.349  1.00  0.00     0.157 A 
HETATM    9  N2  UNL     1       4.060  -0.336  -0.241  1.00  0.00    -0.321 N 
HETATM   10  C1  UNL     1       5.398  -0.142  -0.220  1.00  0.00     0.171 A 
ATOM     11  H2  UNL     1       3.668  -1.155  -0.706  1.00  0.00     0.169 HD
HETATM   12  C10 UNL     1       5.901   0.975   0.416  1.00  0.00     0.303 A 
HETATM   13  N7  UNL     1       5.053   1.833   0.993  1.00  0.00    -0.262 N 
HETATM   14  O2  UNL     1       7.129   1.222   0.477  1.00  0.00    -0.263 OA
HETATM   15  N6  UNL     1       3.729   1.620   0.960  1.00  0.00    -0.280 N 
ATOM     16  H7  UNL     1       5.418   2.661   1.465  1.00  0.00     0.190 HD
ATOM     17  H6  UNL     1       3.091   2.281   1.404  1.00  0.00     0.188 HD
BRANCH  10  18
HETATM   18  N1  UNL     1       6.207  -0.957  -0.768  1.00  0.00    -0.381 N 
ATOM     19  H12 UNL     1       5.835  -1.782  -1.238  1.00  0.00     0.157 HD
ATOM     20  H11 UNL     1       7.216  -0.811  -0.752  1.00  0.00     0.157 HD
ENDBRANCH  10  18
ENDBRANCH   1   8
BRANCH   6  21
HETATM   21  C5  UNL     1      -1.998  -1.024  -0.220  1.00  0.00     0.137 C 
HETATM   22  C6  UNL     1      -2.686  -0.429  -1.413  1.00  0.00     0.058 C 
HETATM   23  C7  UNL     1      -4.141  -0.793  -1.343  1.00  0.00     0.170 C 
HETATM   24  O1  UNL     1      -4.922   0.089  -0.657  1.00  0.00    -0.389 OA
HETATM   25  C8  UNL     1      -4.278   0.869   0.263  1.00  0.00     0.186 C 
HETATM   26  C9  UNL     1      -3.487   0.139   1.287  1.00  0.00     0.140 C 
HETATM   27  N5  UNL     1      -2.889  -1.071   0.875  1.00  0.00    -0.409 N 
ATOM     28  H5  UNL     1      -3.093  -1.949   1.352  1.00  0.00     0.154 HD
ENDBRANCH   6  21
TORSDOF 3
