REMARK  6 active torsions:
REMARK  status: ('A' for Active; 'I' for Inactive)
REMARK    1  A    between atoms: C2_2  and  N1_3 
REMARK    2  A    between atoms: C3_6  and  C4_7 
REMARK    3  A    between atoms: C4_7  and  C5_8 
REMARK    4  A    between atoms: N5_19  and  N6_20 
REMARK    5  A    between atoms: C9_23  and  S1_24 
REMARK    6  A    between atoms: S1_24  and  N7_25 
ROOT
HETATM    1  N1  UNL     1      -1.846   0.327   0.937  1.00  0.00    -0.267 N 
HETATM    2  N2  UNL     1      -0.536   0.461   1.169  1.00  0.00    -0.280 N 
ATOM      3  H2  UNL     1      -0.080   0.362   2.076  1.00  0.00     0.189 HD
HETATM    4  C3  UNL     1       0.080   0.748   0.011  1.00  0.00     0.144 A 
HETATM    5  N5  UNL     1      -0.909   0.785  -0.948  1.00  0.00    -0.220 N 
HETATM    6  C9  UNL     1      -2.082   0.524  -0.361  1.00  0.00     0.204 A 
ENDROOT
BRANCH   4   7
HETATM    7  C4  UNL     1       1.469   0.987  -0.285  1.00  0.00     0.074 C 
BRANCH   7   8
HETATM    8  C5  UNL     1       2.517   0.271   0.049  1.00  0.00     0.104 A 
HETATM    9  C6  UNL     1       2.518  -0.959   0.808  1.00  0.00     0.265 A 
HETATM   10  O1  UNL     1       1.435  -1.471   1.207  1.00  0.00    -0.267 OA
HETATM   11  N3  UNL     1       3.739  -1.626   1.123  1.00  0.00    -0.275 N 
HETATM   12  C7  UNL     1       5.013  -1.150   0.728  1.00  0.00     0.329 A 
ATOM     13  H3  UNL     1       3.692  -2.491   1.661  1.00  0.00     0.173 HD
HETATM   14  O2  UNL     1       6.068  -1.789   1.040  1.00  0.00    -0.246 OA
HETATM   15  N4  UNL     1       5.047   0.049  -0.015  1.00  0.00    -0.275 N 
HETATM   16  C8  UNL     1       3.872   0.747  -0.354  1.00  0.00     0.265 A 
ATOM     17  H4  UNL     1       5.948   0.421  -0.315  1.00  0.00     0.173 HD
HETATM   18  O3  UNL     1       3.958   1.820  -1.023  1.00  0.00    -0.267 OA
ENDBRANCH   7   8
ENDBRANCH   4   7
BRANCH   5  19
HETATM   19  N6  UNL     1      -0.680   1.052  -2.287  1.00  0.00    -0.335 N 
ATOM     20  H62 UNL     1       0.215   1.251  -2.735  1.00  0.00     0.177 HD
ATOM     21  H61 UNL     1      -1.412   1.079  -2.997  1.00  0.00     0.177 HD
ENDBRANCH   5  19
BRANCH   1  22
HETATM   22  C2  UNL     1      -2.874   0.020   1.914  1.00  0.00     0.147 C 
HETATM   23  C1  UNL     1      -3.043  -1.477   1.996  1.00  0.00     0.028 C 
ENDBRANCH   1  22
BRANCH   6  24
HETATM   24  S1  UNL     1      -3.505   0.471  -1.142  1.00  0.00     0.019 SA
BRANCH  24  25
HETATM   25  N7  UNL     1      -3.620   0.765  -2.897  1.00  0.00    -0.367 N 
ATOM     26  H72 UNL     1      -2.761   0.970  -3.408  1.00  0.00     0.164 HD
ATOM     27  H71 UNL     1      -4.514   0.732  -3.387  1.00  0.00     0.164 HD
ENDBRANCH  24  25
ENDBRANCH   6  24
TORSDOF 6
