REMARK  4 active torsions:
REMARK  status: ('A' for Active; 'I' for Inactive)
REMARK       I    between atoms: C2_2  and  N1_4 
REMARK    1  A    between atoms: N1_4  and  C3_6 
REMARK    2  A    between atoms: C4_9  and  C5_10 
REMARK    3  A    between atoms: C6_14  and  C7_15 
REMARK    4  A    between atoms: C8_21  and  N6_22 
ROOT
HETATM    1  C5  UNL     1      -0.571  -0.133   0.222  1.00  0.00     0.174 A 
HETATM    2  N3  UNL     1      -0.734  -0.938   1.284  1.00  0.00    -0.239 N 
ATOM      3  H3  UNL     1       0.027  -1.439   1.743  1.00  0.00     0.196 HD
HETATM    4  O2  UNL     1      -1.955  -1.001   1.650  1.00  0.00    -0.215 OA
HETATM    5  C6  UNL     1      -2.644  -0.224   0.824  1.00  0.00     0.204 A 
HETATM    6  N7  UNL     1      -1.798   0.321  -0.067  1.00  0.00    -0.315 N 
ATOM      7  H7  UNL     1      -2.044   0.961  -0.822  1.00  0.00     0.169 HD
ENDROOT
BRANCH   1   8
HETATM    8  C4  UNL     1       0.695   0.168  -0.457  1.00  0.00     0.182 A 
HETATM    9  N2  UNL     1       1.921  -0.296  -0.155  1.00  0.00    -0.170 N 
HETATM   10  C3  UNL     1       2.842   0.196  -0.996  1.00  0.00     0.701 A 
ATOM     11  H2  UNL     1       2.123  -0.937   0.612  1.00  0.00     0.186 HD
HETATM   12  N9  UNL     1       2.177   0.992  -1.852  1.00  0.00    -0.130 N 
HETATM   13  N8  UNL     1       0.876   0.972  -1.521  1.00  0.00    -0.268 N 
ATOM     14  H9  UNL     1       2.590   1.520  -2.621  1.00  0.00     0.205 HD
ATOM     15  H8  UNL     1       0.138   1.487  -2.002  1.00  0.00     0.189 HD
BRANCH  10  16
HETATM   16  N1  UNL     1       4.127  -0.013  -1.031  1.00  0.00    -0.159 N 
HETATM   17  C2  UNL     1       4.766  -0.868  -0.094  1.00  0.00     0.232 C 
HETATM   18  C1  UNL     1       5.960  -0.444   0.653  1.00  0.00     0.118 C 
HETATM   19  O1  UNL     1       4.298  -2.017   0.101  1.00  0.00    -0.273 OA
ATOM     20  H1  UNL     1       4.687   0.448  -1.748  1.00  0.00     0.187 HD
ENDBRANCH  10  16
ENDBRANCH   1   8
BRANCH   5  21
HETATM   21  C7  UNL     1      -4.084  -0.052   0.943  1.00  0.00     0.155 A 
HETATM   22  N4  UNL     1      -4.881  -0.641   1.879  1.00  0.00    -0.234 N 
HETATM   23  O3  UNL     1      -6.098  -0.254   1.673  1.00  0.00    -0.155 OA
ATOM     24  H4  UNL     1      -4.571  -1.277   2.614  1.00  0.00     0.197 HD
HETATM   25  N5  UNL     1      -6.181   0.543   0.679  1.00  0.00    -0.224 N 
HETATM   26  C8  UNL     1      -4.923   0.710   0.171  1.00  0.00     0.154 A 
ATOM     27  H5  UNL     1      -7.034   0.978   0.327  1.00  0.00     0.198 HD
BRANCH  26  28
HETATM   28  N6  UNL     1      -4.610   1.446  -0.838  1.00  0.00    -0.382 N 
ATOM     29  H62 UNL     1      -3.671   1.571  -1.217  1.00  0.00     0.157 HD
ATOM     30  H61 UNL     1      -5.234   2.013  -1.412  1.00  0.00     0.157 HD
ENDBRANCH  26  28
ENDBRANCH   5  21
TORSDOF 4
