REMARK  7 active torsions:
REMARK  status: ('A' for Active; 'I' for Inactive)
REMARK    1  A    between atoms: O1_2  and  C2_3 
REMARK    2  A    between atoms: C3_4  and  O2_5 
REMARK    3  A    between atoms: C6_9  and  O3_10 
REMARK    4  A    between atoms: C7_12  and  O4_13 
REMARK    5  A    between atoms: C10_17  and  O6_18 
REMARK    6  A    between atoms: C10_17  and  O7_20 
REMARK    7  A    between atoms: N1_22  and  O8_23 
ROOT
HETATM    1  C2  UNL     1       1.646  -0.500  -0.527  1.00  0.00     0.138 A 
HETATM    2  C3  UNL     1       0.590  -1.434  -0.415  1.00  0.00     0.118 A 
HETATM    3  C4  UNL     1      -0.714  -0.975  -0.424  1.00  0.00     0.087 A 
HETATM    4  C5  UNL     1      -1.029   0.375  -0.541  1.00  0.00     0.072 A 
HETATM    5  C6  UNL     1      -0.017   1.281  -0.648  1.00  0.00     0.117 A 
HETATM    6  C7  UNL     1       1.314   0.811  -0.639  1.00  0.00     0.138 A 
HETATM    7  C9  UNL     1      -2.448   0.779  -0.577  1.00  0.00     0.250 C 
HETATM    8  O5  UNL     1      -2.764   1.771  -1.235  1.00  0.00    -0.284 OA
HETATM    9  C10 UNL     1      -3.403  -0.057   0.193  1.00  0.00     0.342 C 
HETATM   10  N1  UNL     1      -3.205  -1.438  -0.272  1.00  0.00    -0.154 N 
HETATM   11  C11 UNL     1      -1.854  -1.885  -0.287  1.00  0.00     0.286 C 
HETATM   12  O9  UNL     1      -1.682  -3.129  -0.176  1.00  0.00    -0.265 OA
ENDROOT
BRANCH   9  13
HETATM   13  O6  UNL     1      -4.708   0.317   0.035  1.00  0.00    -0.341 OA
ATOM     14  H6  UNL     1      -5.319  -0.218   0.528  1.00  0.00     0.215 HD
ENDBRANCH   9  13
BRANCH   9  15
HETATM   15  O7  UNL     1      -3.036  -0.011   1.531  1.00  0.00    -0.341 OA
ATOM     16  H7  UNL     1      -3.647  -0.546   2.024  1.00  0.00     0.215 HD
ENDBRANCH   9  15
BRANCH  10  17
HETATM   17  O8  UNL     1      -4.247  -2.210  -0.653  1.00  0.00    -0.280 OA
ATOM     18  H8  UNL     1      -4.119  -3.102  -0.953  1.00  0.00     0.245 HD
ENDBRANCH  10  17
BRANCH   5  19
HETATM   19  O3  UNL     1      -0.256   2.616  -0.761  1.00  0.00    -0.357 OA
ATOM     20  H3  UNL     1       0.450   3.248  -0.836  1.00  0.00     0.217 HD
ENDBRANCH   5  19
BRANCH   2  21
HETATM   21  O2  UNL     1       0.878  -2.743  -0.302  1.00  0.00    -0.357 OA
ATOM     22  H2  UNL     1       0.169  -3.370  -0.227  1.00  0.00     0.217 HD
ENDBRANCH   2  21
BRANCH   6  23
HETATM   23  O4  UNL     1       2.312   1.750  -0.750  1.00  0.00    -0.351 OA
HETATM   24  C8  UNL     1       2.934   2.411   0.308  1.00  0.00     0.210 C 
ENDBRANCH   6  23
BRANCH   1  25
HETATM   25  O1  UNL     1       2.939  -0.929  -0.521  1.00  0.00    -0.351 OA
HETATM   26  C1  UNL     1       3.764  -1.092   0.591  1.00  0.00     0.210 C 
ENDBRANCH   1  25
TORSDOF 7
