REMARK  7 active torsions:
REMARK  status: ('A' for Active; 'I' for Inactive)
REMARK    1  A    between atoms: N1_1  and  C1_4 
REMARK    2  A    between atoms: C4_10  and  N3_11 
REMARK    3  A    between atoms: N3_11  and  C5_13 
REMARK    4  A    between atoms: C5_13  and  C6_14 
REMARK    5  A    between atoms: C6_14  and  C7_15 
REMARK    6  A    between atoms: C7_15  and  N4_16 
REMARK    7  A    between atoms: C9_18  and  C10_19 
ROOT
HETATM    1  C5  UNL     1       3.183  -0.659  -0.304  1.00  0.00     0.123 C 
ENDROOT
BRANCH   1   2
HETATM    2  N3  UNL     1       3.935   0.205   0.564  1.00  0.00    -0.373 N 
ATOM      3  H3  UNL     1       3.532   0.467   1.464  1.00  0.00     0.161 HD
BRANCH   2   4
HETATM    4  C4  UNL     1       5.111   0.667   0.247  1.00  0.00     0.157 A 
HETATM    5  C3  UNL     1       5.778   1.492   1.127  1.00  0.00     0.176 A 
HETATM    6  C2  UNL     1       7.024   1.984   0.795  1.00  0.00     0.152 A 
HETATM    7  F1  UNL     1       5.218   1.831   2.329  1.00  0.00    -0.201 F 
HETATM    8  N2  UNL     1       7.605   1.664  -0.395  1.00  0.00    -0.199 N 
HETATM    9  C1  UNL     1       6.937   0.858  -1.238  1.00  0.00     0.677 A 
ATOM     10  H2  UNL     1       8.526   2.028  -0.641  1.00  0.00     0.183 HD
HETATM   11  N6  UNL     1       5.716   0.372  -0.920  1.00  0.00    -0.174 N 
ATOM     12  H6  UNL     1       5.238  -0.237  -1.584  1.00  0.00     0.186 HD
BRANCH   9  13
HETATM   13  N1  UNL     1       7.519   0.573  -2.364  1.00  0.00    -0.234 N 
ATOM     14  H12 UNL     1       8.440   0.940  -2.604  1.00  0.00     0.174 HD
ATOM     15  H11 UNL     1       7.012  -0.039  -3.004  1.00  0.00     0.174 HD
ENDBRANCH   9  13
ENDBRANCH   2   4
ENDBRANCH   1   2
BRANCH   1  16
HETATM   16  C6  UNL     1       1.750  -0.671   0.222  1.00  0.00     0.041 C 
BRANCH  16  17
HETATM   17  C7  UNL     1       0.878  -1.578  -0.655  1.00  0.00     0.150 C 
BRANCH  17  18
HETATM   18  N4  UNL     1      -0.461  -1.539  -0.096  1.00  0.00    -0.303 N 
HETATM   19  C8  UNL     1      -1.433  -0.670  -0.428  1.00  0.00     0.119 A 
HETATM   20  C9  UNL     1      -2.585  -0.936   0.316  1.00  0.00    -0.020 A 
HETATM   21  C16 UNL     1      -2.234  -2.008   1.101  1.00  0.00     0.116 A 
HETATM   22  N5  UNL     1      -0.975  -2.339   0.833  1.00  0.00    -0.310 N 
ATOM     23  H5  UNL     1      -0.471  -3.104   1.280  1.00  0.00     0.186 HD
BRANCH  20  24
HETATM   24  C10 UNL     1      -3.852  -0.192   0.226  1.00  0.00     0.021 C 
HETATM   25  C11 UNL     1      -4.164   0.503   1.556  1.00  0.00     0.009 C 
HETATM   26  C12 UNL     1      -5.566   1.007   1.481  1.00  0.00     0.001 C 
HETATM   27  C13 UNL     1      -6.038   1.137   0.069  1.00  0.00     0.000 C 
HETATM   28  C14 UNL     1      -6.117  -0.160  -0.663  1.00  0.00     0.001 C 
HETATM   29  C15 UNL     1      -5.008  -1.069  -0.174  1.00  0.00     0.009 C 
ENDBRANCH  20  24
ENDBRANCH  17  18
ENDBRANCH  16  17
ENDBRANCH   1  16
TORSDOF 7
