REMARK  10 active torsions:
REMARK  status: ('A' for Active; 'I' for Inactive)
REMARK    1  A    between atoms: C2_2  and  O1_3 
REMARK    2  A    between atoms: O1_3  and  C3_4 
REMARK    3  A    between atoms: C3_4  and  O2_5 
REMARK    4  A    between atoms: C3_4  and  C4_7 
REMARK    5  A    between atoms: C4_7  and  O3_8 
REMARK    6  A    between atoms: C4_7  and  C5_10 
REMARK    7  A    between atoms: C5_10  and  C6_11 
REMARK    8  A    between atoms: C7_13  and  N1_14 
REMARK    9  A    between atoms: N1_14  and  C8_16 
REMARK   10  A    between atoms: C12_23  and  O4_24 
ROOT
HETATM    1  C6  UNL     1       0.282   0.691  -1.484  1.00  0.00     0.039 A 
HETATM    2  S1  UNL     1      -0.368   1.819  -0.377  1.00  0.00    -0.054 SA
HETATM    3  C7  UNL     1      -1.946   1.186  -0.269  1.00  0.00     0.151 A 
HETATM    4  N2  UNL     1      -1.906   0.132  -1.090  1.00  0.00    -0.316 N 
ATOM      5  H2  UNL     1      -2.730  -0.453  -1.228  1.00  0.00     0.170 HD
HETATM    6  C12 UNL     1      -0.793  -0.130  -1.709  1.00  0.00     0.155 A 
ENDROOT
BRANCH   1   7
HETATM    7  C5  UNL     1       1.662   0.609  -2.066  1.00  0.00     0.087 C 
BRANCH   7   8
HETATM    8  C4  UNL     1       2.493  -0.472  -1.442  1.00  0.00     0.178 C 
BRANCH   8   9
HETATM    9  C3  UNL     1       2.668  -0.254   0.057  1.00  0.00     0.285 C 
BRANCH   9  10
HETATM   10  O1  UNL     1       3.585  -1.218   0.473  1.00  0.00    -0.359 OA
BRANCH  10  11
HETATM   11  C2  UNL     1       4.718  -0.698   1.057  1.00  0.00     0.166 C 
HETATM   12  C1  UNL     1       4.448   0.116   2.285  1.00  0.00     0.033 C 
ENDBRANCH  10  11
ENDBRANCH   9  10
BRANCH   9  13
HETATM   13  O2  UNL     1       1.448  -0.524   0.670  1.00  0.00    -0.369 OA
ATOM     14  H2  UNL     1       0.823   0.133   0.386  1.00  0.00     0.212 HD
ENDBRANCH   9  13
ENDBRANCH   8   9
BRANCH   8  15
HETATM   15  O3  UNL     1       2.020  -1.745  -1.623  1.00  0.00    -0.390 OA
ATOM     16  H3  UNL     1       1.911  -1.881  -2.557  1.00  0.00     0.210 HD
ENDBRANCH   8  15
ENDBRANCH   7   8
ENDBRANCH   1   7
BRANCH   6  17
HETATM   17  O4  UNL     1      -0.673  -1.234  -2.598  1.00  0.00    -0.345 OA
ATOM     18  H4  UNL     1      -1.418  -1.803  -2.754  1.00  0.00     0.219 HD
ENDBRANCH   6  17
BRANCH   3  19
HETATM   19  N1  UNL     1      -2.934   1.648   0.456  1.00  0.00    -0.339 N 
ATOM     20  H1  UNL     1      -2.796   2.475   1.037  1.00  0.00     0.168 HD
BRANCH  19  21
HETATM   21  C8  UNL     1      -4.203   0.997   0.434  1.00  0.00     0.024 C 
HETATM   22  C9  UNL     1      -5.331   1.587  -0.342  1.00  0.00     0.069 C 
HETATM   23  C10 UNL     1      -4.425  -0.124   1.085  1.00  0.00     0.030 C 
HETATM   24  C11 UNL     1      -3.351  -0.780   1.886  1.00  0.00     0.064 C 
HETATM   25 CL1  UNL     1      -5.975  -0.908   1.050  1.00  0.00    -0.087 Cl
ENDBRANCH  19  21
ENDBRANCH   3  19
TORSDOF 10
