REMARK  6 active torsions:
REMARK  status: ('A' for Active; 'I' for Inactive)
REMARK    1  A    between atoms: O1_2  and  C2_3 
REMARK    2  A    between atoms: C2_3  and  C3_4 
REMARK    3  A    between atoms: C3_4  and  C4_5 
REMARK    4  A    between atoms: C4_5  and  C5_6 
REMARK    5  A    between atoms: C11_16  and  C12_17 
REMARK    6  A    between atoms: C13_20  and  N3_21 
ROOT
HETATM    1  C5  UNL     1       0.288   0.251  -1.485  1.00  0.00     0.125 C 
HETATM    2  C6  UNL     1       0.100  -1.024  -0.771  1.00  0.00     0.067 C 
HETATM    3  C7  UNL     1      -0.439  -0.772   0.603  1.00  0.00    -0.054 C 
HETATM    4  C8  UNL     1       0.101  -1.431   1.600  1.00  0.00     0.059 C 
HETATM    5  C9  UNL     1      -0.332  -1.274   2.981  1.00  0.00     0.135 C 
HETATM    6  N1  UNL     1       0.192  -1.911   3.936  1.00  0.00    -0.380 N 
ATOM      7  H11 UNL     1      -0.111  -1.801   4.904  1.00  0.00     0.158 HD
ATOM      8  H12 UNL     1       0.952  -2.581   3.820  1.00  0.00     0.158 HD
HETATM    9  O2  UNL     1      -1.346  -0.381   3.136  1.00  0.00    -0.335 OA
HETATM   10  C10 UNL     1      -1.823   0.509   2.158  1.00  0.00     0.200 C 
HETATM   11  C11 UNL     1      -1.554   0.243   0.745  1.00  0.00     0.073 C 
HETATM   12  C16 UNL     1      -0.792   1.498   0.221  1.00  0.00     0.191 C 
HETATM   13  O3  UNL     1      -0.202   1.353  -0.937  1.00  0.00    -0.384 OA
ENDROOT
BRANCH  11  14
HETATM   14  C12 UNL     1      -2.666  -0.013  -0.160  1.00  0.00     0.083 A 
HETATM   15  N2  UNL     1      -3.053   0.901  -1.094  1.00  0.00    -0.192 N 
HETATM   16  C13 UNL     1      -4.087   0.676  -1.944  1.00  0.00     0.676 A 
ATOM     17  H2  UNL     1      -2.548   1.785  -1.156  1.00  0.00     0.184 HD
HETATM   18  N4  UNL     1      -4.755  -0.489  -1.865  1.00  0.00    -0.199 N 
HETATM   19  C14 UNL     1      -4.416  -1.441  -0.954  1.00  0.00     0.150 A 
ATOM     20  H4  UNL     1      -5.533  -0.662  -2.502  1.00  0.00     0.183 HD
HETATM   21  C15 UNL     1      -3.366  -1.199  -0.099  1.00  0.00     0.156 A 
HETATM   22  F1  UNL     1      -3.034  -2.136   0.795  1.00  0.00    -0.203 F 
BRANCH  16  23
HETATM   23  N3  UNL     1      -4.429   1.561  -2.817  1.00  0.00    -0.234 N 
ATOM     24  H32 UNL     1      -3.923   2.444  -2.877  1.00  0.00     0.174 HD
ATOM     25  H31 UNL     1      -5.206   1.392  -3.456  1.00  0.00     0.174 HD
ENDBRANCH  16  23
ENDBRANCH  11  14
BRANCH   1  26
HETATM   26  C4  UNL     1       1.787   0.501  -1.763  1.00  0.00     0.034 C 
BRANCH  26  27
HETATM   27  C3  UNL     1       2.590   0.568  -0.486  1.00  0.00     0.029 C 
BRANCH  27  28
HETATM   28  C2  UNL     1       4.021   0.821  -0.902  1.00  0.00     0.167 C 
BRANCH  28  29
HETATM   29  O1  UNL     1       4.881   0.916   0.177  1.00  0.00    -0.396 OA
HETATM   30  C1  UNL     1       4.936  -0.212   0.969  1.00  0.00     0.201 C 
ENDBRANCH  28  29
ENDBRANCH  27  28
ENDBRANCH  26  27
ENDBRANCH   1  26
TORSDOF 6
