REMARK  6 active torsions:
REMARK  status: ('A' for Active; 'I' for Inactive)
REMARK    1  A    between atoms: C2_2  and  C3_3 
REMARK    2  A    between atoms: C3_3  and  C4_4 
REMARK    3  A    between atoms: C4_4  and  N1_5 
REMARK    4  A    between atoms: C6_8  and  C7_9 
REMARK    5  A    between atoms: N3_10  and  N4_12 
REMARK    6  A    between atoms: C8_14  and  C9_15 
ROOT
HETATM    1  N1  UNL     1      -2.496  -0.376   1.185  1.00  0.00    -0.287 N 
HETATM    2  C5  UNL     1      -1.424  -0.921   0.595  1.00  0.00     0.139 A 
HETATM    3  N2  UNL     1      -0.735  -0.206  -0.413  1.00  0.00    -0.081 NA
HETATM    4  C6  UNL     1      -0.945  -2.175   0.930  1.00  0.00     0.090 A 
HETATM    5  C15 UNL     1      -1.595  -2.891   1.906  1.00  0.00     0.264 A 
HETATM    6  O1  UNL     1      -1.209  -4.042   2.258  1.00  0.00    -0.267 OA
HETATM    7  N5  UNL     1      -2.677  -2.322   2.490  1.00  0.00    -0.274 N 
ATOM      8  H5  UNL     1      -3.175  -2.835   3.217  1.00  0.00     0.173 HD
HETATM    9  C16 UNL     1      -3.114  -1.099   2.138  1.00  0.00     0.330 A 
HETATM   10  O2  UNL     1      -4.131  -0.580   2.696  1.00  0.00    -0.246 OA
ENDROOT
BRANCH   4  11
HETATM   11  C7  UNL     1       0.217  -2.749   0.280  1.00  0.00     0.127 C 
HETATM   12  N3  UNL     1       0.858  -2.102  -0.647  1.00  0.00    -0.311 N 
ATOM     13  H3  UNL     1       0.549  -1.173  -0.933  1.00  0.00     0.186 HD
BRANCH  12  14
HETATM   14  N4  UNL     1       1.971  -2.687  -1.247  1.00  0.00    -0.316 N 
HETATM   15  C8  UNL     1       3.038  -1.990  -1.385  1.00  0.00     0.087 C 
ATOM     16  H4  UNL     1       1.937  -3.654  -1.571  1.00  0.00     0.185 HD
BRANCH  15  17
HETATM   17  C9  UNL     1       3.091  -0.588  -0.915  1.00  0.00     0.059 C 
HETATM   18  C10 UNL     1       3.232  -0.551   0.597  1.00  0.00     0.013 C 
HETATM   19  C11 UNL     1       4.204   0.468   1.082  1.00  0.00     0.001 C 
HETATM   20  C12 UNL     1       4.184   1.763   0.331  1.00  0.00     0.003 C 
HETATM   21  C13 UNL     1       4.197   1.560  -1.169  1.00  0.00     0.038 C 
HETATM   22  C14 UNL     1       4.326   0.068  -1.494  1.00  0.00     0.179 C 
HETATM   23  F1  UNL     1       4.444  -0.092  -2.842  1.00  0.00    -0.249 F 
ENDBRANCH  15  17
ENDBRANCH  12  14
ENDBRANCH   4  11
BRANCH   1  24
HETATM   24  C4  UNL     1      -2.919   0.937   0.768  1.00  0.00     0.135 C 
BRANCH  24  25
HETATM   25  C3  UNL     1      -3.922   0.881  -0.376  1.00  0.00     0.020 C 
BRANCH  25  26
HETATM   26  C2  UNL     1      -4.278   2.314  -0.712  1.00  0.00    -0.003 C 
HETATM   27  C1  UNL     1      -5.275   2.393  -1.842  1.00  0.00     0.005 C 
ENDBRANCH  25  26
ENDBRANCH  24  25
ENDBRANCH   1  24
TORSDOF 6
