REMARK  5 active torsions:
REMARK  status: ('A' for Active; 'I' for Inactive)
REMARK    1  A    between atoms: C4_4  and  O1_5 
REMARK    2  A    between atoms: C7_9  and  C8_10 
REMARK    3  A    between atoms: C8_10  and  C9_11 
REMARK    4  A    between atoms: C10_12  and  C11_13 
REMARK    5  A    between atoms: C11_13  and  C12_14 
ROOT
HETATM    1  C12 UNL     1       4.874   0.057  -0.665  1.00  0.00     0.127 C 
HETATM    2  C13 UNL     1       4.899   1.466  -0.273  1.00  0.00     0.059 C 
HETATM    3  N1  UNL     1       4.904   2.585   0.036  1.00  0.00    -0.197 NA
ENDROOT
BRANCH   1   4
HETATM    4  C11 UNL     1       3.544  -0.194  -1.359  1.00  0.00     0.041 C 
BRANCH   4   5
HETATM    5  C10 UNL     1       2.482   0.130  -0.353  1.00  0.00    -0.030 C 
HETATM    6  C9  UNL     1       1.600  -0.750   0.060  1.00  0.00    -0.030 C 
BRANCH   6   7
HETATM    7  C8  UNL     1       0.576  -0.378   1.051  1.00  0.00     0.036 C 
BRANCH   7   8
HETATM    8  C7  UNL     1      -0.830  -0.549   0.654  1.00  0.00     0.017 C 
HETATM    9  C2  UNL     1      -1.339   0.219  -0.487  1.00  0.00    -0.082 C 
HETATM   10  C1  UNL     1      -0.881   1.304  -1.041  1.00  0.00     0.015 C 
HETATM   11  C3  UNL     1      -2.633  -0.400  -1.032  1.00  0.00     0.065 C 
HETATM   12  C4  UNL     1      -3.658  -0.365   0.066  1.00  0.00     0.122 C 
HETATM   13  C5  UNL     1      -3.196  -0.650   1.439  1.00  0.00     0.032 C 
HETATM   14  C6  UNL     1      -1.791  -0.234   1.797  1.00  0.00     0.012 C 
BRANCH  12  15
HETATM   15  O1  UNL     1      -4.356   0.860  -0.016  1.00  0.00    -0.395 OA
ATOM     16  H1  UNL     1      -5.004   0.882   0.678  1.00  0.00     0.210 HD
ENDBRANCH  12  15
ENDBRANCH   7   8
ENDBRANCH   6   7
ENDBRANCH   4   5
ENDBRANCH   1   4
TORSDOF 5
