REMARK  5 active torsions:
REMARK  status: ('A' for Active; 'I' for Inactive)
REMARK    1  A    between atoms: C2_2  and  S1_3 
REMARK    2  A    between atoms: S1_3  and  C3_4 
REMARK    3  A    between atoms: C3_4  and  C4_5 
REMARK    4  A    between atoms: C10_11  and  C11_12 
REMARK    5  A    between atoms: C11_12  and  O1_13 
ROOT
HETATM    1  C4  UNL     1       0.218   0.437   0.115  1.00  0.00     0.086 C 
HETATM    2  C5  UNL     1       0.206  -0.853  -0.663  1.00  0.00     0.025 C 
HETATM    3  C6  UNL     1      -0.873  -0.900  -1.715  1.00  0.00     0.002 C 
HETATM    4  C7  UNL     1      -1.956  -1.806  -1.210  1.00  0.00     0.000 C 
HETATM    5  C8  UNL     1      -2.962  -0.967  -0.443  1.00  0.00     0.002 C 
HETATM    6  C9  UNL     1      -2.605  -0.766   0.986  1.00  0.00     0.027 C 
HETATM    7  C10 UNL     1      -1.894   0.512   1.311  1.00  0.00     0.100 C 
HETATM    8  N1  UNL     1      -0.470   0.348   1.375  1.00  0.00    -0.410 N 
ATOM      9  H1  UNL     1       0.021   0.180   2.253  1.00  0.00     0.154 HD
ENDROOT
BRANCH   1  10
HETATM   10  C3  UNL     1       1.665   0.743   0.493  1.00  0.00     0.098 C 
BRANCH  10  11
HETATM   11  S1  UNL     1       2.825   0.396  -0.828  1.00  0.00    -0.167 SA
BRANCH  11  12
HETATM   12  C2  UNL     1       4.364  -0.275  -0.118  1.00  0.00     0.069 C 
HETATM   13  C1  UNL     1       5.431   0.813  -0.136  1.00  0.00     0.016 C 
ENDBRANCH  11  12
ENDBRANCH  10  11
ENDBRANCH   1  10
BRANCH   7  14
HETATM   14  C11 UNL     1      -2.359   1.702   0.538  1.00  0.00     0.188 C 
BRANCH  14  15
HETATM   15  O1  UNL     1      -3.702   1.924   0.809  1.00  0.00    -0.399 OA
ATOM     16  H1  UNL     1      -3.998   2.681   0.317  1.00  0.00     0.209 HD
ENDBRANCH  14  15
ENDBRANCH   7  14
TORSDOF 5
