REMARK  4 active torsions:
REMARK  status: ('A' for Active; 'I' for Inactive)
REMARK    1  A    between atoms: C2_2  and  C3_3 
REMARK    2  A    between atoms: C2_2  and  C4_5 
REMARK    3  A    between atoms: C4_5  and  C7_8 
REMARK    4  A    between atoms: C7_8  and  C8_9 
ROOT
HETATM    1  C8  UNL     1       1.499   0.231   0.115  1.00  0.00     0.022 C 
HETATM    2  N1  UNL     1       1.658  -0.997  -0.158  1.00  0.00    -0.309 N 
ATOM      3  H1  UNL     1       0.939  -1.494  -0.684  1.00  0.00     0.186 HD
HETATM    4  N2  UNL     1       2.802  -1.675   0.251  1.00  0.00    -0.336 N 
ATOM      5  H2  UNL     1       3.245  -2.341  -0.383  1.00  0.00     0.180 HD
HETATM    6  C9  UNL     1       3.375  -1.450   1.565  1.00  0.00     0.139 C 
HETATM    7  C10 UNL     1       2.942  -0.098   2.079  1.00  0.00     0.027 C 
HETATM    8  C11 UNL     1       2.703   0.792   0.865  1.00  0.00     0.060 C 
ENDROOT
BRANCH   1   9
HETATM    9  C7  UNL     1       0.416   1.142  -0.194  1.00  0.00     0.009 C 
BRANCH   9  10
HETATM   10  C4  UNL     1      -0.844   0.705  -0.804  1.00  0.00    -0.024 C 
HETATM   11  C5  UNL     1      -0.718   0.423  -2.302  1.00  0.00     0.019 C 
HETATM   12  C6  UNL     1      -1.698   2.032  -0.856  1.00  0.00     0.019 C 
BRANCH  10  13
HETATM   13  C2  UNL     1      -1.739  -0.242  -0.119  1.00  0.00     0.003 C 
HETATM   14  C1  UNL     1      -1.421  -1.706  -0.182  1.00  0.00     0.012 C 
BRANCH  13  15
HETATM   15  C3  UNL     1      -3.198  -0.118  -0.536  1.00  0.00     0.091 C 
HETATM   16  S1  UNL     1      -4.253  -1.089   0.620  1.00  0.00    -0.097 SA
ENDBRANCH  13  15
ENDBRANCH  10  13
ENDBRANCH   9  10
ENDBRANCH   1   9
TORSDOF 4
