REMARK  2 active torsions:
REMARK  status: ('A' for Active; 'I' for Inactive)
REMARK    1  A    between atoms: O1_1  and  C1_3 
REMARK    2  A    between atoms: N1_14  and  C11_15 
ROOT
HETATM    1  C1  UNL     1       1.314  -0.203  -1.553  1.00  0.00     0.184 C 
HETATM    2  C2  UNL     1       2.194   0.982  -1.342  1.00  0.00     0.037 C 
HETATM    3  C3  UNL     1       3.633   0.688  -1.104  1.00  0.00     0.003 C 
HETATM    4  C4  UNL     1       4.154   1.285   0.186  1.00  0.00     0.002 C 
HETATM    5  C5  UNL     1       3.228   1.034   1.347  1.00  0.00     0.026 C 
HETATM    6  C6  UNL     1       2.547  -0.319   1.243  1.00  0.00     0.171 C 
HETATM    7  O2  UNL     1       1.261  -0.122   0.859  1.00  0.00    -0.350 OA
HETATM    8  C7  UNL     1       0.811  -0.821  -0.237  1.00  0.00     0.287 C 
HETATM    9  C8  UNL     1       1.557  -2.171  -0.149  1.00  0.00     0.076 C 
HETATM   10  C9  UNL     1       0.462  -3.124  -0.601  1.00  0.00     0.035 C 
HETATM   11  C10 UNL     1      -0.670  -2.478   0.176  1.00  0.00     0.277 C 
HETATM   12  N1  UNL     1      -0.567  -1.099  -0.272  1.00  0.00     0.131 N 
ENDROOT
BRANCH   1  13
HETATM   13  O1  UNL     1       0.203   0.111  -2.374  1.00  0.00    -0.391 OA
ATOM     14  H1  UNL     1      -0.358  -0.644  -2.508  1.00  0.00     0.210 HD
ENDBRANCH   1  13
BRANCH  12  15
HETATM   15  C11 UNL     1      -1.480  -0.349   0.536  1.00  0.00     0.227 C 
HETATM   16  C12 UNL     1      -2.836  -0.970   0.336  1.00  0.00     0.036 C 
HETATM   17  C13 UNL     1      -4.023  -0.116   0.333  1.00  0.00     0.002 C 
HETATM   18  C14 UNL     1      -4.050   1.079   1.196  1.00  0.00     0.000 C 
HETATM   19  C15 UNL     1      -3.622   2.272   0.330  1.00  0.00     0.000 C 
HETATM   20  C16 UNL     1      -2.406   1.787  -0.452  1.00  0.00     0.002 C 
HETATM   21  C17 UNL     1      -1.439   1.109   0.485  1.00  0.00     0.036 C 
ENDBRANCH  12  15
TORSDOF 2
