REMARK  2 active torsions:
REMARK  status: ('A' for Active; 'I' for Inactive)
REMARK    1  A    between atoms: C6_6  and  N1_7 
REMARK    2  A    between atoms: C9_11  and  O1_13 
ROOT
HETATM    1  N1  UNL     1       0.061   0.991   0.063  1.00  0.00    -0.370 N 
ATOM      2  H1  UNL     1       0.275   1.986   0.122  1.00  0.00     0.161 HD
HETATM    3  C7  UNL     1      -1.101   0.654  -0.374  1.00  0.00     0.117 C 
HETATM    4  C8  UNL     1      -1.479  -0.772  -0.486  1.00  0.00     0.121 C 
HETATM    5  C9  UNL     1      -2.889  -0.997   0.020  1.00  0.00     0.064 C 
HETATM    6  C10 UNL     1      -3.332  -2.361  -0.504  1.00  0.00     0.046 C 
HETATM    7  C11 UNL     1      -3.853   0.022  -0.482  1.00  0.00     0.075 C 
HETATM    8  C12 UNL     1      -3.381   1.428  -0.362  1.00  0.00     0.064 C 
HETATM    9  C13 UNL     1      -3.509   1.981   1.042  1.00  0.00     0.046 C 
HETATM   10  C14 UNL     1      -4.198   2.367  -1.259  1.00  0.00     0.046 C 
HETATM   11  O2  UNL     1      -2.035   1.602  -0.754  1.00  0.00    -0.329 OA
ENDROOT
BRANCH   1  12
HETATM   12  C6  UNL     1       1.069   0.071   0.470  1.00  0.00     0.083 C 
HETATM   13  C5  UNL     1       2.135   0.860   1.209  1.00  0.00     0.026 C 
HETATM   14  C4  UNL     1       3.264  -0.142   1.466  1.00  0.00     0.011 C 
HETATM   15  C2  UNL     1       3.982  -0.316   0.152  1.00  0.00    -0.048 C 
HETATM   16  C1  UNL     1       4.789  -1.594   0.242  1.00  0.00     0.015 C 
HETATM   17  C3  UNL     1       4.963   0.827  -0.035  1.00  0.00     0.015 C 
HETATM   18  C16 UNL     1       3.053  -0.306  -1.028  1.00  0.00     0.011 C 
HETATM   19  C15 UNL     1       1.645  -0.684  -0.697  1.00  0.00     0.026 C 
ENDBRANCH   1  12
BRANCH   5  20
HETATM   20  O1  UNL     1      -2.888  -1.089   1.414  1.00  0.00    -0.390 OA
ATOM     21  H1  UNL     1      -3.772  -1.230   1.731  1.00  0.00     0.210 HD
ENDBRANCH   5  20
TORSDOF 2
