REMARK  4 active torsions:
REMARK  status: ('A' for Active; 'I' for Inactive)
REMARK    1  A    between atoms: C2_2  and  C5_5 
REMARK    2  A    between atoms: N1_9  and  C8_11 
REMARK    3  A    between atoms: C8_11  and  C9_12 
REMARK    4  A    between atoms: N2_17  and  O1_19 
ROOT
HETATM    1  C5  UNL     1      -1.238  -0.504   0.213  1.00  0.00     0.008 C 
HETATM    2  C6  UNL     1      -0.648  -1.759   0.805  1.00  0.00     0.086 C 
HETATM    3  S1  UNL     1       1.018  -1.499   1.449  1.00  0.00    -0.116 SA
HETATM    4  C7  UNL     1       1.985  -0.409   0.439  1.00  0.00     0.048 C 
HETATM    5  N1  UNL     1       3.231  -0.577   0.526  1.00  0.00    -0.382 N 
ATOM      6  H1  UNL     1       3.566  -1.307   1.155  1.00  0.00     0.160 HD
HETATM    7  C10 UNL     1       1.534   0.655  -0.477  1.00  0.00     0.118 C 
HETATM    8  C11 UNL     1       0.318   1.333   0.037  1.00  0.00     0.016 C 
HETATM    9  N2  UNL     1       0.083   2.542  -0.285  1.00  0.00    -0.277 N 
ATOM     10  H2  UNL     1      -0.745   3.029   0.057  1.00  0.00     0.193 HD
HETATM   11  C12 UNL     1      -0.704   0.732   0.929  1.00  0.00     0.061 C 
ENDROOT
BRANCH   5  12
HETATM   12  C8  UNL     1       4.211   0.180  -0.191  1.00  0.00     0.191 C 
BRANCH  12  13
HETATM   13  C9  UNL     1       5.557  -0.492  -0.206  1.00  0.00     0.370 C 
HETATM   14  F1  UNL     1       6.051  -0.675   1.080  1.00  0.00    -0.213 F 
HETATM   15  F2  UNL     1       5.476  -1.681  -0.889  1.00  0.00    -0.213 F 
ENDBRANCH  12  13
ENDBRANCH   5  12
BRANCH   1  16
HETATM   16  C2  UNL     1      -2.735  -0.458   0.305  1.00  0.00    -0.047 C 
HETATM   17  C1  UNL     1      -3.390  -1.610  -0.419  1.00  0.00     0.015 C 
HETATM   18  C3  UNL     1      -3.194   0.816  -0.381  1.00  0.00     0.015 C 
HETATM   19  C4  UNL     1      -3.144  -0.420   1.752  1.00  0.00     0.015 C 
ENDBRANCH   1  16
BRANCH   9  20
HETATM   20  O1  UNL     1       0.991   3.169  -1.114  1.00  0.00    -0.290 OA
ATOM     21  H1  UNL     1       0.816   4.071  -1.354  1.00  0.00     0.244 HD
ENDBRANCH   9  20
TORSDOF 4
