REMARK  6 active torsions:
REMARK  status: ('A' for Active; 'I' for Inactive)
REMARK    1  A    between atoms: C2_2  and  C4_4 
REMARK    2  A    between atoms: C2_2  and  S1_12 
REMARK    3  A    between atoms: C5_5  and  C6_6 
REMARK    4  A    between atoms: C6_6  and  C7_7 
REMARK    5  A    between atoms: C7_7  and  C8_8 
REMARK    6  A    between atoms: S1_12  and  C9_13 
ROOT
HETATM    1  C1  UNL     1       1.208   1.607   0.586  1.00  0.00     0.041 C 
HETATM    2  C2  UNL     1       0.805   0.148   0.543  1.00  0.00     0.071 C 
HETATM    3  C3  UNL     1       1.468  -0.640   1.665  1.00  0.00     0.041 C 
ENDROOT
BRANCH   2   4
HETATM    4  C4  UNL     1      -0.636   0.098   0.819  1.00  0.00    -0.086 C 
HETATM    5  C5  UNL     1      -1.825   0.065   1.067  1.00  0.00    -0.105 C 
BRANCH   5   6
HETATM    6  C6  UNL     1      -3.246   0.026   1.392  1.00  0.00     0.103 C 
BRANCH   6   7
HETATM    7  C7  UNL     1      -4.116   0.584   0.312  1.00  0.00     0.129 C 
BRANCH   7   8
HETATM    8  C8  UNL     1      -3.998  -0.147  -1.000  1.00  0.00     0.388 C 
HETATM    9  F1  UNL     1      -4.877   0.508  -1.877  1.00  0.00    -0.171 F 
HETATM   10  F2  UNL     1      -2.720  -0.090  -1.484  1.00  0.00    -0.171 F 
HETATM   11  F3  UNL     1      -4.414  -1.455  -0.863  1.00  0.00    -0.171 F 
ENDBRANCH   7   8
ENDBRANCH   6   7
ENDBRANCH   5   6
ENDBRANCH   2   4
BRANCH   2  12
HETATM   12  S1  UNL     1       1.053  -0.594  -1.059  1.00  0.00    -0.071 SA
BRANCH  12  13
HETATM   13  C9  UNL     1       2.847  -0.671  -1.442  1.00  0.00     0.155 A 
HETATM   14  N1  UNL     1       3.258  -1.180  -2.579  1.00  0.00    -0.296 N 
HETATM   15  C10 UNL     1       4.547  -1.225  -2.831  1.00  0.00     0.306 A 
ATOM     16  H1  UNL     1       2.586  -1.536  -3.259  1.00  0.00     0.171 HD
HETATM   17  O1  UNL     1       5.160  -1.673  -3.865  1.00  0.00    -0.258 OA
HETATM   18  S2  UNL     1       5.215  -0.529  -1.425  1.00  0.00     0.050 SA
HETATM   19  N2  UNL     1       3.786  -0.223  -0.597  1.00  0.00    -0.302 N 
ATOM     20  H2  UNL     1       3.663   0.200   0.323  1.00  0.00     0.176 HD
ENDBRANCH  12  13
ENDBRANCH   2  12
TORSDOF 6
