REMARK  3 active torsions:
REMARK  status: ('A' for Active; 'I' for Inactive)
REMARK    1  A    between atoms: N1_6  and  C6_7 
REMARK    2  A    between atoms: C6_7  and  N2_8 
REMARK    3  A    between atoms: C7_9  and  C8_10 
ROOT
HETATM    1  N2  UNL     1      -1.053   1.547   0.575  1.00  0.00    -0.275 N 
HETATM    2  C7  UNL     1      -2.206   0.833   0.874  1.00  0.00     0.113 A 
HETATM    3  N3  UNL     1      -2.837   1.554   1.802  1.00  0.00    -0.286 N 
ATOM      4  H3  UNL     1      -3.723   1.287   2.230  1.00  0.00     0.188 HD
HETATM    5  N4  UNL     1      -2.184   2.639   2.093  1.00  0.00    -0.274 N 
ATOM      6  H4  UNL     1      -2.459   3.352   2.768  1.00  0.00     0.189 HD
HETATM    7  C12 UNL     1      -1.081   2.640   1.336  1.00  0.00     0.199 A 
HETATM    8  S1  UNL     1       0.019   3.908   1.320  1.00  0.00    -0.039 SA
ENDROOT
BRANCH   1   9
HETATM    9  C6  UNL     1      -0.149   1.122  -0.426  1.00  0.00     0.166 C 
BRANCH   9  10
HETATM   10  N1  UNL     1       0.835   0.131  -0.198  1.00  0.00    -0.243 NA
HETATM   11  C5  UNL     1       1.257  -0.341  -1.569  1.00  0.00     0.099 C 
HETATM   12  C4  UNL     1       1.843  -1.725  -1.343  1.00  0.00     0.015 C 
HETATM   13  C3  UNL     1       3.274  -1.397  -0.881  1.00  0.00     0.010 C 
HETATM   14  C2  UNL     1       3.146  -0.566   0.340  1.00  0.00     0.036 C 
HETATM   15  C1  UNL     1       4.507   0.174   0.501  1.00  0.00     0.014 C 
HETATM   16  C13 UNL     1       2.089   0.480   0.405  1.00  0.00     0.176 C 
HETATM   17 CL1  UNL     1       2.807   1.939  -0.386  1.00  0.00    -0.083 Cl
HETATM   18 CL2  UNL     1       1.913   0.765   2.193  1.00  0.00    -0.083 Cl
ENDBRANCH   9  10
ENDBRANCH   1   9
BRANCH   2  19
HETATM   19  C8  UNL     1      -2.708  -0.433   0.303  1.00  0.00     0.009 C 
HETATM   20  C9  UNL     1      -4.182  -0.556   0.766  1.00  0.00     0.023 C 
HETATM   21  C10 UNL     1      -2.863  -0.365  -1.209  1.00  0.00     0.023 C 
HETATM   22  C11 UNL     1      -2.094  -1.690   0.802  1.00  0.00     0.023 C 
ENDBRANCH   2  19
TORSDOF 3
