REMARK  5 active torsions:
REMARK  status: ('A' for Active; 'I' for Inactive)
REMARK    1  A    between atoms: C7_7  and  O1_8 
REMARK    2  A    between atoms: O1_8  and  C8_9 
REMARK    3  A    between atoms: C8_9  and  C9_10 
REMARK    4  A    between atoms: C10_11  and  C11_12 
REMARK    5  A    between atoms: C11_12  and  O2_13 
ROOT
HETATM    1  C1  UNL     1      -3.919   2.349   0.357  1.00  0.00     0.043 C 
HETATM    2  C2  UNL     1      -2.917   1.328  -0.157  1.00  0.00    -0.087 C 
HETATM    3  C3  UNL     1      -1.734   1.314   0.369  1.00  0.00    -0.017 C 
HETATM    4  C4  UNL     1      -0.561   0.495   0.125  1.00  0.00     0.044 C 
HETATM    5  C5  UNL     1       0.483   0.700   1.240  1.00  0.00     0.016 C 
HETATM    6  C6  UNL     1       1.808   0.245   0.690  1.00  0.00     0.061 C 
HETATM    7  C7  UNL     1       1.652  -0.855  -0.330  1.00  0.00     0.261 C 
HETATM    8  O3  UNL     1       0.533  -1.585  -0.235  1.00  0.00    -0.349 OA
HETATM    9  C12 UNL     1      -0.692  -0.947  -0.075  1.00  0.00     0.210 C 
HETATM   10  C13 UNL     1      -1.447  -1.765   0.891  1.00  0.00     0.307 C 
HETATM   11  F1  UNL     1      -1.757  -3.000   0.276  1.00  0.00    -0.197 F 
HETATM   12  F2  UNL     1      -0.534  -2.148   1.882  1.00  0.00    -0.197 F 
HETATM   13  C14 UNL     1      -2.676  -1.264   1.470  1.00  0.00     0.082 C 
HETATM   14 CL1  UNL     1      -2.752  -1.145   3.249  1.00  0.00    -0.083 Cl
HETATM   15  C15 UNL     1      -3.754  -0.881   0.842  1.00  0.00    -0.001 C 
HETATM   16  C16 UNL     1      -3.930  -0.886  -0.639  1.00  0.00     0.033 C 
HETATM   17  C17 UNL     1      -3.446   0.425  -1.237  1.00  0.00     0.037 C 
ENDROOT
BRANCH   7  18
HETATM   18  O1  UNL     1       1.960  -0.345  -1.580  1.00  0.00    -0.350 OA
BRANCH  18  19
HETATM   19  C8  UNL     1       3.125  -0.826  -2.123  1.00  0.00     0.264 C 
BRANCH  19  20
HETATM   20  C9  UNL     1       4.249  -0.491  -1.235  1.00  0.00    -0.078 C 
HETATM   21  C10 UNL     1       5.163  -0.233  -0.496  1.00  0.00    -0.079 C 
BRANCH  21  22
HETATM   22  C11 UNL     1       6.273   0.084   0.434  1.00  0.00     0.257 C 
BRANCH  22  23
HETATM   23  O2  UNL     1       6.038   1.298   1.089  1.00  0.00    -0.389 OA
ATOM     24  H2  UNL     1       6.749   1.501   1.685  1.00  0.00     0.210 HD
ENDBRANCH  22  23
ENDBRANCH  21  22
ENDBRANCH  19  20
ENDBRANCH  18  19
ENDBRANCH   7  18
TORSDOF 5
