REMARK  6 active torsions:
REMARK  status: ('A' for Active; 'I' for Inactive)
REMARK    1  A    between atoms: C2_2  and  N1_5 
REMARK    2  A    between atoms: N1_5  and  C3_8 
REMARK    3  A    between atoms: C3_8  and  O1_9 
REMARK    4  A    between atoms: O1_9  and  C4_10 
REMARK    5  A    between atoms: C4_10  and  N2_12 
REMARK    6  A    between atoms: N2_12  and  C5_14 
ROOT
HETATM    1  C4  UNL     1      -0.896   0.632   0.082  1.00  0.00     0.217 C 
HETATM    2  S1  UNL     1      -0.729   1.971   0.992  1.00  0.00    -0.033 SA
ENDROOT
BRANCH   1   3
HETATM    3  O1  UNL     1      -1.776   0.614  -0.989  1.00  0.00    -0.299 OA
BRANCH   3   4
HETATM    4  C3  UNL     1      -3.016  -0.038  -0.805  1.00  0.00     0.415 C 
BRANCH   4   5
HETATM    5  N1  UNL     1      -3.685   0.642   0.287  1.00  0.00    -0.003 N 
ATOM      6  H12 UNL     1      -3.760   1.644   0.114  1.00  0.00     0.285 HD
ATOM      7  H11 UNL     1      -3.102   0.670   1.123  1.00  0.00     0.285 HD
BRANCH   5   8
HETATM    8  C2  UNL     1      -4.987   0.049   0.563  1.00  0.00     0.339 C 
HETATM    9  C1  UNL     1      -5.820   0.253  -0.708  1.00  0.00     0.103 C 
HETATM   10  F1  UNL     1      -5.564   0.759   1.573  1.00  0.00    -0.194 F 
HETATM   11 CL1  UNL     1      -4.844  -1.678   0.945  1.00  0.00    -0.053 Cl
ENDBRANCH   5   8
ENDBRANCH   4   5
ENDBRANCH   3   4
ENDBRANCH   1   3
BRANCH   1  12
HETATM   12  N2  UNL     1      -0.157  -0.546   0.351  1.00  0.00    -0.316 N 
ATOM     13  H2  UNL     1      -0.669  -1.395   0.593  1.00  0.00     0.170 HD
BRANCH  12  14
HETATM   14  C5  UNL     1       1.116  -0.598   0.306  1.00  0.00     0.120 A 
HETATM   15  S2  UNL     1       2.103   0.726  -0.081  1.00  0.00    -0.064 SA
HETATM   16  C6  UNL     1       3.758   0.273  -0.039  1.00  0.00     0.024 A 
HETATM   17  C7  UNL     1       4.875   1.030  -0.285  1.00  0.00     0.020 A 
HETATM   18  C11 UNL     1       3.848  -1.074   0.306  1.00  0.00     0.024 A 
HETATM   19  C8  UNL     1       6.138   0.455  -0.193  1.00  0.00     0.001 A 
HETATM   20  C9  UNL     1       6.260  -0.869   0.144  1.00  0.00     0.001 A 
HETATM   21  C10 UNL     1       5.125  -1.593   0.383  1.00  0.00     0.020 A 
HETATM   22  S3  UNL     1       2.300  -1.779   0.558  1.00  0.00    -0.064 SA
ENDBRANCH  12  14
ENDBRANCH   1  12
TORSDOF 6
