REMARK  2 active torsions:
REMARK  status: ('A' for Active; 'I' for Inactive)
REMARK    1  A    between atoms: N1_3  and  C2_4 
REMARK    2  A    between atoms: C5_7  and  O2_8 
ROOT
HETATM    1  O1  UNL     1       0.371   1.478   2.023  1.00  0.00    -0.269 OA
HETATM    2  C1  UNL     1       0.572   0.739   1.002  1.00  0.00     0.263 A 
HETATM    3  N1  UNL     1      -0.513   0.213   0.252  1.00  0.00    -0.280 N 
HETATM    4  C8  UNL     1       0.081  -0.554  -0.795  1.00  0.00     0.052 A 
HETATM    5  C9  UNL     1      -0.501  -1.296  -1.832  1.00  0.00     0.032 A 
HETATM    6  C10 UNL     1       0.312  -1.958  -2.725  1.00  0.00     0.026 A 
HETATM    7  C11 UNL     1       1.686  -1.929  -2.654  1.00  0.00     0.034 A 
HETATM    8 CL1  UNL     1       2.642  -2.814  -3.852  1.00  0.00    -0.084 Cl
HETATM    9  C12 UNL     1       2.264  -1.205  -1.645  1.00  0.00     0.036 A 
HETATM   10  C13 UNL     1       1.450  -0.530  -0.732  1.00  0.00     0.009 A 
HETATM   11  C14 UNL     1       1.837   0.301   0.420  1.00  0.00     0.167 A 
HETATM   12  S1  UNL     1       2.887   1.684  -0.094  1.00  0.00    -0.133 SA
HETATM   13  C15 UNL     1       4.277   1.639   1.072  1.00  0.00     0.086 C 
HETATM   14  C16 UNL     1       4.528   0.185   1.335  1.00  0.00     0.086 C 
HETATM   15  S2  UNL     1       2.899  -0.602   1.555  1.00  0.00    -0.133 SA
ENDROOT
BRANCH   3  16
HETATM   16  C2  UNL     1      -1.920   0.385   0.455  1.00  0.00     0.043 A 
HETATM   17  C3  UNL     1      -2.566   1.589   0.296  1.00  0.00     0.033 A 
HETATM   18  C4  UNL     1      -3.943   1.667   0.515  1.00  0.00     0.039 A 
HETATM   19  C5  UNL     1      -4.681   0.567   0.888  1.00  0.00     0.065 A 
HETATM   20  C6  UNL     1      -4.038  -0.645   1.050  1.00  0.00     0.039 A 
HETATM   21  C7  UNL     1      -2.687  -0.721   0.835  1.00  0.00     0.033 A 
BRANCH  19  22
HETATM   22  O2  UNL     1      -6.051   0.598   1.115  1.00  0.00    -0.361 OA
ATOM     23  H2  UNL     1      -6.560  -0.161   1.372  1.00  0.00     0.217 HD
ENDBRANCH  19  22
ENDBRANCH   3  16
TORSDOF 2
