REMARK  2 active torsions:
REMARK  status: ('A' for Active; 'I' for Inactive)
REMARK    1  A    between atoms: C4_5  and  N1_6 
REMARK    2  A    between atoms: C5_7  and  C6_8 
ROOT
HETATM    1  N1  UNL     1      -0.301   1.413  -0.193  1.00  0.00    -0.269 N 
HETATM    2  C5  UNL     1       1.038   1.339  -0.280  1.00  0.00     0.164 A 
HETATM    3  N2  UNL     1       1.493   2.573  -0.539  1.00  0.00    -0.281 N 
ATOM      4  H2  UNL     1       2.475   2.823  -0.658  1.00  0.00     0.188 HD
HETATM    5  N3  UNL     1       0.468   3.426  -0.618  1.00  0.00    -0.274 N 
ATOM      6  H3  UNL     1       0.523   4.427  -0.805  1.00  0.00     0.189 HD
HETATM    7  C10 UNL     1      -0.652   2.711  -0.403  1.00  0.00     0.199 A 
HETATM    8  S1  UNL     1      -2.201   3.222  -0.380  1.00  0.00    -0.039 SA
ENDROOT
BRANCH   1   9
HETATM    9  C4  UNL     1      -1.147   0.315   0.070  1.00  0.00     0.043 A 
HETATM   10  C3  UNL     1      -1.312  -0.251   1.318  1.00  0.00     0.033 A 
HETATM   11  C2  UNL     1      -2.157  -1.323   1.495  1.00  0.00     0.044 A 
HETATM   12  C1  UNL     1      -2.863  -1.868   0.454  1.00  0.00     0.116 A 
HETATM   13  F1  UNL     1      -3.703  -2.918   0.578  1.00  0.00    -0.206 F 
HETATM   14  C12 UNL     1      -2.710  -1.313  -0.805  1.00  0.00     0.044 A 
HETATM   15  C11 UNL     1      -1.862  -0.241  -0.974  1.00  0.00     0.033 A 
ENDBRANCH   1   9
BRANCH   2  16
HETATM   16  C6  UNL     1       1.871   0.153  -0.127  1.00  0.00     0.122 A 
HETATM   17  C7  UNL     1       3.245   0.092  -0.219  1.00  0.00     0.044 A 
HETATM   18  C8  UNL     1       3.615  -1.218  -0.008  1.00  0.00     0.048 A 
HETATM   19  C9  UNL     1       2.439  -1.909   0.206  1.00  0.00     0.122 A 
HETATM   20 BR1  UNL     1       2.402  -3.791   0.551  1.00  0.00    -0.023 Br
HETATM   21  O1  UNL     1       1.434  -1.072   0.129  1.00  0.00    -0.299 OA
ENDBRANCH   2  16
TORSDOF 2
