REMARK  2 active torsions:
REMARK  status: ('A' for Active; 'I' for Inactive)
REMARK    1  A    between atoms: C5_5  and  N1_6 
REMARK    2  A    between atoms: C8_9  and  C9_10 
ROOT
HETATM    1  N1  UNL     1      -1.166   0.192  -0.763  1.00  0.00    -0.340 N 
HETATM    2  C6  UNL     1      -0.730   0.766   0.480  1.00  0.00     0.127 C 
HETATM    3  C7  UNL     1       0.651   0.327   0.910  1.00  0.00     0.032 C 
HETATM    4  C8  UNL     1       1.457  -0.200  -0.223  1.00  0.00     0.053 C 
HETATM    5  C16 UNL     1       1.160   0.667  -1.455  1.00  0.00     0.114 C 
HETATM    6  C17 UNL     1      -0.232   0.302  -1.830  1.00  0.00     0.221 C 
HETATM    7  O2  UNL     1      -0.506   0.114  -3.037  1.00  0.00    -0.273 OA
ENDROOT
BRANCH   1   8
HETATM    8  C5  UNL     1      -2.404  -0.455  -1.019  1.00  0.00     0.192 C 
HETATM    9  C4  UNL     1      -3.516   0.550  -0.808  1.00  0.00     0.071 C 
HETATM   10  C2  UNL     1      -4.273   0.034   0.392  1.00  0.00     0.127 C 
HETATM   11  C1  UNL     1      -5.616  -0.506   0.013  1.00  0.00     0.046 C 
HETATM   12  C3  UNL     1      -4.503   1.198   1.341  1.00  0.00     0.046 C 
HETATM   13  N3  UNL     1      -3.406  -0.962   1.006  1.00  0.00     0.001 N 
HETATM   14  C18 UNL     1      -2.769  -1.567  -0.113  1.00  0.00     0.425 C 
ATOM     15  H32 UNL     1      -2.768  -0.594   1.711  1.00  0.00     0.285 HD
ATOM     16  H31 UNL     1      -3.882  -1.615   1.629  1.00  0.00     0.285 HD
HETATM   17  F1  UNL     1      -3.717  -2.356  -0.769  1.00  0.00    -0.172 F 
HETATM   18  F2  UNL     1      -1.738  -2.412   0.207  1.00  0.00    -0.172 F 
ENDBRANCH   1   8
BRANCH   4  19
HETATM   19  C9  UNL     1       2.898  -0.203  -0.004  1.00  0.00     0.060 A 
HETATM   20  C10 UNL     1       3.708  -1.314  -0.078  1.00  0.00     0.065 A 
HETATM   21  C11 UNL     1       5.005  -0.888   0.196  1.00  0.00     0.068 A 
HETATM   22  N2  UNL     1       6.199  -1.520   0.265  1.00  0.00    -0.364 N 
HETATM   23  C15 UNL     1       4.896   0.475   0.422  1.00  0.00     0.102 A 
HETATM   24  C12 UNL     1       7.344  -0.877   0.554  1.00  0.00     0.088 A 
ATOM     25  H2  UNL     1       6.232  -2.524   0.091  1.00  0.00     0.165 HD
HETATM   26  C13 UNL     1       7.258   0.484   0.783  1.00  0.00     0.020 A 
HETATM   27  C14 UNL     1       6.056   1.159   0.720  1.00  0.00     0.041 A 
HETATM   28  O1  UNL     1       3.631   0.837   0.293  1.00  0.00    -0.312 OA
ENDBRANCH   4  19
TORSDOF 2
