REMARK  6 active torsions:
REMARK  status: ('A' for Active; 'I' for Inactive)
REMARK    1  A    between atoms: C2_2  and  C3_3 
REMARK    2  A    between atoms: C7_7  and  C8_8 
REMARK    3  A    between atoms: C9_11  and  C10_12 
REMARK       I    between atoms: N1_18  and  C13_19 
REMARK    4  A    between atoms: C13_19  and  C14_21 
REMARK    5  A    between atoms: C15_23  and  C17_25 
REMARK    6  A    between atoms: C17_25  and  O7_26 
ROOT
HETATM    1  C1  UNL     1       0.531   1.753  -0.457  1.00  0.00     0.021 C 
HETATM    2  C2  UNL     1       0.495   0.250  -0.362  1.00  0.00     0.021 C 
HETATM    3  C11 UNL     1       1.227  -0.209  -1.656  1.00  0.00     0.199 C 
HETATM    4  F1  UNL     1       0.793   0.490  -2.750  1.00  0.00    -0.247 F 
HETATM    5  C12 UNL     1       2.655   0.281  -1.349  1.00  0.00     0.165 C 
HETATM    6  N1  UNL     1       2.696   0.507   0.108  1.00  0.00    -0.331 N 
HETATM    7  C13 UNL     1       3.696   1.275   0.735  1.00  0.00     0.282 C 
HETATM    8  O5  UNL     1       3.695   1.532   1.991  1.00  0.00    -0.265 OA
HETATM    9  C15 UNL     1       1.558  -0.231   0.590  1.00  0.00     0.063 C 
HETATM   10  C16 UNL     1       1.911  -1.704   0.295  1.00  0.00     0.042 C 
ENDROOT
BRANCH   2  11
HETATM   11  C3  UNL     1      -0.825  -0.337  -0.228  1.00  0.00     0.019 C 
HETATM   12  C4  UNL     1      -1.711   0.170   0.886  1.00  0.00     0.006 C 
HETATM   13  C5  UNL     1      -2.613   1.214   0.240  1.00  0.00     0.012 C 
HETATM   14  C7  UNL     1      -2.887  -0.787   0.656  1.00  0.00     0.096 C 
HETATM   15  C6  UNL     1      -3.082   0.037  -0.585  1.00  0.00     0.015 C 
HETATM   16  C9  UNL     1      -1.799  -0.203  -1.379  1.00  0.00     0.097 C 
BRANCH  16  17
HETATM   17  C10 UNL     1      -1.936  -1.442  -2.185  1.00  0.00     0.177 C 
HETATM   18  O3  UNL     1      -1.370  -2.508  -1.917  1.00  0.00    -0.648 OA
HETATM   19  O4  UNL     1      -2.765  -1.360  -3.306  1.00  0.00    -0.648 OA
ENDBRANCH  16  17
BRANCH  14  20
HETATM   20  C8  UNL     1      -3.930  -0.822   1.655  1.00  0.00     0.177 C 
HETATM   21  O1  UNL     1      -4.115  -1.921   2.299  1.00  0.00    -0.648 OA
HETATM   22  O2  UNL     1      -4.793   0.191   2.036  1.00  0.00    -0.648 OA
ENDBRANCH  14  20
ENDBRANCH   2  11
BRANCH   9  23
HETATM   23  C17 UNL     1       1.252  -0.188   2.027  1.00  0.00     0.195 C 
BRANCH  23  24
HETATM   24  O7  UNL     1       2.370  -0.742   2.713  1.00  0.00    -0.398 OA
ATOM     25  H7  UNL     1       2.172  -0.714   3.642  1.00  0.00     0.209 HD
ENDBRANCH  23  24
ENDBRANCH   9  23
BRANCH   7  26
HETATM   26  C14 UNL     1       4.818   1.844   0.028  1.00  0.00     0.332 C 
HETATM   27  O6  UNL     1       5.009   1.678  -1.191  1.00  0.00    -0.297 OA
ENDBRANCH   7  26
TORSDOF 6
