REMARK  5 active torsions:
REMARK  status: ('A' for Active; 'I' for Inactive)
REMARK    1  A    between atoms: C2_2  and  C4_4 
REMARK    2  A    between atoms: C4_4  and  N1_5 
REMARK    3  A    between atoms: C4_4  and  C15_23 
REMARK       I    between atoms: N1_5  and  C5_7 
REMARK    4  A    between atoms: C5_7  and  C6_9 
REMARK    5  A    between atoms: C7_10  and  C8_11 
ROOT
HETATM    1  C6  UNL     1       1.012   0.534   0.261  1.00  0.00     0.059 C 
HETATM    2  C7  UNL     1       2.009   1.382   0.402  1.00  0.00     0.046 C 
HETATM    3  C9  UNL     1       3.277   0.616   0.778  1.00  0.00     0.124 C 
HETATM    4  C10 UNL     1       2.657  -0.539   1.451  1.00  0.00     0.171 C 
HETATM    5  O4  UNL     1       2.947  -1.101   2.462  1.00  0.00    -0.294 OA
HETATM    6  C11 UNL     1       1.536  -0.853   0.539  1.00  0.00     0.231 C 
HETATM    7  O5  UNL     1       2.050  -1.430  -0.609  1.00  0.00    -0.371 OA
HETATM    8  C12 UNL     1       2.917  -0.617  -1.306  1.00  0.00     0.195 C 
HETATM    9  C13 UNL     1       3.922   0.105  -0.476  1.00  0.00     0.069 C 
HETATM   10  C14 UNL     1       5.073  -0.798  -0.049  1.00  0.00     0.036 C 
HETATM   11 CL1  UNL     1       4.639   1.438  -1.408  1.00  0.00    -0.116 Cl
ENDROOT
BRANCH   1  12
HETATM   12  C5  UNL     1      -0.376   0.747  -0.087  1.00  0.00     0.252 C 
HETATM   13  N1  UNL     1      -1.262  -0.361  -0.178  1.00  0.00    -0.344 N 
ATOM     14  H1  UNL     1      -0.879  -1.288   0.007  1.00  0.00     0.163 HD
HETATM   15  O1  UNL     1      -0.931   1.852  -0.332  1.00  0.00    -0.268 OA
BRANCH  13  16
HETATM   16  C4  UNL     1      -2.654  -0.272  -0.511  1.00  0.00     0.177 C 
BRANCH  16  17
HETATM   17  C2  UNL     1      -3.557  -0.703   0.618  1.00  0.00     0.009 C 
HETATM   18  C1  UNL     1      -5.020  -0.602   0.256  1.00  0.00     0.012 C 
HETATM   19  C3  UNL     1      -3.329   0.192   1.819  1.00  0.00     0.012 C 
ENDBRANCH  16  17
BRANCH  16  20
HETATM   20  C15 UNL     1      -2.878  -0.998  -1.769  1.00  0.00     0.254 C 
HETATM   21  N2  UNL     1      -4.169  -1.063  -2.335  1.00  0.00    -0.060 NA
HETATM   22  O6  UNL     1      -1.927  -1.563  -2.347  1.00  0.00    -0.275 OA
ENDBRANCH  16  20
ENDBRANCH  13  16
ENDBRANCH   1  12
BRANCH   2  23
HETATM   23  C8  UNL     1       1.997   2.815   0.243  1.00  0.00     0.206 C 
HETATM   24  O2  UNL     1       1.053   3.554  -0.058  1.00  0.00    -0.644 OA
HETATM   25  O3  UNL     1       3.222   3.499   0.455  1.00  0.00    -0.644 OA
ENDBRANCH   2  23
TORSDOF 5
