REMARK  5 active torsions:
REMARK  status: ('A' for Active; 'I' for Inactive)
REMARK    1  A    between atoms: N2_6  and  C4_8 
REMARK       I    between atoms: N3_11  and  C6_12 
REMARK    2  A    between atoms: C6_12  and  C7_14 
REMARK    3  A    between atoms: C7_14  and  C9_16 
REMARK    4  A    between atoms: C12_19  and  C13_20 
REMARK    5  A    between atoms: C15_25  and  C16_26 
ROOT
HETATM    1  C4  UNL     1       0.475   0.216  -0.442  1.00  0.00     0.186 C 
HETATM    2  C5  UNL     1      -0.132   0.563   0.879  1.00  0.00     0.300 C 
HETATM    3  F1  UNL     1       0.369  -0.162   1.959  1.00  0.00    -0.224 F 
HETATM    4  N3  UNL     1      -1.444   0.068   0.475  1.00  0.00    -0.302 N 
HETATM    5  C6  UNL     1      -2.711   0.137   1.104  1.00  0.00     0.227 C 
HETATM    6  O1  UNL     1      -2.750   0.737   2.240  1.00  0.00    -0.273 OA
HETATM    7  C12 UNL     1      -0.849  -0.449  -0.712  1.00  0.00     0.218 C 
ENDROOT
BRANCH   1   8
HETATM    8  N2  UNL     1       1.593  -0.685  -0.266  1.00  0.00    -0.214 N 
HETATM    9  C3  UNL     1       2.768  -0.144  -0.167  1.00  0.00     0.681 A 
HETATM   10  N1  UNL     1       3.113   1.156  -0.205  1.00  0.00    -0.193 N 
HETATM   11  N4  UNL     1       3.923  -0.832   0.001  1.00  0.00    -0.179 N 
HETATM   12  C2  UNL     1       4.444   1.312  -0.066  1.00  0.00     0.057 A 
ATOM     13  H1  UNL     1       2.452   1.924  -0.324  1.00  0.00     0.184 HD
HETATM   14  C1  UNL     1       5.169   2.597  -0.061  1.00  0.00     0.071 C 
HETATM   15  C15 UNL     1       4.947   0.034   0.064  1.00  0.00     0.150 A 
HETATM   16  C14 UNL     1       4.046  -2.276   0.098  1.00  0.00     0.176 C 
ATOM     17  H2  UNL     1       1.464  -1.696  -0.222  1.00  0.00     0.178 HD
BRANCH  15  18
HETATM   18  C16 UNL     1       6.363  -0.242   0.236  1.00  0.00     0.229 C 
HETATM   19  O4  UNL     1       6.723  -1.437   0.346  1.00  0.00    -0.643 OA
HETATM   20  O5  UNL     1       7.331   0.741   0.286  1.00  0.00    -0.643 OA
ENDBRANCH  15  18
ENDBRANCH   1   8
BRANCH   7  21
HETATM   21  C13 UNL     1      -0.782  -1.923  -0.861  1.00  0.00     0.199 C 
HETATM   22  O2  UNL     1      -1.204  -2.678   0.024  1.00  0.00    -0.646 OA
HETATM   23  O3  UNL     1      -0.225  -2.410  -2.036  1.00  0.00    -0.646 OA
ENDBRANCH   7  21
BRANCH   5  24
HETATM   24  C7  UNL     1      -3.962  -0.428   0.543  1.00  0.00     0.077 C 
HETATM   25  C8  UNL     1      -5.067  -0.224   1.561  1.00  0.00     0.020 C 
BRANCH  24  26
HETATM   26  C9  UNL     1      -4.341   0.165  -0.797  1.00  0.00    -0.010 C 
HETATM   27  C10 UNL     1      -4.554   1.644  -0.749  1.00  0.00     0.010 C 
HETATM   28  C11 UNL     1      -5.691  -0.447  -1.212  1.00  0.00     0.010 C 
ENDBRANCH  24  26
ENDBRANCH   5  24
TORSDOF 5
