REMARK  6 active torsions:
REMARK  status: ('A' for Active; 'I' for Inactive)
REMARK    1  A    between atoms: C2_2  and  C3_3 
REMARK    2  A    between atoms: C2_2  and  C6_11 
REMARK       I    between atoms: C3_3  and  N1_5 
REMARK    3  A    between atoms: N1_5  and  C4_7 
REMARK    4  A    between atoms: C4_7  and  C5_8 
REMARK       I    between atoms: C6_11  and  N2_13 
REMARK    5  A    between atoms: C9_17  and  C10_18 
REMARK       I    between atoms: C10_18  and  N3_20 
REMARK    6  A    between atoms: N3_20  and  C11_22 
ROOT
HETATM    1  C6  UNL     1       1.421   0.521   0.087  1.00  0.00     0.234 C 
HETATM    2  O4  UNL     1       1.989   0.678   1.207  1.00  0.00    -0.272 OA
HETATM    3  N2  UNL     1       0.308  -0.366   0.042  1.00  0.00    -0.328 N 
HETATM    4  C7  UNL     1      -0.508  -0.706  -1.119  1.00  0.00     0.200 C 
HETATM    5  S1  UNL     1      -0.436  -2.539  -0.939  1.00  0.00    -0.147 SA
HETATM    6  C8  UNL     1      -0.237  -2.567   0.862  1.00  0.00     0.110 C 
HETATM    7  C9  UNL     1      -0.201  -1.093   1.181  1.00  0.00     0.189 C 
ENDROOT
BRANCH   1   8
HETATM    8  C2  UNL     1       1.944   1.255  -1.072  1.00  0.00     0.166 C 
HETATM    9  C1  UNL     1       0.852   2.100  -1.697  1.00  0.00     0.030 C 
BRANCH   8  10
HETATM   10  C3  UNL     1       2.658   0.445  -2.065  1.00  0.00     0.231 C 
HETATM   11  O1  UNL     1       2.355   0.545  -3.273  1.00  0.00    -0.273 OA
HETATM   12  N1  UNL     1       3.692  -0.462  -1.733  1.00  0.00    -0.350 N 
ATOM     13  H1  UNL     1       3.944  -0.548  -0.748  1.00  0.00     0.163 HD
BRANCH  12  14
HETATM   14  C4  UNL     1       4.407  -1.264  -2.666  1.00  0.00     0.235 C 
BRANCH  14  15
HETATM   15  C5  UNL     1       5.412  -2.088  -1.968  1.00  0.00     0.191 C 
HETATM   16  O2  UNL     1       5.525  -2.003  -0.719  1.00  0.00    -0.647 OA
HETATM   17  O3  UNL     1       6.258  -2.971  -2.624  1.00  0.00    -0.647 OA
ENDBRANCH  14  15
ENDBRANCH  12  14
ENDBRANCH   8  10
ENDBRANCH   1   8
BRANCH   7  18
HETATM   18  C10 UNL     1      -1.492  -0.596   1.691  1.00  0.00     0.242 C 
HETATM   19  O5  UNL     1      -2.081  -1.313   2.547  1.00  0.00    -0.271 OA
HETATM   20  N3  UNL     1      -2.127   0.609   1.310  1.00  0.00    -0.351 N 
ATOM     21  H3  UNL     1      -1.664   1.204   0.623  1.00  0.00     0.163 HD
BRANCH  20  22
HETATM   22  C11 UNL     1      -3.397   1.039   1.845  1.00  0.00     0.022 C 
HETATM   23  C12 UNL     1      -3.848   2.353   1.275  1.00  0.00     0.037 C 
HETATM   24  C13 UNL     1      -3.238   1.229   3.352  1.00  0.00     0.037 C 
HETATM   25  C14 UNL     1      -4.492   0.021   1.558  1.00  0.00     0.037 C 
ENDBRANCH  20  22
ENDBRANCH   7  18
TORSDOF 6
