REMARK  7 active torsions:
REMARK  status: ('A' for Active; 'I' for Inactive)
REMARK    1  A    between atoms: C2_2  and  C3_3 
REMARK    2  A    between atoms: C3_3  and  N1_4 
REMARK       I    between atoms: N1_4  and  C4_6 
REMARK    3  A    between atoms: C4_6  and  C5_8 
REMARK       I    between atoms: C5_8  and  N2_10 
REMARK    4  A    between atoms: N2_10  and  C6_12 
REMARK    5  A    between atoms: C11_19  and  C12_20 
REMARK    6  A    between atoms: C12_20  and  C13_21 
REMARK    7  A    between atoms: C16_25  and  C17_26 
ROOT
HETATM    1  C6  UNL     1       0.224  -0.265  -1.586  1.00  0.00     0.165 C 
HETATM    2  C7  UNL     1      -0.165   1.191  -1.763  1.00  0.00     0.354 C 
HETATM    3  C8  UNL     1       0.913   1.917  -2.440  1.00  0.00     0.097 C 
HETATM    4  N3  UNL     1       1.764   2.467  -2.973  1.00  0.00    -0.195 NA
HETATM    5  N4  UNL     1      -0.242   1.294  -0.353  1.00  0.00     0.130 N 
HETATM    6  C9  UNL     1      -0.624  -0.130  -0.337  1.00  0.00     0.252 C 
HETATM    7  C10 UNL     1      -2.119  -0.149  -0.608  1.00  0.00     0.045 C 
HETATM    8  C11 UNL     1      -2.588   1.234  -0.270  1.00  0.00     0.035 C 
HETATM    9  C16 UNL     1      -1.394   1.920   0.260  1.00  0.00     0.329 C 
ENDROOT
BRANCH   1  10
HETATM   10  N2  UNL     1       1.582  -0.529  -1.232  1.00  0.00    -0.343 N 
HETATM   11  C5  UNL     1       2.359  -1.606  -1.675  1.00  0.00     0.309 C 
HETATM   12  O2  UNL     1       1.851  -2.442  -2.460  1.00  0.00    -0.262 OA
ATOM     13  H2  UNL     1       2.029   0.131  -0.595  1.00  0.00     0.163 HD
BRANCH  11  14
HETATM   14  C4  UNL     1       3.739  -1.802  -1.264  1.00  0.00     0.309 C 
HETATM   15  N1  UNL     1       4.501  -2.900  -1.729  1.00  0.00    -0.349 N 
ATOM     16  H1  UNL     1       4.086  -3.577  -2.369  1.00  0.00     0.163 HD
HETATM   17  O1  UNL     1       4.269  -0.983  -0.480  1.00  0.00    -0.262 OA
BRANCH  15  18
HETATM   18  C3  UNL     1       5.863  -3.058  -1.295  1.00  0.00     0.149 C 
BRANCH  18  19
HETATM   19  C2  UNL     1       6.046  -3.212   0.148  1.00  0.00    -0.018 C 
HETATM   20  C1  UNL     1       6.610  -4.309   0.636  1.00  0.00     0.008 C 
ENDBRANCH  18  19
ENDBRANCH  15  18
ENDBRANCH  11  14
ENDBRANCH   1  10
BRANCH   9  21
HETATM   21  C17 UNL     1      -1.399   3.401   0.056  1.00  0.00     0.208 C 
HETATM   22  O3  UNL     1      -2.324   4.112   0.519  1.00  0.00    -0.646 OA
HETATM   23  O4  UNL     1      -0.400   4.029  -0.640  1.00  0.00    -0.646 OA
ENDBRANCH   9  21
BRANCH   8  24
HETATM   24  C12 UNL     1      -3.877   1.358   0.403  1.00  0.00     0.050 C 
BRANCH  24  25
HETATM   25  C13 UNL     1      -4.145   0.732   1.706  1.00  0.00     0.096 C 
HETATM   26  C14 UNL     1      -3.267   1.173   2.851  1.00  0.00     0.051 C 
HETATM   27  C15 UNL     1      -5.562   1.222   2.110  1.00  0.00     0.051 C 
HETATM   28  F1  UNL     1      -4.286  -0.650   1.684  1.00  0.00    -0.244 F 
ENDBRANCH  24  25
ENDBRANCH   8  24
TORSDOF 7
