REMARK  5 active torsions:
REMARK  status: ('A' for Active; 'I' for Inactive)
REMARK    1  A    between atoms: C2_5  and  C3_6 
REMARK    2  A    between atoms: C3_6  and  C4_7 
REMARK    3  A    between atoms: C5_8  and  C6_9 
REMARK    4  A    between atoms: C6_9  and  C7_10 
REMARK    5  A    between atoms: C8_11  and  C9_12 
ROOT
HETATM    1  C3  UNL     1      -1.859   0.127   1.182  1.00  0.00     0.141 C 
ENDROOT
BRANCH   1   2
HETATM    2  C2  UNL     1      -2.192   0.631  -0.196  1.00  0.00     0.201 C 
HETATM    3  N1  UNL     1      -3.497   1.296  -0.159  1.00  0.00    -0.321 N 
HETATM    4  C1  UNL     1      -3.821   0.625  -1.368  1.00  0.00     0.319 C 
ATOM      5  H1  UNL     1      -3.967   1.953   0.463  1.00  0.00     0.166 HD
HETATM    6  O1  UNL     1      -4.618   0.747  -2.335  1.00  0.00    -0.247 OA
HETATM    7  N2  UNL     1      -2.821  -0.333  -1.068  1.00  0.00    -0.321 N 
ATOM      8  H2  UNL     1      -2.628  -1.294  -1.349  1.00  0.00     0.166 HD
ENDBRANCH   1   2
BRANCH   1   9
HETATM    9  C4  UNL     1      -0.552  -0.530   1.108  1.00  0.00    -0.102 C 
HETATM   10  C5  UNL     1       0.532  -1.092   1.047  1.00  0.00    -0.094 C 
BRANCH  10  11
HETATM   11  C6  UNL     1       1.820  -1.785   0.972  1.00  0.00     0.187 C 
BRANCH  11  12
HETATM   12  C7  UNL     1       2.783  -0.834   0.413  1.00  0.00    -0.094 C 
HETATM   13  C8  UNL     1       3.590  -0.067  -0.047  1.00  0.00    -0.095 C 
BRANCH  13  14
HETATM   14  C9  UNL     1       4.599   0.859  -0.613  1.00  0.00     0.178 C 
HETATM   15 BR1  UNL     1       5.032   0.209  -2.369  1.00  0.00    -0.083 Br
ENDBRANCH  13  14
ENDBRANCH  11  12
ENDBRANCH  10  11
ENDBRANCH   1   9
TORSDOF 5
