REMARK  1 active torsions:
REMARK  status: ('A' for Active; 'I' for Inactive)
REMARK    1  A    between atoms: C4_9  and  C5_10 
ROOT
HETATM    1  C1  UNL     1      -0.815  -1.549  -0.485  1.00  0.00     0.034 C 
HETATM    2  C2  UNL     1      -0.469  -0.407   0.395  1.00  0.00     0.103 C 
HETATM    3  N1  UNL     1      -1.564   0.570   0.295  1.00  0.00    -0.361 N 
ATOM      4  H1  UNL     1      -2.530   0.408   0.581  1.00  0.00     0.162 HD
HETATM    5  C3  UNL     1      -1.060   1.776  -0.265  1.00  0.00     0.168 C 
HETATM    6  S1  UNL     1      -1.816   3.239  -0.341  1.00  0.00    -0.041 SA
HETATM    7  N2  UNL     1       0.242   1.472  -0.756  1.00  0.00    -0.360 N 
ATOM      8  H2  UNL     1       0.736   1.927  -1.523  1.00  0.00     0.162 HD
HETATM    9  C4  UNL     1       0.714   0.378   0.068  1.00  0.00     0.116 C 
ENDROOT
BRANCH   9  10
HETATM   10  C5  UNL     1       1.867  -0.309  -0.571  1.00  0.00     0.112 C 
HETATM   11 BR1  UNL     1       2.546  -1.722   0.563  1.00  0.00    -0.094 Br
ENDBRANCH   9  10
TORSDOF 1
