REMARK  4 active torsions:
REMARK  status: ('A' for Active; 'I' for Inactive)
REMARK    1  A    between atoms: C3_3  and  C4_4 
REMARK    2  A    between atoms: C4_4  and  C5_5 
REMARK    3  A    between atoms: C5_5  and  C6_6 
REMARK    4  A    between atoms: C7_7  and  C8_8 
ROOT
HETATM    1  C1  UNL     1       5.184   1.264   0.561  1.00  0.00     0.113 C 
HETATM    2  C2  UNL     1       3.782   0.800   0.474  1.00  0.00    -0.097 C 
HETATM    3  C3  UNL     1       2.638   0.419   0.385  1.00  0.00    -0.015 C 
ENDROOT
BRANCH   3   4
HETATM    4  C4  UNL     1       1.299  -0.033   0.268  1.00  0.00    -0.009 C 
BRANCH   4   5
HETATM    5  C5  UNL     1       0.157  -0.431   0.155  1.00  0.00    -0.045 C 
BRANCH   5   6
HETATM    6  C6  UNL     1      -1.182  -0.924   0.023  1.00  0.00     0.112 A 
HETATM    7  C7  UNL     1      -2.303  -0.121  -0.040  1.00  0.00     0.060 A 
HETATM    8  N1  UNL     1      -3.403  -0.900  -0.163  1.00  0.00    -0.300 N 
HETATM    9  N2  UNL     1      -3.004  -2.161  -0.178  1.00  0.00    -0.265 N 
ATOM     10  H1  UNL     1      -4.367  -0.573  -0.232  1.00  0.00     0.186 HD
HETATM   11  C9  UNL     1      -1.664  -2.212  -0.067  1.00  0.00     0.280 A 
ATOM     12  H2  UNL     1      -3.618  -2.971  -0.261  1.00  0.00     0.190 HD
HETATM   13  O1  UNL     1      -0.896  -3.224  -0.041  1.00  0.00    -0.265 OA
BRANCH   7  14
HETATM   14  C8  UNL     1      -2.302   1.352   0.016  1.00  0.00     0.145 C 
HETATM   15 BR1  UNL     1      -2.006   1.873   1.876  1.00  0.00    -0.090 Br
ENDBRANCH   7  14
ENDBRANCH   5   6
ENDBRANCH   4   5
ENDBRANCH   3   4
TORSDOF 4
