REMARK  9 active torsions:
REMARK  status: ('A' for Active; 'I' for Inactive)
REMARK    1  A    between atoms: C2_2  and  C3_3 
REMARK    2  A    between atoms: C3_3  and  C4_4 
REMARK    3  A    between atoms: C4_4  and  N1_5 
REMARK    4  A    between atoms: N1_5  and  C5_7 
REMARK    5  A    between atoms: C6_10  and  C7_11 
REMARK    6  A    between atoms: N4_19  and  C11_21 
REMARK    7  A    between atoms: C11_21  and  C12_22 
REMARK    8  A    between atoms: C12_22  and  N5_23 
REMARK    9  A    between atoms: N6_26  and  C15_27 
ROOT
HETATM    1  C5  UNL     1       3.642  -0.136   0.416  1.00  0.00     0.680 A 
HETATM    2  N2  UNL     1       3.554   1.159   0.045  1.00  0.00    -0.185 N 
ATOM      3  H2  UNL     1       4.411   1.693  -0.096  1.00  0.00     0.184 HD
HETATM    4  C6  UNL     1       2.375   1.762  -0.143  1.00  0.00     0.157 A 
HETATM    5  C8  UNL     1       1.225   1.002   0.058  1.00  0.00     0.120 A 
HETATM    6  C9  UNL     1       0.001   1.693  -0.150  1.00  0.00     0.105 C 
HETATM    7  N3  UNL     1      -0.986   2.289  -0.327  1.00  0.00    -0.191 NA
HETATM    8  C10 UNL     1       1.268  -0.312   0.433  1.00  0.00     0.140 A 
HETATM    9  N4  UNL     1       0.273  -1.026   0.619  1.00  0.00    -0.373 N 
ATOM     10  H4  UNL     1       0.535  -1.973   0.894  1.00  0.00     0.161 HD
HETATM   11  N7  UNL     1       2.537  -0.854   0.605  1.00  0.00    -0.175 N 
ATOM     12  H7  UNL     1       2.624  -1.831   0.884  1.00  0.00     0.186 HD
ENDROOT
BRANCH   4  13
HETATM   13  C7  UNL     1       2.306   3.181  -0.548  1.00  0.00     0.434 C 
HETATM   14  F1  UNL     1       1.660   3.358  -1.755  1.00  0.00    -0.165 F 
HETATM   15  F2  UNL     1       3.545   3.741  -0.515  1.00  0.00    -0.165 F 
HETATM   16  F3  UNL     1       1.530   3.825   0.426  1.00  0.00    -0.165 F 
ENDBRANCH   4  13
BRANCH   9  17
HETATM   17  C11 UNL     1      -1.099  -0.876   0.552  1.00  0.00     0.141 C 
BRANCH  17  18
HETATM   18  C12 UNL     1      -1.839  -2.221   0.830  1.00  0.00     0.146 C 
BRANCH  18  19
HETATM   19  N5  UNL     1      -3.253  -2.065   0.776  1.00  0.00    -0.369 N 
HETATM   20  C13 UNL     1      -3.724  -1.792  -0.517  1.00  0.00     0.083 C 
HETATM   21  C14 UNL     1      -4.385  -0.441  -0.697  1.00  0.00     0.168 C 
HETATM   22  N6  UNL     1      -5.332  -0.280   0.366  1.00  0.00    -0.366 N 
HETATM   23  C19 UNL     1      -5.206  -0.854   1.667  1.00  0.00     0.168 C 
HETATM   24  C20 UNL     1      -3.911  -1.561   1.901  1.00  0.00     0.083 C 
BRANCH  22  25
HETATM   25  C15 UNL     1      -6.499   0.528   0.097  1.00  0.00     0.072 A 
HETATM   26  C16 UNL     1      -7.689   0.120  -0.444  1.00  0.00     0.037 A 
HETATM   27  C17 UNL     1      -8.642   1.044  -0.603  1.00  0.00     0.010 A 
HETATM   28  C18 UNL     1      -8.356   2.325  -0.214  1.00  0.00     0.052 A 
HETATM   29  S1  UNL     1      -6.755   2.195   0.365  1.00  0.00    -0.084 SA
ENDBRANCH  22  25
ENDBRANCH  18  19
ENDBRANCH  17  18
ENDBRANCH   9  17
BRANCH   1  30
HETATM   30  N1  UNL     1       4.769  -0.732   0.605  1.00  0.00    -0.226 N 
ATOM     31  H1  UNL     1       4.719  -1.712   0.883  1.00  0.00     0.177 HD
BRANCH  30  32
HETATM   32  C4  UNL     1       6.069  -0.184   0.471  1.00  0.00     0.138 C 
BRANCH  32  33
HETATM   33  C3  UNL     1       6.679  -0.396  -0.900  1.00  0.00     0.020 C 
BRANCH  33  34
HETATM   34  C2  UNL     1       8.061   0.259  -0.851  1.00  0.00    -0.003 C 
HETATM   35  C1  UNL     1       8.845  -0.445   0.250  1.00  0.00     0.005 C 
ENDBRANCH  33  34
ENDBRANCH  32  33
ENDBRANCH  30  32
ENDBRANCH   1  30
TORSDOF 9
