REMARK  9 active torsions:
REMARK  status: ('A' for Active; 'I' for Inactive)
REMARK    1  A    between atoms: C2_2  and  N1_3 
REMARK    2  A    between atoms: C3_4  and  C4_5 
REMARK    3  A    between atoms: N3_15  and  C11_16 
REMARK    4  A    between atoms: C11_16  and  C12_17 
REMARK    5  A    between atoms: C12_17  and  O1_18 
REMARK    6  A    between atoms: C12_17  and  N4_20 
REMARK    7  A    between atoms: C15_25  and  C16_26 
REMARK    8  A    between atoms: C16_26  and  C17_27 
REMARK    9  A    between atoms: C22_32  and  C23_33 
ROOT
HETATM    1  N1  UNL     1       1.327  -1.717  -0.645  1.00  0.00    -0.308 N 
HETATM    2  C3  UNL     1       0.385  -0.854  -0.270  1.00  0.00     0.119 A 
HETATM    3  N5  UNL     1       0.974   0.026   0.552  1.00  0.00    -0.345 N 
ATOM      4  H5  UNL     1       0.486   0.804   0.995  1.00  0.00     0.167 HD
HETATM    5  C15 UNL     1       2.286  -0.236   0.726  1.00  0.00     0.043 A 
HETATM    6  C22 UNL     1       2.507  -1.356  -0.037  1.00  0.00     0.146 A 
ENDROOT
BRANCH   2   7
HETATM    7  C4  UNL     1      -1.095  -0.704  -0.596  1.00  0.00     0.118 C 
HETATM    8  C5  UNL     1      -1.761  -1.776   0.151  1.00  0.00     0.271 C 
HETATM    9  N2  UNL     1      -2.959  -2.341  -0.403  1.00  0.00    -0.072 N 
HETATM   10  C6  UNL     1      -2.829  -2.696  -1.790  1.00  0.00     0.233 C 
ATOM     11  H22 UNL     1      -3.272  -3.140   0.148  1.00  0.00     0.277 HD
ATOM     12  H21 UNL     1      -3.754  -1.717  -0.261  1.00  0.00     0.277 HD
HETATM   13  C7  UNL     1      -2.498  -1.469  -2.578  1.00  0.00     0.035 C 
HETATM   14  C8  UNL     1      -1.345  -0.681  -2.085  1.00  0.00     0.026 C 
HETATM   15  C9  UNL     1      -1.732   0.794  -2.430  1.00  0.00     0.027 C 
HETATM   16  C10 UNL     1      -0.937   1.468  -1.338  1.00  0.00     0.124 C 
HETATM   17  N3  UNL     1      -1.462   0.614  -0.240  1.00  0.00    -0.371 N 
BRANCH  17  18
HETATM   18  C11 UNL     1      -2.619   1.136   0.203  1.00  0.00     0.122 C 
BRANCH  18  19
HETATM   19  C12 UNL     1      -3.161   0.849   1.585  1.00  0.00     0.395 C 
BRANCH  19  20
HETATM   20  O1  UNL     1      -2.261   1.231   2.587  1.00  0.00    -0.364 OA
ATOM     21  H1  UNL     1      -2.602   1.051   3.455  1.00  0.00     0.212 HD
ENDBRANCH  19  20
BRANCH  19  22
HETATM   22  N4  UNL     1      -4.343   1.726   1.853  1.00  0.00     0.113 N 
HETATM   23  C13 UNL     1      -5.412   1.401   0.939  1.00  0.00     0.313 C 
HETATM   24  C14 UNL     1      -4.745   1.394   3.203  1.00  0.00     0.313 C 
ENDBRANCH  19  22
ENDBRANCH  18  19
ENDBRANCH  17  18
ENDBRANCH   2   7
BRANCH   1  25
HETATM   25  C2  UNL     1       1.150  -2.831  -1.483  1.00  0.00     0.067 C 
HETATM   26  C1  UNL     1       0.995  -4.207  -0.837  1.00  0.00     0.055 C 
ENDBRANCH   1  25
BRANCH   6  27
HETATM   27  C23 UNL     1       3.753  -2.097   0.003  1.00  0.00     0.435 C 
HETATM   28  F1  UNL     1       3.891  -2.734   1.294  1.00  0.00    -0.165 F 
HETATM   29  F2  UNL     1       3.902  -2.991  -1.010  1.00  0.00    -0.165 F 
HETATM   30  F3  UNL     1       4.926  -1.386  -0.025  1.00  0.00    -0.165 F 
ENDBRANCH   6  27
BRANCH   5  31
HETATM   31  C16 UNL     1       3.091   0.719   1.466  1.00  0.00     0.064 C 
BRANCH  31  32
HETATM   32  C17 UNL     1       3.426   1.996   0.746  1.00  0.00    -0.009 C 
HETATM   33  C18 UNL     1       4.308   2.825   1.691  1.00  0.00     0.005 C 
HETATM   34  C19 UNL     1       5.673   2.527   1.109  1.00  0.00     0.000 C 
HETATM   35  C20 UNL     1       5.454   2.642  -0.375  1.00  0.00     0.000 C 
HETATM   36  C21 UNL     1       4.068   2.012  -0.555  1.00  0.00     0.005 C 
ENDBRANCH  31  32
ENDBRANCH   5  31
TORSDOF 9
