REMARK  8 active torsions:
REMARK  status: ('A' for Active; 'I' for Inactive)
REMARK    1  A    between atoms: C2_2  and  N1_3 
REMARK    2  A    between atoms: C2_2  and  C18_29 
REMARK    3  A    between atoms: N1_3  and  C3_5 
REMARK    4  A    between atoms: N2_7  and  C5_8 
REMARK    5  A    between atoms: C7_10  and  O1_11 
REMARK    6  A    between atoms: O1_11  and  C8_12 
REMARK    7  A    between atoms: C18_29  and  O2_30 
REMARK    8  A    between atoms: C18_29  and  C19_32 
ROOT
HETATM    1  C5  UNL     1       0.654  -0.886   0.696  1.00  0.00     0.228 C 
HETATM    2  C6  UNL     1       1.357  -0.942  -0.627  1.00  0.00     0.068 C 
HETATM    3  C7  UNL     1       2.314   0.112  -0.034  1.00  0.00     0.135 C 
HETATM    4  C16 UNL     1       1.082   0.559   0.778  1.00  0.00     0.068 C 
ENDROOT
BRANCH   3   5
HETATM    5  O1  UNL     1       3.279  -0.548   0.715  1.00  0.00    -0.327 OA
BRANCH   5   6
HETATM    6  C8  UNL     1       4.631  -0.432   0.684  1.00  0.00     0.200 A 
HETATM    7  N3  UNL     1       5.221   0.421  -0.168  1.00  0.00    -0.335 N 
HETATM    8  C9  UNL     1       6.577   0.531  -0.192  1.00  0.00     0.034 A 
ATOM      9  H3  UNL     1       4.652   0.987  -0.798  1.00  0.00     0.168 HD
HETATM   10  C10 UNL     1       7.393  -0.205   0.630  1.00  0.00     0.040 A 
HETATM   11  C15 UNL     1       7.233   1.489  -1.154  1.00  0.00     0.065 C 
HETATM   12  N4  UNL     1       6.782  -1.071   1.494  1.00  0.00    -0.331 N 
HETATM   13  C12 UNL     1       8.876  -0.128   0.650  1.00  0.00     0.138 C 
HETATM   14  C11 UNL     1       5.436  -1.177   1.515  1.00  0.00     0.240 A 
ATOM     15  H4  UNL     1       7.346  -1.640   2.126  1.00  0.00     0.168 HD
HETATM   16  F1  UNL     1       4.922  -2.067   2.411  1.00  0.00    -0.181 F 
HETATM   17  C13 UNL     1       9.431   0.520  -0.570  1.00  0.00     0.249 C 
HETATM   18  F2  UNL     1      10.429  -0.326  -1.068  1.00  0.00    -0.206 F 
HETATM   19  F3  UNL     1      10.061   1.726  -0.323  1.00  0.00    -0.206 F 
HETATM   20  C14 UNL     1       8.440   0.724  -1.687  1.00  0.00     0.085 C 
ENDBRANCH   5   6
ENDBRANCH   3   5
BRANCH   1  21
HETATM   21  N2  UNL     1      -0.702  -1.220   0.748  1.00  0.00     0.097 N 
HETATM   22  C4  UNL     1      -1.639  -0.362  -0.026  1.00  0.00     0.299 C 
HETATM   23  C3  UNL     1      -2.678  -0.918   0.900  1.00  0.00     0.133 C 
HETATM   24  C17 UNL     1      -1.484  -0.818   1.885  1.00  0.00     0.299 C 
BRANCH  23  25
HETATM   25  N1  UNL     1      -3.817  -0.205   1.268  1.00  0.00    -0.407 N 
ATOM     26  H1  UNL     1      -3.992   0.087   2.230  1.00  0.00     0.154 HD
BRANCH  25  27
HETATM   27  C2  UNL     1      -4.716   0.086   0.209  1.00  0.00     0.102 C 
HETATM   28  C1  UNL     1      -4.167   1.012  -0.841  1.00  0.00     0.034 C 
BRANCH  27  29
HETATM   29  C18 UNL     1      -6.077   0.559   0.741  1.00  0.00     0.144 C 
BRANCH  29  30
HETATM   30  O2  UNL     1      -6.562  -0.478   1.547  1.00  0.00    -0.393 OA
ATOM     31  H2  UNL     1      -7.404  -0.185   1.876  1.00  0.00     0.210 HD
ENDBRANCH  29  30
BRANCH  29  32
HETATM   32  C19 UNL     1      -7.028   0.607  -0.449  1.00  0.00     0.016 C 
HETATM   33  C20 UNL     1      -7.202  -0.729  -1.138  1.00  0.00     0.007 C 
HETATM   34  C21 UNL     1      -8.708  -0.543  -1.127  1.00  0.00     0.001 C 
HETATM   35  C22 UNL     1      -8.494   0.467  -0.021  1.00  0.00     0.007 C 
ENDBRANCH  29  32
ENDBRANCH  27  29
ENDBRANCH  25  27
ENDBRANCH  23  25
ENDBRANCH   1  21
TORSDOF 8
