REMARK  9 active torsions:
REMARK  status: ('A' for Active; 'I' for Inactive)
REMARK    1  A    between atoms: C5_8  and  N2_9 
REMARK    2  A    between atoms: N2_9  and  C6_11 
REMARK    3  A    between atoms: C6_11  and  C7_12 
REMARK    4  A    between atoms: C7_12  and  C8_13 
REMARK    5  A    between atoms: N3_16  and  C11_17 
REMARK    6  A    between atoms: C11_17  and  C12_18 
REMARK    7  A    between atoms: C12_18  and  C13_19 
REMARK    8  A    between atoms: C13_19  and  C14_20 
REMARK    9  A    between atoms: C19_25  and  C20_26 
ROOT
HETATM    1  C8  UNL     1       1.651   1.325   0.301  1.00  0.00     0.127 C 
HETATM    2  C9  UNL     1       0.803   2.538  -0.054  1.00  0.00     0.062 C 
HETATM    3  C10 UNL     1      -0.379   2.155  -0.874  1.00  0.00     0.277 C 
HETATM    4  N3  UNL     1      -1.244   1.143  -0.217  1.00  0.00     0.111 N 
HETATM    5  C21 UNL     1      -0.436   0.665   0.906  1.00  0.00     0.440 C 
HETATM    6  O2  UNL     1       0.773   0.212   0.476  1.00  0.00    -0.357 OA
ENDROOT
BRANCH   1   7
HETATM    7  C7  UNL     1       2.467   1.002  -0.931  1.00  0.00     0.052 C 
BRANCH   7   8
HETATM    8  C6  UNL     1       3.382  -0.191  -0.679  1.00  0.00     0.140 C 
BRANCH   8   9
HETATM    9  N2  UNL     1       4.288   0.215   0.385  1.00  0.00    -0.225 N 
ATOM     10  H2  UNL     1       3.978   0.884   1.090  1.00  0.00     0.177 HD
BRANCH   9  11
HETATM   11  C5  UNL     1       5.467  -0.263   0.437  1.00  0.00     0.696 A 
HETATM   12  N1  UNL     1       5.957  -1.164  -0.464  1.00  0.00    -0.172 N 
HETATM   13  C4  UNL     1       7.228  -1.441  -0.130  1.00  0.00     0.161 A 
ATOM     14  H1  UNL     1       5.446  -1.558  -1.254  1.00  0.00     0.186 HD
HETATM   15  C3  UNL     1       8.176  -2.271  -0.690  1.00  0.00     0.058 A 
HETATM   16  N5  UNL     1       7.556  -0.734   0.967  1.00  0.00    -0.162 N 
HETATM   17  C2  UNL     1       9.441  -2.378  -0.140  1.00  0.00     0.080 A 
HETATM   18  C1  UNL     1       9.692  -1.620   0.981  1.00  0.00     0.261 A 
HETATM   19  O1  UNL     1      10.848  -1.694   1.513  1.00  0.00    -0.267 OA
HETATM   20  N6  UNL     1       8.765  -0.818   1.517  1.00  0.00    -0.243 N 
ATOM     21  H6  UNL     1       8.985  -0.270   2.349  1.00  0.00     0.192 HD
HETATM   22  N4  UNL     1       6.491  -0.041   1.287  1.00  0.00    -0.109 N 
ATOM     23  H4  UNL     1       6.442   0.592   2.085  1.00  0.00     0.208 HD
ENDBRANCH   9  11
ENDBRANCH   8   9
ENDBRANCH   7   8
ENDBRANCH   1   7
BRANCH   4  24
HETATM   24  C11 UNL     1      -1.476   0.150  -1.183  1.00  0.00     0.275 C 
BRANCH  24  25
HETATM   25  C12 UNL     1      -2.542  -0.846  -1.076  1.00  0.00     0.031 C 
BRANCH  25  26
HETATM   26  C13 UNL     1      -3.950  -0.384  -1.122  1.00  0.00     0.007 C 
BRANCH  26  27
HETATM   27  C14 UNL     1      -4.564   0.441  -0.061  1.00  0.00    -0.002 C 
HETATM   28  C15 UNL     1      -6.000   0.745  -0.583  1.00  0.00     0.005 C 
HETATM   29  C16 UNL     1      -6.760  -0.537  -0.757  1.00  0.00     0.000 C 
HETATM   30  C17 UNL     1      -6.631  -1.472   0.395  1.00  0.00     0.001 C 
HETATM   31  C18 UNL     1      -6.088  -0.775   1.574  1.00  0.00     0.014 C 
HETATM   32  C19 UNL     1      -4.707  -0.184   1.299  1.00  0.00     0.097 C 
BRANCH  32  33
HETATM   33  C20 UNL     1      -4.565   0.834   2.444  1.00  0.00     0.391 C 
HETATM   34  F1  UNL     1      -4.737   0.043   3.602  1.00  0.00    -0.171 F 
HETATM   35  F2  UNL     1      -3.374   1.430   2.567  1.00  0.00    -0.171 F 
HETATM   36  F3  UNL     1      -5.625   1.725   2.365  1.00  0.00    -0.171 F 
ENDBRANCH  32  33
ENDBRANCH  26  27
ENDBRANCH  25  26
ENDBRANCH  24  25
ENDBRANCH   4  24
TORSDOF 9
