REMARK  6 active torsions:
REMARK  status: ('A' for Active; 'I' for Inactive)
REMARK    1  A    between atoms: C2_2  and  C3_3 
REMARK    2  A    between atoms: C3_3  and  C4_4 
REMARK    3  A    between atoms: C6_6  and  O1_7 
REMARK    4  A    between atoms: C7_9  and  O2_10 
REMARK    5  A    between atoms: C8_12  and  O3_13 
REMARK    6  A    between atoms: C12_19  and  O5_20 
ROOT
HETATM    1  C4  UNL     1       0.804  -0.020  -1.340  1.00  0.00     0.090 C 
HETATM    2  C5  UNL     1       0.161   1.215  -0.993  1.00  0.00    -0.140 C 
HETATM    3  C6  UNL     1      -0.732   2.174  -0.465  1.00  0.00     0.216 C 
HETATM    4  C7  UNL     1      -1.969   1.448   0.151  1.00  0.00     0.191 C 
HETATM    5  C8  UNL     1      -1.662   0.130   0.756  1.00  0.00     0.189 C 
HETATM    6  C9  UNL     1      -1.158  -0.991  -0.028  1.00  0.00     0.041 A 
HETATM    7  C10 UNL     1      -0.118  -1.175  -0.941  1.00  0.00    -0.007 A 
HETATM    8  C11 UNL     1      -0.087  -2.448  -1.372  1.00  0.00     0.154 A 
HETATM    9  O4  UNL     1      -1.077  -3.053  -0.753  1.00  0.00    -0.299 OA
HETATM   10  C12 UNL     1      -1.735  -2.278   0.034  1.00  0.00     0.192 A 
ENDROOT
BRANCH   1  11
HETATM   11  C3  UNL     1       2.190  -0.228  -0.734  1.00  0.00     0.021 C 
BRANCH  11  12
HETATM   12  C2  UNL     1       2.193  -0.222   0.761  1.00  0.00    -0.003 C 
HETATM   13  C1  UNL     1       3.648  -0.448   1.195  1.00  0.00     0.005 C 
ENDBRANCH  11  12
ENDBRANCH   1  11
BRANCH   3  14
HETATM   14  O1  UNL     1      -1.299   3.062  -1.419  1.00  0.00    -0.382 OA
ATOM     15  H1  UNL     1      -1.899   3.707  -1.064  1.00  0.00     0.211 HD
ENDBRANCH   3  14
BRANCH   4  16
HETATM   16  O2  UNL     1      -2.554   2.238   1.114  1.00  0.00    -0.389 OA
ATOM     17  H2  UNL     1      -3.307   1.796   1.489  1.00  0.00     0.210 HD
ENDBRANCH   4  16
BRANCH   5  18
HETATM   18  O3  UNL     1      -2.869  -0.251   1.383  1.00  0.00    -0.388 OA
ATOM     19  H3  UNL     1      -2.672  -1.096   1.771  1.00  0.00     0.210 HD
ENDBRANCH   5  18
BRANCH  10  20
HETATM   20  O5  UNL     1      -2.827  -2.602   0.828  1.00  0.00    -0.340 OA
ATOM     21  H5  UNL     1      -3.215  -3.468   0.870  1.00  0.00     0.220 HD
ENDBRANCH  10  20
TORSDOF 6
