REMARK  6 active torsions:
REMARK  status: ('A' for Active; 'I' for Inactive)
REMARK    1  A    between atoms: O1_1  and  C1_3 
REMARK    2  A    between atoms: C1_3  and  C2_4 
REMARK    3  A    between atoms: C2_4  and  N1_5 
REMARK    4  A    between atoms: C3_6  and  O2_7 
REMARK    5  A    between atoms: C6_11  and  O3_12 
REMARK    6  A    between atoms: C9_16  and  O4_17 
ROOT
HETATM    1  N1  UNL     1       1.755  -0.553  -0.421  1.00  0.00    -0.306 N 
HETATM    2  C3  UNL     1       1.242  -0.656   0.822  1.00  0.00     0.151 A 
HETATM    3  C4  UNL     1      -0.129  -0.814   0.739  1.00  0.00     0.008 A 
HETATM    4  C5  UNL     1      -0.432  -0.802  -0.611  1.00  0.00     0.008 A 
HETATM    5  C6  UNL     1       0.739  -0.641  -1.301  1.00  0.00     0.151 A 
HETATM    6  C7  UNL     1      -1.908  -0.969  -0.794  1.00  0.00     0.026 C 
HETATM    7  C8  UNL     1      -2.538   0.404  -0.779  1.00  0.00     0.041 C 
HETATM    8  C9  UNL     1      -2.066   1.171   0.422  1.00  0.00     0.119 C 
HETATM    9  C10 UNL     1      -2.008   0.367   1.677  1.00  0.00     0.041 C 
HETATM   10  C11 UNL     1      -1.397  -0.989   1.481  1.00  0.00     0.026 C 
HETATM   11  C12 UNL     1      -2.263  -1.736   0.476  1.00  0.00     0.019 C 
ENDROOT
BRANCH   1  12
HETATM   12  C2  UNL     1       3.166  -0.377  -0.708  1.00  0.00     0.159 C 
BRANCH  12  13
HETATM   13  C1  UNL     1       3.431   1.116  -0.746  1.00  0.00     0.184 C 
BRANCH  13  14
HETATM   14  O1  UNL     1       4.803   1.258  -1.026  1.00  0.00    -0.399 OA
ATOM     15  H1  UNL     1       4.969   2.193  -1.050  1.00  0.00     0.209 HD
ENDBRANCH  13  14
ENDBRANCH  12  13
ENDBRANCH   1  12
BRANCH   2  16
HETATM   16  O2  UNL     1       1.936  -0.617   2.027  1.00  0.00    -0.345 OA
ATOM     17  H2  UNL     1       1.575  -0.690   2.903  1.00  0.00     0.219 HD
ENDBRANCH   2  16
BRANCH   5  18
HETATM   18  O3  UNL     1       0.931  -0.570  -2.687  1.00  0.00    -0.345 OA
ATOM     19  H3  UNL     1       0.214  -0.632  -3.308  1.00  0.00     0.219 HD
ENDBRANCH   5  18
BRANCH   8  20
HETATM   20  O4  UNL     1      -2.935   2.257   0.656  1.00  0.00    -0.396 OA
ATOM     21  H4  UNL     1      -2.636   2.742   1.416  1.00  0.00     0.210 HD
ENDBRANCH   8  20
TORSDOF 6
