REMARK  7 active torsions:
REMARK  status: ('A' for Active; 'I' for Inactive)
REMARK    1  A    between atoms: C2_2  and  O1_4 
REMARK    2  A    between atoms: C2_2  and  C4_6 
REMARK    3  A    between atoms: C4_6  and  N1_7 
REMARK    4  A    between atoms: N1_7  and  C5_9 
REMARK    5  A    between atoms: N2_14  and  O2_15 
REMARK    6  A    between atoms: C10_17  and  N3_18 
REMARK    7  A    between atoms: C11_22  and  N4_23 
ROOT
HETATM    1  C5  UNL     1       0.088   0.438   0.639  1.00  0.00     0.034 C 
HETATM    2  C6  UNL     1       0.732  -0.729   0.033  1.00  0.00     0.091 C 
HETATM    3  C7  UNL     1       2.210  -0.663  -0.062  1.00  0.00     0.055 C 
HETATM    4  C8  UNL     1       2.658  -0.614  -1.530  1.00  0.00     0.041 C 
HETATM    5  C9  UNL     1       2.748  -1.982   0.480  1.00  0.00     0.041 C 
HETATM    6  N2  UNL     1       2.817   0.368   0.713  1.00  0.00    -0.250 N 
HETATM    7  C10 UNL     1       2.258   1.670   0.554  1.00  0.00     0.356 C 
HETATM    8  C11 UNL     1       0.842   1.628   0.968  1.00  0.00     0.077 C 
ENDROOT
BRANCH   1   9
HETATM    9  N1  UNL     1      -1.166   0.404   0.882  1.00  0.00    -0.389 N 
ATOM     10  H1  UNL     1      -1.594   1.228   1.305  1.00  0.00     0.159 HD
BRANCH   9  11
HETATM   11  C4  UNL     1      -2.011  -0.723   0.596  1.00  0.00     0.156 C 
BRANCH  11  12
HETATM   12  C2  UNL     1      -3.374  -0.250   0.146  1.00  0.00     0.066 C 
HETATM   13  C1  UNL     1      -3.331   0.543  -1.115  1.00  0.00     0.047 C 
HETATM   14  C3  UNL     1      -4.233  -1.473  -0.060  1.00  0.00     0.047 C 
BRANCH  12  15
HETATM   15  O1  UNL     1      -3.928   0.508   1.172  1.00  0.00    -0.389 OA
ATOM     16  H1  UNL     1      -3.955   0.002   1.976  1.00  0.00     0.210 HD
ENDBRANCH  12  15
ENDBRANCH  11  12
ENDBRANCH   9  11
ENDBRANCH   1   9
BRANCH   8  17
HETATM   17  N4  UNL     1       0.332   2.616   1.589  1.00  0.00    -0.398 N 
ATOM     18  H42 UNL     1      -0.647   2.587   1.875  1.00  0.00     0.156 HD
ATOM     19  H41 UNL     1       0.864   3.455   1.821  1.00  0.00     0.156 HD
ENDBRANCH   8  17
BRANCH   7  20
HETATM   20  N3  UNL     1       2.311   2.176  -0.793  1.00  0.00    -0.051 N 
ATOM     21  H33 UNL     1       3.268   2.153  -1.145  1.00  0.00     0.277 HD
ATOM     22  H32 UNL     1       1.873   1.519  -1.438  1.00  0.00     0.277 HD
ATOM     23  H31 UNL     1       1.911   3.107  -0.907  1.00  0.00     0.277 HD
ENDBRANCH   7  20
BRANCH   6  24
HETATM   24  O2  UNL     1       4.132   0.298   0.731  1.00  0.00    -0.289 OA
ATOM     25  H2  UNL     1       4.537   0.985   1.247  1.00  0.00     0.244 HD
ENDBRANCH   6  24
TORSDOF 7
