REMARK  10 active torsions:
REMARK  status: ('A' for Active; 'I' for Inactive)
REMARK    1  A    between atoms: C2_2  and  C3_3 
REMARK    2  A    between atoms: C3_3  and  C4_4 
REMARK    3  A    between atoms: C5_9  and  N3_10 
REMARK    4  A    between atoms: N3_10  and  C7_12 
REMARK    5  A    between atoms: C7_12  and  C8_13 
REMARK    6  A    between atoms: C8_13  and  C9_14 
REMARK    7  A    between atoms: C9_14  and  C10_15 
REMARK    8  A    between atoms: C10_15  and  C11_16 
REMARK    9  A    between atoms: C18_34  and  O2_35 
REMARK   10  A    between atoms: C19_37  and  C20_38 
ROOT
HETATM    1  C4  UNL     1      -0.268   3.800  -0.784  1.00  0.00     0.042 A 
HETATM    2  N1  UNL     1       0.997   3.363  -0.485  1.00  0.00    -0.302 N 
ATOM      3  H1  UNL     1       1.763   4.035  -0.523  1.00  0.00     0.186 HD
HETATM    4  N2  UNL     1       1.260   2.171  -0.165  1.00  0.00    -0.285 N 
ATOM      5  H2  UNL     1       2.231   1.936   0.042  1.00  0.00     0.188 HD
HETATM    6  C5  UNL     1       0.295   1.137  -0.075  1.00  0.00     0.130 A 
HETATM    7  C12 UNL     1      -0.945   1.499  -0.375  1.00  0.00     0.043 A 
HETATM    8  C13 UNL     1      -1.233   2.864  -0.727  1.00  0.00     0.071 A 
HETATM    9  C14 UNL     1      -2.538   3.216  -0.916  1.00  0.00     0.259 A 
HETATM   10  O1  UNL     1      -2.854   4.379  -1.221  1.00  0.00    -0.267 OA
HETATM   11  N8  UNL     1      -3.526   2.339  -0.790  1.00  0.00    -0.321 N 
ATOM     12  H8  UNL     1      -4.487   2.650  -0.930  1.00  0.00     0.169 HD
HETATM   13  C15 UNL     1      -3.291   1.047  -0.481  1.00  0.00     0.059 A 
HETATM   14  C16 UNL     1      -4.329   0.172  -0.473  1.00  0.00     0.000 A 
HETATM   15  C17 UNL     1      -5.699   0.677  -0.668  1.00  0.00     0.054 C 
HETATM   16  C18 UNL     1      -4.088  -1.160  -0.282  1.00  0.00     0.091 A 
HETATM   17  C19 UNL     1      -2.821  -1.614  -0.107  1.00  0.00     0.092 A 
HETATM   18  C24 UNL     1      -1.730  -0.728  -0.108  1.00  0.00     0.202 A 
HETATM   19  O3  UNL     1      -0.606  -1.364   0.022  1.00  0.00    -0.286 OA
HETATM   20  C25 UNL     1      -1.986   0.598  -0.276  1.00  0.00     0.058 A 
ENDROOT
BRANCH   6  21
HETATM   21  N3  UNL     1       0.895   0.134   0.643  1.00  0.00    -0.370 N 
HETATM   22  C6  UNL     1       0.793  -0.164   2.087  1.00  0.00     0.151 C 
BRANCH  21  23
HETATM   23  C7  UNL     1       2.049  -0.578   0.027  1.00  0.00     0.124 C 
BRANCH  23  24
HETATM   24  C8  UNL     1       3.304   0.021   0.527  1.00  0.00     0.020 C 
BRANCH  24  25
HETATM   25  C9  UNL     1       4.430  -0.789  -0.144  1.00  0.00     0.009 C 
BRANCH  25  26
HETATM   26  C10 UNL     1       5.767  -0.298   0.274  1.00  0.00     0.079 C 
BRANCH  26  27
HETATM   27  C11 UNL     1       6.827  -1.105  -0.383  1.00  0.00     0.112 A 
HETATM   28  N4  UNL     1       6.744  -2.121  -1.231  1.00  0.00    -0.272 N 
HETATM   29  N5  UNL     1       7.973  -2.500  -1.523  1.00  0.00    -0.227 N 
ATOM     30  H4  UNL     1       5.885  -2.535  -1.592  1.00  0.00     0.190 HD
HETATM   31  N6  UNL     1       8.833  -1.758  -0.889  1.00  0.00    -0.227 N 
ATOM     32  H5  UNL     1       8.214  -3.264  -2.154  1.00  0.00     0.210 HD
HETATM   33  N7  UNL     1       8.147  -0.886  -0.175  1.00  0.00    -0.272 N 
ATOM     34  H6  UNL     1       9.849  -1.836  -0.935  1.00  0.00     0.210 HD
ATOM     35  H7  UNL     1       8.544  -0.168   0.431  1.00  0.00     0.190 HD
ENDBRANCH  26  27
ENDBRANCH  25  26
ENDBRANCH  24  25
ENDBRANCH  23  24
ENDBRANCH  21  23
ENDBRANCH   6  21
BRANCH   1  36
HETATM   36  C3  UNL     1      -0.475   5.215  -1.044  1.00  0.00     0.059 C 
BRANCH  36  37
HETATM   37  C2  UNL     1      -0.785   6.076   0.160  1.00  0.00     0.002 C 
HETATM   38  C1  UNL     1       0.400   6.010   1.157  1.00  0.00     0.005 C 
ENDBRANCH  36  37
ENDBRANCH   1  36
BRANCH  17  39
HETATM   39  C20 UNL     1      -2.557  -3.037   0.097  1.00  0.00     0.114 C 
HETATM   40  N9  UNL     1      -2.645  -3.922  -0.776  1.00  0.00    -0.376 N 
HETATM   41  C21 UNL     1      -2.392  -5.307  -0.595  1.00  0.00     0.123 C 
ATOM     42  H9  UNL     1      -2.926  -3.623  -1.710  1.00  0.00     0.161 HD
HETATM   43  C22 UNL     1      -2.359  -5.782   0.812  1.00  0.00     0.039 C 
HETATM   44  C23 UNL     1      -2.545  -4.753   1.871  1.00  0.00     0.123 C 
HETATM   45  N10 UNL     1      -2.191  -3.421   1.430  1.00  0.00    -0.376 N 
ATOM     46  H10 UNL     1      -1.697  -2.776   2.047  1.00  0.00     0.161 HD
ENDBRANCH  17  39
BRANCH  16  47
HETATM   47  O2  UNL     1      -5.159  -2.043  -0.268  1.00  0.00    -0.359 OA
ATOM     48  H2  UNL     1      -4.992  -2.969  -0.135  1.00  0.00     0.217 HD
ENDBRANCH  16  47
TORSDOF 10
