REMARK  9 active torsions:
REMARK  status: ('A' for Active; 'I' for Inactive)
REMARK    1  A    between atoms: C2_2  and  C4_4 
REMARK    2  A    between atoms: C4_4  and  N1_5 
REMARK    3  A    between atoms: C6_7  and  C7_8 
REMARK    4  A    between atoms: N3_13  and  C10_15 
REMARK    5  A    between atoms: C12_17  and  C13_18 
REMARK       I    between atoms: C13_18  and  N4_20 
REMARK    6  A    between atoms: N4_20  and  C14_22 
REMARK    7  A    between atoms: C14_22  and  C15_23 
REMARK    8  A    between atoms: C15_23  and  C16_24 
REMARK    9  A    between atoms: C18_30  and  C19_31 
ROOT
HETATM    1  C7  UNL     1      -3.235  -0.288  -0.467  1.00  0.00     0.010 A 
HETATM    2  C8  UNL     1      -2.105  -1.031  -0.232  1.00  0.00     0.103 A 
HETATM    3  N2  UNL     1      -0.910  -0.434   0.024  1.00  0.00    -0.351 N 
ATOM      4  H2  UNL     1      -0.087  -1.011   0.195  1.00  0.00     0.166 HD
HETATM    5  C9  UNL     1      -0.797   0.907   0.055  1.00  0.00     0.120 A 
HETATM    6  N3  UNL     1       0.334   1.459   0.297  1.00  0.00    -0.327 N 
ATOM      7  H3  UNL     1       0.403   2.476   0.317  1.00  0.00     0.169 HD
HETATM    8  C18 UNL     1      -1.894   1.688  -0.173  1.00  0.00     0.054 A 
HETATM    9  C24 UNL     1      -3.130   1.085  -0.438  1.00  0.00     0.034 A 
ENDROOT
BRANCH   8  10
HETATM   10  C19 UNL     1      -1.754   3.138  -0.137  1.00  0.00     0.134 A 
HETATM   11  N7  UNL     1      -2.892   3.861  -0.375  1.00  0.00    -0.283 N 
HETATM   12  N8  UNL     1      -2.941   5.173  -0.379  1.00  0.00    -0.282 N 
ATOM     13  H7  UNL     1      -3.754   3.349  -0.561  1.00  0.00     0.188 HD
HETATM   14  C20 UNL     1      -1.775   5.841  -0.129  1.00  0.00     0.152 A 
ATOM     15  H8  UNL     1      -3.812   5.672  -0.561  1.00  0.00     0.188 HD
HETATM   16  N9  UNL     1      -1.752   7.186  -0.118  1.00  0.00    -0.336 N 
HETATM   17  C23 UNL     1      -0.618   5.132   0.113  1.00  0.00     0.123 A 
HETATM   18  C21 UNL     1      -0.616   7.858   0.126  1.00  0.00     0.183 A 
ATOM     19  H9  UNL     1      -2.612   7.704  -0.298  1.00  0.00     0.168 HD
HETATM   20  N10 UNL     1       0.509   7.171   0.361  1.00  0.00    -0.337 N 
HETATM   21  C22 UNL     1       0.555   5.831   0.365  1.00  0.00     0.131 A 
ATOM     22  H10 UNL     1       1.368   7.689   0.545  1.00  0.00     0.168 HD
HETATM   23  N11 UNL     1       1.654   5.186   0.595  1.00  0.00    -0.383 N 
ATOM     24 2H11 UNL     1       2.516   5.699   0.780  1.00  0.00     0.157 HD
ATOM     25 1H11 UNL     1       1.689   4.167   0.598  1.00  0.00     0.157 HD
HETATM   26  N12 UNL     1      -0.598   3.763   0.111  1.00  0.00    -0.335 N 
ATOM     27  H12 UNL     1       0.261   3.243   0.291  1.00  0.00     0.168 HD
ENDBRANCH   8  10
BRANCH   6  28
HETATM   28  C10 UNL     1       1.488   0.677   0.537  1.00  0.00     0.123 A 
HETATM   29  C11 UNL     1       2.325   0.106  -0.394  1.00  0.00     0.086 A 
HETATM   30  C12 UNL     1       3.340  -0.580   0.270  1.00  0.00     0.119 A 
HETATM   31  N5  UNL     1       3.082  -0.401   1.579  1.00  0.00    -0.294 N 
HETATM   32  N6  UNL     1       1.993   0.339   1.733  1.00  0.00    -0.285 N 
ATOM     33  H5  UNL     1       3.643  -0.780   2.342  1.00  0.00     0.187 HD
ATOM     34  H6  UNL     1       1.596   0.612   2.632  1.00  0.00     0.188 HD
BRANCH  30  35
HETATM   35  C13 UNL     1       4.436  -1.326  -0.287  1.00  0.00     0.269 C 
HETATM   36  O1  UNL     1       4.551  -1.409  -1.535  1.00  0.00    -0.266 OA
HETATM   37  N4  UNL     1       5.420  -1.990   0.507  1.00  0.00    -0.356 N 
ATOM     38  H4  UNL     1       5.333  -1.928   1.521  1.00  0.00     0.162 HD
BRANCH  37  39
HETATM   39  C14 UNL     1       6.508  -2.729  -0.017  1.00  0.00     0.123 C 
BRANCH  39  40
HETATM   40  C15 UNL     1       7.489  -1.987  -0.854  1.00  0.00     0.019 C 
BRANCH  40  41
HETATM   41  C16 UNL     1       8.231  -0.918  -0.134  1.00  0.00    -0.003 C 
HETATM   42  C17 UNL     1       7.401   0.198   0.424  1.00  0.00     0.005 C 
ENDBRANCH  40  41
ENDBRANCH  39  40
ENDBRANCH  37  39
ENDBRANCH  30  35
ENDBRANCH   6  28
BRANCH   1  43
HETATM   43  C6  UNL     1      -4.485  -0.979  -0.736  1.00  0.00     0.078 A 
HETATM   44  C5  UNL     1      -4.675  -2.342  -0.784  1.00  0.00     0.143 A 
HETATM   45  N1  UNL     1      -5.968  -2.572  -1.059  1.00  0.00    -0.283 N 
HETATM   46  N14 UNL     1      -6.558  -1.412  -1.177  1.00  0.00    -0.240 N 
HETATM   47  N13 UNL     1      -5.702  -0.428  -0.990  1.00  0.00    -0.284 N 
ATOM     48  H14 UNL     1      -7.548  -1.285  -1.386  1.00  0.00     0.208 HD
ATOM     49  H13 UNL     1      -5.914   0.569  -1.029  1.00  0.00     0.188 HD
BRANCH  45  50
HETATM   50  C4  UNL     1      -6.519  -3.910  -1.183  1.00  0.00     0.182 C 
BRANCH  50  51
HETATM   51  C2  UNL     1      -7.020  -4.426   0.100  1.00  0.00    -0.073 C 
HETATM   52  C1  UNL     1      -8.290  -4.761   0.237  1.00  0.00     0.015 C 
HETATM   53  C3  UNL     1      -6.094  -4.579   1.264  1.00  0.00     0.044 C 
ENDBRANCH  50  51
ENDBRANCH  45  50
ENDBRANCH   1  43
TORSDOF 9
