REMARK  13 active torsions:
REMARK  status: ('A' for Active; 'I' for Inactive)
REMARK    1  A    between atoms: C4_6  and  C5_7 
REMARK    2  A    between atoms: C5_7  and  N2_8 
REMARK    3  A    between atoms: N2_8  and  C6_11 
REMARK    4  A    between atoms: C6_11  and  C7_12 
REMARK    5  A    between atoms: C7_12  and  C8_13 
REMARK    6  A    between atoms: C8_13  and  N3_14 
REMARK    7  A    between atoms: N3_14  and  C9_16 
REMARK    8  A    between atoms: C10_19  and  C11_20 
REMARK    9  A    between atoms: C13_22  and  O1_23 
REMARK   10  A    between atoms: C15_25  and  C16_26 
REMARK   11  A    between atoms: C18_30  and  C19_31 
REMARK   12  A    between atoms: C19_31  and  O3_33 
REMARK   13  A    between atoms: C23_41  and  N7_42 
ROOT
HETATM    1  C9  UNL     1      -0.987  -1.810  -0.183  1.00  0.00     0.146 A 
HETATM    2  N4  UNL     1       0.230  -1.203  -0.173  1.00  0.00    -0.337 N 
ATOM      3  H4  UNL     1       0.301  -0.235   0.142  1.00  0.00     0.167 HD
HETATM    4  C10 UNL     1       1.329  -1.840  -0.563  1.00  0.00     0.073 A 
HETATM    5  C21 UNL     1       1.234  -3.140  -0.986  1.00  0.00     0.035 A 
HETATM    6  C22 UNL     1       2.384  -3.930  -1.436  1.00  0.00     0.070 C 
HETATM    7  N6  UNL     1       0.010  -3.767  -1.002  1.00  0.00    -0.342 N 
ATOM      8  H6  UNL     1      -0.056  -4.735  -1.318  1.00  0.00     0.167 HD
HETATM    9  C23 UNL     1      -1.094  -3.125  -0.609  1.00  0.00     0.144 A 
ENDROOT
BRANCH   1  10
HETATM   10  N3  UNL     1      -2.062  -1.225   0.187  1.00  0.00    -0.373 N 
ATOM     11  H3  UNL     1      -2.938  -1.747   0.150  1.00  0.00     0.161 HD
BRANCH  10  12
HETATM   12  C8  UNL     1      -2.092   0.128   0.650  1.00  0.00     0.123 C 
BRANCH  12  13
HETATM   13  C7  UNL     1      -3.568   0.531   0.839  1.00  0.00     0.047 C 
BRANCH  13  14
HETATM   14  C6  UNL     1      -4.268   0.408  -0.484  1.00  0.00     0.234 C 
BRANCH  14  15
HETATM   15  N2  UNL     1      -5.649   0.759  -0.360  1.00  0.00    -0.070 N 
ATOM     16  H22 UNL     1      -6.078   0.900  -1.275  1.00  0.00     0.277 HD
ATOM     17  H21 UNL     1      -5.758   1.701   0.016  1.00  0.00     0.277 HD
BRANCH  15  18
HETATM   18  C5  UNL     1      -6.393  -0.213   0.427  1.00  0.00     0.291 C 
BRANCH  18  19
HETATM   19  C4  UNL     1      -7.810   0.239   0.463  1.00  0.00     0.066 A 
HETATM   20  C3  UNL     1      -8.218   1.519   1.029  1.00  0.00     0.118 A 
HETATM   21  N1  UNL     1      -9.463   1.903   1.056  1.00  0.00    -0.350 N 
HETATM   22  C2  UNL     1     -10.489   1.081   0.530  1.00  0.00     0.110 A 
ATOM     23  H1  UNL     1      -9.702   2.808   1.462  1.00  0.00     0.166 HD
HETATM   24  C1  UNL     1     -11.724   1.507   0.580  1.00  0.00     0.065 C 
HETATM   25  N9  UNL     1     -10.098  -0.164  -0.021  1.00  0.00    -0.286 N 
HETATM   26  N8  UNL     1      -8.753  -0.514  -0.019  1.00  0.00    -0.300 N 
ATOM     27  H9  UNL     1     -10.795  -0.796  -0.415  1.00  0.00     0.188 HD
ATOM     28  H8  UNL     1      -8.491  -1.415  -0.419  1.00  0.00     0.186 HD
ENDBRANCH  18  19
ENDBRANCH  15  18
ENDBRANCH  14  15
ENDBRANCH  13  14
ENDBRANCH  12  13
ENDBRANCH  10  12
ENDBRANCH   1  10
BRANCH   9  29
HETATM   29  N7  UNL     1      -2.270  -3.698  -0.614  1.00  0.00    -0.382 N 
ATOM     30  H72 UNL     1      -3.113  -3.208  -0.314  1.00  0.00     0.157 HD
ATOM     31  H71 UNL     1      -2.349  -4.665  -0.927  1.00  0.00     0.157 HD
ENDBRANCH   9  29
BRANCH   4  32
HETATM   32  C11 UNL     1       2.617  -1.143  -0.533  1.00  0.00     0.037 A 
HETATM   33  C12 UNL     1       2.852   0.156  -0.133  1.00  0.00     0.059 A 
HETATM   34  C13 UNL     1       4.106   0.605  -0.182  1.00  0.00     0.091 A 
HETATM   35  C15 UNL     1       5.075  -0.265  -0.631  1.00  0.00     0.090 A 
HETATM   36  S1  UNL     1       4.181  -1.675  -0.963  1.00  0.00    -0.081 SA
BRANCH  34  37
HETATM   37  O1  UNL     1       4.518   1.914   0.193  1.00  0.00    -0.354 OA
HETATM   38  C14 UNL     1       3.546   2.811   0.651  1.00  0.00     0.210 C 
ENDBRANCH  34  37
BRANCH  35  39
HETATM   39  C16 UNL     1       6.511  -0.052  -0.790  1.00  0.00     0.168 A 
HETATM   40  N5  UNL     1       7.401  -0.934  -1.235  1.00  0.00    -0.343 N 
HETATM   41  C17 UNL     1       8.625  -0.364  -1.237  1.00  0.00     0.134 A 
ATOM     42  H5  UNL     1       7.192  -1.888  -1.528  1.00  0.00     0.167 HD
HETATM   43  C18 UNL     1       8.428   0.920  -0.765  1.00  0.00     0.168 A 
HETATM   44  O4  UNL     1       7.155   1.051  -0.515  1.00  0.00    -0.285 OA
BRANCH  43  45
HETATM   45  C19 UNL     1       9.436   1.944  -0.577  1.00  0.00     0.318 C 
HETATM   46  O2  UNL     1       9.088   3.067  -0.135  1.00  0.00    -0.257 OA
BRANCH  45  47
HETATM   47  O3  UNL     1      10.771   1.762  -0.857  1.00  0.00    -0.321 OA
HETATM   48  C20 UNL     1      11.761   2.765  -0.674  1.00  0.00     0.213 C 
ENDBRANCH  45  47
ENDBRANCH  43  45
ENDBRANCH  35  39
ENDBRANCH   4  32
TORSDOF 13
