REMARK  14 active torsions:
REMARK  status: ('A' for Active; 'I' for Inactive)
REMARK    1  A    between atoms: O1_2  and  C2_3 
REMARK    2  A    between atoms: C2_3  and  C3_5 
REMARK    3  A    between atoms: C3_5  and  N1_6 
REMARK    4  A    between atoms: N1_6  and  C4_8 
REMARK    5  A    between atoms: C4_8  and  C5_9 
REMARK    6  A    between atoms: C6_10  and  C7_11 
REMARK    7  A    between atoms: C7_11  and  N2_12 
REMARK       I    between atoms: N2_12  and  C8_14 
REMARK    8  A    between atoms: C8_14  and  C9_16 
REMARK    9  A    between atoms: C10_17  and  C11_18 
REMARK   10  A    between atoms: C11_18  and  O4_19 
REMARK   11  A    between atoms: O4_19  and  C12_20 
REMARK   12  A    between atoms: C15_23  and  O5_24 
REMARK   13  A    between atoms: C19_32  and  O6_33 
REMARK   14  A    between atoms: N4_39  and  N5_41 
ROOT
HETATM    1  C9  UNL     1      -0.134  -0.005  -1.110  1.00  0.00     0.072 C 
HETATM    2  C10 UNL     1      -0.993   0.356  -0.187  1.00  0.00     0.005 C 
ENDROOT
BRANCH   2   3
HETATM    3  C11 UNL     1      -2.410   0.677  -0.600  1.00  0.00     0.196 C 
BRANCH   3   4
HETATM    4  O4  UNL     1      -3.247  -0.182   0.057  1.00  0.00    -0.376 OA
BRANCH   4   5
HETATM    5  C12 UNL     1      -4.591  -0.065  -0.183  1.00  0.00     0.177 C 
HETATM    6  C13 UNL     1      -5.396   0.189   1.037  1.00  0.00     0.027 A 
HETATM    7  C14 UNL     1      -5.776  -0.968   1.688  1.00  0.00     0.047 A 
HETATM    8  C19 UNL     1      -5.755   1.428   1.543  1.00  0.00     0.104 A 
HETATM    9  C15 UNL     1      -6.505  -0.887   2.831  1.00  0.00     0.102 A 
HETATM   10  S2  UNL     1      -5.175  -2.373   0.719  1.00  0.00    -0.114 SA
HETATM   11  C16 UNL     1      -6.863   0.361   3.335  1.00  0.00     0.070 A 
HETATM   12  S1  UNL     1      -7.753   0.925   4.693  1.00  0.00    -0.080 SA
HETATM   13  C18 UNL     1      -6.512   1.536   2.727  1.00  0.00     0.086 A 
HETATM   14  C17 UNL     1      -7.620   2.600   4.398  1.00  0.00     0.139 A 
HETATM   15  N3  UNL     1      -6.910   2.639   3.290  1.00  0.00    -0.356 N 
ATOM     16  H3  UNL     1      -6.671   3.538   2.871  1.00  0.00     0.166 HD
HETATM   17  C20 UNL     1      -5.063  -1.341  -0.824  1.00  0.00     0.036 C 
HETATM   18  C21 UNL     1      -3.979  -1.985  -1.639  1.00  0.00     0.030 C 
HETATM   19  C22 UNL     1      -6.370  -1.260  -1.521  1.00  0.00     0.030 C 
BRANCH   9  20
HETATM   20  O5  UNL     1      -6.899  -2.000   3.503  1.00  0.00    -0.358 OA
ATOM     21  H5  UNL     1      -7.409  -1.943   4.303  1.00  0.00     0.217 HD
ENDBRANCH   9  20
BRANCH   8  22
HETATM   22  O6  UNL     1      -5.380   2.619   0.896  1.00  0.00    -0.358 OA
ATOM     23  H6  UNL     1      -5.626   3.468   1.243  1.00  0.00     0.217 HD
ENDBRANCH   8  22
ENDBRANCH   4   5
ENDBRANCH   3   4
ENDBRANCH   2   3
BRANCH   1  24
HETATM   24  C8  UNL     1       1.231  -0.322  -0.762  1.00  0.00     0.241 C 
HETATM   25  N2  UNL     1       1.690  -0.258   0.562  1.00  0.00    -0.354 N 
ATOM     26  H2  UNL     1       1.051   0.020   1.307  1.00  0.00     0.163 HD
HETATM   27  O3  UNL     1       1.999  -0.661  -1.695  1.00  0.00    -0.269 OA
BRANCH  25  28
HETATM   28  C7  UNL     1       3.052  -0.581   0.876  1.00  0.00     0.150 C 
BRANCH  28  29
HETATM   29  C6  UNL     1       3.950   0.371   0.140  1.00  0.00    -0.004 C 
HETATM   30  C5  UNL     1       4.822  -0.106  -0.699  1.00  0.00     0.047 C 
BRANCH  30  31
HETATM   31  C4  UNL     1       5.727   0.704  -1.453  1.00  0.00     0.115 C 
HETATM   32  N4  UNL     1       5.831   1.933  -1.434  1.00  0.00    -0.292 N 
ATOM     33  H4  UNL     1       6.561   2.249  -2.073  1.00  0.00     0.188 HD
BRANCH  31  34
HETATM   34  N1  UNL     1       6.625  -0.013  -2.342  1.00  0.00    -0.366 N 
ATOM     35  H1  UNL     1       6.249  -0.592  -3.093  1.00  0.00     0.161 HD
BRANCH  34  36
HETATM   36  C3  UNL     1       8.053   0.099  -2.157  1.00  0.00     0.232 C 
BRANCH  36  37
HETATM   37  C2  UNL     1       8.513  -0.554  -0.909  1.00  0.00     0.276 C 
HETATM   38  O2  UNL     1       7.682  -1.121  -0.153  1.00  0.00    -0.263 OA
BRANCH  37  39
HETATM   39  O1  UNL     1       9.838  -0.564  -0.538  1.00  0.00    -0.325 OA
HETATM   40  C1  UNL     1      10.307  -1.181   0.648  1.00  0.00     0.213 C 
ENDBRANCH  37  39
ENDBRANCH  36  37
ENDBRANCH  34  36
ENDBRANCH  31  34
BRANCH  32  41
HETATM   41  N5  UNL     1       5.247   2.982  -0.802  1.00  0.00    -0.344 N 
ATOM     42  H52 UNL     1       4.522   2.641  -0.170  1.00  0.00     0.176 HD
ATOM     43  H51 UNL     1       5.333   3.998  -0.786  1.00  0.00     0.176 HD
ENDBRANCH  32  41
ENDBRANCH  30  31
ENDBRANCH  28  29
ENDBRANCH  25  28
ENDBRANCH   1  24
TORSDOF 14
