REMARK  13 active torsions:
REMARK  status: ('A' for Active; 'I' for Inactive)
REMARK    1  A    between atoms: C2_2  and  N1_3 
REMARK    2  A    between atoms: C2_2  and  C16_36 
REMARK       I    between atoms: N1_3  and  C3_5 
REMARK    3  A    between atoms: C3_5  and  C4_7 
REMARK    4  A    between atoms: C8_15  and  S2_16 
REMARK    5  A    between atoms: S2_16  and  C9_17 
REMARK    6  A    between atoms: C9_17  and  C10_18 
REMARK       I    between atoms: C10_18  and  N3_20 
REMARK    7  A    between atoms: N3_20  and  C11_22 
REMARK    8  A    between atoms: C11_22  and  C12_23 
REMARK    9  A    between atoms: C12_23  and  C13_24 
REMARK   10  A    between atoms: C13_24  and  O4_25 
REMARK   11  A    between atoms: N4_27  and  O5_29 
REMARK   12  A    between atoms: C16_36  and  O8_38 
REMARK   13  A    between atoms: O8_38  and  C17_39 
ROOT
HETATM    1  C4  UNL     1      -1.201   0.225   1.596  1.00  0.00     0.055 A 
HETATM    2  C5  UNL     1      -1.277  -0.189   2.912  1.00  0.00     0.068 A 
HETATM    3  S1  UNL     1       0.352  -0.275   3.387  1.00  0.00    -0.094 SA
HETATM    4  C6  UNL     1       1.090   0.210   1.929  1.00  0.00     0.089 A 
HETATM    5  C7  UNL     1       2.472   0.311   1.723  1.00  0.00     0.265 C 
HETATM    6  O2  UNL     1       3.153   0.000   2.720  1.00  0.00    -0.267 OA
HETATM    7  N2  UNL     1       3.152   0.692   0.609  1.00  0.00    -0.303 N 
ATOM      8  H2  UNL     1       4.149   0.479   0.572  1.00  0.00     0.171 HD
HETATM    9  C8  UNL     1       2.615   1.326  -0.446  1.00  0.00     0.150 C 
HETATM   10  N5  UNL     1       1.349   1.182  -0.893  1.00  0.00    -0.303 N 
ATOM     11  H5  UNL     1       1.234   1.273  -1.902  1.00  0.00     0.171 HD
HETATM   12  C14 UNL     1       0.219   0.937  -0.212  1.00  0.00     0.260 C 
HETATM   13  O6  UNL     1      -0.791   1.228  -0.899  1.00  0.00    -0.267 OA
HETATM   14  C15 UNL     1       0.020   0.433   1.092  1.00  0.00     0.071 A 
ENDROOT
BRANCH   9  15
HETATM   15  S2  UNL     1       3.664   2.455  -1.293  1.00  0.00    -0.084 SA
BRANCH  15  16
HETATM   16  C9  UNL     1       5.338   2.367  -0.604  1.00  0.00     0.185 C 
BRANCH  16  17
HETATM   17  C10 UNL     1       5.875   1.042  -0.982  1.00  0.00     0.227 C 
HETATM   18  O3  UNL     1       6.004   0.841  -2.230  1.00  0.00    -0.273 OA
HETATM   19  N3  UNL     1       6.220   0.070  -0.012  1.00  0.00    -0.360 N 
ATOM     20  H3  UNL     1       6.101   0.291   0.977  1.00  0.00     0.162 HD
BRANCH  19  21
HETATM   21  C11 UNL     1       6.734  -1.223  -0.384  1.00  0.00     0.130 C 
BRANCH  21  22
HETATM   22  C12 UNL     1       8.016  -1.190  -1.151  1.00  0.00     0.105 C 
BRANCH  22  23
HETATM   23  C13 UNL     1       9.138  -0.569  -0.397  1.00  0.00     0.136 C 
HETATM   24  N4  UNL     1       9.732   0.502  -0.721  1.00  0.00    -0.251 N 
ATOM     25  H4  UNL     1       9.456   1.016  -1.558  1.00  0.00     0.196 HD
BRANCH  23  26
HETATM   26  O4  UNL     1       9.538  -1.259   0.761  1.00  0.00    -0.348 OA
ATOM     27  H4  UNL     1      10.255  -0.862   1.243  1.00  0.00     0.219 HD
ENDBRANCH  23  26
BRANCH  24  28
HETATM   28  O5  UNL     1      10.767   0.965   0.085  1.00  0.00    -0.288 OA
ATOM     29  H5  UNL     1      11.212   1.768  -0.158  1.00  0.00     0.244 HD
ENDBRANCH  24  28
ENDBRANCH  22  23
ENDBRANCH  21  22
ENDBRANCH  19  21
ENDBRANCH  16  17
ENDBRANCH  15  16
ENDBRANCH   9  15
BRANCH   1  30
HETATM   30  C3  UNL     1      -2.508   0.290   0.848  1.00  0.00     0.253 C 
HETATM   31  N1  UNL     1      -2.831  -0.616  -0.163  1.00  0.00    -0.343 N 
ATOM     32  H1  UNL     1      -2.110  -1.310  -0.361  1.00  0.00     0.163 HD
HETATM   33  O1  UNL     1      -3.304   1.194   1.181  1.00  0.00    -0.268 OA
BRANCH  31  34
HETATM   34  C2  UNL     1      -3.999  -0.728  -0.960  1.00  0.00     0.180 C 
HETATM   35  C1  UNL     1      -4.106   0.343  -2.003  1.00  0.00     0.043 C 
BRANCH  34  36
HETATM   36  C16 UNL     1      -5.239  -0.675  -0.145  1.00  0.00     0.282 C 
HETATM   37  O7  UNL     1      -5.263  -0.641   1.091  1.00  0.00    -0.263 OA
BRANCH  36  38
HETATM   38  O8  UNL     1      -6.461  -0.662  -0.830  1.00  0.00    -0.310 OA
BRANCH  38  39
HETATM   39  C17 UNL     1      -7.718  -0.593  -0.209  1.00  0.00     0.060 C 
HETATM   40  C18 UNL     1      -8.762  -0.625  -1.326  1.00  0.00     0.045 C 
HETATM   41  C19 UNL     1      -7.926  -1.680   0.797  1.00  0.00     0.045 C 
HETATM   42  C20 UNL     1      -7.919   0.764   0.468  1.00  0.00     0.045 C 
ENDBRANCH  38  39
ENDBRANCH  36  38
ENDBRANCH  34  36
ENDBRANCH  31  34
ENDBRANCH   1  30
TORSDOF 13
