REMARK  11 active torsions:
REMARK  status: ('A' for Active; 'I' for Inactive)
REMARK    1  A    between atoms: C2_2  and  O1_3 
REMARK    2  A    between atoms: C2_2  and  O2_5 
REMARK    3  A    between atoms: O2_5  and  N1_6 
REMARK       I    between atoms: N1_6  and  C3_8 
REMARK       I    between atoms: C3_8  and  N4_13 
REMARK    4  A    between atoms: N4_13  and  C5_15 
REMARK    5  A    between atoms: C5_15  and  C6_16 
REMARK    6  A    between atoms: C7_19  and  C8_20 
REMARK    7  A    between atoms: C8_20  and  C9_21 
REMARK    8  A    between atoms: C9_21  and  C10_22 
REMARK    9  A    between atoms: C10_22  and  S1_23 
REMARK   10  A    between atoms: S1_23  and  C11_24 
REMARK   11  A    between atoms: N8_41  and  N9_42 
ROOT
HETATM    1  N1  UNL     1       6.098   1.211   0.795  1.00  0.00    -0.093 N 
ATOM      2  H1  UNL     1       5.705   1.072   1.726  1.00  0.00     0.213 HD
HETATM    3  C3  UNL     1       6.428   0.055   0.025  1.00  0.00     0.707 C 
HETATM    4  N2  UNL     1       7.133  -0.896   0.522  1.00  0.00    -0.124 N 
ATOM      5  H2  UNL     1       7.330  -1.691  -0.085  1.00  0.00     0.197 HD
HETATM    6  C4  UNL     1       7.648  -0.942   1.800  1.00  0.00     0.196 C 
HETATM    7  N3  UNL     1       8.087  -0.997   2.864  1.00  0.00    -0.171 NA
HETATM    8  N4  UNL     1       5.977  -0.053  -1.314  1.00  0.00    -0.217 N 
ATOM      9  H4  UNL     1       6.191   0.722  -1.941  1.00  0.00     0.178 HD
ENDROOT
BRANCH   1  10
HETATM   10  O2  UNL     1       6.276   2.477   0.364  1.00  0.00    -0.234 OA
BRANCH  10  11
HETATM   11  C2  UNL     1       7.618   2.714   0.180  1.00  0.00     0.282 C 
HETATM   12  C1  UNL     1       8.116   3.907   1.004  1.00  0.00     0.073 C 
BRANCH  11  13
HETATM   13  O1  UNL     1       7.854   2.998  -1.184  1.00  0.00    -0.369 OA
ATOM     14  H1  UNL     1       7.545   2.259  -1.695  1.00  0.00     0.212 HD
ENDBRANCH  11  13
ENDBRANCH  10  11
ENDBRANCH   1  10
BRANCH   8  15
HETATM   15  C5  UNL     1       5.245  -1.158  -1.864  1.00  0.00     0.216 C 
BRANCH  15  16
HETATM   16  C6  UNL     1       3.953  -1.329  -1.146  1.00  0.00     0.121 A 
HETATM   17  N5  UNL     1       2.911  -0.521  -1.279  1.00  0.00    -0.345 N 
HETATM   18  C7  UNL     1       1.888  -0.946  -0.510  1.00  0.00     0.028 A 
ATOM     19  H5  UNL     1       2.886   0.305  -1.878  1.00  0.00     0.167 HD
HETATM   20  C21 UNL     1       2.326  -2.067   0.125  1.00  0.00     0.142 A 
HETATM   21  N8  UNL     1       3.601  -2.290  -0.278  1.00  0.00    -0.258 N 
BRANCH  18  22
HETATM   22  C8  UNL     1       0.601  -0.283  -0.393  1.00  0.00     0.059 C 
BRANCH  22  23
HETATM   23  C9  UNL     1      -0.454  -0.997   0.371  1.00  0.00     0.017 C 
BRANCH  23  24
HETATM   24  C10 UNL     1      -0.891  -2.311  -0.205  1.00  0.00     0.082 C 
BRANCH  24  25
HETATM   25  S1  UNL     1      -2.164  -3.007   0.903  1.00  0.00    -0.094 SA
BRANCH  25  26
HETATM   26  C11 UNL     1      -3.604  -1.960   0.835  1.00  0.00     0.147 A 
HETATM   27  N6  UNL     1      -3.840  -0.930   1.627  1.00  0.00    -0.303 N 
HETATM   28  C12 UNL     1      -4.931  -0.156   1.568  1.00  0.00     0.261 A 
ATOM     29  H6  UNL     1      -3.140  -0.708   2.335  1.00  0.00     0.171 HD
HETATM   30  O3  UNL     1      -5.022   0.798   2.394  1.00  0.00    -0.267 OA
HETATM   31  C13 UNL     1      -5.934  -0.414   0.607  1.00  0.00     0.073 A 
HETATM   32  C14 UNL     1      -7.104   0.251   0.395  1.00  0.00    -0.026 A 
HETATM   33  C16 UNL     1      -5.676  -1.484  -0.206  1.00  0.00     0.092 A 
HETATM   34  C15 UNL     1      -7.909  -0.212  -0.608  1.00  0.00    -0.008 A 
HETATM   35  C20 UNL     1      -7.655   1.471   1.131  1.00  0.00     0.041 C 
HETATM   36  S2  UNL     1      -7.046  -1.532  -1.226  1.00  0.00    -0.075 SA
HETATM   37  C17 UNL     1      -9.223   0.353  -1.009  1.00  0.00     0.047 C 
HETATM   38  C18 UNL     1      -9.577   1.627  -0.332  1.00  0.00     0.005 C 
HETATM   39  C19 UNL     1      -8.342   2.356   0.108  1.00  0.00     0.005 C 
HETATM   40  N7  UNL     1      -4.535  -2.240  -0.093  1.00  0.00    -0.330 N 
ATOM     41  H7  UNL     1      -4.392  -3.028  -0.725  1.00  0.00     0.168 HD
ENDBRANCH  25  26
ENDBRANCH  24  25
ENDBRANCH  23  24
ENDBRANCH  22  23
ENDBRANCH  18  22
BRANCH  21  42
HETATM   42  N9  UNL     1       4.423  -3.352   0.136  1.00  0.00    -0.338 N 
ATOM     43  H92 UNL     1       5.382  -3.520  -0.167  1.00  0.00     0.177 HD
ATOM     44  H91 UNL     1       4.155  -4.082   0.796  1.00  0.00     0.177 HD
ENDBRANCH  21  42
ENDBRANCH  15  16
ENDBRANCH   8  15
TORSDOF 11
