REMARK  2 active torsions:
REMARK  status: ('A' for Active; 'I' for Inactive)
REMARK    1  A    between atoms: O1_1  and  O2_3 
REMARK    2  A    between atoms: O2_3  and  C1_4 
ROOT
HETATM    1  C1  UNL     1       0.108   1.913  -0.275  1.00  0.00     0.165 C 
HETATM    2  C2  UNL     1       1.596   1.789  -0.207  1.00  0.00     0.040 C 
HETATM    3  C3  UNL     1       2.082   0.524   0.428  1.00  0.00    -0.012 C 
HETATM    4  C4  UNL     1       2.396  -0.549  -0.553  1.00  0.00     0.005 C 
HETATM    5  C5  UNL     1       1.990  -1.922  -0.138  1.00  0.00     0.003 C 
HETATM    6  C6  UNL     1       0.531  -2.215  -0.391  1.00  0.00     0.032 C 
HETATM    7  C7  UNL     1      -0.340  -1.709   0.727  1.00  0.00     0.126 C 
HETATM    8  O3  UNL     1      -1.615  -2.204   0.625  1.00  0.00    -0.385 OA
HETATM    9  C8  UNL     1      -2.409  -1.580  -0.299  1.00  0.00     0.168 C 
HETATM   10  C9  UNL     1      -2.919  -0.233   0.192  1.00  0.00     0.027 C 
HETATM   11  C10 UNL     1      -2.090   0.892  -0.324  1.00  0.00     0.010 C 
HETATM   12  C11 UNL     1      -0.591   0.557  -0.331  1.00  0.00     0.024 C 
HETATM   13  C12 UNL     1      -0.265  -0.219   0.896  1.00  0.00     0.022 C 
HETATM   14  C13 UNL     1       1.082   0.113   1.484  1.00  0.00     0.012 C 
ENDROOT
BRANCH   1  15
HETATM   15  O2  UNL     1      -0.208   2.637  -1.423  1.00  0.00    -0.237 OA
BRANCH  15  16
HETATM   16  O1  UNL     1      -0.875   3.705  -1.041  1.00  0.00    -0.250 OA
ATOM     17  H1  UNL     1      -1.090   4.199  -1.824  1.00  0.00     0.253 HD
ENDBRANCH  15  16
ENDBRANCH   1  15
TORSDOF 2
