REMARK  2 active torsions:
REMARK  status: ('A' for Active; 'I' for Inactive)
REMARK    1  A    between atoms: C2_2  and  C5_5 
REMARK    2  A    between atoms: N2_8  and  C6_9 
ROOT
HETATM    1  C5  UNL     1      -1.472  -0.441   0.018  1.00  0.00     0.106 A 
HETATM    2  N1  UNL     1      -0.348   0.162  -0.365  1.00  0.00    -0.283 N 
ATOM      3  H1  UNL     1      -0.286   1.022  -0.910  1.00  0.00     0.188 HD
HETATM    4  N2  UNL     1       0.692  -0.560   0.092  1.00  0.00    -0.261 N 
HETATM    5  C11 UNL     1       0.188  -1.591   0.748  1.00  0.00     0.194 A 
HETATM    6  S1  UNL     1       1.089  -2.759   1.459  1.00  0.00    -0.039 SA
HETATM    7  N3  UNL     1      -1.151  -1.530   0.712  1.00  0.00    -0.320 N 
ATOM      8  H3  UNL     1      -1.800  -2.193   1.136  1.00  0.00     0.169 HD
ENDROOT
BRANCH   4   9
HETATM    9  C6  UNL     1       2.032  -0.151  -0.179  1.00  0.00     0.111 C 
HETATM   10  C7  UNL     1       2.250   1.262   0.320  1.00  0.00     0.027 C 
HETATM   11  C8  UNL     1       3.765   1.373   0.366  1.00  0.00     0.002 C 
HETATM   12  C9  UNL     1       4.310  -0.022   0.104  1.00  0.00     0.002 C 
HETATM   13  C10 UNL     1       3.106  -0.880   0.558  1.00  0.00     0.027 C 
ENDBRANCH   4   9
BRANCH   1  14
HETATM   14  C2  UNL     1      -2.825   0.087  -0.355  1.00  0.00     0.009 C 
HETATM   15  C1  UNL     1      -2.856   1.592  -0.226  1.00  0.00     0.023 C 
HETATM   16  C3  UNL     1      -2.957  -0.287  -1.847  1.00  0.00     0.023 C 
HETATM   17  C4  UNL     1      -3.944  -0.579   0.378  1.00  0.00     0.023 C 
ENDBRANCH   1  14
TORSDOF 2
