REMARK  2 active torsions:
REMARK  status: ('A' for Active; 'I' for Inactive)
REMARK    1  A    between atoms: C5_5  and  C6_6 
REMARK    2  A    between atoms: N1_7  and  O1_9 
ROOT
HETATM    1  C1  UNL     1       3.462   0.020   0.533  1.00  0.00     0.043 C 
HETATM    2  C2  UNL     1       1.973   0.000   0.532  1.00  0.00    -0.083 C 
HETATM    3  C3  UNL     1       1.274  -0.057   1.656  1.00  0.00    -0.023 C 
HETATM    4  C4  UNL     1      -0.196  -0.079   1.736  1.00  0.00     0.043 C 
HETATM    5  C5  UNL     1      -0.870  -0.238   0.407  1.00  0.00     0.005 C 
HETATM    6  C7  UNL     1      -1.324   1.162  -0.032  1.00  0.00     0.035 C 
HETATM    7  C8  UNL     1      -0.126   2.045  -0.140  1.00  0.00     0.094 C 
HETATM    8  C9  UNL     1      -0.579   3.327  -0.725  1.00  0.00     0.064 C 
HETATM    9  N2  UNL     1      -0.925   4.325  -1.200  1.00  0.00    -0.197 NA
HETATM   10  C10 UNL     1       0.923   1.477  -1.061  1.00  0.00     0.029 C 
HETATM   11  C11 UNL     1       1.253   0.046  -0.753  1.00  0.00     0.024 C 
HETATM   12  C12 UNL     1       0.036  -0.810  -0.655  1.00  0.00    -0.028 C 
HETATM   13  C13 UNL     1      -0.686  -0.785  -1.977  1.00  0.00     0.016 C 
HETATM   14  C14 UNL     1       0.367  -2.219  -0.316  1.00  0.00     0.016 C 
ENDROOT
BRANCH   5  15
HETATM   15  C6  UNL     1      -2.087  -1.041   0.598  1.00  0.00     0.097 C 
HETATM   16  N1  UNL     1      -2.991  -0.627   1.395  1.00  0.00    -0.283 N 
ATOM     17  H1  UNL     1      -2.827   0.259   1.874  1.00  0.00     0.192 HD
BRANCH  16  18
HETATM   18  O1  UNL     1      -4.160  -1.276   1.657  1.00  0.00    -0.291 OA
ATOM     19  H1  UNL     1      -4.834  -0.967   2.251  1.00  0.00     0.244 HD
ENDBRANCH  16  18
ENDBRANCH   5  15
TORSDOF 2
