REMARK  2 active torsions:
REMARK  status: ('A' for Active; 'I' for Inactive)
REMARK       I    between atoms: C2_2  and  N1_4 
REMARK    1  A    between atoms: C3_6  and  C4_7 
REMARK    2  A    between atoms: N2_9  and  O2_11 
ROOT
HETATM    1  C4  UNL     1       0.833   0.469   0.013  1.00  0.00     0.079 C 
HETATM    2  C5  UNL     1       0.524  -0.925   0.426  1.00  0.00     0.020 C 
HETATM    3  N2  UNL     1       1.276  -1.519   1.283  1.00  0.00    -0.277 N 
ATOM      4  H2  UNL     1       2.082  -1.035   1.678  1.00  0.00     0.193 HD
HETATM    5  C6  UNL     1      -0.646  -1.626  -0.149  1.00  0.00     0.064 C 
HETATM    6  C7  UNL     1      -1.912  -0.817   0.130  1.00  0.00    -0.042 C 
HETATM    7  C8  UNL     1      -2.641  -1.529   1.266  1.00  0.00     0.015 C 
HETATM    8  C9  UNL     1      -2.837  -0.796  -1.057  1.00  0.00     0.015 C 
HETATM    9  C10 UNL     1      -1.579   0.561   0.644  1.00  0.00     0.018 C 
HETATM   10  C11 UNL     1      -0.471   1.228  -0.109  1.00  0.00    -0.034 C 
HETATM   11  C12 UNL     1      -0.771   1.421  -1.565  1.00  0.00     0.016 C 
HETATM   12  C13 UNL     1      -0.331   2.631   0.499  1.00  0.00     0.016 C 
ENDROOT
BRANCH   1  13
HETATM   13  C3  UNL     1       1.771   1.131   0.933  1.00  0.00     0.075 C 
HETATM   14  N1  UNL     1       2.999   1.285   0.628  1.00  0.00    -0.340 N 
HETATM   15  C2  UNL     1       3.543   0.834  -0.606  1.00  0.00     0.217 C 
ATOM     16  H1  UNL     1       3.615   1.750   1.295  1.00  0.00     0.167 HD
HETATM   17  C1  UNL     1       4.301  -0.436  -0.744  1.00  0.00     0.117 C 
HETATM   18  O1  UNL     1       3.405   1.512  -1.681  1.00  0.00    -0.274 OA
ENDBRANCH   1  13
BRANCH   3  19
HETATM   19  O2  UNL     1       0.993  -2.801   1.664  1.00  0.00    -0.290 OA
ATOM     20  H2  UNL     1       1.549  -3.240   2.297  1.00  0.00     0.244 HD
ENDBRANCH   3  19
TORSDOF 2
