REMARK  5 active torsions:
REMARK  status: ('A' for Active; 'I' for Inactive)
REMARK    1  A    between atoms: N2_3  and  O1_4 
REMARK    2  A    between atoms: C2_6  and  C3_7 
REMARK    3  A    between atoms: C3_7  and  O2_8 
REMARK    4  A    between atoms: C5_13  and  C6_14 
REMARK    5  A    between atoms: C6_14  and  N3_15 
ROOT
HETATM    1  N1  UNL     1       3.128   2.079   0.313  1.00  0.00    -0.170 NA
HETATM    2  C1  UNL     1       3.123   0.981  -0.053  1.00  0.00     0.210 C 
HETATM    3  N2  UNL     1       3.109  -0.365  -0.492  1.00  0.00    -0.165 N 
HETATM    4  C2  UNL     1       2.102  -1.096  -0.238  1.00  0.00     0.209 C 
ENDROOT
BRANCH   3   5
HETATM    5  O1  UNL     1       4.179  -0.887  -1.192  1.00  0.00    -0.274 OA
ATOM      6  H1  UNL     1       4.170  -1.790  -1.487  1.00  0.00     0.246 HD
ENDBRANCH   3   5
BRANCH   4   7
HETATM    7  C3  UNL     1       0.950  -0.552   0.510  1.00  0.00     0.322 A 
HETATM    8  O3  UNL     1      -0.010  -1.514   0.720  1.00  0.00    -0.305 OA
HETATM    9  C4  UNL     1      -1.140  -1.189   0.025  1.00  0.00     0.254 A 
HETATM   10 CL1  UNL     1      -2.541  -1.300   1.069  1.00  0.00    -0.092 Cl
HETATM   11  C5  UNL     1      -0.890   0.155  -0.550  1.00  0.00     0.191 A 
HETATM   12  O4  UNL     1       0.408   0.476  -0.217  1.00  0.00    -0.317 OA
BRANCH   7  13
HETATM   13  O2  UNL     1       1.362  -0.011   1.745  1.00  0.00    -0.339 OA
ATOM     14  H2  UNL     1       0.621   0.339   2.226  1.00  0.00     0.216 HD
ENDBRANCH   7  13
BRANCH  11  15
HETATM   15  C6  UNL     1      -1.793   1.234  -0.045  1.00  0.00     0.174 C 
BRANCH  15  16
HETATM   16  N3  UNL     1      -3.168   0.999  -0.339  1.00  0.00    -0.340 N 
HETATM   17  N4  UNL     1      -4.118   1.440   0.331  1.00  0.00    -0.349 N 
ATOM     18  H42 UNL     1      -3.879   2.008   1.144  1.00  0.00     0.176 HD
ATOM     19  H41 UNL     1      -5.102   1.272   0.121  1.00  0.00     0.176 HD
ATOM     20  H3  UNL     1      -3.388   0.429  -1.156  1.00  0.00     0.179 HD
ENDBRANCH  15  16
ENDBRANCH  11  15
ENDBRANCH   4   7
TORSDOF 5
