REMARK  6 active torsions:
REMARK  status: ('A' for Active; 'I' for Inactive)
REMARK    1  A    between atoms: N1_2  and  C2_3 
REMARK    2  A    between atoms: C4_6  and  C5_7 
REMARK    3  A    between atoms: C5_7  and  O2_8 
REMARK    4  A    between atoms: C5_7  and  C6_10 
REMARK    5  A    between atoms: C7_12  and  O3_13 
REMARK    6  A    between atoms: C8_15  and  O4_16 
ROOT
HETATM    1  C2  UNL     1      -1.151  -0.406   0.521  1.00  0.00     0.356 C 
HETATM    2  O1  UNL     1      -0.273   0.438   1.160  1.00  0.00    -0.356 OA
HETATM    3  C3  UNL     1       0.670   1.027   0.359  1.00  0.00     0.180 C 
HETATM    4  C4  UNL     1       1.557   0.085  -0.377  1.00  0.00     0.072 C 
HETATM    5  C7  UNL     1       0.959  -1.309  -0.256  1.00  0.00     0.159 C 
HETATM    6  C8  UNL     1      -0.507  -1.173  -0.614  1.00  0.00     0.204 C 
ENDROOT
BRANCH   4   7
HETATM    7  C5  UNL     1       2.962   0.015   0.121  1.00  0.00     0.155 C 
BRANCH   7   8
HETATM    8  O2  UNL     1       3.651  -0.907  -0.672  1.00  0.00    -0.393 OA
ATOM      9  H2  UNL     1       4.545  -0.952  -0.355  1.00  0.00     0.210 HD
ENDBRANCH   7   8
BRANCH   7  10
HETATM   10  C6  UNL     1       3.706   1.313   0.080  1.00  0.00     0.254 C 
HETATM   11  F1  UNL     1       3.801   1.822  -1.199  1.00  0.00    -0.253 F 
ENDBRANCH   7  10
ENDBRANCH   4   7
BRANCH   5  12
HETATM   12  O3  UNL     1       1.639  -2.111  -1.169  1.00  0.00    -0.392 OA
ATOM     13  H3  UNL     1       1.266  -2.981  -1.093  1.00  0.00     0.210 HD
ENDBRANCH   5  12
BRANCH   6  14
HETATM   14  O4  UNL     1      -0.568  -0.490  -1.820  1.00  0.00    -0.389 OA
ATOM     15  H4  UNL     1      -0.164  -0.971  -2.532  1.00  0.00     0.210 HD
ENDBRANCH   6  14
BRANCH   1  16
HETATM   16  N1  UNL     1      -2.380   0.221   0.148  1.00  0.00    -0.039 N 
HETATM   17  C1  UNL     1      -2.464   1.656   0.330  1.00  0.00     0.276 C 
HETATM   18  C9  UNL     1      -3.180  -0.281  -0.934  1.00  0.00     0.268 A 
HETATM   19  C10 UNL     1      -3.650  -0.509   0.476  1.00  0.00     0.268 A 
ENDBRANCH   1  16
TORSDOF 6
