REMARK  4 active torsions:
REMARK  status: ('A' for Active; 'I' for Inactive)
REMARK    1  A    between atoms: N1_1  and  N2_4 
REMARK       I    between atoms: C1_6  and  N4_8 
REMARK    2  A    between atoms: N4_8  and  C2_10 
REMARK    3  A    between atoms: C2_10  and  C3_11 
REMARK    4  A    between atoms: N5_13  and  C5_14 
ROOT
HETATM    1  C3  UNL     1      -0.019  -0.202   0.064  1.00  0.00     0.067 C 
HETATM    2  C4  UNL     1      -1.150   0.685  -0.337  1.00  0.00     0.282 C 
HETATM    3  N5  UNL     1      -2.301  -0.207  -0.387  1.00  0.00     0.100 N 
HETATM    4  C8  UNL     1      -1.826  -1.551  -0.333  1.00  0.00     0.310 C 
HETATM    5  C9  UNL     1      -0.337  -1.463  -0.726  1.00  0.00     0.205 C 
HETATM    6  F1  UNL     1      -0.351  -1.208  -2.086  1.00  0.00    -0.247 F 
ENDROOT
BRANCH   1   7
HETATM    7  C2  UNL     1       1.347   0.321  -0.192  1.00  0.00     0.131 C 
BRANCH   7   8
HETATM    8  N4  UNL     1       2.399  -0.562   0.206  1.00  0.00    -0.363 N 
HETATM    9  C1  UNL     1       3.739  -0.144   0.024  1.00  0.00     0.202 C 
HETATM   10  N2  UNL     1       4.331  -0.432  -1.073  1.00  0.00    -0.280 N 
HETATM   11  N3  UNL     1       4.434   0.586   1.018  1.00  0.00    -0.062 NA
ATOM     12  H2  UNL     1       3.834  -0.958  -1.792  1.00  0.00     0.189 HD
ATOM     13  H4  UNL     1       2.188  -1.474   0.612  1.00  0.00     0.162 HD
BRANCH  10  14
HETATM   14  N1  UNL     1       5.643  -0.036  -1.294  1.00  0.00    -0.343 N 
ATOM     15  H12 UNL     1       6.125   0.489  -0.565  1.00  0.00     0.176 HD
ATOM     16  H11 UNL     1       6.115  -0.266  -2.169  1.00  0.00     0.176 HD
ENDBRANCH  10  14
ENDBRANCH   7   8
ENDBRANCH   1   7
BRANCH   3  17
HETATM   17  C5  UNL     1      -3.208   0.198   0.633  1.00  0.00     0.270 C 
HETATM   18  C6  UNL     1      -3.695   1.619   0.309  1.00  0.00     0.205 C 
HETATM   19  O1  UNL     1      -4.952   1.259   0.755  1.00  0.00    -0.387 OA
HETATM   20  C7  UNL     1      -4.657  -0.075   0.471  1.00  0.00     0.205 C 
ENDBRANCH   3  17
TORSDOF 4
