REMARK  6 active torsions:
REMARK  status: ('A' for Active; 'I' for Inactive)
REMARK    1  A    between atoms: C2_2  and  C3_3 
REMARK    2  A    between atoms: C3_3  and  C4_4 
REMARK    3  A    between atoms: C3_3  and  N3_23 
REMARK    4  A    between atoms: C4_4  and  O1_5 
REMARK    5  A    between atoms: C4_4  and  C5_7 
REMARK    6  A    between atoms: C9_11  and  C10_12 
ROOT
HETATM    1  C10 UNL     1       4.057   0.128  -0.006  1.00  0.00     0.012 A 
HETATM    2  C11 UNL     1       4.786   1.296  -0.249  1.00  0.00     0.101 A 
HETATM    3  N1  UNL     1       6.095   0.979  -0.233  1.00  0.00    -0.373 N 
ATOM      4  H1  UNL     1       6.864   1.633  -0.380  1.00  0.00     0.164 HD
HETATM    5  C12 UNL     1       6.224  -0.329   0.006  1.00  0.00     0.111 A 
HETATM    6  C13 UNL     1       4.965  -0.876   0.149  1.00  0.00     0.072 A 
HETATM    7  C14 UNL     1       4.728  -2.266   0.435  1.00  0.00     0.102 C 
HETATM    8  N2  UNL     1       4.557  -3.396   0.666  1.00  0.00    -0.191 NA
ENDROOT
BRANCH   1   9
HETATM    9  C9  UNL     1       2.601   0.041   0.073  1.00  0.00    -0.017 A 
HETATM   10  C7  UNL     1       1.802  -0.690  -0.761  1.00  0.00    -0.050 A 
HETATM   11  C6  UNL     1       0.431  -0.715  -0.570  1.00  0.00     0.022 A 
HETATM   12  C8  UNL     1       2.411  -1.488  -1.875  1.00  0.00     0.049 C 
HETATM   13  C5  UNL     1      -0.190  -0.020   0.453  1.00  0.00     0.005 A 
HETATM   14  C16 UNL     1       0.655   0.724   1.284  1.00  0.00    -0.048 A 
HETATM   15  C15 UNL     1       1.996   0.738   1.084  1.00  0.00     0.020 A 
HETATM   16  C17 UNL     1       0.020   1.592   2.310  1.00  0.00     0.049 C 
BRANCH  13  17
HETATM   17  C4  UNL     1      -1.579  -0.207   0.872  1.00  0.00     0.098 C 
BRANCH  17  18
HETATM   18  C3  UNL     1      -2.705   0.309   0.089  1.00  0.00     0.040 C 
BRANCH  18  19
HETATM   19  C2  UNL     1      -2.389   1.204  -1.059  1.00  0.00     0.055 C 
HETATM   20  C1  UNL     1      -3.653   1.714  -1.718  1.00  0.00     0.011 C 
ENDBRANCH  18  19
BRANCH  18  21
HETATM   21  N3  UNL     1      -3.828  -0.497  -0.134  1.00  0.00    -0.391 N 
HETATM   22  C18 UNL     1      -4.771  -0.625   0.949  1.00  0.00     0.149 C 
HETATM   23  C19 UNL     1      -3.684  -1.645  -0.949  1.00  0.00     0.149 C 
ENDBRANCH  18  21
ENDBRANCH  17  18
BRANCH  17  24
HETATM   24  O1  UNL     1      -1.762  -0.480   2.218  1.00  0.00    -0.358 OA
ATOM     25  H1  UNL     1      -1.032  -0.815   2.726  1.00  0.00     0.217 HD
ENDBRANCH  17  24
ENDBRANCH  13  17
ENDBRANCH   1   9
TORSDOF 6
