REMARK  7 active torsions:
REMARK  status: ('A' for Active; 'I' for Inactive)
REMARK    1  A    between atoms: C9_9  and  O1_10 
REMARK    2  A    between atoms: C13_15  and  C14_16 
REMARK    3  A    between atoms: C14_16  and  O2_17 
REMARK    4  A    between atoms: C14_16  and  C15_19 
REMARK    5  A    between atoms: C15_19  and  C16_20 
REMARK    6  A    between atoms: C16_20  and  C17_21 
REMARK    7  A    between atoms: C17_21  and  C19_23 
ROOT
HETATM    1  C1  UNL     1      -4.694   0.623   0.320  1.00  0.00     0.014 C 
HETATM    2  C2  UNL     1      -3.493   0.995   0.009  1.00  0.00    -0.085 C 
HETATM    3  C3  UNL     1      -3.156   2.476   0.155  1.00  0.00     0.034 C 
HETATM    4  C4  UNL     1      -2.155   2.661   1.245  1.00  0.00     0.005 C 
HETATM    5  C5  UNL     1      -1.290   1.417   1.446  1.00  0.00     0.006 C 
HETATM    6  C6  UNL     1      -1.128   0.785   0.090  1.00  0.00     0.005 C 
HETATM    7  C7  UNL     1      -2.359   0.180  -0.491  1.00  0.00     0.021 C 
HETATM    8  C8  UNL     1      -2.481  -1.282  -0.359  1.00  0.00     0.042 C 
HETATM    9  C9  UNL     1      -1.603  -1.832   0.697  1.00  0.00     0.127 C 
HETATM   10  C10 UNL     1      -0.141  -1.485   0.527  1.00  0.00    -0.012 C 
HETATM   11  C11 UNL     1       0.459  -2.598  -0.287  1.00  0.00     0.018 C 
HETATM   12  C12 UNL     1       0.417  -1.657   1.931  1.00  0.00     0.018 C 
HETATM   13  C13 UNL     1       0.127  -0.113   0.021  1.00  0.00     0.057 C 
ENDROOT
BRANCH  13  14
HETATM   14  C14 UNL     1       0.697   0.055  -1.310  1.00  0.00     0.048 C 
BRANCH  14  15
HETATM   15  O2  UNL     1      -0.166  -0.329  -2.369  1.00  0.00    -0.365 OA
ATOM     16  H2  UNL     1       0.205  -0.220  -3.236  1.00  0.00     0.217 HD
ENDBRANCH  14  15
BRANCH  14  17
HETATM   17  C15 UNL     1       2.111  -0.099  -1.645  1.00  0.00     0.029 C 
BRANCH  17  18
HETATM   18  C16 UNL     1       3.168   0.768  -1.093  1.00  0.00    -0.013 C 
BRANCH  18  19
HETATM   19  C17 UNL     1       3.489   0.819   0.338  1.00  0.00     0.065 C 
HETATM   20  C18 UNL     1       3.922  -0.549   0.852  1.00  0.00     0.021 C 
BRANCH  19  21
HETATM   21  C19 UNL     1       4.731   1.682   0.567  1.00  0.00     0.239 C 
HETATM   22  O3  UNL     1       5.155   2.377  -0.308  1.00  0.00    -0.306 OA
ENDBRANCH  19  21
ENDBRANCH  18  19
ENDBRANCH  17  18
ENDBRANCH  14  17
ENDBRANCH  13  14
BRANCH   9  23
HETATM   23  O1  UNL     1      -1.779  -3.226   0.807  1.00  0.00    -0.395 OA
ATOM     24  H1  UNL     1      -1.215  -3.579   1.485  1.00  0.00     0.210 HD
ENDBRANCH   9  23
TORSDOF 7
