REMARK  7 active torsions:
REMARK  status: ('A' for Active; 'I' for Inactive)
REMARK    1  A    between atoms: C2_2  and  C3_3 
REMARK    2  A    between atoms: C9_10  and  O2_12 
REMARK    3  A    between atoms: C11_14  and  C12_15 
REMARK    4  A    between atoms: C13_16  and  C15_18 
REMARK    5  A    between atoms: C15_18  and  C16_19 
REMARK    6  A    between atoms: C17_20  and  C18_21 
REMARK    7  A    between atoms: C18_21  and  O3_24 
ROOT
HETATM    1  C3  UNL     1      -3.882  -0.058   1.017  1.00  0.00     0.084 C 
HETATM    2  C4  UNL     1      -2.978  -1.188   0.875  1.00  0.00     0.140 C 
HETATM    3  O1  UNL     1      -3.323  -2.334   0.700  1.00  0.00    -0.297 OA
HETATM    4  C5  UNL     1      -1.511  -0.910   0.953  1.00  0.00     0.066 C 
HETATM    5  C6  UNL     1      -1.225  -0.106   2.229  1.00  0.00     0.013 C 
HETATM    6  C7  UNL     1      -2.226   0.998   2.387  1.00  0.00     0.009 C 
HETATM    7  C8  UNL     1      -3.001   1.190   1.095  1.00  0.00     0.035 C 
HETATM    8  C9  UNL     1      -2.003   1.270  -0.030  1.00  0.00     0.066 C 
HETATM    9  C10 UNL     1      -2.626   1.560  -1.361  1.00  0.00     0.047 C 
HETATM   10  C11 UNL     1      -1.185   0.011  -0.197  1.00  0.00     0.054 C 
ENDROOT
BRANCH  10  11
HETATM   11  C12 UNL     1       0.257   0.277  -0.327  1.00  0.00    -0.016 C 
HETATM   12  C13 UNL     1       0.979  -0.068  -1.387  1.00  0.00    -0.084 C 
HETATM   13  C14 UNL     1       0.376  -0.766  -2.554  1.00  0.00     0.043 C 
BRANCH  12  14
HETATM   14  C15 UNL     1       2.443   0.240  -1.436  1.00  0.00     0.060 C 
BRANCH  14  15
HETATM   15  C16 UNL     1       3.276  -0.963  -1.579  1.00  0.00    -0.024 C 
HETATM   16  C17 UNL     1       4.212  -1.407  -0.790  1.00  0.00     0.006 C 
BRANCH  16  17
HETATM   17  C18 UNL     1       4.639  -0.747   0.473  1.00  0.00     0.068 C 
HETATM   18  C19 UNL     1       5.217   0.626   0.189  1.00  0.00     0.050 C 
HETATM   19  C20 UNL     1       3.539  -0.650   1.500  1.00  0.00     0.050 C 
BRANCH  17  20
HETATM   20  O3  UNL     1       5.663  -1.512   1.064  1.00  0.00    -0.387 OA
ATOM     21  H3  UNL     1       5.936  -1.091   1.871  1.00  0.00     0.211 HD
ENDBRANCH  17  20
ENDBRANCH  16  17
ENDBRANCH  14  15
ENDBRANCH  12  14
ENDBRANCH  10  11
BRANCH   8  22
HETATM   22  O2  UNL     1      -1.161   2.341   0.268  1.00  0.00    -0.389 OA
ATOM     23  H2  UNL     1      -0.531   2.391  -0.442  1.00  0.00     0.210 HD
ENDBRANCH   8  22
BRANCH   1  24
HETATM   24  C2  UNL     1      -4.990   0.069   0.094  1.00  0.00    -0.024 C 
HETATM   25  C1  UNL     1      -5.213  -0.680  -0.963  1.00  0.00     0.008 C 
ENDBRANCH   1  24
TORSDOF 7
