REMARK  14 active torsions:
REMARK  status: ('A' for Active; 'I' for Inactive)
REMARK    1  A    between atoms: N1_2  and  C3_4 
REMARK    2  A    between atoms: C3_4  and  C4_5 
REMARK    3  A    between atoms: C4_5  and  N2_6 
REMARK    4  A    between atoms: C6_9  and  O1_10 
REMARK    5  A    between atoms: N3_15  and  C10_16 
REMARK    6  A    between atoms: C10_16  and  C11_17 
REMARK    7  A    between atoms: C14_20  and  C15_21 
REMARK    8  A    between atoms: C16_24  and  O3_25 
REMARK    9  A    between atoms: C18_28  and  C19_29 
REMARK   10  A    between atoms: C19_29  and  O4_30 
REMARK   11  A    between atoms: C20_33  and  C21_34 
REMARK   12  A    between atoms: C20_33  and  C22_37 
REMARK   13  A    between atoms: C22_37  and  N6_38 
REMARK   14  A    between atoms: C22_37  and  O7_42 
ROOT
HETATM    1  N2  UNL     1       2.308  -2.113   0.308  1.00  0.00    -0.372 N 
ATOM      2  H2  UNL     1       2.405  -1.620   1.196  1.00  0.00     0.161 HD
HETATM    3  C5  UNL     1       1.205  -1.932  -0.255  1.00  0.00     0.144 A 
HETATM    4  C6  UNL     1       0.881  -2.497  -1.439  1.00  0.00     0.141 A 
HETATM    5  C7  UNL     1      -0.351  -2.269  -1.999  1.00  0.00     0.117 A 
HETATM    6  C8  UNL     1      -1.190  -1.461  -1.288  1.00  0.00     0.107 A 
HETATM    7  C9  UNL     1      -0.865  -0.869  -0.048  1.00  0.00     0.073 A 
HETATM    8  N3  UNL     1       0.342  -1.099   0.476  1.00  0.00    -0.305 N 
HETATM    9  C18 UNL     1      -1.649  -0.022   0.919  1.00  0.00     0.161 C 
HETATM   10  N5  UNL     1      -2.878   0.234   0.183  1.00  0.00    -0.363 N 
HETATM   11  C20 UNL     1      -4.127   0.171   0.641  1.00  0.00     0.141 C 
HETATM   12  C23 UNL     1      -2.674   0.991  -1.009  1.00  0.00     0.125 C 
HETATM   13  C24 UNL     1      -3.394   0.552  -2.210  1.00  0.00     0.042 C 
HETATM   14  C25 UNL     1      -3.433  -0.945  -2.419  1.00  0.00     0.151 C 
HETATM   15  N7  UNL     1      -2.138  -1.530  -2.205  1.00  0.00    -0.285 N 
HETATM   16  N8  UNL     1      -1.330  -2.329  -2.911  1.00  0.00    -0.289 N 
HETATM   17  C26 UNL     1      -1.456  -2.999  -4.168  1.00  0.00     0.178 C 
ENDROOT
BRANCH   8  18
HETATM   18  C10 UNL     1       0.800  -0.478   1.636  1.00  0.00     0.110 C 
BRANCH  18  19
HETATM   19  C11 UNL     1       1.317   0.930   1.517  1.00  0.00    -0.018 A 
HETATM   20  C12 UNL     1       1.104   1.776   2.584  1.00  0.00     0.014 A 
HETATM   21  C13 UNL     1       1.542   3.089   2.558  1.00  0.00     0.020 A 
HETATM   22  C14 UNL     1       2.213   3.604   1.454  1.00  0.00     0.062 A 
HETATM   23  C16 UNL     1       2.430   2.775   0.391  1.00  0.00     0.081 A 
HETATM   24  C17 UNL     1       1.967   1.446   0.460  1.00  0.00     0.050 A 
BRANCH  22  25
HETATM   25  C15 UNL     1       2.644   4.987   1.493  1.00  0.00     0.267 C 
HETATM   26  N4  UNL     1       3.329   5.657   0.467  1.00  0.00    -0.057 NA
HETATM   27  O2  UNL     1       2.394   5.684   2.535  1.00  0.00    -0.271 OA
ENDBRANCH  22  25
BRANCH  23  28
HETATM   28  O3  UNL     1       3.061   3.150  -0.725  1.00  0.00    -0.360 OA
ATOM     29  H3  UNL     1       3.212   2.573  -1.465  1.00  0.00     0.217 HD
ENDBRANCH  23  28
ENDBRANCH  18  19
ENDBRANCH   8  18
BRANCH   1  30
HETATM   30  C4  UNL     1       3.428  -2.860  -0.048  1.00  0.00     0.151 C 
BRANCH  30  31
HETATM   31  C3  UNL     1       4.450  -2.035  -0.836  1.00  0.00     0.290 C 
BRANCH  31  32
HETATM   32  N1  UNL     1       4.904  -0.911  -0.016  1.00  0.00     0.081 N 
HETATM   33  C1  UNL     1       5.672  -1.463   1.071  1.00  0.00     0.309 C 
HETATM   34  C2  UNL     1       5.739  -0.097  -0.905  1.00  0.00     0.309 C 
ENDBRANCH  31  32
ENDBRANCH  30  31
ENDBRANCH   1  30
BRANCH   4  35
HETATM   35  O1  UNL     1       1.731  -3.318  -2.155  1.00  0.00    -0.355 OA
ATOM     36  H1  UNL     1       1.503  -3.715  -2.987  1.00  0.00     0.218 HD
ENDBRANCH   4  35
BRANCH   9  37
HETATM   37  C19 UNL     1      -1.924  -0.657   2.227  1.00  0.00     0.195 C 
BRANCH  37  38
HETATM   38  O4  UNL     1      -2.328  -1.946   2.295  1.00  0.00    -0.398 OA
ATOM     39  H4  UNL     1      -2.505  -2.354   3.135  1.00  0.00     0.209 HD
ENDBRANCH  37  38
ENDBRANCH   9  37
BRANCH  11  40
HETATM   40  C21 UNL     1      -4.895  -0.974   1.117  1.00  0.00     0.227 C 
HETATM   41  O5  UNL     1      -5.655  -0.868   2.113  1.00  0.00    -0.643 OA
HETATM   42  O6  UNL     1      -4.946  -2.262   0.625  1.00  0.00    -0.643 OA
ENDBRANCH  11  40
BRANCH  11  43
HETATM   43  C22 UNL     1      -4.629   1.479   1.270  1.00  0.00     0.374 C 
BRANCH  43  44
HETATM   44  N6  UNL     1      -6.019   1.388   1.719  1.00  0.00    -0.047 N 
ATOM     45  H63 UNL     1      -6.631   1.087   0.960  1.00  0.00     0.277 HD
ATOM     46  H62 UNL     1      -6.148   0.601   2.355  1.00  0.00     0.277 HD
ATOM     47  H61 UNL     1      -6.352   2.257   2.137  1.00  0.00     0.277 HD
ENDBRANCH  43  44
BRANCH  43  48
HETATM   48  O7  UNL     1      -4.657   2.539   0.341  1.00  0.00    -0.365 OA
ATOM     49  H7  UNL     1      -4.968   3.348   0.730  1.00  0.00     0.212 HD
ENDBRANCH  43  48
ENDBRANCH  11  43
TORSDOF 14
