REMARK  17 active torsions:
REMARK  status: ('A' for Active; 'I' for Inactive)
REMARK    1  A    between atoms: O1_2  and  C2_3 
REMARK    2  A    between atoms: C2_3  and  C3_4 
REMARK    3  A    between atoms: C2_3  and  C16_32 
REMARK    4  A    between atoms: C3_4  and  O2_5 
REMARK    5  A    between atoms: O2_5  and  C4_6 
REMARK    6  A    between atoms: C5_7  and  O3_8 
REMARK    7  A    between atoms: C6_10  and  O4_11 
REMARK    8  A    between atoms: C7_13  and  N1_14 
REMARK    9  A    between atoms: C8_18  and  O5_19 
REMARK   10  A    between atoms: C9_21  and  O6_22 
REMARK   11  A    between atoms: O6_22  and  C10_23 
REMARK   12  A    between atoms: C13_26  and  O7_27 
REMARK   13  A    between atoms: C17_34  and  O10_35 
REMARK   14  A    between atoms: O10_35  and  C18_36 
REMARK   15  A    between atoms: C18_36  and  C19_37 
REMARK   16  A    between atoms: C25_43  and  O11_44 
REMARK   17  A    between atoms: C26_46  and  O12_47 
ROOT
HETATM    1  C4  UNL     1      -2.225  -1.082   0.226  1.00  0.00     0.184 C 
HETATM    2  C5  UNL     1      -1.717  -1.720   1.472  1.00  0.00     0.180 C 
HETATM    3  C6  UNL     1      -2.768  -2.219   2.406  1.00  0.00     0.182 C 
HETATM    4  C7  UNL     1      -3.815  -3.064   1.730  1.00  0.00     0.245 C 
HETATM    5  C8  UNL     1      -4.129  -2.580   0.337  1.00  0.00     0.182 C 
HETATM    6  C9  UNL     1      -3.765  -1.150   0.142  1.00  0.00     0.187 C 
ENDROOT
BRANCH   1   7
HETATM    7  O2  UNL     1      -1.647  -1.703  -0.859  1.00  0.00    -0.378 OA
BRANCH   7   8
HETATM    8  C3  UNL     1      -0.969  -0.897  -1.714  1.00  0.00     0.203 C 
BRANCH   8   9
HETATM    9  C2  UNL     1       0.190  -0.136  -1.213  1.00  0.00     0.176 C 
BRANCH   9  10
HETATM   10  O1  UNL     1       0.691   0.640  -2.287  1.00  0.00    -0.386 OA
HETATM   11  C1  UNL     1       0.766   1.979  -1.937  1.00  0.00     0.202 C 
ENDBRANCH   9  10
BRANCH   9  12
HETATM   12  C16 UNL     1       1.388  -0.983  -0.801  1.00  0.00     0.187 C 
HETATM   13  O9  UNL     1       2.431  -0.172  -0.389  1.00  0.00    -0.348 OA
HETATM   14  C17 UNL     1       3.528  -0.374  -1.175  1.00  0.00     0.291 C 
HETATM   15  C25 UNL     1       3.339  -1.638  -1.944  1.00  0.00     0.204 C 
HETATM   16  C26 UNL     1       1.859  -1.922  -1.847  1.00  0.00     0.183 C 
BRANCH  14  17
HETATM   17  O10 UNL     1       4.731  -0.319  -0.490  1.00  0.00    -0.358 OA
BRANCH  17  18
HETATM   18  C18 UNL     1       5.531   0.729  -0.930  1.00  0.00     0.175 C 
BRANCH  18  19
HETATM   19  C19 UNL     1       6.827   0.784  -0.191  1.00  0.00     0.009 C 
HETATM   20  C20 UNL     1       7.628   1.960  -0.742  1.00  0.00     0.007 C 
HETATM   21  C21 UNL     1       8.846   2.205   0.129  1.00  0.00     0.000 C 
HETATM   22  C22 UNL     1       9.159   0.929   0.893  1.00  0.00     0.000 C 
HETATM   23  C23 UNL     1       8.047   0.658   1.914  1.00  0.00     0.000 C 
HETATM   24  C24 UNL     1       6.698   0.973   1.287  1.00  0.00     0.007 C 
ENDBRANCH  18  19
ENDBRANCH  17  18
ENDBRANCH  14  17
BRANCH  15  25
HETATM   25  O11 UNL     1       4.116  -2.634  -1.360  1.00  0.00    -0.388 OA
ATOM     26  H11 UNL     1       3.996  -3.439  -1.850  1.00  0.00     0.210 HD
ENDBRANCH  15  25
BRANCH  16  27
HETATM   27  O12 UNL     1       1.754  -3.266  -1.418  1.00  0.00    -0.390 OA
ATOM     28  H12 UNL     1       2.056  -3.868  -2.088  1.00  0.00     0.210 HD
ENDBRANCH  16  27
ENDBRANCH   9  12
ENDBRANCH   8   9
ENDBRANCH   7   8
ENDBRANCH   1   7
BRANCH   2  29
HETATM   29  O3  UNL     1      -0.910  -0.821   2.208  1.00  0.00    -0.390 OA
ATOM     30  H3  UNL     1      -0.586  -1.228   3.003  1.00  0.00     0.210 HD
ENDBRANCH   2  29
BRANCH   6  31
HETATM   31  O6  UNL     1      -4.222  -0.277   1.078  1.00  0.00    -0.351 OA
BRANCH  31  32
HETATM   32  C10 UNL     1      -4.898   0.820   0.636  1.00  0.00     0.261 C 
HETATM   33  C11 UNL     1      -4.282   2.129   1.095  1.00  0.00     0.063 C 
HETATM   34  C12 UNL     1      -5.345   3.206   1.230  1.00  0.00     0.039 C 
HETATM   35  C13 UNL     1      -6.516   2.916   0.293  1.00  0.00     0.147 C 
HETATM   36  C14 UNL     1      -7.109   1.557   0.573  1.00  0.00     0.149 C 
HETATM   37  C15 UNL     1      -7.727   0.918  -0.647  1.00  0.00     0.042 C 
HETATM   38  O8  UNL     1      -6.174   0.777   1.197  1.00  0.00    -0.354 OA
BRANCH  35  39
HETATM   39  O7  UNL     1      -7.467   3.908   0.545  1.00  0.00    -0.393 OA
ATOM     40  H7  UNL     1      -8.195   3.728  -0.038  1.00  0.00     0.210 HD
ENDBRANCH  35  39
ENDBRANCH  31  32
ENDBRANCH   6  31
BRANCH   3  41
HETATM   41  O4  UNL     1      -2.132  -3.054   3.348  1.00  0.00    -0.391 OA
ATOM     42  H4  UNL     1      -2.801  -3.372   3.943  1.00  0.00     0.210 HD
ENDBRANCH   3  41
BRANCH   5  43
HETATM   43  O5  UNL     1      -5.454  -2.861  -0.020  1.00  0.00    -0.391 OA
ATOM     44  H5  UNL     1      -5.652  -2.556  -0.898  1.00  0.00     0.210 HD
ENDBRANCH   5  43
BRANCH   4  45
HETATM   45  N1  UNL     1      -5.015  -3.044   2.576  1.00  0.00    -0.070 N 
ATOM     46  H13 UNL     1      -4.829  -3.335   3.536  1.00  0.00     0.274 HD
ATOM     47  H12 UNL     1      -5.340  -2.099   2.783  1.00  0.00     0.274 HD
ATOM     48  H11 UNL     1      -5.724  -3.616   2.118  1.00  0.00     0.274 HD
ENDBRANCH   4  45
TORSDOF 17
