REMARK  17 active torsions:
REMARK  status: ('A' for Active; 'I' for Inactive)
REMARK    1  A    between atoms: C1_4  and  O1_5 
REMARK    2  A    between atoms: C1_4  and  C2_7 
REMARK    3  A    between atoms: C2_7  and  N2_8 
REMARK    4  A    between atoms: C2_7  and  C10_20 
REMARK    5  A    between atoms: N2_8  and  C3_9 
REMARK    6  A    between atoms: C3_9  and  O2_10 
REMARK    7  A    between atoms: C3_9  and  C4_12 
REMARK    8  A    between atoms: C7_15  and  O3_16 
REMARK    9  A    between atoms: C10_20  and  O4_21 
REMARK   10  A    between atoms: C10_20  and  C11_23 
REMARK   11  A    between atoms: C11_23  and  O5_24 
REMARK   12  A    between atoms: C11_23  and  C12_26 
REMARK   13  A    between atoms: C12_26  and  O6_27 
REMARK   14  A    between atoms: C12_26  and  C13_29 
REMARK   15  A    between atoms: C13_29  and  N3_30 
REMARK   16  A    between atoms: C14_31  and  C15_32 
REMARK   17  A    between atoms: C15_32  and  N4_33 
ROOT
HETATM    1  C12 UNL     1       0.171  -1.096  -0.612  1.00  0.00     0.168 C 
ENDROOT
BRANCH   1   2
HETATM    2  C11 UNL     1       1.661  -1.228  -0.322  1.00  0.00     0.184 C 
BRANCH   2   3
HETATM    3  C10 UNL     1       2.471  -1.638  -1.522  1.00  0.00     0.218 C 
BRANCH   3   4
HETATM    4  C2  UNL     1       3.901  -1.946  -1.084  1.00  0.00     0.168 C 
BRANCH   4   5
HETATM    5  C1  UNL     1       3.934  -3.328  -0.481  1.00  0.00     0.174 C 
HETATM    6  N1  UNL     1       3.744  -4.342  -1.237  1.00  0.00    -0.378 N 
ATOM      7  H12 UNL     1       3.766  -5.277  -0.829  1.00  0.00     0.158 HD
ATOM      8  H11 UNL     1       3.576  -4.174  -2.229  1.00  0.00     0.158 HD
BRANCH   5   9
HETATM    9  O1  UNL     1       4.165  -3.558   0.881  1.00  0.00    -0.344 OA
ATOM     10  H1  UNL     1       4.306  -2.805   1.443  1.00  0.00     0.219 HD
ENDBRANCH   5   9
ENDBRANCH   4   5
BRANCH   4  11
HETATM   11  N2  UNL     1       4.612  -0.936  -0.488  1.00  0.00    -0.377 NA
BRANCH  11  12
HETATM   12  C3  UNL     1       5.314   0.061   0.099  1.00  0.00     0.225 C 
BRANCH  12  13
HETATM   13  O2  UNL     1       5.997  -0.053   1.215  1.00  0.00    -0.335 OA
ATOM     14  H2  UNL     1       6.490   0.647   1.627  1.00  0.00     0.220 HD
ENDBRANCH  12  13
BRANCH  12  15
HETATM   15  C4  UNL     1       5.424   1.436  -0.434  1.00  0.00     0.029 A 
HETATM   16  C5  UNL     1       6.572   2.144  -0.165  1.00  0.00     0.020 A 
HETATM   17  C6  UNL     1       6.747   3.427  -0.645  1.00  0.00     0.037 A 
HETATM   18  C7  UNL     1       5.777   4.041  -1.409  1.00  0.00     0.065 A 
HETATM   19  C8  UNL     1       4.623   3.304  -1.668  1.00  0.00     0.037 A 
HETATM   20  C9  UNL     1       4.443   2.011  -1.187  1.00  0.00     0.020 A 
BRANCH  18  21
HETATM   21  O3  UNL     1       5.960   5.348  -1.896  1.00  0.00    -0.361 OA
ATOM     22  H3  UNL     1       5.292   5.771  -2.422  1.00  0.00     0.217 HD
ENDBRANCH  18  21
ENDBRANCH  12  15
ENDBRANCH  11  12
ENDBRANCH   4  11
ENDBRANCH   3   4
BRANCH   3  23
HETATM   23  O4  UNL     1       1.998  -2.826  -2.085  1.00  0.00    -0.386 OA
ATOM     24  H4  UNL     1       1.108  -2.634  -2.358  1.00  0.00     0.210 HD
ENDBRANCH   3  23
ENDBRANCH   2   3
BRANCH   2  25
HETATM   25  O5  UNL     1       1.732  -2.201   0.683  1.00  0.00    -0.390 OA
ATOM     26  H5  UNL     1       1.221  -1.942   1.441  1.00  0.00     0.210 HD
ENDBRANCH   2  25
ENDBRANCH   1   2
BRANCH   1  27
HETATM   27  O6  UNL     1       0.046  -0.079  -1.580  1.00  0.00    -0.391 OA
ATOM     28  H6  UNL     1      -0.883   0.003  -1.761  1.00  0.00     0.210 HD
ENDBRANCH   1  27
BRANCH   1  29
HETATM   29  C13 UNL     1      -0.472  -0.768   0.686  1.00  0.00     0.168 C 
BRANCH  29  30
HETATM   30  N3  UNL     1      -1.884  -0.602   0.725  1.00  0.00    -0.299 N 
HETATM   31  C14 UNL     1      -2.752  -1.622   0.999  1.00  0.00     0.111 A 
HETATM   32  N5  UNL     1      -4.077  -1.409   1.052  1.00  0.00    -0.340 N 
HETATM   33  C16 UNL     1      -4.670  -0.227   0.852  1.00  0.00     0.105 A 
ATOM     34  H5  UNL     1      -4.676  -2.208   1.260  1.00  0.00     0.167 HD
HETATM   35  C17 UNL     1      -3.815   0.834   0.572  1.00  0.00     0.114 A 
HETATM   36  C26 UNL     1      -6.127  -0.070   0.949  1.00  0.00     0.210 A 
HETATM   37  C18 UNL     1      -2.461   0.615   0.516  1.00  0.00     0.265 A 
HETATM   38  C19 UNL     1      -4.437   2.137   0.372  1.00  0.00     0.201 A 
HETATM   39  O9  UNL     1      -1.684   1.584   0.259  1.00  0.00    -0.267 OA
HETATM   40  O10 UNL     1      -3.645   3.102   0.116  1.00  0.00    -0.286 OA
HETATM   41  C20 UNL     1      -5.886   2.300   0.468  1.00  0.00     0.029 A 
HETATM   42  C21 UNL     1      -6.447   3.549   0.285  1.00  0.00     0.016 A 
HETATM   43  C25 UNL     1      -6.732   1.253   0.746  1.00  0.00     0.030 A 
HETATM   44  C22 UNL     1      -7.830   3.725   0.383  1.00  0.00     0.001 A 
HETATM   45  C23 UNL     1      -8.688   2.676   0.661  1.00  0.00     0.001 A 
HETATM   46  C24 UNL     1      -8.103   1.445   0.839  1.00  0.00     0.016 A 
HETATM   47  O11 UNL     1      -6.880  -1.042   1.204  1.00  0.00    -0.285 OA
BRANCH  31  48
HETATM   48  C15 UNL     1      -2.156  -2.944   1.266  1.00  0.00     0.277 C 
BRANCH  48  49
HETATM   49  N4  UNL     1      -3.129  -3.983   1.172  1.00  0.00    -0.148 N 
HETATM   50  O7  UNL     1      -4.302  -3.758   0.877  1.00  0.00    -0.536 OA
HETATM   51  O8  UNL     1      -2.809  -5.322   1.402  1.00  0.00    -0.536 OA
ENDBRANCH  48  49
ENDBRANCH  31  48
ENDBRANCH  29  30
ENDBRANCH   1  29
TORSDOF 17
