REMARK  8 active torsions:
REMARK  status: ('A' for Active; 'I' for Inactive)
REMARK    1  A    between atoms: N1_2  and  O1_4 
REMARK    2  A    between atoms: O1_4  and  C3_5 
REMARK    3  A    between atoms: C3_5  and  C4_6 
REMARK    4  A    between atoms: C3_5  and  C5_11 
REMARK    5  A    between atoms: C4_6  and  N2_7 
REMARK    6  A    between atoms: C5_11  and  N3_12 
REMARK    7  A    between atoms: N3_12  and  C6_14 
REMARK    8  A    between atoms: C6_14  and  N4_16 
ROOT
HETATM    1  C5  UNL     1      -1.093   0.915   0.469  1.00  0.00     0.158 C 
ENDROOT
BRANCH   1   2
HETATM    2  C3  UNL     1      -2.133  -0.174   0.329  1.00  0.00     0.195 C 
BRANCH   2   3
HETATM    3  O1  UNL     1      -3.347   0.367   0.744  1.00  0.00    -0.275 OA
BRANCH   3   4
HETATM    4  N1  UNL     1      -4.289   0.386  -0.158  1.00  0.00    -0.302 N 
HETATM    5  C1  UNL     1      -5.018  -0.790  -0.410  1.00  0.00     0.178 C 
HETATM    6  C2  UNL     1      -4.909   1.618  -0.449  1.00  0.00     0.178 C 
ENDBRANCH   3   4
ENDBRANCH   2   3
BRANCH   2   7
HETATM    7  C4  UNL     1      -1.698  -1.288   1.292  1.00  0.00     0.265 C 
BRANCH   7   8
HETATM    8  N2  UNL     1      -2.691  -2.342   1.330  1.00  0.00    -0.077 N 
ATOM      9  H23 UNL     1      -3.617  -1.982   1.560  1.00  0.00     0.274 HD
ATOM     10  H22 UNL     1      -2.895  -2.704   0.399  1.00  0.00     0.274 HD
ATOM     11  H21 UNL     1      -2.402  -3.082   1.970  1.00  0.00     0.274 HD
ENDBRANCH   7   8
ENDBRANCH   2   7
ENDBRANCH   1   2
BRANCH   1  12
HETATM   12  N3  UNL     1       0.176   0.411   0.039  1.00  0.00    -0.365 N 
ATOM     13  H3  UNL     1       0.233  -0.550  -0.298  1.00  0.00     0.162 HD
BRANCH  12  14
HETATM   14  C6  UNL     1       1.364   1.200   0.064  1.00  0.00     0.169 C 
HETATM   15  S1  UNL     1       1.206   2.731   0.615  1.00  0.00    -0.041 SA
BRANCH  14  16
HETATM   16  N4  UNL     1       2.621   0.686  -0.367  1.00  0.00    -0.358 N 
HETATM   17  C7  UNL     1       3.759   1.547  -0.308  1.00  0.00     0.125 C 
HETATM   18  C8  UNL     1       5.060   0.858  -0.047  1.00  0.00     0.020 C 
HETATM   19  C9  UNL     1       5.051  -0.605  -0.398  1.00  0.00     0.003 C 
HETATM   20  C10 UNL     1       4.018  -0.932  -1.455  1.00  0.00     0.020 C 
HETATM   21  C11 UNL     1       2.661  -0.684  -0.839  1.00  0.00     0.125 C 
ENDBRANCH  14  16
ENDBRANCH  12  14
ENDBRANCH   1  12
TORSDOF 8
