REMARK  7 active torsions:
REMARK  status: ('A' for Active; 'I' for Inactive)
REMARK    1  A    between atoms: O1_2  and  C2_3 
REMARK    2  A    between atoms: C3_4  and  O2_5 
REMARK    3  A    between atoms: C4_7  and  O3_8 
REMARK    4  A    between atoms: C9_14  and  C10_15 
REMARK    5  A    between atoms: C19_26  and  O6_27 
REMARK    6  A    between atoms: O6_27  and  C20_28 
REMARK    7  A    between atoms: C20_28  and  C21_29 
ROOT
HETATM    1  C2  UNL     1      -3.209  -1.344   0.250  1.00  0.00     0.138 A 
HETATM    2  C3  UNL     1      -3.116  -2.699  -0.088  1.00  0.00     0.136 A 
HETATM    3  C4  UNL     1      -1.919  -3.298  -0.413  1.00  0.00     0.115 A 
HETATM    4  C6  UNL     1      -0.765  -2.525  -0.404  1.00  0.00     0.015 A 
HETATM    5  C7  UNL     1       0.422  -3.129  -0.726  1.00  0.00     0.040 A 
HETATM    6  C8  UNL     1       1.576  -2.376  -0.721  1.00  0.00     0.048 A 
HETATM    7 CL1  UNL     1       3.045  -3.275  -1.076  1.00  0.00    -0.083 Cl
HETATM    8  C9  UNL     1       1.588  -1.057  -0.410  1.00  0.00     0.021 A 
HETATM    9  C17 UNL     1       0.341  -0.478  -0.083  1.00  0.00     0.031 A 
HETATM   10  C18 UNL     1      -0.830  -1.179  -0.072  1.00  0.00     0.014 A 
HETATM   11  C19 UNL     1      -2.050  -0.578   0.256  1.00  0.00     0.116 A 
ENDROOT
BRANCH  11  12
HETATM   12  O6  UNL     1      -2.062   0.758   0.577  1.00  0.00    -0.340 OA
BRANCH  12  13
HETATM   13  C20 UNL     1      -2.222   1.837  -0.286  1.00  0.00     0.255 C 
BRANCH  13  14
HETATM   14  C21 UNL     1      -2.176   3.145   0.453  1.00  0.00     0.134 A 
HETATM   15  N1  UNL     1      -2.294   4.385  -0.047  1.00  0.00    -0.273 N 
HETATM   16  N2  UNL     1      -2.202   5.272   0.907  1.00  0.00    -0.225 N 
ATOM     17  H1  UNL     1      -2.436   4.604  -1.033  1.00  0.00     0.189 HD
HETATM   18  N3  UNL     1      -2.021   4.619   2.042  1.00  0.00    -0.005 NA
ATOM     19  H2  UNL     1      -2.259   6.284   0.796  1.00  0.00     0.205 HD
HETATM   20  N4  UNL     1      -2.004   3.317   1.776  1.00  0.00    -0.269 N 
ATOM     21  H4  UNL     1      -1.881   2.572   2.461  1.00  0.00     0.185 HD
ENDBRANCH  13  14
ENDBRANCH  12  13
ENDBRANCH  11  12
BRANCH   1  22
HETATM   22  O1  UNL     1      -4.437  -0.828   0.561  1.00  0.00    -0.351 OA
HETATM   23  C1  UNL     1      -5.379  -0.277  -0.303  1.00  0.00     0.210 C 
ENDBRANCH   1  22
BRANCH   2  24
HETATM   24  O2  UNL     1      -4.249  -3.512  -0.109  1.00  0.00    -0.356 OA
ATOM     25  H2  UNL     1      -4.186  -4.432  -0.338  1.00  0.00     0.218 HD
ENDBRANCH   2  24
BRANCH   3  26
HETATM   26  O3  UNL     1      -1.867  -4.633  -0.739  1.00  0.00    -0.352 OA
HETATM   27  C5  UNL     1      -1.670  -5.674   0.172  1.00  0.00     0.210 C 
ENDBRANCH   3  26
BRANCH   8  28
HETATM   28  C10 UNL     1       2.747  -0.157  -0.444  1.00  0.00     0.091 A 
HETATM   29  C11 UNL     1       3.934  -0.394  -1.047  1.00  0.00     0.093 A 
HETATM   30  C12 UNL     1       4.993   0.546  -1.025  1.00  0.00     0.182 A 
HETATM   31  O4  UNL     1       6.085   0.307  -1.588  1.00  0.00    -0.288 OA
HETATM   32  C13 UNL     1       4.807   1.740  -0.370  1.00  0.00     0.018 A 
HETATM   33  C14 UNL     1       5.822   2.800  -0.272  1.00  0.00     0.055 C 
HETATM   34  C15 UNL     1       3.577   1.921   0.221  1.00  0.00     0.059 A 
HETATM   35  C16 UNL     1       3.321   3.182   0.936  1.00  0.00     0.077 C 
HETATM   36  O5  UNL     1       2.640   1.024   0.171  1.00  0.00    -0.314 OA
ENDBRANCH   8  28
TORSDOF 7
