REMARK  8 active torsions:
REMARK  status: ('A' for Active; 'I' for Inactive)
REMARK    1  A    between atoms: O1_3  and  C2_4 
REMARK    2  A    between atoms: C3_6  and  C4_7 
REMARK    3  A    between atoms: C5_12  and  S2_13 
REMARK    4  A    between atoms: S2_13  and  C6_14 
REMARK    5  A    between atoms: C6_14  and  C7_15 
REMARK       I    between atoms: C7_15  and  N4_17 
REMARK    6  A    between atoms: N4_17  and  C8_19 
REMARK    7  A    between atoms: C8_19  and  N5_21 
REMARK    8  A    between atoms: N5_21  and  C9_23 
ROOT
HETATM    1  N1  UNL     1      11.838  -1.162   0.679  1.00  0.00    -0.164 NA
HETATM    2  C1  UNL     1      11.163  -1.271  -0.257  1.00  0.00     0.234 C 
HETATM    3  O1  UNL     1      10.343  -1.394  -1.356  1.00  0.00    -0.231 OA
ENDROOT
BRANCH   3   4
HETATM    4  C2  UNL     1       8.974  -1.131  -1.126  1.00  0.00     0.152 A 
HETATM    5  S1  UNL     1       7.714  -2.230  -0.784  1.00  0.00    -0.058 SA
HETATM    6  C3  UNL     1       6.419  -1.133  -0.649  1.00  0.00     0.062 A 
HETATM    7  C15 UNL     1       7.017   0.077  -0.878  1.00  0.00     0.050 A 
HETATM    8  C16 UNL     1       8.332   0.079  -1.124  1.00  0.00     0.077 A 
HETATM    9 CL1  UNL     1       9.269   1.568  -1.444  1.00  0.00    -0.081 Cl
BRANCH   6  10
HETATM   10  C4  UNL     1       5.001  -1.414  -0.357  1.00  0.00     0.182 A 
HETATM   11  N2  UNL     1       4.534  -2.656  -0.149  1.00  0.00    -0.276 N 
HETATM   12  N3  UNL     1       3.251  -2.526   0.077  1.00  0.00    -0.272 N 
ATOM     13  H2  UNL     1       5.070  -3.524  -0.164  1.00  0.00     0.189 HD
HETATM   14  C5  UNL     1       2.905  -1.237   0.016  1.00  0.00     0.204 A 
ATOM     15  H3  UNL     1       2.610  -3.295   0.271  1.00  0.00     0.189 HD
HETATM   16  O3  UNL     1       4.014  -0.579  -0.255  1.00  0.00    -0.267 OA
BRANCH  14  17
HETATM   17  S2  UNL     1       1.263  -0.626   0.263  1.00  0.00    -0.075 SA
BRANCH  17  18
HETATM   18  C6  UNL     1       1.225   1.178   0.095  1.00  0.00     0.186 C 
BRANCH  18  19
HETATM   19  C7  UNL     1      -0.135   1.720   0.293  1.00  0.00     0.233 C 
HETATM   20  O2  UNL     1      -0.307   2.958   0.205  1.00  0.00    -0.272 OA
HETATM   21  N4  UNL     1      -1.250   0.897   0.577  1.00  0.00    -0.303 N 
ATOM     22  H4  UNL     1      -1.087  -0.108   0.643  1.00  0.00     0.171 HD
BRANCH  21  23
HETATM   23  C8  UNL     1      -2.575   1.356   0.777  1.00  0.00     0.174 C 
HETATM   24  S3  UNL     1      -2.832   2.964   0.670  1.00  0.00    -0.041 SA
BRANCH  23  25
HETATM   25  N5  UNL     1      -3.623   0.436   1.060  1.00  0.00    -0.362 N 
ATOM     26  H5  UNL     1      -3.387  -0.555   1.114  1.00  0.00     0.162 HD
BRANCH  25  27
HETATM   27  C9  UNL     1      -4.983   0.811   1.273  1.00  0.00     0.083 C 
HETATM   28  C10 UNL     1      -5.810  -0.426   1.563  1.00  0.00     0.025 C 
HETATM   29  C11 UNL     1      -5.818  -1.355   0.369  1.00  0.00     0.002 C 
HETATM   30  C12 UNL     1      -6.262  -0.675  -0.897  1.00  0.00     0.000 C 
HETATM   31  C13 UNL     1      -5.409   0.581  -1.117  1.00  0.00     0.002 C 
HETATM   32  C14 UNL     1      -5.637   1.463   0.073  1.00  0.00     0.025 C 
ENDBRANCH  25  27
ENDBRANCH  23  25
ENDBRANCH  21  23
ENDBRANCH  18  19
ENDBRANCH  17  18
ENDBRANCH  14  17
ENDBRANCH   6  10
ENDBRANCH   3   4
TORSDOF 8
