REMARK  11 active torsions:
REMARK  status: ('A' for Active; 'I' for Inactive)
REMARK    1  A    between atoms: C2_2  and  O1_3 
REMARK    2  A    between atoms: O1_3  and  N1_4 
REMARK    3  A    between atoms: N1_4  and  C3_6 
REMARK    4  A    between atoms: C3_6  and  O2_7 
REMARK    5  A    between atoms: C3_6  and  C4_9 
REMARK    6  A    between atoms: C7_13  and  C8_14 
REMARK    7  A    between atoms: C11_17  and  O4_18 
REMARK    8  A    between atoms: C13_21  and  O5_22 
REMARK    9  A    between atoms: C18_30  and  C19_31 
REMARK   10  A    between atoms: C19_31  and  O9_33 
REMARK   11  A    between atoms: O9_33  and  C20_34 
ROOT
HETATM    1  C4  UNL     1      -2.161  -1.086   0.863  1.00  0.00     0.065 A 
HETATM    2  C5  UNL     1      -1.409  -1.162   2.058  1.00  0.00     0.065 A 
HETATM    3  C6  UNL     1      -1.908  -1.401   3.481  1.00  0.00     0.077 C 
HETATM    4  O3  UNL     1      -0.208  -1.023   1.820  1.00  0.00    -0.312 OA
HETATM    5  C7  UNL     1       0.032  -0.832   0.448  1.00  0.00     0.109 A 
HETATM    6  C18 UNL     1      -1.159  -0.867  -0.098  1.00  0.00     0.091 A 
ENDROOT
BRANCH   5   7
HETATM    7  C8  UNL     1       1.453  -0.704   0.120  1.00  0.00     0.075 A 
HETATM    8  C9  UNL     1       2.155   0.294  -0.475  1.00  0.00     0.037 A 
HETATM    9  C10 UNL     1       3.543   0.233  -0.470  1.00  0.00     0.034 A 
HETATM   10  C11 UNL     1       4.341   1.220  -1.009  1.00  0.00     0.081 A 
HETATM   11  C16 UNL     1       4.208  -0.856   0.138  1.00  0.00     0.117 A 
HETATM   12  C12 UNL     1       5.755   1.129  -0.948  1.00  0.00     0.076 A 
HETATM   13  C13 UNL     1       6.391   0.094  -0.373  1.00  0.00     0.095 A 
HETATM   14  C15 UNL     1       5.534  -0.944   0.182  1.00  0.00     0.102 A 
HETATM   15 CL1  UNL     1       6.329  -2.380   0.858  1.00  0.00    -0.078 Cl
HETATM   16  O6  UNL     1       3.496  -1.796   0.686  1.00  0.00    -0.272 OA
HETATM   17  C17 UNL     1       2.231  -1.737   0.683  1.00  0.00     0.301 A 
HETATM   18  O7  UNL     1       1.578  -2.700   1.221  1.00  0.00    -0.259 OA
BRANCH  10  19
HETATM   19  O4  UNL     1       3.747   2.336  -1.625  1.00  0.00    -0.360 OA
ATOM     20  H4  UNL     1       4.297   3.016  -1.996  1.00  0.00     0.217 HD
ENDBRANCH  10  19
BRANCH  13  21
HETATM   21  O5  UNL     1       7.654  -0.149  -0.200  1.00  0.00    -0.354 OA
HETATM   22  C14 UNL     1       8.946   0.012  -0.250  1.00  0.00     0.210 C 
ENDBRANCH  13  21
ENDBRANCH   5   7
BRANCH   6  23
HETATM   23  C19 UNL     1      -1.611  -0.622  -1.480  1.00  0.00     0.297 C 
HETATM   24  O8  UNL     1      -1.687  -1.420  -2.412  1.00  0.00    -0.259 OA
BRANCH  23  25
HETATM   25  O9  UNL     1      -2.041   0.676  -1.752  1.00  0.00    -0.318 OA
BRANCH  25  26
HETATM   26  C20 UNL     1      -2.559   1.305  -2.813  1.00  0.00     0.174 C 
HETATM   27  C21 UNL     1      -2.943   2.738  -2.326  1.00  0.00     0.034 C 
ENDBRANCH  25  26
ENDBRANCH  23  25
ENDBRANCH   6  23
BRANCH   1  28
HETATM   28  C3  UNL     1      -3.562  -1.165   0.732  1.00  0.00     0.174 C 
BRANCH  28  29
HETATM   29  N1  UNL     1      -4.474  -1.388  -0.363  1.00  0.00    -0.244 N 
ATOM     30  H1  UNL     1      -4.208  -1.604  -1.324  1.00  0.00     0.196 HD
BRANCH  29  31
HETATM   31  O1  UNL     1      -5.720  -1.266   0.088  1.00  0.00    -0.279 OA
BRANCH  31  32
HETATM   32  C2  UNL     1      -6.318  -0.342  -0.795  1.00  0.00     0.197 C 
HETATM   33  C1  UNL     1      -6.666   0.845   0.151  1.00  0.00     0.036 C 
ENDBRANCH  31  32
ENDBRANCH  29  31
ENDBRANCH  28  29
BRANCH  28  34
HETATM   34  O2  UNL     1      -4.296  -0.990   1.864  1.00  0.00    -0.344 OA
ATOM     35  H2  UNL     1      -3.695  -0.843   2.585  1.00  0.00     0.219 HD
ENDBRANCH  28  34
ENDBRANCH   1  28
TORSDOF 11
