REMARK  9 active torsions:
REMARK  status: ('A' for Active; 'I' for Inactive)
REMARK    1  A    between atoms: S1_2  and  C2_3 
REMARK    2  A    between atoms: C2_3  and  C3_4 
REMARK    3  A    between atoms: C3_4  and  S2_5 
REMARK    4  A    between atoms: S2_5  and  C4_6 
REMARK    5  A    between atoms: C4_6  and  N1_8 
REMARK    6  A    between atoms: N3_16  and  N4_18 
REMARK    7  A    between atoms: N4_18  and  C9_20 
REMARK    8  A    between atoms: C11_27  and  C12_28 
REMARK    9  A    between atoms: C12_28  and  C13_29 
ROOT
HETATM    1  C9  UNL     1       1.922   0.058  -0.850  1.00  0.00     0.145 A 
HETATM    2  N5  UNL     1       1.926  -0.547  -2.036  1.00  0.00    -0.316 N 
ATOM      3  H5  UNL     1       1.110  -0.445  -2.640  1.00  0.00     0.170 HD
HETATM    4  C10 UNL     1       2.967  -1.291  -2.473  1.00  0.00     0.180 A 
HETATM    5 CL1  UNL     1       2.924  -2.070  -4.052  1.00  0.00    -0.045 Cl
HETATM    6  N6  UNL     1       4.031  -1.417  -1.670  1.00  0.00    -0.335 N 
ATOM      7  H6  UNL     1       4.826  -1.974  -1.983  1.00  0.00     0.168 HD
HETATM    8  C11 UNL     1       4.080  -0.820  -0.445  1.00  0.00     0.036 A 
HETATM    9  C17 UNL     1       3.026  -0.069  -0.006  1.00  0.00     0.112 A 
HETATM   10  C18 UNL     1       3.051   0.546   1.278  1.00  0.00     0.105 C 
HETATM   11  N7  UNL     1       3.045   1.050   2.338  1.00  0.00    -0.191 NA
ENDROOT
BRANCH   1  12
HETATM   12  N4  UNL     1       0.824   0.857  -0.352  1.00  0.00    -0.283 N 
ATOM     13  H4  UNL     1       0.650   1.776  -0.758  1.00  0.00     0.188 HD
BRANCH  12  14
HETATM   14  N3  UNL     1       0.009   0.401   0.659  1.00  0.00    -0.296 N 
HETATM   15  C2  UNL     1      -1.130   0.858   0.964  1.00  0.00     0.071 C 
ATOM     16  H3  UNL     1       0.357  -0.380   1.215  1.00  0.00     0.187 HD
BRANCH  15  17
HETATM   17  S1  UNL     1      -2.018   0.109   2.326  1.00  0.00    -0.119 SA
HETATM   18  C1  UNL     1      -1.004  -1.238   2.985  1.00  0.00     0.097 C 
ENDBRANCH  15  17
BRANCH  15  19
HETATM   19  C3  UNL     1      -1.693   2.000   0.201  1.00  0.00     0.147 C 
BRANCH  19  20
HETATM   20  S2  UNL     1      -3.486   1.902   0.065  1.00  0.00    -0.094 SA
BRANCH  20  21
HETATM   21  C4  UNL     1      -4.080   0.517  -0.850  1.00  0.00     0.137 C 
HETATM   22  S3  UNL     1      -3.076  -0.572  -1.529  1.00  0.00    -0.053 SA
BRANCH  21  23
HETATM   23  N1  UNL     1      -5.463   0.334  -1.012  1.00  0.00    -0.363 N 
HETATM   24  C5  UNL     1      -6.021  -0.778  -1.743  1.00  0.00     0.152 C 
HETATM   25  C6  UNL     1      -7.481  -0.899  -1.274  1.00  0.00     0.252 C 
HETATM   26  N2  UNL     1      -7.586  -0.760   0.162  1.00  0.00    -0.072 N 
HETATM   27  C7  UNL     1      -7.147   0.514   0.652  1.00  0.00     0.252 C 
ATOM     28  H22 UNL     1      -8.537  -0.957   0.474  1.00  0.00     0.277 HD
ATOM     29  H21 UNL     1      -7.091  -1.517   0.634  1.00  0.00     0.277 HD
HETATM   30  C8  UNL     1      -6.381   1.282  -0.432  1.00  0.00     0.152 C 
ENDBRANCH  21  23
ENDBRANCH  20  21
ENDBRANCH  19  20
ENDBRANCH  15  19
ENDBRANCH  12  14
ENDBRANCH   1  12
BRANCH   8  31
HETATM   31  C12 UNL     1       5.268  -0.977   0.415  1.00  0.00     0.063 C 
BRANCH  31  32
HETATM   32  C13 UNL     1       6.105   0.254   0.358  1.00  0.00    -0.009 C 
HETATM   33  C14 UNL     1       6.626   0.611  -1.016  1.00  0.00     0.005 C 
HETATM   34  C15 UNL     1       7.843  -0.251  -0.700  1.00  0.00     0.001 C 
HETATM   35  C16 UNL     1       7.553  -0.006   0.758  1.00  0.00     0.005 C 
ENDBRANCH  31  32
ENDBRANCH   8  31
TORSDOF 9
