REMARK  6 active torsions:
REMARK  status: ('A' for Active; 'I' for Inactive)
REMARK    1  A    between atoms: O1_2  and  C2_3 
REMARK    2  A    between atoms: C4_5  and  C5_6 
REMARK    3  A    between atoms: N3_13  and  N4_14 
REMARK    4  A    between atoms: C7_16  and  C8_17 
REMARK    5  A    between atoms: C13_24  and  O2_25 
REMARK    6  A    between atoms: C15_27  and  O3_28 
ROOT
HETATM    1  C5  UNL     1       0.879  -1.782  -0.075  1.00  0.00     0.155 A 
HETATM    2  N1  UNL     1       1.509  -2.743  -0.826  1.00  0.00    -0.281 N 
ATOM      3  H1  UNL     1       1.298  -2.951  -1.802  1.00  0.00     0.188 HD
HETATM    4  N2  UNL     1       2.419  -3.354  -0.112  1.00  0.00    -0.273 N 
ATOM      5  H2  UNL     1       3.022  -4.107  -0.443  1.00  0.00     0.189 HD
HETATM    6  C6  UNL     1       2.434  -2.840   1.110  1.00  0.00     0.214 A 
HETATM    7  S1  UNL     1       3.387  -3.249   2.391  1.00  0.00    -0.037 SA
HETATM    8  N3  UNL     1       1.461  -1.851   1.121  1.00  0.00    -0.211 N 
ENDROOT
BRANCH   1   9
HETATM    9  C4  UNL     1      -0.181  -0.933  -0.608  1.00  0.00     0.017 A 
HETATM   10  C3  UNL     1      -0.965  -0.069   0.091  1.00  0.00     0.055 A 
HETATM   11  C2  UNL     1      -1.952   0.743  -0.487  1.00  0.00     0.105 A 
HETATM   12  C15 UNL     1      -2.149   0.669  -1.850  1.00  0.00     0.135 A 
HETATM   13  C13 UNL     1      -1.372  -0.199  -2.604  1.00  0.00     0.105 A 
HETATM   14  C12 UNL     1      -0.415  -0.976  -1.989  1.00  0.00     0.055 A 
BRANCH  11  15
HETATM   15  O1  UNL     1      -2.678   1.574   0.326  1.00  0.00    -0.353 OA
HETATM   16  C1  UNL     1      -2.592   1.755   1.694  1.00  0.00     0.210 C 
ENDBRANCH  11  15
BRANCH  12  17
HETATM   17  O3  UNL     1      -3.124   1.480  -2.378  1.00  0.00    -0.351 OA
HETATM   18  C16 UNL     1      -4.478   1.181  -2.540  1.00  0.00     0.210 C 
ENDBRANCH  12  17
BRANCH  13  19
HETATM   19  O2  UNL     1      -1.624  -0.218  -3.945  1.00  0.00    -0.353 OA
HETATM   20  C14 UNL     1      -1.003  -0.982  -4.925  1.00  0.00     0.210 C 
ENDBRANCH  13  19
ENDBRANCH   1   9
BRANCH   8  21
HETATM   21  N4  UNL     1       1.206  -1.107   2.215  1.00  0.00    -0.300 N 
HETATM   22  C7  UNL     1       1.599  -0.131   2.842  1.00  0.00     0.119 C 
ATOM     23  H4  UNL     1       0.393  -1.497   2.693  1.00  0.00     0.186 HD
BRANCH  22  24
HETATM   24  C8  UNL     1       2.728   0.784   2.576  1.00  0.00    -0.011 A 
HETATM   25  C9  UNL     1       3.480   0.663   1.439  1.00  0.00     0.063 A 
HETATM   26  S2  UNL     1       4.650   1.906   1.608  1.00  0.00    -0.093 SA
HETATM   27  C10 UNL     1       4.156   2.536   3.098  1.00  0.00     0.052 A 
HETATM   28 BR1  UNL     1       4.927   4.000   4.080  1.00  0.00    -0.043 Br
HETATM   29  C11 UNL     1       3.082   1.759   3.437  1.00  0.00     0.040 A 
ENDBRANCH  22  24
ENDBRANCH   8  21
TORSDOF 6
