REMARK  4 active torsions:
REMARK  status: ('A' for Active; 'I' for Inactive)
REMARK    1  A    between atoms: C1_4  and  C2_5 
REMARK    2  A    between atoms: C1_4  and  N2_8 
REMARK    3  A    between atoms: C2_5  and  C3_6 
REMARK    4  A    between atoms: N2_8  and  N3_10 
ROOT
HETATM    1  N3  UNL     1       0.474   0.187  -0.408  1.00  0.00    -0.192 NA
HETATM    2  C4  UNL     1       1.657  -0.688  -0.465  1.00  0.00     0.091 C 
HETATM    3  C5  UNL     1       2.691   0.349  -0.929  1.00  0.00     0.103 C 
HETATM    4  C6  UNL     1       2.268   1.517  -0.113  1.00  0.00     0.169 C 
HETATM    5  O1  UNL     1       2.823   2.577  -0.024  1.00  0.00    -0.294 OA
HETATM    6  C7  UNL     1       1.015   1.131   0.583  1.00  0.00     0.185 C 
HETATM    7 CL2  UNL     1      -0.043   2.420   0.996  1.00  0.00    -0.090 Cl
HETATM    8  C8  UNL     1       1.401   0.205   1.704  1.00  0.00     0.131 C 
HETATM    9 CL3  UNL     1       2.679   0.998   2.644  1.00  0.00    -0.121 Cl
HETATM   10  C9  UNL     1       1.974  -1.004   0.957  1.00  0.00     0.046 C 
ENDROOT
BRANCH   1  11
HETATM   11  N2  UNL     1      -0.657  -0.454   0.002  1.00  0.00    -0.306 N 
ATOM     12  H2  UNL     1      -0.747  -0.666   0.996  1.00  0.00     0.182 HD
BRANCH  11  13
HETATM   13  C1  UNL     1      -1.723  -0.850  -0.856  1.00  0.00     0.086 C 
HETATM   14  N1  UNL     1      -1.731  -2.065  -1.283  1.00  0.00    -0.388 N 
ATOM     15  H12 UNL     1      -2.494  -2.349  -1.897  1.00  0.00     0.157 HD
ATOM     16  H11 UNL     1      -0.991  -2.710  -1.007  1.00  0.00     0.157 HD
BRANCH  13  17
HETATM   17  C2  UNL     1      -2.805   0.093  -1.259  1.00  0.00     0.092 C 
BRANCH  17  18
HETATM   18  C3  UNL     1      -3.559   0.612  -0.047  1.00  0.00     0.122 C 
HETATM   19 CL1  UNL     1      -4.312  -0.706   0.863  1.00  0.00    -0.130 Cl
ENDBRANCH  17  18
ENDBRANCH  13  17
ENDBRANCH  11  13
ENDBRANCH   1  11
TORSDOF 4
