REMARK  3 active torsions:
REMARK  status: ('A' for Active; 'I' for Inactive)
REMARK    1  A    between atoms: C5_8  and  C6_9 
REMARK    2  A    between atoms: N2_11  and  N3_12 
REMARK       I    between atoms: N3_12  and  C7_14 
REMARK    3  A    between atoms: C7_14  and  C8_16 
ROOT
HETATM    1  C1  UNL     1      -1.341  -1.302  -1.843  1.00  0.00     0.036 C 
HETATM    2  C2  UNL     1      -0.824  -1.173  -0.411  1.00  0.00     0.124 C 
HETATM    3  C3  UNL     1      -1.963  -1.301   0.511  1.00  0.00     0.258 C 
HETATM    4  N1  UNL     1      -2.441  -0.096   1.114  1.00  0.00    -0.071 N 
ATOM      5  H11 UNL     1      -2.259  -0.098   2.118  1.00  0.00     0.277 HD
ATOM      6  H12 UNL     1      -3.461  -0.079   1.126  1.00  0.00     0.277 HD
HETATM    7  C4  UNL     1      -1.921   1.094   0.508  1.00  0.00     0.260 C 
HETATM    8  C5  UNL     1      -0.392   0.980   0.602  1.00  0.00     0.142 C 
HETATM    9  N2  UNL     1      -0.008  -0.034  -0.297  1.00  0.00    -0.312 N 
ENDROOT
BRANCH   9  10
HETATM   10  N3  UNL     1       1.314  -0.156  -0.610  1.00  0.00    -0.269 N 
HETATM   11  C7  UNL     1       2.369  -0.403   0.284  1.00  0.00     0.269 C 
HETATM   12  O1  UNL     1       2.145  -0.537   1.523  1.00  0.00    -0.269 OA
ATOM     13  H3  UNL     1       1.562  -0.058  -1.594  1.00  0.00     0.190 HD
BRANCH  11  14
HETATM   14  C8  UNL     1       3.781  -0.519  -0.165  1.00  0.00     0.271 C 
HETATM   15 CL2  UNL     1       4.266   1.012  -0.954  1.00  0.00    -0.098 Cl
HETATM   16 CL3  UNL     1       4.881  -0.827   1.179  1.00  0.00    -0.098 Cl
ENDBRANCH  11  14
ENDBRANCH   9  10
BRANCH   8  17
HETATM   17  C6  UNL     1       0.204   2.326   0.225  1.00  0.00     0.143 C 
HETATM   18 CL1  UNL     1      -0.377   3.593   1.342  1.00  0.00    -0.128 Cl
ENDBRANCH   8  17
TORSDOF 3
