REMARK  4 active torsions:
REMARK  status: ('A' for Active; 'I' for Inactive)
REMARK       I    between atoms: N1_2  and  C3_4 
REMARK    1  A    between atoms: C3_4  and  C4_6 
REMARK    2  A    between atoms: C4_6  and  C5_7 
REMARK    3  A    between atoms: C5_7  and  O2_8 
REMARK    4  A    between atoms: C5_7  and  C6_10 
ROOT
HETATM    1  C6  UNL     1      -0.830   0.156   0.325  1.00  0.00     0.092 C 
HETATM    2  C7  UNL     1      -2.052  -0.402  -0.393  1.00  0.00     0.011 C 
HETATM    3  C8  UNL     1      -2.745   0.539  -1.302  1.00  0.00     0.033 C 
HETATM    4  C9  UNL     1      -4.198   0.646  -0.859  1.00  0.00     0.232 C 
HETATM    5  N2  UNL     1      -4.152   1.271   0.461  1.00  0.00    -0.075 N 
ATOM      6  H21 UNL     1      -5.070   1.611   0.747  1.00  0.00     0.277 HD
ATOM      7  H22 UNL     1      -3.656   2.162   0.437  1.00  0.00     0.277 HD
HETATM    8  C10 UNL     1      -3.595   0.388   1.431  1.00  0.00     0.243 C 
HETATM    9  C11 UNL     1      -2.688  -0.657   0.910  1.00  0.00     0.089 C 
HETATM   10  C12 UNL     1      -1.305  -0.567   1.562  1.00  0.00     0.255 C 
HETATM   11  F1  UNL     1      -0.682  -1.775   1.738  1.00  0.00    -0.205 F 
HETATM   12  F2  UNL     1      -1.292   0.162   2.721  1.00  0.00    -0.205 F 
ENDROOT
BRANCH   1  13
HETATM   13  C5  UNL     1       0.403  -0.399  -0.319  1.00  0.00     0.137 C 
BRANCH  13  14
HETATM   14  C4  UNL     1       1.678   0.075   0.299  1.00  0.00     0.135 C 
BRANCH  14  15
HETATM   15  C3  UNL     1       2.806  -0.555  -0.448  1.00  0.00     0.221 C 
HETATM   16  N1  UNL     1       4.132  -0.266  -0.056  1.00  0.00    -0.361 N 
HETATM   17  C1  UNL     1       5.230  -0.874  -0.776  1.00  0.00     0.152 C 
HETATM   18  C2  UNL     1       4.404   0.630   1.055  1.00  0.00     0.152 C 
HETATM   19  O1  UNL     1       2.622  -1.335  -1.413  1.00  0.00    -0.273 OA
ENDBRANCH  14  15
ENDBRANCH  13  14
BRANCH  13  20
HETATM   20  O2  UNL     1       0.400  -0.005  -1.657  1.00  0.00    -0.395 OA
ATOM     21  H2  UNL     1      -0.411  -0.306  -2.050  1.00  0.00     0.210 HD
ENDBRANCH  13  20
ENDBRANCH   1  13
TORSDOF 4
