REMARK  3 active torsions:
REMARK  status: ('A' for Active; 'I' for Inactive)
REMARK       I    between atoms: C1_4  and  N3_6 
REMARK    1  A    between atoms: C4_9  and  C5_10 
REMARK    2  A    between atoms: C5_10  and  C6_11 
REMARK    3  A    between atoms: C6_11  and  N4_12 
ROOT
HETATM    1  N1  UNL     1       5.313  -0.429  -0.431  1.00  0.00    -0.374 N 
ATOM      2  H11 UNL     1       5.093  -1.323  -0.869  1.00  0.00     0.158 HD
ATOM      3  H12 UNL     1       6.292  -0.172  -0.307  1.00  0.00     0.158 HD
HETATM    4  C1  UNL     1       4.386   0.348  -0.047  1.00  0.00     0.183 C 
HETATM    5  N2  UNL     1       4.689   1.579   0.556  1.00  0.00    -0.064 NA
HETATM    6  N3  UNL     1       3.031  -0.008  -0.218  1.00  0.00    -0.356 N 
HETATM    7  C2  UNL     1       2.349   0.507  -1.384  1.00  0.00     0.126 C 
HETATM    8  C3  UNL     1       0.873   0.616  -0.977  1.00  0.00     0.024 C 
HETATM    9  C4  UNL     1       0.418  -0.816  -0.750  1.00  0.00    -0.010 C 
HETATM   10  C10 UNL     1       1.103  -1.408   0.450  1.00  0.00     0.024 C 
HETATM   11  C11 UNL     1       2.432  -0.850   0.771  1.00  0.00     0.126 C 
ENDROOT
BRANCH   9  12
HETATM   12  C5  UNL     1      -1.067  -0.976  -0.736  1.00  0.00     0.035 C 
BRANCH  12  13
HETATM   13  C6  UNL     1      -1.792  -0.207   0.308  1.00  0.00     0.275 C 
BRANCH  13  14
HETATM   14  N4  UNL     1      -3.201  -0.488   0.171  1.00  0.00     0.113 N 
HETATM   15  C7  UNL     1      -3.777   0.059  -1.012  1.00  0.00     0.301 C 
HETATM   16  C8  UNL     1      -4.751   1.093  -0.467  1.00  0.00     0.200 C 
HETATM   17  O1  UNL     1      -5.149   0.525   0.732  1.00  0.00    -0.361 OA
HETATM   18  C9  UNL     1      -4.018  -0.096   1.268  1.00  0.00     0.440 C 
ENDBRANCH  13  14
ENDBRANCH  12  13
ENDBRANCH   9  12
TORSDOF 3
