REMARK  3 active torsions:
REMARK  status: ('A' for Active; 'I' for Inactive)
REMARK    1  A    between atoms: C2_2  and  C4_4 
REMARK    2  A    between atoms: N1_6  and  C6_7 
REMARK    3  A    between atoms: C6_7  and  C7_8 
ROOT
HETATM    1  C4  UNL     1      -1.840  -0.372   0.066  1.00  0.00     0.116 C 
HETATM    2  C5  UNL     1      -0.365  -0.020  -0.218  1.00  0.00     0.144 C 
HETATM    3  N1  UNL     1       0.523  -0.723   0.608  1.00  0.00    -0.390 N 
HETATM    4  C11 UNL     1       0.067  -1.954   1.167  1.00  0.00     0.139 C 
HETATM    5  C12 UNL     1      -0.606  -2.880   0.217  1.00  0.00     0.150 C 
HETATM    6  N2  UNL     1      -1.065  -2.250  -0.996  1.00  0.00    -0.147 NA
HETATM    7  N3  UNL     1      -2.178  -1.471  -0.782  1.00  0.00    -0.142 NA
ENDROOT
BRANCH   3   8
HETATM    8  C6  UNL     1       1.887  -0.743   0.260  1.00  0.00     0.065 C 
BRANCH   8   9
HETATM    9  C7  UNL     1       2.680   0.503   0.375  1.00  0.00     0.050 C 
HETATM   10  C8  UNL     1       2.210   1.639  -0.464  1.00  0.00     0.038 C 
HETATM   11  C9  UNL     1       3.519   2.320  -0.863  1.00  0.00     0.168 C 
HETATM   12  O1  UNL     1       4.540   1.540  -0.375  1.00  0.00    -0.390 OA
HETATM   13  C10 UNL     1       4.050   0.235  -0.270  1.00  0.00     0.177 C 
ENDBRANCH   8   9
ENDBRANCH   3   8
BRANCH   1  14
HETATM   14  C2  UNL     1      -2.688   0.820  -0.327  1.00  0.00    -0.000 C 
HETATM   15  C1  UNL     1      -2.303   2.065   0.470  1.00  0.00     0.011 C 
HETATM   16  C3  UNL     1      -4.141   0.528  -0.020  1.00  0.00     0.011 C 
ENDBRANCH   1  14
TORSDOF 3
