REMARK  4 active torsions:
REMARK  status: ('A' for Active; 'I' for Inactive)
REMARK    1  A    between atoms: C3_9  and  S1_10 
REMARK    2  A    between atoms: S1_10  and  C4_11 
REMARK    3  A    between atoms: C4_11  and  C5_12 
REMARK    4  A    between atoms: C5_12  and  N3_13 
ROOT
HETATM    1  O1  UNL     1       3.139   2.796   1.067  1.00  0.00    -0.265 OA
HETATM    2  C1  UNL     1       3.348   1.647   0.573  1.00  0.00     0.289 A 
HETATM    3  N1  UNL     1       4.585   1.347   0.123  1.00  0.00    -0.297 N 
ATOM      4  H1  UNL     1       5.344   2.026   0.176  1.00  0.00     0.171 HD
HETATM    5  C2  UNL     1       4.784   0.111  -0.403  1.00  0.00     0.182 A 
HETATM    6 CL1  UNL     1       6.378  -0.353  -1.012  1.00  0.00    -0.045 Cl
HETATM    7  N2  UNL     1       3.787  -0.753  -0.464  1.00  0.00    -0.324 N 
ATOM      8  H2  UNL     1       3.975  -1.671  -0.866  1.00  0.00     0.169 HD
HETATM    9  C3  UNL     1       2.508  -0.492  -0.018  1.00  0.00     0.117 A 
HETATM   10  C9  UNL     1       2.295   0.746   0.514  1.00  0.00     0.217 A 
HETATM   11  F3  UNL     1       1.118   1.134   1.026  1.00  0.00    -0.197 F 
ENDROOT
BRANCH   9  12
HETATM   12  S1  UNL     1       1.317  -1.753  -0.131  1.00  0.00    -0.107 SA
BRANCH  12  13
HETATM   13  C4  UNL     1      -0.360  -1.394   0.314  1.00  0.00     0.101 C 
BRANCH  13  14
HETATM   14  C5  UNL     1      -1.050  -0.570  -0.705  1.00  0.00     0.142 C 
BRANCH  14  15
HETATM   15  N3  UNL     1      -2.438  -0.298  -0.352  1.00  0.00    -0.315 N 
HETATM   16  C6  UNL     1      -3.496  -1.054  -0.711  1.00  0.00     0.187 A 
HETATM   17  N4  UNL     1      -4.624  -0.510  -0.220  1.00  0.00    -0.325 N 
HETATM   18  C7  UNL     1      -4.312   0.603   0.459  1.00  0.00     0.246 A 
ATOM     19  H4  UNL     1      -5.565  -0.884  -0.344  1.00  0.00     0.169 HD
HETATM   20  F1  UNL     1      -5.183   1.430   1.104  1.00  0.00    -0.181 F 
HETATM   21  C8  UNL     1      -2.929   0.714   0.362  1.00  0.00     0.248 A 
HETATM   22  F2  UNL     1      -2.267   1.729   0.939  1.00  0.00    -0.181 F 
ENDBRANCH  14  15
ENDBRANCH  13  14
ENDBRANCH  12  13
ENDBRANCH   9  12
TORSDOF 4
