REMARK  5 active torsions:
REMARK  status: ('A' for Active; 'I' for Inactive)
REMARK    1  A    between atoms: O1_2  and  C2_3 
REMARK    2  A    between atoms: C2_3  and  C3_5 
REMARK    3  A    between atoms: C3_5  and  N1_6 
REMARK    4  A    between atoms: N1_6  and  C4_8 
REMARK    5  A    between atoms: C4_8  and  C5_12 
ROOT
HETATM    1  C4  UNL     1      -1.404  -0.169   0.611  1.00  0.00     0.102 C 
HETATM    2  N2  UNL     1      -1.477   0.318   1.793  1.00  0.00    -0.387 N 
ATOM      3  H21 UNL     1      -2.384   0.679   2.089  1.00  0.00     0.157 HD
ATOM      4  H22 UNL     1      -0.641   0.329   2.377  1.00  0.00     0.157 HD
ENDROOT
BRANCH   1   5
HETATM    5  N1  UNL     1      -0.132  -0.676   0.196  1.00  0.00    -0.369 N 
ATOM      6  H1  UNL     1      -0.054  -1.637  -0.135  1.00  0.00     0.161 HD
BRANCH   5   7
HETATM    7  C3  UNL     1       1.042   0.164   0.243  1.00  0.00     0.232 C 
BRANCH   7   8
HETATM    8  C2  UNL     1       2.251  -0.560  -0.231  1.00  0.00     0.276 C 
HETATM    9  O2  UNL     1       2.267  -1.735  -0.621  1.00  0.00    -0.263 OA
BRANCH   8  10
HETATM   10  O1  UNL     1       3.449   0.143  -0.234  1.00  0.00    -0.325 OA
HETATM   11  C1  UNL     1       4.633  -0.498  -0.675  1.00  0.00     0.213 C 
ENDBRANCH   8  10
ENDBRANCH   7   8
ENDBRANCH   5   7
ENDBRANCH   1   5
BRANCH   1  12
HETATM   12  C5  UNL     1      -2.596  -0.185  -0.222  1.00  0.00     0.170 A 
HETATM   13 CL1  UNL     1      -3.142  -1.843  -0.650  1.00  0.00    -0.104 Cl
HETATM   14  C6  UNL     1      -2.984   0.904  -1.134  1.00  0.00     0.182 A 
HETATM   15 CL2  UNL     1      -3.966   0.427  -2.538  1.00  0.00    -0.095 Cl
HETATM   16 CL3  UNL     1      -1.906   2.277  -1.422  1.00  0.00    -0.095 Cl
HETATM   17  C7  UNL     1      -3.689   0.815   0.174  1.00  0.00     0.182 A 
HETATM   18 CL4  UNL     1      -5.342   0.155   0.234  1.00  0.00    -0.095 Cl
HETATM   19 CL5  UNL     1      -3.335   2.118   1.298  1.00  0.00    -0.095 Cl
ENDBRANCH   1  12
TORSDOF 5
