REMARK  5 active torsions:
REMARK  status: ('A' for Active; 'I' for Inactive)
REMARK    1  A    between atoms: O1_1  and  C1_3 
REMARK    2  A    between atoms: C1_3  and  C2_4 
REMARK    3  A    between atoms: N1_7  and  C5_8 
REMARK    4  A    between atoms: C5_8  and  C6_9 
REMARK    5  A    between atoms: C6_9  and  N2_10 
ROOT
HETATM    1  C5  UNL     1      -0.027  -1.003   0.513  1.00  0.00     0.161 C 
ENDROOT
BRANCH   1   2
HETATM    2  N1  UNL     1      -1.395  -0.672   0.316  1.00  0.00    -0.408 N 
HETATM    3  C4  UNL     1      -1.838  -0.283  -0.952  1.00  0.00     0.117 C 
HETATM    4  C3  UNL     1      -2.955   0.753  -0.806  1.00  0.00     0.026 C 
HETATM    5  C2  UNL     1      -3.932   0.426   0.272  1.00  0.00     0.012 C 
HETATM    6  C13 UNL     1      -3.738  -1.008   0.699  1.00  0.00     0.026 C 
HETATM    7  C12 UNL     1      -2.325  -1.073   1.292  1.00  0.00     0.117 C 
BRANCH   5   8
HETATM    8  C1  UNL     1      -5.335   0.637  -0.258  1.00  0.00     0.168 C 
BRANCH   8   9
HETATM    9  O1  UNL     1      -6.269   0.337   0.759  1.00  0.00    -0.400 OA
ATOM     10  H1  UNL     1      -7.149   0.469   0.427  1.00  0.00     0.209 HD
ENDBRANCH   8   9
ENDBRANCH   5   8
ENDBRANCH   1   2
BRANCH   1  11
HETATM   11  C6  UNL     1       0.801   0.244   0.407  1.00  0.00     0.082 C 
BRANCH  11  12
HETATM   12  N2  UNL     1       2.165   0.024   0.637  1.00  0.00    -0.371 N 
HETATM   13  C7  UNL     1       2.975   1.213   0.664  1.00  0.00     0.129 C 
HETATM   14  C8  UNL     1       3.760   1.505  -0.559  1.00  0.00     0.048 C 
HETATM   15  C9  UNL     1       5.197   0.997  -0.471  1.00  0.00     0.234 C 
HETATM   16  N3  UNL     1       5.124  -0.303   0.177  1.00  0.00    -0.071 N 
HETATM   17  C10 UNL     1       4.085  -1.039  -0.507  1.00  0.00     0.277 C 
ATOM     18  H32 UNL     1       6.018  -0.793   0.203  1.00  0.00     0.277 HD
ATOM     19  H31 UNL     1       4.983  -0.246   1.186  1.00  0.00     0.277 HD
HETATM   20  C11 UNL     1       2.815  -1.162   0.318  1.00  0.00     0.090 C 
ENDBRANCH  11  12
ENDBRANCH   1  11
TORSDOF 5
