REMARK  5 active torsions:
REMARK  status: ('A' for Active; 'I' for Inactive)
REMARK    1  A    between atoms: C1_4  and  C2_5 
REMARK    2  A    between atoms: C1_4  and  N4_17 
REMARK    3  A    between atoms: C2_5  and  N2_6 
REMARK    4  A    between atoms: C6_10  and  N3_11 
REMARK    5  A    between atoms: N4_17  and  C12_19 
ROOT
HETATM    1  N2  UNL     1       0.507   0.614  -0.340  1.00  0.00     0.097 N 
HETATM    2  C3  UNL     1       0.628   1.863   0.329  1.00  0.00     0.273 C 
HETATM    3  C4  UNL     1      -0.585   2.720  -0.048  1.00  0.00     0.032 C 
HETATM    4  C5  UNL     1      -1.776   2.114   0.635  1.00  0.00     0.039 C 
HETATM    5  C6  UNL     1      -1.746   0.618   0.555  1.00  0.00     0.251 C 
HETATM    6  C11 UNL     1      -0.863   0.188  -0.556  1.00  0.00     0.308 C 
ENDROOT
BRANCH   1   7
HETATM    7  C2  UNL     1       1.299  -0.372   0.317  1.00  0.00     0.347 C 
BRANCH   7   8
HETATM    8  C1  UNL     1       2.732  -0.094   0.113  1.00  0.00     0.099 C 
HETATM    9  N1  UNL     1       3.123   0.612  -0.880  1.00  0.00    -0.388 N 
ATOM     10  H12 UNL     1       2.393   0.983  -1.489  1.00  0.00     0.157 HD
ATOM     11  H11 UNL     1       4.115   0.804  -1.021  1.00  0.00     0.157 HD
BRANCH   8  12
HETATM   12  N4  UNL     1       3.752  -0.613   0.964  1.00  0.00    -0.374 N 
ATOM     13  H4  UNL     1       3.865  -0.277   1.920  1.00  0.00     0.161 HD
BRANCH  12  14
HETATM   14  C12 UNL     1       4.622  -1.636   0.418  1.00  0.00     0.083 A 
HETATM   15  C13 UNL     1       5.427  -1.302  -0.781  1.00  0.00     0.027 A 
HETATM   16  C14 UNL     1       6.096  -1.542   0.522  1.00  0.00     0.027 A 
ENDBRANCH  12  14
ENDBRANCH   8  12
ENDBRANCH   7   8
ENDBRANCH   1   7
BRANCH   5  17
HETATM   17  N3  UNL     1      -3.077   0.131   0.542  1.00  0.00     0.094 N 
HETATM   18  C7  UNL     1      -3.877   0.535  -0.573  1.00  0.00     0.273 C 
HETATM   19  C8  UNL     1      -5.054  -0.448  -0.499  1.00  0.00     0.032 C 
HETATM   20  C9  UNL     1      -4.395  -1.753  -0.108  1.00  0.00     0.032 C 
HETATM   21  C10 UNL     1      -3.235  -1.275   0.725  1.00  0.00     0.273 C 
ENDBRANCH   5  17
TORSDOF 5
