REMARK  6 active torsions:
REMARK  status: ('A' for Active; 'I' for Inactive)
REMARK    1  A    between atoms: N1_2  and  C2_4 
REMARK    2  A    between atoms: C3_7  and  N3_8 
REMARK    3  A    between atoms: N3_8  and  C4_10 
REMARK    4  A    between atoms: C4_10  and  C5_11 
REMARK    5  A    between atoms: C5_11  and  C6_12 
REMARK    6  A    between atoms: C6_12  and  O1_13 
ROOT
HETATM    1  C2  UNL     1      -2.441  -1.066   0.187  1.00  0.00     0.124 A 
HETATM    2  N2  UNL     1      -1.216  -1.531  -0.103  1.00  0.00    -0.176 N 
ATOM      3  H2  UNL     1      -1.057  -2.537  -0.160  1.00  0.00     0.186 HD
HETATM    4  C3  UNL     1      -0.180  -0.666  -0.322  1.00  0.00     0.679 A 
HETATM    5  N4  UNL     1      -0.410   0.656  -0.241  1.00  0.00    -0.195 N 
ATOM      6  H4  UNL     1       0.368   1.295  -0.405  1.00  0.00     0.184 HD
HETATM    7  C8  UNL     1      -1.624   1.180   0.047  1.00  0.00     0.036 A 
HETATM    8  C9  UNL     1      -2.654   0.295   0.264  1.00  0.00     0.009 A 
HETATM    9  C10 UNL     1      -3.867   1.081   0.562  1.00  0.00     0.045 C 
HETATM   10  C11 UNL     1      -3.609   2.380  -0.169  1.00  0.00     0.011 C 
HETATM   11  C12 UNL     1      -2.128   2.587   0.187  1.00  0.00     0.058 C 
ENDROOT
BRANCH   4  12
HETATM   12  N3  UNL     1       0.979  -1.135  -0.596  1.00  0.00    -0.226 N 
ATOM     13  H3  UNL     1       1.094  -2.147  -0.643  1.00  0.00     0.177 HD
BRANCH  12  14
HETATM   14  C4  UNL     1       2.116  -0.312  -0.839  1.00  0.00     0.140 C 
BRANCH  14  15
HETATM   15  C5  UNL     1       2.822   0.117   0.450  1.00  0.00     0.046 C 
BRANCH  15  16
HETATM   16  C6  UNL     1       3.989   0.973   0.038  1.00  0.00     0.168 C 
BRANCH  16  17
HETATM   17  O1  UNL     1       4.865   0.311  -0.775  1.00  0.00    -0.396 OA
HETATM   18  C7  UNL     1       5.414  -0.788  -0.177  1.00  0.00     0.201 C 
ENDBRANCH  16  17
ENDBRANCH  15  16
ENDBRANCH  14  15
ENDBRANCH  12  14
ENDBRANCH   4  12
BRANCH   1  19
HETATM   19  N1  UNL     1      -3.438  -1.856   0.399  1.00  0.00    -0.380 N 
HETATM   20  C1  UNL     1      -3.214  -3.280   0.318  1.00  0.00     0.147 C 
ATOM     21  H1  UNL     1      -4.362  -1.484   0.618  1.00  0.00     0.160 HD
ENDBRANCH   1  19
TORSDOF 6
