REMARK  5 active torsions:
REMARK  status: ('A' for Active; 'I' for Inactive)
REMARK    1  A    between atoms: N2_14  and  C10_15 
REMARK    2  A    between atoms: C10_15  and  C11_16 
REMARK    3  A    between atoms: C11_16  and  C12_17 
REMARK    4  A    between atoms: C12_17  and  C13_18 
REMARK    5  A    between atoms: C13_18  and  O2_19 
ROOT
HETATM    1  O1  UNL     1       1.164  -0.165  -2.762  1.00  0.00    -0.273 OA
HETATM    2  C1  UNL     1       0.390  -0.569  -1.868  1.00  0.00     0.220 C 
HETATM    3  C2  UNL     1      -1.015  -0.173  -1.708  1.00  0.00     0.114 C 
HETATM    4  C3  UNL     1      -1.491  -0.015  -0.308  1.00  0.00    -0.007 C 
HETATM    5  C4  UNL     1      -2.966  -0.383  -0.152  1.00  0.00     0.013 C 
HETATM    6  C5  UNL     1      -3.543   0.412   1.010  1.00  0.00     0.028 C 
HETATM    7  C6  UNL     1      -3.697   1.884   0.607  1.00  0.00     0.232 C 
HETATM    8  N1  UNL     1      -2.586   2.159  -0.306  1.00  0.00    -0.074 N 
ATOM      9  H11 UNL     1      -2.417   3.159  -0.412  1.00  0.00     0.277 HD
ATOM     10  H12 UNL     1      -2.825   1.944  -1.274  1.00  0.00     0.277 HD
HETATM   11  C7  UNL     1      -1.394   1.449   0.131  1.00  0.00     0.242 C 
HETATM   12  C8  UNL     1      -0.738  -0.864   0.689  1.00  0.00     0.031 C 
HETATM   13  C9  UNL     1      -0.183  -2.063  -0.052  1.00  0.00     0.126 C 
HETATM   14  N2  UNL     1       0.892  -1.508  -0.894  1.00  0.00    -0.352 N 
ENDROOT
BRANCH  14  15
HETATM   15  C10 UNL     1       2.269  -1.859  -0.756  1.00  0.00     0.126 C 
BRANCH  15  16
HETATM   16  C11 UNL     1       3.020  -0.995   0.203  1.00  0.00     0.022 C 
BRANCH  16  17
HETATM   17  C12 UNL     1       3.010   0.470  -0.206  1.00  0.00     0.028 C 
BRANCH  17  18
HETATM   18  C13 UNL     1       3.791   1.300   0.806  1.00  0.00     0.164 C 
BRANCH  18  19
HETATM   19  O2  UNL     1       5.119   0.885   0.896  1.00  0.00    -0.401 OA
ATOM     20  H2  UNL     1       5.606   1.402   1.527  1.00  0.00     0.209 HD
ENDBRANCH  18  19
ENDBRANCH  17  18
ENDBRANCH  16  17
ENDBRANCH  15  16
ENDBRANCH  14  15
TORSDOF 5
