REMARK  6 active torsions:
REMARK  status: ('A' for Active; 'I' for Inactive)
REMARK    1  A    between atoms: C3_6  and  C4_7 
REMARK    2  A    between atoms: C4_7  and  N2_8 
REMARK    3  A    between atoms: N2_8  and  C5_9 
REMARK    4  A    between atoms: N2_8  and  C12_21 
REMARK    5  A    between atoms: C5_9  and  C6_10 
REMARK    6  A    between atoms: C12_21  and  C13_22 
ROOT
HETATM    1  N2  UNL     1       0.008   0.685   0.442  1.00  0.00    -0.282 NA
ENDROOT
BRANCH   1   2
HETATM    2  C4  UNL     1       0.782   0.155  -0.619  1.00  0.00     0.140 C 
BRANCH   2   3
HETATM    3  C3  UNL     1       2.073  -0.409  -0.261  1.00  0.00     0.039 A 
HETATM    4  C2  UNL     1       2.617  -0.587   0.983  1.00  0.00     0.106 A 
HETATM    5  N1  UNL     1       3.813  -1.155   1.209  1.00  0.00    -0.318 N 
HETATM    6  C1  UNL     1       4.549  -1.586   0.196  1.00  0.00     0.326 A 
ATOM      7  H1  UNL     1       4.156  -1.255   2.165  1.00  0.00     0.170 HD
HETATM    8  O1  UNL     1       5.660  -2.109   0.461  1.00  0.00    -0.247 OA
HETATM    9  N3  UNL     1       4.076  -1.443  -1.059  1.00  0.00    -0.275 N 
HETATM   10  C14 UNL     1       2.884  -0.878  -1.310  1.00  0.00     0.258 A 
ATOM     11  H3  UNL     1       4.641  -1.774  -1.841  1.00  0.00     0.173 HD
HETATM   12  O2  UNL     1       2.502  -0.775  -2.493  1.00  0.00    -0.267 OA
ENDBRANCH   2   3
ENDBRANCH   1   2
BRANCH   1  13
HETATM   13  C5  UNL     1      -1.351   0.964   0.074  1.00  0.00     0.078 C 
BRANCH  13  14
HETATM   14  C6  UNL     1      -2.314  -0.112   0.030  1.00  0.00     0.058 A 
HETATM   15  C7  UNL     1      -3.583   0.272  -0.454  1.00  0.00     0.172 A 
HETATM   16  F1  UNL     1      -3.819   1.537  -0.878  1.00  0.00    -0.202 F 
HETATM   17  C8  UNL     1      -4.639  -0.601  -0.523  1.00  0.00     0.197 A 
HETATM   18  F2  UNL     1      -5.867  -0.209  -0.997  1.00  0.00    -0.199 F 
HETATM   19  C9  UNL     1      -4.497  -1.903  -0.116  1.00  0.00     0.199 A 
HETATM   20  F3  UNL     1      -5.544  -2.792  -0.178  1.00  0.00    -0.199 F 
HETATM   21  C10 UNL     1      -3.278  -2.289   0.354  1.00  0.00     0.197 A 
HETATM   22  F4  UNL     1      -3.076  -3.564   0.774  1.00  0.00    -0.199 F 
HETATM   23  C11 UNL     1      -2.204  -1.404   0.426  1.00  0.00     0.172 A 
HETATM   24  F5  UNL     1      -1.034  -1.848   0.962  1.00  0.00    -0.202 F 
ENDBRANCH  13  14
ENDBRANCH   1  13
BRANCH   1  25
HETATM   25  C12 UNL     1       0.496   1.926   0.993  1.00  0.00     0.166 C 
BRANCH  25  26
HETATM   26  C13 UNL     1       0.364   3.143   0.160  1.00  0.00     0.366 C 
HETATM   27  F6  UNL     1       1.005   3.159  -1.038  1.00  0.00    -0.213 F 
HETATM   28  F7  UNL     1       0.872   4.241   0.880  1.00  0.00    -0.213 F 
ENDBRANCH  25  26
ENDBRANCH   1  25
TORSDOF 6
