REMARK  7 active torsions:
REMARK  status: ('A' for Active; 'I' for Inactive)
REMARK    1  A    between atoms: C2_2  and  C3_3 
REMARK    2  A    between atoms: C3_3  and  N1_4 
REMARK    3  A    between atoms: N1_4  and  C4_6 
REMARK    4  A    between atoms: C4_6  and  N2_8 
REMARK    5  A    between atoms: C7_12  and  C8_13 
REMARK    6  A    between atoms: C8_13  and  N3_14 
REMARK    7  A    between atoms: N3_14  and  C9_17 
ROOT
HETATM    1  N2  UNL     1       1.175  -0.651  -0.250  1.00  0.00    -0.354 N 
HETATM    2  C5  UNL     1       1.337  -1.800  -1.085  1.00  0.00     0.151 C 
HETATM    3  C6  UNL     1       0.050  -1.879  -1.929  1.00  0.00     0.188 C 
HETATM    4  O1  UNL     1      -0.996  -2.042  -1.043  1.00  0.00    -0.381 OA
HETATM    5  C7  UNL     1      -1.172  -0.801  -0.389  1.00  0.00     0.165 C 
HETATM    6  C12 UNL     1      -0.047  -0.619   0.571  1.00  0.00     0.159 C 
ENDROOT
BRANCH   1   7
HETATM    7  C4  UNL     1       2.124   0.387  -0.226  1.00  0.00     0.170 C 
HETATM    8  S1  UNL     1       1.880   1.703   0.757  1.00  0.00    -0.041 SA
BRANCH   7   9
HETATM    9  N1  UNL     1       3.287   0.348  -1.027  1.00  0.00    -0.364 N 
ATOM     10  H1  UNL     1       3.451  -0.449  -1.642  1.00  0.00     0.162 HD
BRANCH   9  11
HETATM   11  C3  UNL     1       4.252   1.435  -0.981  1.00  0.00     0.148 C 
BRANCH  11  12
HETATM   12  C2  UNL     1       5.003   1.512   0.290  1.00  0.00    -0.018 C 
HETATM   13  C1  UNL     1       6.319   1.403   0.293  1.00  0.00     0.008 C 
ENDBRANCH  11  12
ENDBRANCH   9  11
ENDBRANCH   7   9
ENDBRANCH   1   7
BRANCH   5  14
HETATM   14  C8  UNL     1      -2.543  -0.805   0.182  1.00  0.00     0.266 C 
BRANCH  14  15
HETATM   15  N3  UNL     1      -2.931   0.377   0.896  1.00  0.00    -0.069 N 
ATOM     16  H32 UNL     1      -2.305   0.606   1.668  1.00  0.00     0.277 HD
ATOM     17  H31 UNL     1      -2.793   1.235   0.362  1.00  0.00     0.277 HD
BRANCH  15  18
HETATM   18  C9  UNL     1      -4.316   0.173   1.315  1.00  0.00     0.186 A 
HETATM   19  C10 UNL     1      -5.377   0.011   0.295  1.00  0.00     0.035 A 
HETATM   20  C11 UNL     1      -5.283   1.263   1.121  1.00  0.00     0.035 A 
ENDBRANCH  15  18
ENDBRANCH  14  15
ENDBRANCH   5  14
TORSDOF 7
