REMARK  7 active torsions:
REMARK  status: ('A' for Active; 'I' for Inactive)
REMARK    1  A    between atoms: C2_2  and  C4_4 
REMARK    2  A    between atoms: C5_5  and  C6_6 
REMARK    3  A    between atoms: C7_7  and  C8_8 
REMARK    4  A    between atoms: C8_8  and  N1_9 
REMARK    5  A    between atoms: N1_9  and  C9_12 
REMARK    6  A    between atoms: C9_12  and  C10_13 
REMARK    7  A    between atoms: C10_13  and  N2_14 
ROOT
HETATM    1  N1  UNL     1       0.255  -0.378   0.295  1.00  0.00    -0.070 N 
ATOM      2  H11 UNL     1       0.505  -1.241  -0.188  1.00  0.00     0.277 HD
ATOM      3  H12 UNL     1      -0.020   0.172  -0.519  1.00  0.00     0.277 HD
ENDROOT
BRANCH   1   4
HETATM    4  C8  UNL     1       1.386   0.206   0.993  1.00  0.00     0.260 C 
BRANCH   4   5
HETATM    5  C7  UNL     1       1.993  -0.720   1.971  1.00  0.00     0.009 C 
HETATM    6  C6  UNL     1       3.250  -1.116   1.909  1.00  0.00     0.062 C 
BRANCH   6   7
HETATM    7  C5  UNL     1       4.127  -0.660   0.859  1.00  0.00    -0.079 C 
HETATM    8  C4  UNL     1       4.869  -0.265  -0.007  1.00  0.00    -0.098 C 
BRANCH   8   9
HETATM    9  C2  UNL     1       5.788   0.212  -1.040  1.00  0.00     0.057 C 
HETATM   10  C1  UNL     1       5.895   1.736  -0.983  1.00  0.00     0.023 C 
HETATM   11  C3  UNL     1       7.171  -0.340  -0.781  1.00  0.00     0.023 C 
ENDBRANCH   8   9
ENDBRANCH   6   7
ENDBRANCH   4   5
ENDBRANCH   1   4
BRANCH   1  12
HETATM   12  C9  UNL     1      -0.829  -0.567   1.208  1.00  0.00     0.262 C 
BRANCH  12  13
HETATM   13  C10 UNL     1      -2.044  -1.167   0.590  1.00  0.00     0.300 C 
BRANCH  13  14
HETATM   14  N2  UNL     1      -2.614  -0.391  -0.486  1.00  0.00     0.093 N 
HETATM   15  C11 UNL     1      -3.190   0.849  -0.044  1.00  0.00     0.302 C 
HETATM   16  C12 UNL     1      -4.016   1.402  -1.180  1.00  0.00     0.302 C 
HETATM   17  N3  UNL     1      -5.208   0.594  -1.281  1.00  0.00     0.087 N 
HETATM   18  C13 UNL     1      -6.156   1.039  -0.258  1.00  0.00     0.310 C 
HETATM   19  C14 UNL     1      -4.942  -0.817  -1.171  1.00  0.00     0.302 C 
HETATM   20  C15 UNL     1      -3.492  -1.166  -1.320  1.00  0.00     0.302 C 
ENDBRANCH  13  14
ENDBRANCH  12  13
ENDBRANCH   1  12
TORSDOF 7
