REMARK  5 active torsions:
REMARK  status: ('A' for Active; 'I' for Inactive)
REMARK    1  A    between atoms: C1_2  and  C2_3 
REMARK       I    between atoms: C1_2  and  N2_10 
REMARK    2  A    between atoms: C2_3  and  N1_4 
REMARK    3  A    between atoms: N1_4  and  C3_7 
REMARK    4  A    between atoms: N2_10  and  C6_12 
REMARK    5  A    between atoms: N3_15  and  C9_16 
ROOT
HETATM    1  O1  UNL     1       2.440   1.724  -1.115  1.00  0.00    -0.272 OA
HETATM    2  C1  UNL     1       2.427   0.657  -0.458  1.00  0.00     0.243 C 
HETATM    3  N2  UNL     1       1.228   0.090   0.027  1.00  0.00    -0.355 N 
ATOM      4  H2  UNL     1       1.285  -0.781   0.555  1.00  0.00     0.162 HD
ENDROOT
BRANCH   3   5
HETATM    5  C6  UNL     1      -0.071   0.675  -0.184  1.00  0.00     0.087 C 
HETATM    6  C7  UNL     1      -0.844   0.918   1.090  1.00  0.00     0.055 C 
HETATM    7  C8  UNL     1      -2.210   0.308   1.083  1.00  0.00     0.275 C 
HETATM    8  N3  UNL     1      -3.018   0.640  -0.060  1.00  0.00     0.093 N 
HETATM    9  C13 UNL     1      -2.223   0.644  -1.293  1.00  0.00     0.275 C 
HETATM   10  C14 UNL     1      -0.946  -0.178  -1.081  1.00  0.00     0.055 C 
BRANCH   8  11
HETATM   11  C9  UNL     1      -3.999  -0.415  -0.234  1.00  0.00     0.223 C 
HETATM   12  C10 UNL     1      -4.980  -0.597   0.901  1.00  0.00     0.036 C 
HETATM   13  C11 UNL     1      -6.057  -0.821  -0.167  1.00  0.00     0.004 C 
HETATM   14  C12 UNL     1      -5.195   0.013  -1.093  1.00  0.00     0.036 C 
ENDBRANCH   8  11
ENDBRANCH   3   5
BRANCH   2  15
HETATM   15  C2  UNL     1       3.758   0.002  -0.206  1.00  0.00     0.335 C 
BRANCH  15  16
HETATM   16  N1  UNL     1       4.816   0.752  -0.790  1.00  0.00    -0.063 N 
ATOM     17  H12 UNL     1       4.677   0.884  -1.792  1.00  0.00     0.278 HD
ATOM     18  H11 UNL     1       4.790   1.730  -0.501  1.00  0.00     0.278 HD
BRANCH  16  19
HETATM   19  C3  UNL     1       6.089   0.147  -0.505  1.00  0.00     0.186 A 
HETATM   20  C4  UNL     1       6.500   0.078   0.934  1.00  0.00     0.035 A 
HETATM   21  C5  UNL     1       6.076  -1.188   0.147  1.00  0.00     0.035 A 
ENDBRANCH  16  19
ENDBRANCH  15  16
ENDBRANCH   2  15
TORSDOF 5
