REMARK  8 active torsions:
REMARK  status: ('A' for Active; 'I' for Inactive)
REMARK    1  A    between atoms: N1_4  and  C3_5 
REMARK    2  A    between atoms: C3_5  and  C4_6 
REMARK    3  A    between atoms: C4_6  and  O2_7 
REMARK    4  A    between atoms: O2_7  and  C5_8 
REMARK    5  A    between atoms: C5_8  and  C6_9 
REMARK    6  A    between atoms: C6_9  and  N2_10 
REMARK    7  A    between atoms: C6_9  and  C13_23 
REMARK    8  A    between atoms: N2_10  and  C7_12 
ROOT
HETATM    1  C6  UNL     1      -1.747   0.982   0.863  1.00  0.00     0.213 C 
ENDROOT
BRANCH   1   2
HETATM    2  C5  UNL     1      -0.428   0.780   1.577  1.00  0.00     0.201 C 
BRANCH   2   3
HETATM    3  O2  UNL     1       0.539   0.150   0.847  1.00  0.00    -0.387 OA
BRANCH   3   4
HETATM    4  C4  UNL     1       0.934   0.762  -0.311  1.00  0.00     0.187 C 
BRANCH   4   5
HETATM    5  C3  UNL     1       2.001  -0.100  -0.952  1.00  0.00     0.143 C 
BRANCH   5   6
HETATM    6  N1  UNL     1       3.161  -0.300  -0.147  1.00  0.00    -0.401 N 
HETATM    7  C2  UNL     1       3.972   0.835   0.077  1.00  0.00     0.219 C 
HETATM    8  C1  UNL     1       5.312   0.377   0.573  1.00  0.00     0.235 C 
HETATM    9  O1  UNL     1       5.831   0.831   1.626  1.00  0.00    -0.272 OA
HETATM   10  N3  UNL     1       5.968  -0.601  -0.210  1.00  0.00    -0.358 N 
HETATM   11  C15 UNL     1       5.152  -1.457  -1.036  1.00  0.00     0.142 C 
ATOM     12  H3  UNL     1       6.983  -0.698  -0.191  1.00  0.00     0.162 HD
HETATM   13  C14 UNL     1       3.811  -1.552  -0.331  1.00  0.00     0.137 C 
ENDBRANCH   5   6
ENDBRANCH   4   5
ENDBRANCH   3   4
ENDBRANCH   2   3
ENDBRANCH   1   2
BRANCH   1  14
HETATM   14  N2  UNL     1      -2.335  -0.263   0.464  1.00  0.00    -0.370 N 
ATOM     15  H2  UNL     1      -1.818  -1.107   0.709  1.00  0.00     0.160 HD
BRANCH  14  16
HETATM   16  C7  UNL     1      -3.544  -0.451  -0.227  1.00  0.00     0.113 A 
HETATM   17  C8  UNL     1      -3.578  -0.251  -1.605  1.00  0.00     0.187 A 
HETATM   18  F1  UNL     1      -2.440   0.155  -2.262  1.00  0.00    -0.200 F 
HETATM   19  C9  UNL     1      -4.745  -0.459  -2.292  1.00  0.00     0.199 A 
HETATM   20  F2  UNL     1      -4.819  -0.272  -3.648  1.00  0.00    -0.199 F 
HETATM   21  C10 UNL     1      -5.875  -0.863  -1.624  1.00  0.00     0.199 A 
HETATM   22  F3  UNL     1      -7.036  -1.072  -2.292  1.00  0.00    -0.199 F 
HETATM   23  C11 UNL     1      -5.850  -1.063  -0.266  1.00  0.00     0.199 A 
HETATM   24  F4  UNL     1      -6.948  -1.465   0.434  1.00  0.00    -0.199 F 
HETATM   25  C12 UNL     1      -4.672  -0.852   0.420  1.00  0.00     0.187 A 
HETATM   26  F5  UNL     1      -4.693  -1.097   1.773  1.00  0.00    -0.200 F 
ENDBRANCH  14  16
ENDBRANCH   1  14
BRANCH   1  27
HETATM   27  C13 UNL     1      -2.630   1.907   1.641  1.00  0.00     0.409 C 
HETATM   28  F6  UNL     1      -2.931   1.503   2.910  1.00  0.00    -0.169 F 
HETATM   29  F7  UNL     1      -3.831   2.134   0.949  1.00  0.00    -0.169 F 
HETATM   30  F8  UNL     1      -2.073   3.172   1.763  1.00  0.00    -0.169 F 
ENDBRANCH   1  27
TORSDOF 8
