REMARK  7 active torsions:
REMARK  status: ('A' for Active; 'I' for Inactive)
REMARK    1  A    between atoms: C2_5  and  C3_6 
REMARK    2  A    between atoms: C3_6  and  C4_9 
REMARK    3  A    between atoms: N2_13  and  C6_14 
REMARK    4  A    between atoms: C6_14  and  C7_15 
REMARK    5  A    between atoms: C13_26  and  C14_27 
REMARK    6  A    between atoms: C14_27  and  C15_28 
REMARK    7  A    between atoms: C15_28  and  O2_29 
ROOT
HETATM    1  O1  UNL     1      -1.403   1.727   2.551  1.00  0.00    -0.271 OA
HETATM    2  C1  UNL     1      -1.312   1.151   1.448  1.00  0.00     0.245 C 
HETATM    3  N1  UNL     1      -2.110   0.014   1.206  1.00  0.00    -0.322 N 
ATOM      4  H1  UNL     1      -2.685  -0.373   1.954  1.00  0.00     0.169 HD
HETATM    5  C2  UNL     1      -2.114  -0.594  -0.082  1.00  0.00     0.105 C 
HETATM    6  C5  UNL     1      -0.758  -0.564  -0.725  1.00  0.00     0.123 C 
HETATM    7  N2  UNL     1       0.113   0.429  -0.261  1.00  0.00    -0.350 N 
HETATM    8  C13 UNL     1      -0.405   1.590   0.366  1.00  0.00     0.183 C 
ENDROOT
BRANCH   7   9
HETATM    9  C6  UNL     1       1.366   0.455  -0.855  1.00  0.00     0.109 C 
BRANCH   9  10
HETATM   10  C7  UNL     1       2.414  -0.475  -0.418  1.00  0.00     0.063 A 
HETATM   11  C8  UNL     1       3.595  -0.440  -1.162  1.00  0.00     0.172 A 
HETATM   12  F5  UNL     1       3.686   0.375  -2.227  1.00  0.00    -0.202 F 
HETATM   13  C9  UNL     1       4.684  -1.214  -0.847  1.00  0.00     0.197 A 
HETATM   14  F6  UNL     1       5.822  -1.166  -1.581  1.00  0.00    -0.199 F 
HETATM   15  C10 UNL     1       4.662  -2.071   0.230  1.00  0.00     0.199 A 
HETATM   16  F7  UNL     1       5.749  -2.824   0.519  1.00  0.00    -0.199 F 
HETATM   17  C11 UNL     1       3.508  -2.110   0.965  1.00  0.00     0.197 A 
HETATM   18  F8  UNL     1       3.464  -2.946   2.029  1.00  0.00    -0.199 F 
HETATM   19  C12 UNL     1       2.386  -1.323   0.655  1.00  0.00     0.172 A 
HETATM   20  F9  UNL     1       1.314  -1.394   1.474  1.00  0.00    -0.202 F 
ENDBRANCH   9  10
ENDBRANCH   7   9
BRANCH   8  21
HETATM   21  C14 UNL     1      -0.941   2.609  -0.570  1.00  0.00     0.061 C 
BRANCH  21  22
HETATM   22  C15 UNL     1      -1.349   3.917   0.033  1.00  0.00     0.166 C 
BRANCH  22  23
HETATM   23  O2  UNL     1      -2.365   3.832   0.971  1.00  0.00    -0.401 OA
ATOM     24  H2  UNL     1      -2.624   4.662   1.354  1.00  0.00     0.209 HD
ENDBRANCH  22  23
ENDBRANCH  21  22
ENDBRANCH   8  21
BRANCH   5  25
HETATM   25  C3  UNL     1      -2.876  -1.861  -0.212  1.00  0.00     0.344 C 
HETATM   26  F1  UNL     1      -4.218  -1.565   0.110  1.00  0.00    -0.193 F 
HETATM   27  F2  UNL     1      -2.866  -2.229  -1.549  1.00  0.00    -0.193 F 
BRANCH  25  28
HETATM   28  C4  UNL     1      -2.477  -3.011   0.625  1.00  0.00     0.431 C 
HETATM   29  F3  UNL     1      -1.202  -3.483   0.458  1.00  0.00    -0.207 F 
HETATM   30  F4  UNL     1      -2.778  -2.840   1.974  1.00  0.00    -0.207 F 
ENDBRANCH  25  28
ENDBRANCH   5  25
TORSDOF 7
