REMARK  7 active torsions:
REMARK  status: ('A' for Active; 'I' for Inactive)
REMARK    1  A    between atoms: N1_1  and  C1_5 
REMARK    2  A    between atoms: C1_5  and  C2_6 
REMARK    3  A    between atoms: C1_5  and  C10_21 
REMARK    4  A    between atoms: C2_6  and  C3_7 
REMARK    5  A    between atoms: C3_7  and  N2_8 
REMARK    6  A    between atoms: C5_10  and  C6_12 
REMARK    7  A    between atoms: C10_21  and  C11_22 
ROOT
HETATM    1  C1  UNL     1      -1.436  -0.123   0.036  1.00  0.00     0.189 C 
ENDROOT
BRANCH   1   2
HETATM    2  N1  UNL     1      -1.437  -1.066   1.082  1.00  0.00    -0.075 N 
ATOM      3  H13 UNL     1      -1.232  -2.015   0.768  1.00  0.00     0.274 HD
ATOM      4  H12 UNL     1      -0.643  -0.965   1.714  1.00  0.00     0.274 HD
ATOM      5  H11 UNL     1      -2.338  -0.984   1.553  1.00  0.00     0.274 HD
ENDBRANCH   1   2
BRANCH   1   6
HETATM    6  C2  UNL     1      -0.076  -0.246  -0.674  1.00  0.00     0.053 C 
BRANCH   6   7
HETATM    7  C3  UNL     1       0.960   0.075   0.375  1.00  0.00     0.125 C 
BRANCH   7   8
HETATM    8  N2  UNL     1       2.311   0.027  -0.064  1.00  0.00    -0.373 N 
HETATM    9  C4  UNL     1       3.115  -1.128  -0.453  1.00  0.00     0.185 C 
HETATM   10  C5  UNL     1       4.398  -0.835   0.328  1.00  0.00     0.277 C 
HETATM   11  F1  UNL     1       4.204  -1.079   1.657  1.00  0.00    -0.222 F 
HETATM   12  C7  UNL     1       4.582   0.636   0.026  1.00  0.00     0.334 C 
HETATM   13  F2  UNL     1       5.156   1.222   1.140  1.00  0.00    -0.195 F 
HETATM   14  F3  UNL     1       5.322   0.864  -1.093  1.00  0.00    -0.195 F 
HETATM   15  C8  UNL     1       3.195   1.142  -0.214  1.00  0.00     0.111 C 
HETATM   16  C9  UNL     1       2.866   2.383  -0.509  1.00  0.00     0.219 C 
HETATM   17  F4  UNL     1       1.594   2.717  -0.702  1.00  0.00    -0.217 F 
BRANCH  10  18
HETATM   18  C6  UNL     1       5.540  -1.635  -0.148  1.00  0.00     0.223 C 
HETATM   19  O1  UNL     1       5.379  -2.431  -1.105  1.00  0.00    -0.645 OA
HETATM   20  O2  UNL     1       6.794  -1.556   0.407  1.00  0.00    -0.645 OA
ENDBRANCH  10  18
ENDBRANCH   7   8
ENDBRANCH   6   7
ENDBRANCH   1   6
BRANCH   1  21
HETATM   21  C10 UNL     1      -2.587  -0.126  -0.916  1.00  0.00     0.077 C 
BRANCH  21  22
HETATM   22  C11 UNL     1      -3.897   0.132  -0.246  1.00  0.00     0.028 A 
HETATM   23  C12 UNL     1      -4.572  -0.857   0.417  1.00  0.00     0.167 A 
HETATM   24  F5  UNL     1      -4.122  -2.132   0.463  1.00  0.00    -0.202 F 
HETATM   25  C13 UNL     1      -5.781  -0.623   1.075  1.00  0.00     0.197 A 
HETATM   26  F6  UNL     1      -6.419  -1.608   1.714  1.00  0.00    -0.199 F 
HETATM   27  C14 UNL     1      -6.307   0.657   1.049  1.00  0.00     0.199 A 
HETATM   28  F7  UNL     1      -7.485   0.853   1.700  1.00  0.00    -0.199 F 
HETATM   29  C15 UNL     1      -5.636   1.654   0.385  1.00  0.00     0.197 A 
HETATM   30  F8  UNL     1      -6.165   2.902   0.371  1.00  0.00    -0.199 F 
HETATM   31  C16 UNL     1      -4.454   1.403  -0.251  1.00  0.00     0.167 A 
HETATM   32  F9  UNL     1      -3.818   2.397  -0.892  1.00  0.00    -0.202 F 
ENDBRANCH  21  22
ENDBRANCH   1  21
TORSDOF 7
