REMARK  10 active torsions:
REMARK  status: ('A' for Active; 'I' for Inactive)
REMARK    1  A    between atoms: C2_2  and  C4_4 
REMARK    2  A    between atoms: C2_2  and  C5_6 
REMARK    3  A    between atoms: C5_6  and  C6_7 
REMARK    4  A    between atoms: C5_6  and  C7_9 
REMARK    5  A    between atoms: C5_6  and  N4_22 
REMARK    6  A    between atoms: C7_9  and  O1_10 
REMARK    7  A    between atoms: O1_10  and  C8_11 
REMARK    8  A    between atoms: C11_18  and  N3_19 
REMARK    9  A    between atoms: N4_22  and  C12_24 
REMARK   10  A    between atoms: C12_24  and  C13_25 
ROOT
HETATM    1  C5  UNL     1      -0.607  -0.666  -0.374  1.00  0.00     0.068 C 
ENDROOT
BRANCH   1   2
HETATM    2  C2  UNL     1      -1.475  -1.823   0.109  1.00  0.00    -0.011 C 
HETATM    3  C1  UNL     1      -2.743  -1.997  -0.691  1.00  0.00     0.018 C 
HETATM    4  C3  UNL     1      -2.020  -1.421   1.523  1.00  0.00     0.018 C 
BRANCH   2   5
HETATM    5  C4  UNL     1      -0.814  -3.123   0.293  1.00  0.00     0.096 C 
HETATM    6 BR1  UNL     1      -2.070  -4.274   1.283  1.00  0.00    -0.096 Br
ENDBRANCH   2   5
ENDBRANCH   1   2
BRANCH   1   7
HETATM    7  C6  UNL     1      -0.165  -0.755  -1.790  1.00  0.00     0.119 C 
HETATM    8 BR2  UNL     1       0.933  -2.260  -2.200  1.00  0.00    -0.094 Br
ENDBRANCH   1   7
BRANCH   1   9
HETATM    9  C7  UNL     1       0.672  -0.672   0.447  1.00  0.00     0.208 C 
BRANCH   9  10
HETATM   10  O1  UNL     1       1.408   0.488   0.151  1.00  0.00    -0.344 OA
BRANCH  10  11
HETATM   11  C8  UNL     1       2.622   0.791   0.697  1.00  0.00     0.127 A 
HETATM   12  C9  UNL     1       3.174  -0.126   1.609  1.00  0.00     0.129 A 
HETATM   13  N1  UNL     1       4.366   0.167   2.144  1.00  0.00    -0.359 N 
HETATM   14  C10 UNL     1       5.080   1.280   1.874  1.00  0.00     0.182 A 
ATOM     15  H1  UNL     1       4.764  -0.501   2.805  1.00  0.00     0.166 HD
HETATM   16  N2  UNL     1       4.567   2.173   1.003  1.00  0.00    -0.337 N 
HETATM   17  C11 UNL     1       3.371   1.910   0.447  1.00  0.00     0.135 A 
ATOM     18  H2  UNL     1       5.074   3.027   0.772  1.00  0.00     0.168 HD
BRANCH  17  19
HETATM   19  N3  UNL     1       2.914   2.793  -0.376  1.00  0.00    -0.383 N 
ATOM     20  H32 UNL     1       2.007   2.594  -0.798  1.00  0.00     0.157 HD
ATOM     21  H31 UNL     1       3.472   3.626  -0.562  1.00  0.00     0.157 HD
ENDBRANCH  17  19
ENDBRANCH  10  11
ENDBRANCH   9  10
ENDBRANCH   1   9
BRANCH   1  22
HETATM   22  N4  UNL     1      -1.390   0.506  -0.093  1.00  0.00    -0.389 N 
ATOM     23  H4  UNL     1      -1.877   0.620   0.796  1.00  0.00     0.159 HD
BRANCH  22  24
HETATM   24  C12 UNL     1      -1.456   1.487  -1.095  1.00  0.00     0.067 C 
BRANCH  24  25
HETATM   25  C13 UNL     1      -2.480   2.533  -0.702  1.00  0.00     0.130 C 
HETATM   26  S1  UNL     1      -2.087   3.336   0.869  1.00  0.00    -0.092 SA
ENDBRANCH  24  25
ENDBRANCH  22  24
ENDBRANCH   1  22
TORSDOF 10
