REMARK  9 active torsions:
REMARK  status: ('A' for Active; 'I' for Inactive)
REMARK       I    between atoms: C1_2  and  N1_3 
REMARK    1  A    between atoms: C1_2  and  C18_29 
REMARK    2  A    between atoms: N1_3  and  C2_5 
REMARK    3  A    between atoms: C5_10  and  C6_11 
REMARK    4  A    between atoms: C6_11  and  N2_12 
REMARK    5  A    between atoms: N2_12  and  C7_13 
REMARK    6  A    between atoms: N2_12  and  C14_21 
REMARK    7  A    between atoms: C7_13  and  C8_14 
REMARK    8  A    between atoms: C8_14  and  C9_15 
REMARK    9  A    between atoms: C14_21  and  C15_22 
ROOT
HETATM    1  C2  UNL     1       2.724  -0.743   1.933  1.00  0.00     0.102 C 
HETATM    2  C3  UNL     1       2.138  -2.050   2.417  1.00  0.00     0.105 C 
HETATM    3  C4  UNL     1       1.184  -1.214   3.261  1.00  0.00     0.252 C 
HETATM    4  F1  UNL     1      -0.056  -1.752   3.408  1.00  0.00    -0.206 F 
HETATM    5  F2  UNL     1       1.770  -0.804   4.460  1.00  0.00    -0.206 F 
HETATM    6  C5  UNL     1       1.342  -0.123   2.225  1.00  0.00     0.109 C 
ENDROOT
BRANCH   6   7
HETATM    7  C6  UNL     1       0.503  -0.221   1.023  1.00  0.00     0.285 C 
BRANCH   7   8
HETATM    8  N2  UNL     1      -0.841   0.245   1.034  1.00  0.00     0.094 N 
BRANCH   8   9
HETATM    9  C7  UNL     1      -1.398  -0.134  -0.270  1.00  0.00     0.273 C 
BRANCH   9  10
HETATM   10  C8  UNL     1      -2.827   0.174  -0.466  1.00  0.00     0.035 C 
BRANCH  10  11
HETATM   11  C9  UNL     1      -3.198  -0.327  -1.866  1.00  0.00    -0.009 C 
HETATM   12  C10 UNL     1      -4.669  -0.045  -2.142  1.00  0.00     0.031 C 
HETATM   13  C11 UNL     1      -4.892  -0.259  -3.624  1.00  0.00     0.168 C 
HETATM   14  O2  UNL     1      -4.059  -1.251  -4.117  1.00  0.00    -0.391 OA
HETATM   15  C12 UNL     1      -3.833  -2.277  -3.184  1.00  0.00     0.168 C 
HETATM   16  C13 UNL     1      -2.977  -1.801  -2.025  1.00  0.00     0.031 C 
ENDBRANCH  10  11
ENDBRANCH   9  10
ENDBRANCH   8   9
BRANCH   8  17
HETATM   17  C14 UNL     1      -1.007   1.644   1.156  1.00  0.00     0.330 C 
BRANCH  17  18
HETATM   18  C15 UNL     1      -0.665   2.293   2.433  1.00  0.00     0.054 A 
HETATM   19  C16 UNL     1      -0.010   3.497   2.551  1.00  0.00     0.115 A 
HETATM   20  N3  UNL     1       0.077   3.762   3.852  1.00  0.00    -0.360 N 
HETATM   21  C17 UNL     1      -0.503   2.764   4.578  1.00  0.00     0.180 A 
ATOM     22  H3  UNL     1       0.515   4.593   4.250  1.00  0.00     0.166 HD
HETATM   23  N4  UNL     1      -0.947   1.882   3.664  1.00  0.00    -0.353 N 
ATOM     24  H4  UNL     1      -1.435   1.014   3.887  1.00  0.00     0.166 HD
ENDBRANCH  17  18
ENDBRANCH   8  17
ENDBRANCH   7   8
ENDBRANCH   6   7
BRANCH   1  25
HETATM   25  N1  UNL     1       3.170  -0.689   0.582  1.00  0.00    -0.349 N 
HETATM   26  C1  UNL     1       4.539  -0.316   0.360  1.00  0.00     0.286 C 
HETATM   27  O1  UNL     1       5.283  -0.051   1.355  1.00  0.00    -0.264 OA
ATOM     28  H1  UNL     1       2.545  -0.906  -0.194  1.00  0.00     0.163 HD
BRANCH  26  29
HETATM   29  C18 UNL     1       5.035  -0.253  -0.990  1.00  0.00     0.175 A 
HETATM   30  N5  UNL     1       6.342   0.051  -1.258  1.00  0.00    -0.345 N 
HETATM   31  C19 UNL     1       6.484   0.029  -2.576  1.00  0.00     0.132 A 
ATOM     32  H5  UNL     1       7.070   0.256  -0.573  1.00  0.00     0.167 HD
HETATM   33  C20 UNL     1       5.284  -0.285  -3.133  1.00  0.00     0.120 A 
HETATM   34 CL1  UNL     1       5.015  -0.425  -4.856  1.00  0.00    -0.063 Cl
HETATM   35  N6  UNL     1       4.390  -0.459  -2.149  1.00  0.00    -0.327 N 
ATOM     36  H6  UNL     1       3.406  -0.702  -2.260  1.00  0.00     0.168 HD
ENDBRANCH  26  29
ENDBRANCH   1  25
TORSDOF 9
