REMARK  10 active torsions:
REMARK  status: ('A' for Active; 'I' for Inactive)
REMARK    1  A    between atoms: C2_2  and  C3_3 
REMARK    2  A    between atoms: C3_3  and  C4_4 
REMARK    3  A    between atoms: C4_4  and  O1_5 
REMARK    4  A    between atoms: O1_5  and  N1_6 
REMARK    5  A    between atoms: N1_6  and  C5_7 
REMARK    6  A    between atoms: C5_7  and  C6_8 
REMARK    7  A    between atoms: C5_7  and  C21_32 
REMARK    8  A    between atoms: C6_8  and  C7_9 
REMARK       I    between atoms: C7_9  and  N2_11 
REMARK    9  A    between atoms: C15_24  and  O3_25 
REMARK   10  A    between atoms: C15_24  and  C16_27 
ROOT
HETATM    1  C7  UNL     1       0.058  -0.053  -0.188  1.00  0.00     0.224 C 
HETATM    2  O2  UNL     1       0.052   1.051  -0.753  1.00  0.00    -0.273 OA
HETATM    3  N2  UNL     1      -1.184  -0.685   0.111  1.00  0.00    -0.317 N 
HETATM    4  C8  UNL     1      -1.121  -1.966   0.728  1.00  0.00     0.135 C 
HETATM    5  C9  UNL     1      -2.337  -2.191   1.565  1.00  0.00     0.102 C 
HETATM    6  C10 UNL     1      -3.556  -2.059   0.766  1.00  0.00     0.282 C 
HETATM    7  F1  UNL     1      -3.955  -3.320   0.354  1.00  0.00    -0.203 F 
HETATM    8  F2  UNL     1      -4.615  -1.684   1.616  1.00  0.00    -0.203 F 
HETATM    9  C11 UNL     1      -3.464  -1.092  -0.404  1.00  0.00     0.239 C 
HETATM   10  C12 UNL     1      -4.848  -0.786  -0.808  1.00  0.00     0.052 C 
HETATM   11  C13 UNL     1      -4.838  -0.597  -2.327  1.00  0.00     0.030 C 
HETATM   12  C14 UNL     1      -3.747  -1.563  -2.702  1.00  0.00     0.233 C 
HETATM   13  N3  UNL     1      -3.024  -1.898  -1.535  1.00  0.00    -0.055 N 
ATOM     14  H31 UNL     1      -3.078  -2.896  -1.331  1.00  0.00     0.278 HD
ATOM     15  H32 UNL     1      -2.017  -1.825  -1.681  1.00  0.00     0.278 HD
HETATM   16  C15 UNL     1      -2.468  -0.023  -0.244  1.00  0.00     0.179 C 
ENDROOT
BRANCH   1  17
HETATM   17  C6  UNL     1       1.312  -0.702   0.167  1.00  0.00     0.136 C 
BRANCH  17  18
HETATM   18  C5  UNL     1       2.585   0.038  -0.112  1.00  0.00     0.204 C 
BRANCH  18  19
HETATM   19  N1  UNL     1       3.647  -0.924   0.310  1.00  0.00    -0.087 NA
BRANCH  19  20
HETATM   20  O1  UNL     1       4.822  -0.306   0.062  1.00  0.00    -0.286 OA
BRANCH  20  21
HETATM   21  C4  UNL     1       5.909  -1.079   0.423  1.00  0.00     0.196 C 
BRANCH  21  22
HETATM   22  C3  UNL     1       7.215  -0.403   0.148  1.00  0.00     0.028 C 
BRANCH  22  23
HETATM   23  C2  UNL     1       7.396  -0.077  -1.313  1.00  0.00    -0.002 C 
HETATM   24  C1  UNL     1       6.326   0.839  -1.828  1.00  0.00     0.005 C 
ENDBRANCH  22  23
ENDBRANCH  21  22
ENDBRANCH  20  21
ENDBRANCH  19  20
ENDBRANCH  18  19
BRANCH  18  25
HETATM   25  C21 UNL     1       2.838   1.224   0.697  1.00  0.00     0.253 C 
HETATM   26  N4  UNL     1       2.122   2.421   0.616  1.00  0.00    -0.061 NA
HETATM   27  O4  UNL     1       3.786   1.216   1.562  1.00  0.00    -0.275 OA
ENDBRANCH  18  25
ENDBRANCH  17  18
ENDBRANCH   1  17
BRANCH  16  28
HETATM   28  O3  UNL     1      -2.158   0.398  -1.585  1.00  0.00    -0.368 OA
ATOM     29  H3  UNL     1      -2.978   0.821  -1.812  1.00  0.00     0.212 HD
ENDBRANCH  16  28
BRANCH  16  30
HETATM   30  C16 UNL     1      -2.612   1.196   0.483  1.00  0.00     0.044 C 
HETATM   31  C17 UNL     1      -3.906   2.010   0.313  1.00  0.00     0.009 C 
HETATM   32  C18 UNL     1      -3.388   3.322   0.943  1.00  0.00     0.001 C 
HETATM   33  C19 UNL     1      -2.716   2.798   2.180  1.00  0.00     0.001 C 
HETATM   34  C20 UNL     1      -2.194   1.404   1.886  1.00  0.00     0.009 C 
ENDBRANCH  16  30
TORSDOF 10
