REMARK  11 active torsions:
REMARK  status: ('A' for Active; 'I' for Inactive)
REMARK    1  A    between atoms: C2_2  and  C3_3 
REMARK    2  A    between atoms: C3_3  and  C4_4 
REMARK       I    between atoms: C4_4  and  N1_6 
REMARK    3  A    between atoms: N1_6  and  C5_8 
REMARK    4  A    between atoms: C9_13  and  N2_14 
REMARK    5  A    between atoms: N2_14  and  C10_16 
REMARK    6  A    between atoms: C10_16  and  C11_17 
REMARK    7  A    between atoms: C11_17  and  C13_20 
REMARK    8  A    between atoms: C13_20  and  C14_21 
REMARK    9  A    between atoms: C14_21  and  C15_22 
REMARK   10  A    between atoms: C16_23  and  O2_24 
REMARK   11  A    between atoms: C17_26  and  O3_27 
ROOT
HETATM    1  C11 UNL     1      -0.081   1.623   1.098  1.00  0.00     0.115 C 
HETATM    2  C12 UNL     1       0.232   2.553   2.250  1.00  0.00     0.053 C 
HETATM    3  F2  UNL     1      -0.542   0.451   1.629  1.00  0.00    -0.242 F 
ENDROOT
BRANCH   1   4
HETATM    4  C10 UNL     1       1.295   1.314   0.465  1.00  0.00     0.157 C 
BRANCH   4   5
HETATM    5  N2  UNL     1       1.121   0.435  -0.641  1.00  0.00    -0.409 N 
ATOM      6  H2  UNL     1       0.201   0.084  -0.905  1.00  0.00     0.153 HD
BRANCH   5   7
HETATM    7  C9  UNL     1       2.296   0.069  -1.362  1.00  0.00     0.133 C 
HETATM    8  C5  UNL     1       3.228  -0.693  -0.458  1.00  0.00     0.109 C 
HETATM    9  C6  UNL     1       2.437  -1.990  -0.240  1.00  0.00     0.030 C 
HETATM   10  C7  UNL     1       2.014  -2.307  -1.647  1.00  0.00     0.041 C 
HETATM   11  C8  UNL     1       1.900  -0.989  -2.374  1.00  0.00     0.194 C 
HETATM   12  F1  UNL     1       2.616  -0.930  -3.538  1.00  0.00    -0.247 F 
BRANCH   8  13
HETATM   13  N1  UNL     1       4.475  -1.023  -1.132  1.00  0.00    -0.354 N 
HETATM   14  C4  UNL     1       5.690  -0.653  -0.528  1.00  0.00     0.217 C 
HETATM   15  O1  UNL     1       5.672  -0.047   0.580  1.00  0.00    -0.274 OA
ATOM     16  H1  UNL     1       4.468  -1.514  -2.026  1.00  0.00     0.162 HD
BRANCH  14  17
HETATM   17  C3  UNL     1       6.990  -0.971  -1.184  1.00  0.00     0.102 C 
BRANCH  17  18
HETATM   18  C2  UNL     1       8.159  -0.484  -0.379  1.00  0.00     0.005 C 
HETATM   19  C1  UNL     1       8.242  -1.075   0.992  1.00  0.00     0.005 C 
ENDBRANCH  17  18
ENDBRANCH  14  17
ENDBRANCH   8  13
ENDBRANCH   5   7
ENDBRANCH   4   5
ENDBRANCH   1   4
BRANCH   1  20
HETATM   20  C13 UNL     1      -0.976   2.215   0.086  1.00  0.00     0.045 C 
BRANCH  20  21
HETATM   21  C14 UNL     1      -2.343   2.598   0.468  1.00  0.00     0.011 C 
BRANCH  21  22
HETATM   22  C15 UNL     1      -3.268   1.491   0.919  1.00  0.00     0.024 C 
HETATM   23  C16 UNL     1      -4.587   2.179   1.263  1.00  0.00     0.154 C 
HETATM   24  C17 UNL     1      -5.606   1.123   0.961  1.00  0.00     0.176 C 
HETATM   25  C18 UNL     1      -5.145   0.720  -0.448  1.00  0.00     0.158 C 
HETATM   26  O4  UNL     1      -5.668  -0.501  -0.715  1.00  0.00    -0.373 OA
HETATM   27  C23 UNL     1      -3.657   0.605  -0.259  1.00  0.00     0.027 C 
HETATM   28  C19 UNL     1      -4.690  -1.469  -0.654  1.00  0.00     0.054 C 
HETATM   29  C20 UNL     1      -4.372  -1.875  -2.084  1.00  0.00     0.045 C 
HETATM   30  C21 UNL     1      -5.240  -2.684   0.059  1.00  0.00     0.045 C 
HETATM   31  C22 UNL     1      -3.494  -0.869   0.035  1.00  0.00     0.045 C 
BRANCH  23  32
HETATM   32  O2  UNL     1      -4.616   2.593   2.590  1.00  0.00    -0.393 OA
ATOM     33  H2  UNL     1      -5.437   3.021   2.804  1.00  0.00     0.210 HD
ENDBRANCH  23  32
BRANCH  24  34
HETATM   34  O3  UNL     1      -6.898   1.617   0.886  1.00  0.00    -0.390 OA
ATOM     35  H3  UNL     1      -7.544   0.947   0.695  1.00  0.00     0.210 HD
ENDBRANCH  24  34
ENDBRANCH  21  22
ENDBRANCH  20  21
ENDBRANCH   1  20
TORSDOF 11
