REMARK  13 active torsions:
REMARK  status: ('A' for Active; 'I' for Inactive)
REMARK    1  A    between atoms: C2_2  and  C3_3 
REMARK    2  A    between atoms: C3_3  and  C4_4 
REMARK    3  A    between atoms: C4_4  and  C6_7 
REMARK    4  A    between atoms: C9_12  and  N2_13 
REMARK    5  A    between atoms: N2_13  and  C10_15 
REMARK    6  A    between atoms: C10_15  and  C11_16 
REMARK    7  A    between atoms: C10_15  and  C12_19 
REMARK    8  A    between atoms: C11_16  and  O1_17 
REMARK    9  A    between atoms: C12_19  and  O2_20 
REMARK   10  A    between atoms: C13_24  and  N4_25 
REMARK   11  A    between atoms: N4_25  and  C14_27 
REMARK   12  A    between atoms: C14_27  and  C15_28 
REMARK   13  A    between atoms: N5_31  and  C18_32 
ROOT
HETATM    1  C6  UNL     1      -1.755   1.078   0.213  1.00  0.00     0.048 A 
HETATM    2  C7  UNL     1      -3.087   0.779   0.077  1.00  0.00     0.036 A 
HETATM    3  C8  UNL     1      -4.103   1.858  -0.034  1.00  0.00     0.069 C 
HETATM    4  N1  UNL     1      -3.519  -0.513   0.061  1.00  0.00    -0.195 N 
ATOM      5  H1  UNL     1      -4.517  -0.698  -0.042  1.00  0.00     0.184 HD
HETATM    6  C9  UNL     1      -2.680  -1.543   0.176  1.00  0.00     0.680 A 
HETATM    7  N3  UNL     1      -1.375  -1.281   0.311  1.00  0.00    -0.176 N 
ATOM      8  H3  UNL     1      -0.721  -2.058   0.401  1.00  0.00     0.186 HD
HETATM    9  C13 UNL     1      -0.902  -0.025   0.332  1.00  0.00     0.128 A 
ENDROOT
BRANCH   9  10
HETATM   10  N4  UNL     1       0.380   0.166   0.458  1.00  0.00    -0.375 N 
ATOM     11  H4  UNL     1       0.754   1.115   0.469  1.00  0.00     0.161 HD
BRANCH  10  12
HETATM   12  C14 UNL     1       1.277  -0.964   0.583  1.00  0.00     0.126 C 
BRANCH  12  13
HETATM   13  C15 UNL     1       2.714  -0.506   0.514  1.00  0.00     0.008 C 
HETATM   14  C16 UNL     1       3.019   0.162  -0.776  1.00  0.00     0.026 C 
HETATM   15  C17 UNL     1       4.437   0.032  -1.229  1.00  0.00     0.119 C 
HETATM   16  N5  UNL     1       5.373  -0.328  -0.225  1.00  0.00    -0.396 N 
HETATM   17  C20 UNL     1       5.001  -1.363   0.667  1.00  0.00     0.177 C 
HETATM   18 CL1  UNL     1       5.944  -2.869   0.436  1.00  0.00    -0.103 Cl
HETATM   19  C21 UNL     1       3.553  -1.761   0.600  1.00  0.00     0.047 C 
BRANCH  16  20
HETATM   20  C18 UNL     1       6.702  -0.360  -0.738  1.00  0.00     0.114 C 
HETATM   21  C19 UNL     1       7.758  -0.716   0.256  1.00  0.00     0.026 C 
ENDBRANCH  16  20
ENDBRANCH  12  13
ENDBRANCH  10  12
ENDBRANCH   9  10
BRANCH   1  22
HETATM   22  C4  UNL     1      -1.212   2.469   0.221  1.00  0.00     0.132 C 
HETATM   23  C5  UNL     1      -1.454   3.154   1.530  1.00  0.00     0.057 C 
HETATM   24  F1  UNL     1       0.207   2.270   0.218  1.00  0.00    -0.238 F 
BRANCH  22  25
HETATM   25  C3  UNL     1      -1.453   3.239  -1.019  1.00  0.00     0.048 C 
BRANCH  25  26
HETATM   26  C2  UNL     1      -0.623   4.459  -1.258  1.00  0.00    -0.001 C 
HETATM   27  C1  UNL     1      -0.815   5.533  -0.249  1.00  0.00     0.005 C 
ENDBRANCH  25  26
ENDBRANCH  22  25
ENDBRANCH   1  22
BRANCH   6  28
HETATM   28  N2  UNL     1      -3.131  -2.739   0.156  1.00  0.00    -0.217 N 
ATOM     29  H2  UNL     1      -2.446  -3.489   0.248  1.00  0.00     0.178 HD
BRANCH  28  30
HETATM   30  C10 UNL     1      -4.498  -3.132   0.018  1.00  0.00     0.146 C 
BRANCH  30  31
HETATM   31  C11 UNL     1      -5.250  -3.094   1.349  1.00  0.00     0.192 C 
BRANCH  31  32
HETATM   32  O1  UNL     1      -6.553  -3.490   1.097  1.00  0.00    -0.399 OA
ATOM     33  H1  UNL     1      -7.020  -3.466   1.924  1.00  0.00     0.209 HD
ENDBRANCH  31  32
ENDBRANCH  30  31
BRANCH  30  34
HETATM   34  C12 UNL     1      -4.583  -4.557  -0.494  1.00  0.00     0.192 C 
BRANCH  34  35
HETATM   35  O2  UNL     1      -3.960  -4.668  -1.741  1.00  0.00    -0.399 OA
ATOM     36  H2  UNL     1      -4.013  -5.561  -2.062  1.00  0.00     0.209 HD
ENDBRANCH  34  35
ENDBRANCH  30  34
ENDBRANCH  28  30
ENDBRANCH   6  28
TORSDOF 13
