REMARK  11 active torsions:
REMARK  status: ('A' for Active; 'I' for Inactive)
REMARK    1  A    between atoms: N1_1  and  C1_5 
REMARK    2  A    between atoms: C1_5  and  C2_6 
REMARK    3  A    between atoms: C1_5  and  C17_32 
REMARK    4  A    between atoms: C2_6  and  N2_7 
REMARK       I    between atoms: N2_7  and  C3_9 
REMARK    5  A    between atoms: C3_9  and  C4_11 
REMARK    6  A    between atoms: C4_11  and  C5_12 
REMARK    7  A    between atoms: C5_12  and  N3_13 
REMARK    8  A    between atoms: C11_22  and  O2_23 
REMARK    9  A    between atoms: C12_25  and  C13_26 
REMARK   10  A    between atoms: C13_26  and  C14_27 
REMARK   11  A    between atoms: C17_32  and  C18_33 
ROOT
HETATM    1  N3  UNL     1      -2.320   0.385  -0.442  1.00  0.00    -0.368 N 
HETATM    2  C6  UNL     1      -1.738   0.914   0.694  1.00  0.00     0.064 C 
HETATM    3  C7  UNL     1      -2.549   0.381   1.875  1.00  0.00     0.060 C 
HETATM    4  C8  UNL     1      -3.890   0.146   1.219  1.00  0.00     0.036 C 
HETATM    5  C9  UNL     1      -4.648   1.473   1.062  1.00  0.00     0.247 C 
HETATM    6  N4  UNL     1      -6.045   1.096   1.000  1.00  0.00    -0.072 N 
ATOM      7  H41 UNL     1      -6.410   1.073   0.048  1.00  0.00     0.277 HD
ATOM      8  H42 UNL     1      -6.669   1.817   1.363  1.00  0.00     0.277 HD
HETATM    9  C10 UNL     1      -6.182  -0.182   1.696  1.00  0.00     0.264 C 
HETATM   10  C11 UNL     1      -4.771  -0.594   2.102  1.00  0.00     0.156 C 
HETATM   11  C12 UNL     1      -3.500  -0.368  -0.122  1.00  0.00     0.101 C 
ENDROOT
BRANCH   1  12
HETATM   12  C5  UNL     1      -2.241   1.053  -1.645  1.00  0.00     0.072 C 
BRANCH  12  13
HETATM   13  C4  UNL     1      -0.966   1.089  -2.387  1.00  0.00     0.147 C 
BRANCH  13  14
HETATM   14  C3  UNL     1       0.192   1.810  -1.830  1.00  0.00     0.222 C 
HETATM   15  N2  UNL     1       1.502   1.502  -2.339  1.00  0.00    -0.359 N 
ATOM     16  H2  UNL     1       1.532   0.801  -3.079  1.00  0.00     0.162 HD
HETATM   17  O1  UNL     1       0.101   2.676  -0.936  1.00  0.00    -0.273 OA
BRANCH  15  18
HETATM   18  C2  UNL     1       2.751   2.036  -1.956  1.00  0.00     0.155 C 
BRANCH  18  19
HETATM   19  C1  UNL     1       3.247   1.765  -0.583  1.00  0.00     0.201 C 
BRANCH  19  20
HETATM   20  N1  UNL     1       2.443   2.237   0.491  1.00  0.00    -0.073 N 
ATOM     21  H13 UNL     1       2.275   3.237   0.379  1.00  0.00     0.274 HD
ATOM     22  H12 UNL     1       1.494   1.876   0.392  1.00  0.00     0.274 HD
ATOM     23  H11 UNL     1       2.784   2.051   1.434  1.00  0.00     0.274 HD
ENDBRANCH  19  20
BRANCH  19  24
HETATM   24  C17 UNL     1       3.628   0.298  -0.403  1.00  0.00     0.039 C 
BRANCH  24  25
HETATM   25  C18 UNL     1       4.414   0.118   0.865  1.00  0.00    -0.013 C 
HETATM   26  C19 UNL     1       4.791  -1.342   1.074  1.00  0.00     0.005 C 
HETATM   27  C20 UNL     1       5.885  -1.769   0.116  1.00  0.00     0.000 C 
HETATM   28  C21 UNL     1       7.107  -0.880   0.266  1.00  0.00     0.000 C 
HETATM   29  C22 UNL     1       6.860   0.182   1.327  1.00  0.00     0.000 C 
HETATM   30  C23 UNL     1       5.658   0.989   0.859  1.00  0.00     0.005 C 
ENDBRANCH  24  25
ENDBRANCH  19  24
ENDBRANCH  18  19
ENDBRANCH  15  18
ENDBRANCH  13  14
ENDBRANCH  12  13
ENDBRANCH   1  12
BRANCH  11  31
HETATM   31  C13 UNL     1      -3.320  -1.856  -0.179  1.00  0.00     0.037 C 
BRANCH  31  32
HETATM   32  C14 UNL     1      -2.892  -2.381  -1.526  1.00  0.00     0.066 A 
HETATM   33  C15 UNL     1      -3.712  -2.200  -2.746  1.00  0.00     0.090 A 
HETATM   34  C16 UNL     1      -3.681  -3.550  -2.145  1.00  0.00     0.248 A 
HETATM   35  F1  UNL     1      -4.831  -3.927  -1.468  1.00  0.00    -0.206 F 
HETATM   36  F2  UNL     1      -2.954  -4.525  -2.791  1.00  0.00    -0.206 F 
ENDBRANCH  31  32
ENDBRANCH  11  31
BRANCH  10  37
HETATM   37  O2  UNL     1      -4.595  -1.922   2.306  1.00  0.00    -0.393 OA
ATOM     38  H2  UNL     1      -5.172  -2.407   2.884  1.00  0.00     0.210 HD
ENDBRANCH  10  37
TORSDOF 11
