REMARK  6 active torsions:
REMARK  status: ('A' for Active; 'I' for Inactive)
REMARK    1  A    between atoms: C1_2  and  C2_4 
REMARK    2  A    between atoms: C2_4  and  C3_5 
REMARK    3  A    between atoms: C2_4  and  C8_10 
REMARK    4  A    between atoms: C3_5  and  C4_6 
REMARK    5  A    between atoms: C8_10  and  C9_11 
REMARK    6  A    between atoms: C8_10  and  N1_14 
ROOT
HETATM    1  C2  UNL     1       0.058   0.630  -0.005  1.00  0.00     0.120 C 
ENDROOT
BRANCH   1   2
HETATM    2  C1  UNL     1      -0.557   1.911  -0.438  1.00  0.00     0.179 C 
HETATM    3  O1  UNL     1      -0.823   2.143  -1.661  1.00  0.00    -0.648 OA
HETATM    4  O2  UNL     1      -0.866   2.917   0.479  1.00  0.00    -0.648 OA
ENDBRANCH   1   2
BRANCH   1   5
HETATM    5  C3  UNL     1      -0.558  -0.448  -0.838  1.00  0.00     0.022 C 
BRANCH   5   6
HETATM    6  C4  UNL     1      -1.985  -0.719  -0.761  1.00  0.00    -0.014 C 
HETATM    7  C5  UNL     1      -2.521  -1.151   0.632  1.00  0.00     0.005 C 
HETATM    8  C6  UNL     1      -3.893  -0.786   0.022  1.00  0.00     0.001 C 
HETATM    9  C7  UNL     1      -3.060   0.282  -0.758  1.00  0.00     0.005 C 
ENDBRANCH   5   6
ENDBRANCH   1   5
BRANCH   1  10
HETATM   10  C8  UNL     1       1.569   0.690  -0.242  1.00  0.00     0.200 C 
BRANCH  10  11
HETATM   11  C9  UNL     1       2.123   1.851   0.527  1.00  0.00     0.197 C 
HETATM   12  O3  UNL     1       2.833   1.605   1.527  1.00  0.00    -0.646 OA
HETATM   13  O4  UNL     1       1.903   3.173   0.200  1.00  0.00    -0.646 OA
ENDBRANCH  10  11
BRANCH  10  14
HETATM   14  N1  UNL     1       2.224  -0.495   0.244  1.00  0.00    -0.359 N 
HETATM   15  C10 UNL     1       3.573  -1.013   0.139  1.00  0.00     0.131 C 
HETATM   16  C11 UNL     1       2.952  -2.391   0.272  1.00  0.00     0.089 C 
HETATM   17  C12 UNL     1       1.925  -1.628   1.032  1.00  0.00     0.077 C 
HETATM   18  S1  UNL     1       0.940  -2.048   2.256  1.00  0.00    -0.065 SA
ENDBRANCH  10  14
ENDBRANCH   1  10
TORSDOF 6
