REMARK  7 active torsions:
REMARK  status: ('A' for Active; 'I' for Inactive)
REMARK    1  A    between atoms: C1_2  and  C2_4 
REMARK    2  A    between atoms: C2_4  and  O2_5 
REMARK    3  A    between atoms: N2_8  and  C4_9 
REMARK    4  A    between atoms: C4_9  and  C5_10 
REMARK    5  A    between atoms: C6_11  and  C7_12 
REMARK    6  A    between atoms: C7_12  and  C8_13 
REMARK    7  A    between atoms: C8_13  and  C9_14 
ROOT
HETATM    1  C4  UNL     1       2.084   0.554  -1.265  1.00  0.00     0.300 C 
ENDROOT
BRANCH   1   2
HETATM    2  N2  UNL     1       2.947   0.248  -0.134  1.00  0.00     0.098 N 
HETATM    3  C3  UNL     1       4.040   1.182   0.045  1.00  0.00     0.322 C 
HETATM    4  C2  UNL     1       4.926  -0.001   0.358  1.00  0.00     0.188 C 
HETATM    5  C15 UNL     1       3.934  -0.746  -0.510  1.00  0.00     0.322 C 
BRANCH   4   6
HETATM    6  C1  UNL     1       4.858  -0.428   1.770  1.00  0.00     0.269 C 
HETATM    7  N1  UNL     1       6.063  -0.724   2.496  1.00  0.00    -0.059 NA
HETATM    8  O1  UNL     1       3.753  -0.533   2.334  1.00  0.00    -0.273 OA
ENDBRANCH   4   6
BRANCH   4   9
HETATM    9  O2  UNL     1       6.211   0.081  -0.168  1.00  0.00    -0.377 OA
ATOM     10  H2  UNL     1       6.255   0.356  -1.076  1.00  0.00     0.211 HD
ENDBRANCH   4   9
ENDBRANCH   1   2
BRANCH   1  11
HETATM   11  C5  UNL     1       1.333   1.793  -1.011  1.00  0.00    -0.001 C 
HETATM   12  C6  UNL     1       0.036   1.871  -0.980  1.00  0.00    -0.029 C 
BRANCH  12  13
HETATM   13  C7  UNL     1      -0.892   0.746  -1.193  1.00  0.00     0.027 C 
BRANCH  13  14
HETATM   14  C8  UNL     1      -1.740   0.581   0.061  1.00  0.00     0.008 C 
BRANCH  14  15
HETATM   15  C9  UNL     1      -2.712  -0.560  -0.073  1.00  0.00    -0.014 C 
HETATM   16  C10 UNL     1      -3.511  -0.653   1.202  1.00  0.00     0.004 C 
HETATM   17  C11 UNL     1      -4.873   0.021   1.015  1.00  0.00     0.000 C 
HETATM   18  C12 UNL     1      -5.657  -0.820   0.033  1.00  0.00     0.000 C 
HETATM   19  C13 UNL     1      -4.785  -1.361  -1.079  1.00  0.00     0.000 C 
HETATM   20  C14 UNL     1      -3.553  -0.480  -1.299  1.00  0.00     0.004 C 
ENDBRANCH  14  15
ENDBRANCH  13  14
ENDBRANCH  12  13
ENDBRANCH   1  11
TORSDOF 7
