REMARK  6 active torsions:
REMARK  status: ('A' for Active; 'I' for Inactive)
REMARK    1  A    between atoms: N1_2  and  C2_5 
REMARK    2  A    between atoms: N2_7  and  C4_8 
REMARK    3  A    between atoms: C4_8  and  C5_9 
REMARK    4  A    between atoms: C5_9  and  C6_10 
REMARK    5  A    between atoms: C6_10  and  N3_11 
REMARK    6  A    between atoms: C12_21  and  C13_22 
ROOT
HETATM    1  C2  UNL     1      -2.856   0.828   0.601  1.00  0.00     0.219 C 
HETATM    2  C3  UNL     1      -1.571   1.126   1.359  1.00  0.00     0.305 C 
HETATM    3  N2  UNL     1      -0.746  -0.046   1.311  1.00  0.00     0.091 N 
HETATM    4  C11 UNL     1      -1.657  -1.109   1.021  1.00  0.00     0.279 C 
HETATM    5  C12 UNL     1      -2.505  -0.463  -0.083  1.00  0.00     0.050 C 
ENDROOT
BRANCH   3   6
HETATM    6  C4  UNL     1       0.378   0.073   0.446  1.00  0.00     0.274 C 
BRANCH   6   7
HETATM    7  C5  UNL     1       1.212  -1.168   0.452  1.00  0.00     0.050 C 
BRANCH   7   8
HETATM    8  C6  UNL     1       2.425  -1.034  -0.474  1.00  0.00     0.121 C 
BRANCH   8   9
HETATM    9  N3  UNL     1       3.212   0.052  -0.023  1.00  0.00    -0.395 N 
HETATM   10  C7  UNL     1       4.459   0.075  -0.273  1.00  0.00     0.009 A 
HETATM   11  C8  UNL     1       5.343   1.185   0.171  1.00  0.00     0.081 A 
HETATM   12  C10 UNL     1       5.226  -0.936  -1.010  1.00  0.00     0.284 A 
HETATM   13  C9  UNL     1       6.671   0.789  -0.375  1.00  0.00     0.238 A 
HETATM   14  N4  UNL     1       6.585  -0.495  -0.985  1.00  0.00    -0.070 N 
ATOM     15  H42 UNL     1       7.007  -0.506  -1.914  1.00  0.00     0.277 HD
ATOM     16  H41 UNL     1       7.199  -1.174  -0.534  1.00  0.00     0.277 HD
ATOM     17  H3  UNL     1       2.781   0.814   0.501  1.00  0.00     0.159 HD
ENDBRANCH   8   9
ENDBRANCH   7   8
ENDBRANCH   6   7
ENDBRANCH   3   6
BRANCH   1  18
HETATM   18  N1  UNL     1      -3.260   1.875  -0.274  1.00  0.00    -0.073 N 
HETATM   19  C1  UNL     1      -3.540   3.061   0.473  1.00  0.00     0.267 C 
ATOM     20  H12 UNL     1      -4.047   1.599  -0.861  1.00  0.00     0.277 HD
ATOM     21  H11 UNL     1      -2.575   2.042  -1.011  1.00  0.00     0.277 HD
ENDBRANCH   1  18
BRANCH   5  22
HETATM   22  C13 UNL     1      -3.698  -1.304  -0.417  1.00  0.00    -0.015 C 
HETATM   23  C14 UNL     1      -4.593  -0.519  -1.337  1.00  0.00     0.010 C 
HETATM   24  C15 UNL     1      -4.415  -1.846   0.773  1.00  0.00     0.010 C 
ENDBRANCH   5  22
TORSDOF 6
