REMARK  8 active torsions:
REMARK  status: ('A' for Active; 'I' for Inactive)
REMARK    1  A    between atoms: C2_2  and  C3_3 
REMARK    2  A    between atoms: C3_3  and  N1_4 
REMARK    3  A    between atoms: N1_4  and  C4_6 
REMARK    4  A    between atoms: C4_6  and  N2_8 
REMARK    5  A    between atoms: N2_8  and  C5_10 
REMARK    6  A    between atoms: C8_14  and  C9_15 
REMARK    7  A    between atoms: C9_15  and  C10_16 
REMARK    8  A    between atoms: C12_18  and  O1_19 
ROOT
HETATM    1  C5  UNL     1      -0.564  -0.634   0.501  1.00  0.00     0.143 C 
HETATM    2  C6  UNL     1      -1.043   0.624   1.197  1.00  0.00     0.300 C 
HETATM    3  N3  UNL     1      -1.464   1.530   0.183  1.00  0.00     0.093 N 
HETATM    4  C7  UNL     1      -2.400   2.521   0.587  1.00  0.00     0.310 C 
HETATM    5  C8  UNL     1      -1.701   0.825  -1.011  1.00  0.00     0.256 C 
HETATM    6  C12 UNL     1      -0.857  -0.437  -0.956  1.00  0.00     0.178 C 
ENDROOT
BRANCH   1   7
HETATM    7  N2  UNL     1       0.808  -0.950   0.790  1.00  0.00    -0.358 N 
ATOM      8  H2  UNL     1       1.000  -1.860   1.210  1.00  0.00     0.162 HD
BRANCH   7   9
HETATM    9  C4  UNL     1       1.911  -0.106   0.541  1.00  0.00     0.168 C 
HETATM   10  S1  UNL     1       1.773   1.379  -0.119  1.00  0.00    -0.041 SA
BRANCH   9  11
HETATM   11  N1  UNL     1       3.212  -0.554   0.879  1.00  0.00    -0.364 N 
ATOM     12  H1  UNL     1       3.324  -1.478   1.296  1.00  0.00     0.162 HD
BRANCH  11  13
HETATM   13  C3  UNL     1       4.387   0.260   0.651  1.00  0.00     0.148 C 
BRANCH  13  14
HETATM   14  C2  UNL     1       5.629  -0.417   1.083  1.00  0.00    -0.018 C 
HETATM   15  C1  UNL     1       6.608  -0.675   0.235  1.00  0.00     0.008 C 
ENDBRANCH  13  14
ENDBRANCH  11  13
ENDBRANCH   9  11
ENDBRANCH   7   9
ENDBRANCH   1   7
BRANCH   6  16
HETATM   16  O1  UNL     1      -1.466  -1.508  -1.560  1.00  0.00    -0.386 OA
HETATM   17  C13 UNL     1      -0.755  -2.031  -2.632  1.00  0.00     0.202 C 
ENDBRANCH   6  16
BRANCH   5  18
HETATM   18  C9  UNL     1      -3.136   0.533  -1.268  1.00  0.00     0.065 C 
BRANCH  18  19
HETATM   19  C10 UNL     1      -3.795  -0.291  -0.213  1.00  0.00    -0.035 C 
HETATM   20  C11 UNL     1      -4.833   0.100   0.476  1.00  0.00     0.007 C 
ENDBRANCH  18  19
ENDBRANCH   5  18
TORSDOF 8
