REMARK  6 active torsions:
REMARK  status: ('A' for Active; 'I' for Inactive)
REMARK    1  A    between atoms: C3_3  and  C4_4 
REMARK    2  A    between atoms: C4_4  and  C5_5 
REMARK    3  A    between atoms: C5_5  and  N1_6 
REMARK    4  A    between atoms: C8_9  and  C9_10 
REMARK    5  A    between atoms: C8_9  and  N3_13 
REMARK       I    between atoms: N3_13  and  C11_15 
REMARK    6  A    between atoms: C11_15  and  C12_17 
ROOT
HETATM    1  C1  UNL     1       5.712   0.880  -1.658  1.00  0.00     0.096 C 
HETATM    2  C2  UNL     1       5.098   0.156  -0.739  1.00  0.00    -0.188 C 
HETATM    3  C3  UNL     1       4.446  -0.616   0.094  1.00  0.00     0.081 C 
ENDROOT
BRANCH   3   4
HETATM    4  C4  UNL     1       3.692  -1.719  -0.487  1.00  0.00     0.031 C 
BRANCH   4   5
HETATM    5  C5  UNL     1       2.440  -1.263  -1.231  1.00  0.00     0.128 C 
BRANCH   5   6
HETATM    6  N1  UNL     1       1.566  -0.580  -0.354  1.00  0.00    -0.374 N 
HETATM    7  C6  UNL     1       0.937  -1.302   0.659  1.00  0.00     0.065 C 
HETATM    8  C7  UNL     1      -0.395  -0.839   1.130  1.00  0.00     0.077 C 
HETATM    9  C8  UNL     1      -0.799   0.523   0.704  1.00  0.00     0.053 C 
HETATM   10  C15 UNL     1      -0.287   0.908  -0.664  1.00  0.00     0.077 C 
HETATM   11  C16 UNL     1       1.216   0.746  -0.630  1.00  0.00     0.065 C 
BRANCH   9  12
HETATM   12  C9  UNL     1      -0.227   1.530   1.719  1.00  0.00     0.155 C 
HETATM   13  C10 UNL     1      -0.568   2.892   1.386  1.00  0.00     0.061 C 
HETATM   14  N2  UNL     1      -0.837   3.977   1.102  1.00  0.00    -0.197 NA
ENDBRANCH   9  12
BRANCH   9  15
HETATM   15  N3  UNL     1      -2.230   0.709   0.697  1.00  0.00    -0.350 N 
HETATM   16  C11 UNL     1      -3.153  -0.019  -0.088  1.00  0.00     0.222 C 
HETATM   17  O1  UNL     1      -2.738  -0.912  -0.862  1.00  0.00    -0.273 OA
ATOM     18  H3  UNL     1      -2.609   1.429   1.312  1.00  0.00     0.163 HD
BRANCH  16  19
HETATM   19  C12 UNL     1      -4.607   0.237  -0.031  1.00  0.00     0.078 A 
HETATM   20  C13 UNL     1      -5.371   0.083  -1.290  1.00  0.00     0.015 A 
HETATM   21  C14 UNL     1      -5.502  -0.921  -0.159  1.00  0.00     0.015 A 
ENDBRANCH  16  19
ENDBRANCH   9  15
ENDBRANCH   5   6
ENDBRANCH   4   5
ENDBRANCH   3   4
TORSDOF 6
