REMARK  9 active torsions:
REMARK  status: ('A' for Active; 'I' for Inactive)
REMARK    1  A    between atoms: C8_11  and  C9_13 
REMARK    2  A    between atoms: C9_13  and  C10_16 
REMARK    3  A    between atoms: C10_16  and  O1_17 
REMARK    4  A    between atoms: C10_16  and  C11_20 
REMARK    5  A    between atoms: C11_20  and  C12_23 
REMARK    6  A    between atoms: C12_23  and  C13_26 
REMARK    7  A    between atoms: C13_26  and  C15_29 
REMARK    8  A    between atoms: C15_29  and  O2_30 
REMARK    9  A    between atoms: C15_29  and  O3_32 
ROOT
HETATM    1  C1  UNL     1      -4.200   2.866  -1.193  1.00  0.00     0.016 C 
HETATM    2  C2  UNL     1      -4.008   1.732  -0.818  1.00  0.00    -0.064 C 
HETATM    3  C3  UNL     1      -3.806   0.377  -0.350  1.00  0.00     0.271 C 
HETATM    4  F1  UNL     1      -4.287  -0.548  -1.237  1.00  0.00    -0.218 F 
HETATM    5  C4  UNL     1      -4.593   0.246   0.936  1.00  0.00     0.293 C 
HETATM    6  F2  UNL     1      -4.178   1.168   1.893  1.00  0.00    -0.201 F 
HETATM    7  F3  UNL     1      -5.915   0.609   0.647  1.00  0.00    -0.201 F 
HETATM    8  C5  UNL     1      -4.587  -1.132   1.517  1.00  0.00     0.084 C 
HETATM    9  C6  UNL     1      -3.141  -1.518   1.799  1.00  0.00     0.009 C 
HETATM   10  C7  UNL     1      -2.398  -1.378   0.478  1.00  0.00     0.055 C 
HETATM   11  C8  UNL     1      -2.353   0.037  -0.026  1.00  0.00     0.227 C 
HETATM   12  F4  UNL     1      -1.944   0.851   1.029  1.00  0.00    -0.231 F 
ENDROOT
BRANCH  11  13
HETATM   13  C9  UNL     1      -1.454   0.215  -1.173  1.00  0.00     0.349 C 
HETATM   14  F5  UNL     1      -2.016  -0.669  -2.173  1.00  0.00    -0.196 F 
HETATM   15  F6  UNL     1      -1.593   1.439  -1.817  1.00  0.00    -0.196 F 
BRANCH  13  16
HETATM   16  C10 UNL     1      -0.040  -0.175  -1.146  1.00  0.00     0.345 C 
HETATM   17  F7  UNL     1       0.113  -1.584  -1.222  1.00  0.00    -0.198 F 
BRANCH  16  18
HETATM   18  O1  UNL     1       0.486   0.181  -2.448  1.00  0.00    -0.352 OA
ATOM     19  H1  UNL     1       1.402  -0.072  -2.431  1.00  0.00     0.213 HD
ENDBRANCH  16  18
BRANCH  16  20
HETATM   20  C11 UNL     1       0.909   0.301  -0.147  1.00  0.00     0.377 C 
HETATM   21  F8  UNL     1       0.640  -0.031   1.158  1.00  0.00    -0.193 F 
HETATM   22  F9  UNL     1       1.093   1.678  -0.138  1.00  0.00    -0.193 F 
BRANCH  20  23
HETATM   23  C12 UNL     1       2.314  -0.257  -0.418  1.00  0.00     0.353 C 
HETATM   24  F10 UNL     1       2.736   0.147  -1.680  1.00  0.00    -0.195 F 
HETATM   25  F11 UNL     1       2.271  -1.600  -0.246  1.00  0.00    -0.195 F 
BRANCH  23  26
HETATM   26  C13 UNL     1       3.320   0.346   0.530  1.00  0.00     0.220 C 
HETATM   27  C14 UNL     1       3.071   0.105   1.975  1.00  0.00     0.064 C 
HETATM   28  F12 UNL     1       3.480   1.696   0.243  1.00  0.00    -0.231 F 
BRANCH  26  29
HETATM   29  C15 UNL     1       4.671  -0.296   0.197  1.00  0.00     0.301 C 
BRANCH  29  30
HETATM   30  O2  UNL     1       4.660  -1.660   0.345  1.00  0.00    -0.368 OA
ATOM     31  H2  UNL     1       5.498  -2.058   0.139  1.00  0.00     0.212 HD
ENDBRANCH  29  30
BRANCH  29  32
HETATM   32  O3  UNL     1       5.035   0.003  -1.111  1.00  0.00    -0.363 OA
HETATM   33  C16 UNL     1       6.245   0.689  -1.177  1.00  0.00     0.204 C 
ENDBRANCH  29  32
ENDBRANCH  26  29
ENDBRANCH  23  26
ENDBRANCH  20  23
ENDBRANCH  16  20
ENDBRANCH  13  16
ENDBRANCH  11  13
TORSDOF 9
