REMARK  9 active torsions:
REMARK  status: ('A' for Active; 'I' for Inactive)
REMARK    1  A    between atoms: C3_5  and  C4_6 
REMARK    2  A    between atoms: C4_6  and  C5_9 
REMARK    3  A    between atoms: C5_9  and  O1_10 
REMARK    4  A    between atoms: N2_17  and  C8_18 
REMARK    5  A    between atoms: C8_18  and  C9_19 
REMARK    6  A    between atoms: C8_18  and  C12_25 
REMARK    7  A    between atoms: C9_19  and  C10_20 
REMARK    8  A    between atoms: C10_20  and  C11_21 
REMARK    9  A    between atoms: C13_28  and  C14_29 
ROOT
HETATM    1  C1  UNL     1      -1.484   2.762  -0.851  1.00  0.00     0.034 C 
HETATM    2  C2  UNL     1      -1.018   1.415  -0.434  1.00  0.00     0.109 C 
HETATM    3  N1  UNL     1      -2.211   0.705   0.067  1.00  0.00    -0.379 N 
ATOM      4  H1  UNL     1      -3.047   1.283   0.148  1.00  0.00     0.160 HD
HETATM    5  C3  UNL     1      -2.388  -0.650   0.455  1.00  0.00     0.128 C 
HETATM    6  C6  UNL     1      -1.490  -1.619   0.395  1.00  0.00     0.212 C 
HETATM    7  F4  UNL     1      -1.912  -2.816   0.825  1.00  0.00    -0.198 F 
HETATM    8  C7  UNL     1      -0.089  -1.496  -0.095  1.00  0.00     0.286 C 
HETATM    9  O2  UNL     1       0.584  -2.481   0.259  1.00  0.00    -0.265 OA
HETATM   10  N2  UNL     1       0.478  -0.435  -0.863  1.00  0.00    -0.316 N 
HETATM   11  C13 UNL     1      -0.318   0.598  -1.498  1.00  0.00     0.218 C 
ENDROOT
BRANCH  10  12
HETATM   12  C8  UNL     1       1.910  -0.479  -0.930  1.00  0.00     0.189 C 
BRANCH  12  13
HETATM   13  C9  UNL     1       2.459  -0.246   0.448  1.00  0.00     0.045 C 
BRANCH  13  14
HETATM   14  C10 UNL     1       3.954  -0.256   0.566  1.00  0.00     0.120 C 
BRANCH  14  15
HETATM   15  C11 UNL     1       4.378   0.026   2.019  1.00  0.00     0.388 C 
HETATM   16  F5  UNL     1       5.744   0.017   2.131  1.00  0.00    -0.171 F 
HETATM   17  F6  UNL     1       3.870  -0.934   2.873  1.00  0.00    -0.171 F 
HETATM   18  F7  UNL     1       3.924   1.242   2.449  1.00  0.00    -0.171 F 
ENDBRANCH  14  15
ENDBRANCH  13  14
ENDBRANCH  12  13
BRANCH  12  19
HETATM   19  C12 UNL     1       2.437  -1.652  -1.649  1.00  0.00     0.197 C 
HETATM   20  O3  UNL     1       3.650  -1.956  -1.766  1.00  0.00    -0.646 OA
HETATM   21  O4  UNL     1       1.577  -2.541  -2.279  1.00  0.00    -0.646 OA
ENDBRANCH  12  19
ENDBRANCH  10  12
BRANCH  11  22
HETATM   22  C14 UNL     1       0.310   1.370  -2.573  1.00  0.00     0.409 C 
HETATM   23  F8  UNL     1       0.905   0.534  -3.494  1.00  0.00    -0.169 F 
HETATM   24  F9  UNL     1       1.126   2.415  -2.215  1.00  0.00    -0.169 F 
HETATM   25  F10 UNL     1      -0.729   1.960  -3.323  1.00  0.00    -0.169 F 
ENDBRANCH  11  22
BRANCH   5  26
HETATM   26  C4  UNL     1      -3.714  -1.031   0.984  1.00  0.00     0.341 C 
HETATM   27  F1  UNL     1      -3.784  -2.353   1.328  1.00  0.00    -0.193 F 
HETATM   28  F2  UNL     1      -4.635  -0.832  -0.053  1.00  0.00    -0.193 F 
BRANCH  26  29
HETATM   29  C5  UNL     1      -4.149  -0.148   2.130  1.00  0.00     0.384 C 
HETATM   30  F3  UNL     1      -5.371  -0.637   2.579  1.00  0.00    -0.213 F 
BRANCH  29  31
HETATM   31  O1  UNL     1      -3.262  -0.214   3.183  1.00  0.00    -0.362 OA
ATOM     32  H1  UNL     1      -3.536   0.341   3.904  1.00  0.00     0.213 HD
ENDBRANCH  29  31
ENDBRANCH  26  29
ENDBRANCH   5  26
TORSDOF 9
