REMARK  9 active torsions:
REMARK  status: ('A' for Active; 'I' for Inactive)
REMARK       I    between atoms: N2_6  and  C5_7 
REMARK    1  A    between atoms: C5_7  and  C6_9 
REMARK    2  A    between atoms: C6_9  and  C7_12 
REMARK    3  A    between atoms: C7_12  and  O2_13 
REMARK    4  A    between atoms: C7_12  and  C8_16 
REMARK    5  A    between atoms: C8_16  and  C9_19 
REMARK    6  A    between atoms: C9_19  and  C11_22 
REMARK    7  A    between atoms: C11_22  and  O3_23 
REMARK    8  A    between atoms: C11_22  and  C12_25 
REMARK    9  A    between atoms: C12_25  and  C13_27 
ROOT
HETATM    1  C7  UNL     1      -1.273   0.084   0.807  1.00  0.00     0.348 C 
HETATM    2  F3  UNL     1      -1.264   0.676   2.030  1.00  0.00    -0.197 F 
ENDROOT
BRANCH   1   3
HETATM    3  C6  UNL     1       0.025   0.494   0.116  1.00  0.00     0.388 C 
HETATM    4  F1  UNL     1       0.066   1.847  -0.075  1.00  0.00    -0.189 F 
HETATM    5  F2  UNL     1       0.136  -0.217  -1.048  1.00  0.00    -0.189 F 
BRANCH   3   6
HETATM    6  C5  UNL     1       1.168   0.109   0.984  1.00  0.00     0.299 C 
HETATM    7  N2  UNL     1       2.514   0.206   0.630  1.00  0.00    -0.345 N 
HETATM    8  C4  UNL     1       3.475  -0.219   1.661  1.00  0.00     0.127 C 
HETATM    9  C14 UNL     1       2.819   0.695  -0.691  1.00  0.00     0.156 C 
HETATM   10  C3  UNL     1       4.223  -1.415   1.153  1.00  0.00     0.050 C 
HETATM   11  C2  UNL     1       5.414  -0.888   0.348  1.00  0.00     0.273 C 
HETATM   12  N1  UNL     1       4.952  -0.405  -0.924  1.00  0.00     0.085 N 
HETATM   13  C1  UNL     1       6.064  -0.385  -1.877  1.00  0.00     0.309 C 
HETATM   14  C15 UNL     1       4.342   0.895  -0.813  1.00  0.00     0.291 C 
HETATM   15  O1  UNL     1       0.921  -0.347   2.149  1.00  0.00    -0.266 OA
ENDBRANCH   3   6
ENDBRANCH   1   3
BRANCH   1  16
HETATM   16  O2  UNL     1      -1.265  -1.280   0.997  1.00  0.00    -0.352 OA
ATOM     17  H2  UNL     1      -2.073  -1.535   1.427  1.00  0.00     0.213 HD
ENDBRANCH   1  16
BRANCH   1  18
HETATM   18  C8  UNL     1      -2.418   0.464  -0.094  1.00  0.00     0.347 C 
HETATM   19  F4  UNL     1      -2.238  -0.215  -1.272  1.00  0.00    -0.196 F 
HETATM   20  F5  UNL     1      -2.374   1.824  -0.403  1.00  0.00    -0.196 F 
BRANCH  18  21
HETATM   21  C9  UNL     1      -3.777   0.236   0.508  1.00  0.00     0.199 C 
HETATM   22  C10 UNL     1      -3.815   1.137   1.773  1.00  0.00     0.061 C 
HETATM   23  F6  UNL     1      -3.793  -1.059   0.992  1.00  0.00    -0.234 F 
BRANCH  21  24
HETATM   24  C11 UNL     1      -4.906   0.608  -0.368  1.00  0.00     0.206 C 
BRANCH  24  25
HETATM   25  O3  UNL     1      -6.146   0.385   0.341  1.00  0.00    -0.389 OA
ATOM     26  H3  UNL     1      -6.872   0.624  -0.223  1.00  0.00     0.210 HD
ENDBRANCH  24  25
BRANCH  24  27
HETATM   27  C12 UNL     1      -5.107  -0.044  -1.676  1.00  0.00     0.309 C 
HETATM   28  F7  UNL     1      -6.260   0.664  -2.215  1.00  0.00    -0.237 F 
BRANCH  27  29
HETATM   29  C13 UNL     1      -5.627  -1.458  -1.671  1.00  0.00     0.420 C 
HETATM   30  F8  UNL     1      -6.859  -1.546  -1.037  1.00  0.00    -0.168 F 
HETATM   31  F9  UNL     1      -5.947  -1.816  -3.014  1.00  0.00    -0.168 F 
HETATM   32  F10 UNL     1      -4.732  -2.382  -1.275  1.00  0.00    -0.168 F 
ENDBRANCH  27  29
ENDBRANCH  24  27
ENDBRANCH  21  24
ENDBRANCH  18  21
ENDBRANCH   1  18
TORSDOF 9
