REMARK  8 active torsions:
REMARK  status: ('A' for Active; 'I' for Inactive)
REMARK    1  A    between atoms: C3_3  and  C4_4 
REMARK    2  A    between atoms: C3_3  and  N2_17 
REMARK    3  A    between atoms: C4_4  and  O1_5 
REMARK    4  A    between atoms: O1_5  and  C5_6 
REMARK       I    between atoms: C5_6  and  N1_8 
REMARK    5  A    between atoms: N1_8  and  C6_10 
REMARK    6  A    between atoms: C6_10  and  C7_11 
REMARK    7  A    between atoms: C6_10  and  C9_13 
REMARK       I    between atoms: N2_17  and  C13_19 
REMARK    8  A    between atoms: C13_19  and  C14_21 
ROOT
HETATM    1  C1  UNL     1       3.691  -2.747  -3.874  1.00  0.00     0.014 C 
HETATM    2  C2  UNL     1       2.982  -2.050  -3.192  1.00  0.00    -0.090 C 
HETATM    3  C3  UNL     1       2.094  -1.209  -2.333  1.00  0.00     0.187 C 
ENDROOT
BRANCH   3   4
HETATM    4  C4  UNL     1       0.714  -1.616  -2.632  1.00  0.00     0.218 C 
BRANCH   4   5
HETATM    5  O1  UNL     1      -0.357  -0.992  -2.034  1.00  0.00    -0.301 OA
BRANCH   5   6
HETATM    6  C5  UNL     1      -0.785  -0.914  -0.748  1.00  0.00     0.361 C 
HETATM    7  O2  UNL     1      -0.116  -1.519   0.123  1.00  0.00    -0.238 OA
HETATM    8  N1  UNL     1      -1.953  -0.178  -0.346  1.00  0.00    -0.329 N 
ATOM      9  H1  UNL     1      -2.494   0.313  -1.058  1.00  0.00     0.165 HD
BRANCH   8  10
HETATM   10  C6  UNL     1      -2.380  -0.110   1.005  1.00  0.00     0.113 C 
BRANCH  10  11
HETATM   11  C7  UNL     1      -3.615  -0.976   1.107  1.00  0.00    -0.012 C 
HETATM   12  C8  UNL     1      -4.338  -1.270   0.034  1.00  0.00     0.009 C 
ENDBRANCH  10  11
BRANCH  10  13
HETATM   13  C9  UNL     1      -2.781   1.256   1.484  1.00  0.00     0.012 C 
HETATM   14  C10 UNL     1      -3.932   1.877   0.723  1.00  0.00     0.007 C 
HETATM   15  C11 UNL     1      -3.169   3.159   0.545  1.00  0.00     0.001 C 
HETATM   16  C12 UNL     1      -1.941   2.410   1.079  1.00  0.00     0.007 C 
ENDBRANCH  10  13
ENDBRANCH   8  10
ENDBRANCH   5   6
ENDBRANCH   4   5
ENDBRANCH   3   4
BRANCH   3  17
HETATM   17  N2  UNL     1       2.601  -1.320  -1.019  1.00  0.00    -0.344 N 
HETATM   18  C13 UNL     1       3.231  -0.250  -0.313  1.00  0.00     0.222 C 
HETATM   19  O3  UNL     1       3.335   0.849  -0.908  1.00  0.00    -0.273 OA
ATOM     20  H2  UNL     1       2.512  -2.219  -0.546  1.00  0.00     0.163 HD
BRANCH  18  21
HETATM   21  C14 UNL     1       3.763  -0.356   1.060  1.00  0.00     0.078 A 
HETATM   22  C15 UNL     1       5.133   0.359   1.292  1.00  0.00     0.015 A 
HETATM   23  C16 UNL     1       3.868   0.870   1.878  1.00  0.00     0.015 A 
ENDBRANCH  18  21
ENDBRANCH   3  17
TORSDOF 8
