REMARK  9 active torsions:
REMARK  status: ('A' for Active; 'I' for Inactive)
REMARK    1  A    between atoms: C2_2  and  N1_3 
REMARK    2  A    between atoms: N1_3  and  C3_4 
REMARK    3  A    between atoms: N1_3  and  C5_8 
REMARK    4  A    between atoms: C3_4  and  C4_5 
REMARK    5  A    between atoms: C5_8  and  O3_9 
REMARK    6  A    between atoms: C5_8  and  C6_11 
REMARK    7  A    between atoms: C6_11  and  N2_12 
REMARK    8  A    between atoms: N2_12  and  C7_14 
REMARK    9  A    between atoms: C7_14  and  S1_16 
ROOT
HETATM    1  C6  UNL     1      -0.153  -0.735  -0.291  1.00  0.00     0.092 C 
HETATM    2  C10 UNL     1       0.103  -0.003  -1.613  1.00  0.00     0.039 C 
HETATM    3  C11 UNL     1      -0.030  -0.982  -2.717  1.00  0.00     0.003 C 
HETATM    4  C12 UNL     1       0.042  -2.340  -2.132  1.00  0.00     0.003 C 
HETATM    5  C13 UNL     1       0.190  -2.174  -0.672  1.00  0.00     0.039 C 
ENDROOT
BRANCH   1   6
HETATM    6  C5  UNL     1       0.760  -0.330   0.760  1.00  0.00     0.146 C 
BRANCH   6   7
HETATM    7  N1  UNL     1       2.157  -0.220   0.802  1.00  0.00    -0.330 N 
BRANCH   7   8
HETATM    8  C2  UNL     1       3.024  -0.568  -0.217  1.00  0.00     0.083 C 
HETATM    9  C1  UNL     1       4.338  -0.409  -0.100  1.00  0.00     0.030 C 
ENDBRANCH   7   8
BRANCH   7  10
HETATM   10  C3  UNL     1       2.734   0.314   2.051  1.00  0.00     0.243 C 
BRANCH  10  11
HETATM   11  C4  UNL     1       2.908   1.767   1.976  1.00  0.00     0.191 C 
HETATM   12  O1  UNL     1       3.361   2.407   2.953  1.00  0.00    -0.647 OA
HETATM   13  O2  UNL     1       2.584   2.492   0.839  1.00  0.00    -0.647 OA
ENDBRANCH  10  11
ENDBRANCH   7  10
ENDBRANCH   6   7
BRANCH   6  14
HETATM   14  O3  UNL     1       0.214   0.000   1.895  1.00  0.00    -0.347 OA
ATOM     15  H3  UNL     1      -0.733  -0.075   1.867  1.00  0.00     0.219 HD
ENDBRANCH   6  14
ENDBRANCH   1   6
BRANCH   1  16
HETATM   16  N2  UNL     1      -1.512  -0.680   0.028  1.00  0.00    -0.393 N 
ATOM     17  H2  UNL     1      -1.953  -1.588   0.172  1.00  0.00     0.155 HD
BRANCH  16  18
HETATM   18  C7  UNL     1      -2.340   0.382   0.177  1.00  0.00     0.135 C 
HETATM   19  C8  UNL     1      -2.231   1.467   1.179  1.00  0.00     0.043 C 
BRANCH  18  20
HETATM   20  S1  UNL     1      -4.106  -0.227   0.448  1.00  0.00    -0.149 SA
HETATM   21  C9  UNL     1      -5.138   1.241   0.631  1.00  0.00     0.091 C 
ENDBRANCH  18  20
ENDBRANCH  16  18
ENDBRANCH   1  16
TORSDOF 9
