REMARK  8 active torsions:
REMARK  status: ('A' for Active; 'I' for Inactive)
REMARK    1  A    between atoms: N1_1  and  C1_5 
REMARK    2  A    between atoms: C1_5  and  C2_6 
REMARK    3  A    between atoms: N2_9  and  C5_10 
REMARK    4  A    between atoms: C5_10  and  C6_11 
REMARK    5  A    between atoms: C5_10  and  C8_16 
REMARK    6  A    between atoms: C6_11  and  N3_12 
REMARK    7  A    between atoms: N3_12  and  C7_14 
REMARK    8  A    between atoms: C8_16  and  C9_17 
ROOT
HETATM    1  C5  UNL     1      -0.416   1.293   0.223  1.00  0.00     0.106 C 
ENDROOT
BRANCH   1   2
HETATM    2  N2  UNL     1       0.712   0.498   0.090  1.00  0.00    -0.368 N 
HETATM    3  C4  UNL     1       1.381   0.361  -1.135  1.00  0.00     0.064 C 
HETATM    4  C3  UNL     1       2.262  -0.882  -1.035  1.00  0.00     0.051 C 
HETATM    5  C2  UNL     1       3.465  -0.505  -0.207  1.00  0.00     0.020 C 
HETATM    6  C16 UNL     1       2.991   0.280   0.983  1.00  0.00     0.051 C 
HETATM    7  C15 UNL     1       1.503   0.148   1.202  1.00  0.00     0.064 C 
BRANCH   5   8
HETATM    8  C1  UNL     1       4.264  -1.719   0.216  1.00  0.00     0.234 C 
BRANCH   8   9
HETATM    9  N1  UNL     1       4.748  -2.456  -0.915  1.00  0.00    -0.079 N 
ATOM     10  H13 UNL     1       3.988  -2.712  -1.545  1.00  0.00     0.274 HD
ATOM     11  H12 UNL     1       5.284  -1.860  -1.546  1.00  0.00     0.274 HD
ATOM     12  H11 UNL     1       5.286  -3.274  -0.630  1.00  0.00     0.274 HD
ENDBRANCH   8   9
ENDBRANCH   5   8
ENDBRANCH   1   2
BRANCH   1  13
HETATM   13  C6  UNL     1      -0.198   2.773  -0.063  1.00  0.00     0.147 C 
BRANCH  13  14
HETATM   14  N3  UNL     1       0.762   3.402   0.777  1.00  0.00    -0.366 N 
ATOM     15  H3  UNL     1       1.244   2.866   1.498  1.00  0.00     0.161 HD
BRANCH  14  16
HETATM   16  C7  UNL     1       1.042   4.774   0.604  1.00  0.00     0.348 C 
HETATM   17  O1  UNL     1       0.441   5.414  -0.286  1.00  0.00    -0.284 OA
ENDBRANCH  14  16
ENDBRANCH  13  14
ENDBRANCH   1  13
BRANCH   1  18
HETATM   18  C8  UNL     1      -1.620   0.922  -0.581  1.00  0.00     0.032 C 
BRANCH  18  19
HETATM   19  C9  UNL     1      -2.213  -0.401  -0.366  1.00  0.00    -0.013 C 
HETATM   20  C10 UNL     1      -3.414  -0.514  -1.308  1.00  0.00     0.005 C 
HETATM   21  C11 UNL     1      -4.099  -1.828  -1.199  1.00  0.00     0.000 C 
HETATM   22  C12 UNL     1      -4.610  -1.941   0.244  1.00  0.00     0.000 C 
HETATM   23  C13 UNL     1      -3.373  -2.031   1.098  1.00  0.00     0.000 C 
HETATM   24  C14 UNL     1      -2.542  -0.764   1.038  1.00  0.00     0.005 C 
ENDBRANCH  18  19
ENDBRANCH   1  18
TORSDOF 8
