REMARK  8 active torsions:
REMARK  status: ('A' for Active; 'I' for Inactive)
REMARK    1  A    between atoms: C2_2  and  C3_3 
REMARK    2  A    between atoms: C2_2  and  N1_6 
REMARK    3  A    between atoms: C3_3  and  O1_4 
REMARK       I    between atoms: N1_6  and  C4_8 
REMARK       I    between atoms: C4_8  and  N2_10 
REMARK    4  A    between atoms: N2_10  and  C6_12 
REMARK    5  A    between atoms: C8_14  and  C9_15 
REMARK    6  A    between atoms: C9_15  and  O3_16 
REMARK    7  A    between atoms: C9_15  and  C13_20 
REMARK    8  A    between atoms: O3_16  and  C10_17 
ROOT
HETATM    1  C6  UNL     1       0.504  -0.928  -0.353  1.00  0.00     0.095 A 
HETATM    2  C7  UNL     1       0.259  -2.272   0.415  1.00  0.00     0.035 A 
HETATM    3  C8  UNL     1      -0.812  -1.477  -0.221  1.00  0.00     0.040 A 
ENDROOT
BRANCH   1   4
HETATM    4  N2  UNL     1       1.269  -0.067   0.474  1.00  0.00    -0.333 N 
HETATM    5  C4  UNL     1       2.460   0.498  -0.050  1.00  0.00     0.318 C 
HETATM    6  N1  UNL     1       3.003   0.346  -1.321  1.00  0.00    -0.337 N 
HETATM    7  O2  UNL     1       3.129   1.251   0.750  1.00  0.00    -0.247 OA
ATOM      8  H1  UNL     1       2.520  -0.238  -2.004  1.00  0.00     0.164 HD
HETATM    9  C5  UNL     1       0.955   0.282   1.848  1.00  0.00     0.155 C 
BRANCH   6  10
HETATM   10  C2  UNL     1       4.254   1.007  -1.698  1.00  0.00     0.105 C 
HETATM   11  C1  UNL     1       5.278  -0.001  -2.170  1.00  0.00     0.034 C 
BRANCH  10  12
HETATM   12  C3  UNL     1       3.996   1.966  -2.840  1.00  0.00     0.189 C 
BRANCH  12  13
HETATM   13  O1  UNL     1       5.168   2.613  -3.223  1.00  0.00    -0.399 OA
ATOM     14  H1  UNL     1       5.006   3.215  -3.940  1.00  0.00     0.209 HD
ENDBRANCH  12  13
ENDBRANCH  10  12
ENDBRANCH   6  10
ENDBRANCH   1   4
BRANCH   3  15
HETATM   15  C9  UNL     1      -2.010  -0.912   0.470  1.00  0.00     0.131 C 
BRANCH  15  16
HETATM   16  O3  UNL     1      -2.453   0.260  -0.036  1.00  0.00    -0.381 OA
BRANCH  16  17
HETATM   17  C10 UNL     1      -2.521   1.387   0.696  1.00  0.00     0.114 C 
HETATM   18  C11 UNL     1      -3.922   1.944   0.696  1.00  0.00     0.039 C 
HETATM   19  C12 UNL     1      -1.661   2.518   0.072  1.00  0.00     0.039 C 
ENDBRANCH  16  17
ENDBRANCH  15  16
BRANCH  15  20
HETATM   20  C13 UNL     1      -3.162  -1.925   0.440  1.00  0.00     0.007 C 
HETATM   21  C14 UNL     1      -2.717  -3.215   1.137  1.00  0.00     0.012 C 
HETATM   22  C15 UNL     1      -4.392  -1.416   1.157  1.00  0.00     0.012 C 
ENDBRANCH  15  20
ENDBRANCH   3  15
TORSDOF 8
