REMARK  2 active torsions:
REMARK  status: ('A' for Active; 'I' for Inactive)
REMARK    1  A    between atoms: C2_2  and  C3_3 
REMARK    2  A    between atoms: C5_5  and  C6_6 
ROOT
HETATM    1  C6  UNL     1      -0.425   0.146  -0.001  1.00  0.00     0.008 C 
HETATM    2  C7  UNL     1       0.242   1.131   0.928  1.00  0.00     0.008 C 
HETATM    3  C8  UNL     1       1.184   2.097   0.415  1.00  0.00     0.003 C 
HETATM    4  C9  UNL     1       2.328   1.820  -0.450  1.00  0.00     0.033 C 
HETATM    5  C10 UNL     1       3.406   0.928   0.095  1.00  0.00     0.186 C 
HETATM    6  C11 UNL     1       4.020   0.008  -0.967  1.00  0.00     0.035 C 
HETATM    7  C12 UNL     1       3.416  -1.389  -0.681  1.00  0.00     0.035 C 
HETATM    8  C13 UNL     1       2.140  -0.856  -0.045  1.00  0.00     0.186 C 
HETATM    9  C14 UNL     1       1.188  -1.781   0.479  1.00  0.00     0.034 C 
HETATM   10  C15 UNL     1      -0.222  -1.249   0.419  1.00  0.00     0.010 C 
HETATM   11  N1  UNL     1       2.822  -0.052   0.989  1.00  0.00    -0.067 N 
ATOM     12  H11 UNL     1       2.248   0.302   1.754  1.00  0.00     0.278 HD
ATOM     13  H12 UNL     1       3.458  -0.545   1.616  1.00  0.00     0.278 HD
ENDROOT
BRANCH   1  14
HETATM   14  C5  UNL     1      -1.867   0.451  -0.139  1.00  0.00    -0.020 C 
HETATM   15  C3  UNL     1      -2.978  -0.129  -0.020  1.00  0.00    -0.087 C 
HETATM   16  C4  UNL     1      -3.278  -1.512   0.335  1.00  0.00     0.043 C 
BRANCH  15  17
HETATM   17  C2  UNL     1      -4.239   0.711  -0.297  1.00  0.00     0.029 C 
HETATM   18  C1  UNL     1      -4.996   0.075  -1.436  1.00  0.00     0.010 C 
ENDBRANCH  15  17
ENDBRANCH   1  14
TORSDOF 2
