REMARK  2 active torsions:
REMARK  status: ('A' for Active; 'I' for Inactive)
REMARK    1  A    between atoms: C4_5  and  C6_7 
REMARK    2  A    between atoms: C6_7  and  C7_8 
ROOT
HETATM    1  C7  UNL     1      -0.790   0.435   0.533  1.00  0.00    -0.013 C 
HETATM    2  C8  UNL     1      -1.387   0.761  -0.751  1.00  0.00     0.005 C 
HETATM    3  C9  UNL     1      -2.324  -0.268  -1.357  1.00  0.00     0.000 C 
HETATM    4  C10 UNL     1      -3.616  -0.441  -0.664  1.00  0.00     0.000 C 
HETATM    5  C11 UNL     1      -3.624  -0.096   0.797  1.00  0.00     0.000 C 
HETATM    6  C12 UNL     1      -2.624  -0.896   1.589  1.00  0.00     0.000 C 
HETATM    7  C13 UNL     1      -1.277  -0.971   0.972  1.00  0.00     0.005 C 
ENDROOT
BRANCH   1   8
HETATM    8  C6  UNL     1       0.629   0.580   0.837  1.00  0.00     0.026 C 
BRANCH   8   9
HETATM    9  C4  UNL     1       1.684  -0.160   0.119  1.00  0.00     0.022 A 
HETATM   10  C2  UNL     1       3.137   0.055   0.526  1.00  0.00     0.018 A 
HETATM   11  C1  UNL     1       3.469   1.010   1.630  1.00  0.00     0.028 C 
HETATM   12  C3  UNL     1       4.223  -0.031  -0.523  1.00  0.00     0.028 C 
HETATM   13  S1  UNL     1       2.434  -1.527   0.978  1.00  0.00    -0.147 SA
HETATM   14  C5  UNL     1       1.573  -0.177  -1.392  1.00  0.00     0.028 C 
ENDBRANCH   8   9
ENDBRANCH   1   8
TORSDOF 2
