REMARK  6 active torsions:
REMARK  status: ('A' for Active; 'I' for Inactive)
REMARK    1  A    between atoms: C1_2  and  N1_3 
REMARK    2  A    between atoms: N1_3  and  C2_5 
REMARK    3  A    between atoms: C2_5  and  C3_6 
REMARK    4  A    between atoms: C3_6  and  C4_7 
REMARK    5  A    between atoms: C5_8  and  C6_9 
REMARK    6  A    between atoms: C6_9  and  C7_10 
ROOT
HETATM    1  C4  UNL     1       0.871  -0.611  -0.057  1.00  0.00    -0.029 C 
HETATM    2  C5  UNL     1      -0.239   0.115  -0.107  1.00  0.00    -0.030 C 
ENDROOT
BRANCH   1   3
HETATM    3  C3  UNL     1       2.037  -0.384  -0.955  1.00  0.00     0.046 C 
BRANCH   3   4
HETATM    4  C2  UNL     1       3.265  -0.056  -0.162  1.00  0.00     0.126 C 
BRANCH   4   5
HETATM    5  N1  UNL     1       4.391   0.162  -1.045  1.00  0.00    -0.368 N 
ATOM      6  H1  UNL     1       4.243   0.076  -2.051  1.00  0.00     0.161 HD
BRANCH   5   7
HETATM    7  C1  UNL     1       5.685   0.488  -0.581  1.00  0.00     0.348 C 
HETATM    8  O1  UNL     1       5.901   0.602   0.657  1.00  0.00    -0.284 OA
ENDBRANCH   5   7
ENDBRANCH   4   5
ENDBRANCH   3   4
ENDBRANCH   1   3
BRANCH   2   9
HETATM    9  C6  UNL     1      -1.325  -0.191   0.820  1.00  0.00     0.031 C 
BRANCH   9  10
HETATM   10  C7  UNL     1      -2.621  -0.573   0.201  1.00  0.00    -0.011 C 
HETATM   11  C8  UNL     1      -3.304   0.376  -0.694  1.00  0.00     0.005 C 
HETATM   12  C9  UNL     1      -4.216   0.819   0.441  1.00  0.00     0.001 C 
HETATM   13  C10 UNL     1      -3.758  -0.411   1.218  1.00  0.00     0.005 C 
ENDBRANCH   9  10
ENDBRANCH   2   9
TORSDOF 6
