REMARK  5 active torsions:
REMARK  status: ('A' for Active; 'I' for Inactive)
REMARK    1  A    between atoms: C2_2  and  C3_3 
REMARK    2  A    between atoms: C3_3  and  C4_4 
REMARK    3  A    between atoms: C4_4  and  N1_5 
REMARK    4  A    between atoms: N1_5  and  C5_7 
REMARK    5  A    between atoms: C5_7  and  C6_8 
ROOT
HETATM    1  N1  UNL     1       0.687  -0.437   0.646  1.00  0.00    -0.421 N 
ATOM      2  H1  UNL     1       0.256  -0.766   1.510  1.00  0.00     0.153 HD
ENDROOT
BRANCH   1   3
HETATM    3  C4  UNL     1       2.086  -0.582   0.381  1.00  0.00     0.117 C 
BRANCH   3   4
HETATM    4  C3  UNL     1       2.794   0.759   0.387  1.00  0.00     0.045 C 
BRANCH   4   5
HETATM    5  C2  UNL     1       4.248   0.628   0.113  1.00  0.00    -0.035 C 
HETATM    6  C1  UNL     1       4.796  -0.554  -0.117  1.00  0.00     0.007 C 
ENDBRANCH   4   5
ENDBRANCH   3   4
ENDBRANCH   1   3
BRANCH   1   7
HETATM    7  C5  UNL     1      -0.068   0.209  -0.398  1.00  0.00     0.118 C 
BRANCH   7   8
HETATM    8  C6  UNL     1      -1.483   0.301   0.056  1.00  0.00     0.003 C 
HETATM    9  C7  UNL     1      -2.154  -0.998   0.355  1.00  0.00     0.006 C 
HETATM   10  C8  UNL     1      -3.617  -0.553   0.475  1.00  0.00     0.000 C 
HETATM   11  C9  UNL     1      -3.713   0.786  -0.232  1.00  0.00     0.000 C 
HETATM   12  C10 UNL     1      -2.411   0.827  -1.049  1.00  0.00     0.006 C 
ENDBRANCH   7   8
ENDBRANCH   1   7
TORSDOF 5
