REMARK  5 active torsions:
REMARK  status: ('A' for Active; 'I' for Inactive)
REMARK    1  A    between atoms: C2_2  and  C3_3 
REMARK    2  A    between atoms: C3_3  and  C4_4 
REMARK    3  A    between atoms: C7_7  and  C8_8 
REMARK    4  A    between atoms: C8_8  and  N1_9 
REMARK    5  A    between atoms: N1_9  and  C9_11 
ROOT
HETATM    1  C4  UNL     1      -0.254  -0.850   0.542  1.00  0.00    -0.009 A 
HETATM    2  C5  UNL     1      -0.378  -1.811  -0.588  1.00  0.00     0.005 A 
HETATM    3  C6  UNL     1       1.006  -1.460  -1.090  1.00  0.00     0.007 A 
HETATM    4  C7  UNL     1       1.152  -0.528   0.097  1.00  0.00     0.007 A 
ENDROOT
BRANCH   4   5
HETATM    5  C8  UNL     1       1.376   0.862  -0.395  1.00  0.00     0.127 C 
BRANCH   5   6
HETATM    6  N1  UNL     1       2.767   0.995  -0.777  1.00  0.00    -0.368 N 
ATOM      7  H1  UNL     1       2.963   1.209  -1.755  1.00  0.00     0.161 HD
BRANCH   6   8
HETATM    8  C9  UNL     1       3.871   0.854   0.085  1.00  0.00     0.348 C 
HETATM    9  O1  UNL     1       3.753   0.597   1.313  1.00  0.00    -0.284 OA
ENDBRANCH   6   8
ENDBRANCH   5   6
ENDBRANCH   4   5
BRANCH   1  10
HETATM   10  C3  UNL     1      -1.205   0.318   0.548  1.00  0.00     0.005 C 
BRANCH  10  11
HETATM   11  C2  UNL     1      -2.651  -0.117   0.597  1.00  0.00    -0.004 C 
HETATM   12  C1  UNL     1      -3.482   1.168   0.598  1.00  0.00     0.005 C 
ENDBRANCH  10  11
ENDBRANCH   1  10
TORSDOF 5
