REMARK  3 active torsions:
REMARK  status: ('A' for Active; 'I' for Inactive)
REMARK    1  A    between atoms: C2_3  and  C3_4 
REMARK    2  A    between atoms: C3_4  and  N2_5 
REMARK    3  A    between atoms: N2_5  and  C4_7 
ROOT
HETATM    1  N1  UNL     1       5.287   0.225  -1.357  1.00  0.00    -0.197 NA
HETATM    2  C1  UNL     1       4.263   0.494  -0.900  1.00  0.00     0.064 C 
HETATM    3  C2  UNL     1       2.925   0.817  -0.310  1.00  0.00     0.167 C 
ENDROOT
BRANCH   3   4
HETATM    4  C3  UNL     1       2.535  -0.348   0.550  1.00  0.00     0.070 C 
BRANCH   4   5
HETATM    5  N2  UNL     1       1.326  -0.177   1.207  1.00  0.00    -0.397 N 
ATOM      6  H2  UNL     1       1.342  -0.068   2.221  1.00  0.00     0.159 HD
BRANCH   5   7
HETATM    7  C4  UNL     1       0.084  -0.145   0.559  1.00  0.00     0.080 C 
HETATM    8  C5  UNL     1      -0.254  -1.406  -0.211  1.00  0.00     0.025 C 
HETATM    9  C6  UNL     1      -1.700  -1.738   0.049  1.00  0.00     0.002 C 
HETATM   10  C7  UNL     1      -2.606  -0.688  -0.586  1.00  0.00     0.000 C 
HETATM   11  C8  UNL     1      -2.680   0.550   0.246  1.00  0.00     0.000 C 
HETATM   12  C9  UNL     1      -1.640   1.577  -0.011  1.00  0.00     0.002 C 
HETATM   13  C10 UNL     1      -0.254   1.032  -0.290  1.00  0.00     0.025 C 
ENDBRANCH   5   7
ENDBRANCH   4   5
ENDBRANCH   3   4
TORSDOF 3
