REMARK  3 active torsions:
REMARK  status: ('A' for Active; 'I' for Inactive)
REMARK    1  A    between atoms: N1_4  and  N2_6 
REMARK    2  A    between atoms: N2_6  and  C4_8 
REMARK    3  A    between atoms: C4_8  and  C6_10 
ROOT
HETATM    1  N2  UNL     1      -0.657  -0.237  -0.644  1.00  0.00    -0.332 N 
ATOM      2  H2  UNL     1      -0.308   0.655  -0.995  1.00  0.00     0.180 HD
ENDROOT
BRANCH   1   3
HETATM    3  N1  UNL     1      -1.996  -0.582  -0.770  1.00  0.00    -0.314 N 
HETATM    4  C2  UNL     1      -2.982   0.195  -0.531  1.00  0.00    -0.005 C 
HETATM    5  C1  UNL     1      -2.828   1.592  -0.081  1.00  0.00     0.064 C 
HETATM    6  C3  UNL     1      -4.352  -0.355  -0.723  1.00  0.00     0.064 C 
ATOM      7  H1  UNL     1      -2.210  -1.531  -1.078  1.00  0.00     0.185 HD
ENDBRANCH   1   3
BRANCH   1   8
HETATM    8  C4  UNL     1       0.226  -1.182  -0.000  1.00  0.00     0.099 C 
HETATM    9  C5  UNL     1      -0.266  -1.427   1.418  1.00  0.00     0.034 C 
BRANCH   8  10
HETATM   10  C6  UNL     1       1.643  -0.711   0.091  1.00  0.00     0.009 C 
HETATM   11  C7  UNL     1       1.777   0.578   0.880  1.00  0.00     0.007 C 
HETATM   12  C8  UNL     1       3.231   0.935   0.581  1.00  0.00     0.000 C 
HETATM   13  C9  UNL     1       3.523   0.363  -0.791  1.00  0.00     0.000 C 
HETATM   14  C10 UNL     1       2.230  -0.316  -1.240  1.00  0.00     0.007 C 
ENDBRANCH   8  10
ENDBRANCH   1   8
TORSDOF 3
