REMARK  4 active torsions:
REMARK  status: ('A' for Active; 'I' for Inactive)
REMARK    1  A    between atoms: N1_1  and  N2_4 
REMARK    2  A    between atoms: N3_6  and  C1_8 
REMARK    3  A    between atoms: C1_8  and  C2_9 
REMARK    4  A    between atoms: C2_9  and  C3_10 
ROOT
HETATM    1  C1  UNL     1       2.461  -0.797   0.239  1.00  0.00     0.143 C 
ENDROOT
BRANCH   1   2
HETATM    2  N3  UNL     1       2.717   0.551   0.636  1.00  0.00    -0.323 N 
HETATM    3  N2  UNL     1       3.588   1.241   0.108  1.00  0.00    -0.254 N 
ATOM      4  H2  UNL     1       4.416   0.676   0.297  1.00  0.00     0.207 HD
ATOM      5  H3  UNL     1       2.157   0.957   1.385  1.00  0.00     0.181 HD
BRANCH   3   6
HETATM    6  N1  UNL     1       4.092   2.185  -0.506  1.00  0.00    -0.331 N 
ATOM      7  H12 UNL     1       3.235   2.713  -0.670  1.00  0.00     0.178 HD
ATOM      8  H11 UNL     1       4.814   2.757  -0.944  1.00  0.00     0.178 HD
ENDBRANCH   3   6
ENDBRANCH   1   2
BRANCH   1   9
HETATM    9  C2  UNL     1       1.081  -1.300   0.511  1.00  0.00     0.046 C 
BRANCH   9  10
HETATM   10  C3  UNL     1      -0.029  -0.557  -0.175  1.00  0.00     0.078 C 
HETATM   11  C4  UNL     1      -0.054   0.863   0.246  1.00  0.00     0.025 C 
HETATM   12  C5  UNL     1      -1.447   1.469   0.207  1.00  0.00     0.004 C 
HETATM   13  C6  UNL     1      -2.252   0.768  -0.843  1.00  0.00     0.019 C 
HETATM   14  C7  UNL     1      -2.424  -0.670  -0.419  1.00  0.00     0.114 C 
HETATM   15  N4  UNL     1      -1.249  -1.276   0.094  1.00  0.00    -0.417 N 
ATOM     16  H4  UNL     1      -1.266  -2.154   0.614  1.00  0.00     0.153 HD
ENDBRANCH   9  10
ENDBRANCH   1   9
TORSDOF 4
