REMARK  9 active torsions:
REMARK  status: ('A' for Active; 'I' for Inactive)
REMARK    1  A    between atoms: O1_2  and  C2_3 
REMARK    2  A    between atoms: C3_4  and  O2_5 
REMARK    3  A    between atoms: O2_5  and  C4_6 
REMARK    4  A    between atoms: C7_10  and  O4_11 
REMARK    5  A    between atoms: C9_13  and  O5_14 
REMARK    6  A    between atoms: C10_16  and  O6_17 
REMARK    7  A    between atoms: C12_20  and  O7_21 
REMARK    8  A    between atoms: C13_23  and  O8_24 
REMARK    9  A    between atoms: O8_24  and  C14_25 
ROOT
HETATM    1  C2  UNL     1       0.804   1.109   0.255  1.00  0.00     0.156 C 
HETATM    2  C3  UNL     1       0.079   0.002  -0.447  1.00  0.00     0.156 C 
HETATM    3  C11 UNL     1       0.884  -1.274  -0.557  1.00  0.00     0.069 C 
HETATM    4  C12 UNL     1       2.288  -1.035  -1.052  1.00  0.00     0.150 C 
HETATM    5  C13 UNL     1       3.010   0.030  -0.300  1.00  0.00     0.157 C 
HETATM    6  C18 UNL     1       2.186   0.737   0.716  1.00  0.00     0.045 C 
HETATM    7  C19 UNL     1       2.117  -0.113   1.967  1.00  0.00     0.015 C 
ENDROOT
BRANCH   2   8
HETATM    8  O2  UNL     1      -1.093  -0.370   0.252  1.00  0.00    -0.351 OA
BRANCH   8   9
HETATM    9  C4  UNL     1      -2.241  -0.193  -0.518  1.00  0.00     0.292 C 
HETATM   10  O3  UNL     1      -3.001   0.773   0.178  1.00  0.00    -0.351 OA
HETATM   11  C5  UNL     1      -4.217   0.932  -0.482  1.00  0.00     0.152 C 
HETATM   12  C6  UNL     1      -4.901   2.218  -0.138  1.00  0.00     0.042 C 
HETATM   13  C7  UNL     1      -5.056  -0.289  -0.081  1.00  0.00     0.180 C 
HETATM   14  C9  UNL     1      -4.408  -1.476  -0.713  1.00  0.00     0.183 C 
HETATM   15  C10 UNL     1      -2.926  -1.507  -0.638  1.00  0.00     0.204 C 
BRANCH  13  16
HETATM   16  O4  UNL     1      -4.954  -0.403   1.290  1.00  0.00    -0.385 OA
HETATM   17  C8  UNL     1      -6.195  -0.365   1.924  1.00  0.00     0.202 C 
ENDBRANCH  13  16
BRANCH  14  18
HETATM   18  O5  UNL     1      -4.897  -1.584  -2.016  1.00  0.00    -0.390 OA
ATOM     19  H5  UNL     1      -4.485  -2.339  -2.418  1.00  0.00     0.210 HD
ENDBRANCH  14  18
BRANCH  15  20
HETATM   20  O6  UNL     1      -2.473  -2.135  -1.823  1.00  0.00    -0.388 OA
ATOM     21  H6  UNL     1      -2.911  -2.975  -1.900  1.00  0.00     0.210 HD
ENDBRANCH  15  20
ENDBRANCH   8   9
ENDBRANCH   2   8
BRANCH   1  22
HETATM   22  O1  UNL     1       0.862   2.278  -0.482  1.00  0.00    -0.388 OA
HETATM   23  C1  UNL     1       0.205   3.336   0.136  1.00  0.00     0.202 C 
ENDBRANCH   1  22
BRANCH   4  24
HETATM   24  O7  UNL     1       2.207  -0.709  -2.425  1.00  0.00    -0.393 OA
ATOM     25  H7  UNL     1       3.092  -0.558  -2.737  1.00  0.00     0.210 HD
ENDBRANCH   4  24
BRANCH   5  26
HETATM   26  O8  UNL     1       4.073  -0.597   0.389  1.00  0.00    -0.378 OA
BRANCH  26  27
HETATM   27  C14 UNL     1       5.305  -0.184  -0.053  1.00  0.00     0.122 C 
HETATM   28  C15 UNL     1       6.247  -1.348  -0.254  1.00  0.00     0.032 C 
HETATM   29  C16 UNL     1       7.275  -0.582   0.565  1.00  0.00     0.005 C 
HETATM   30  C17 UNL     1       6.153   0.286   1.108  1.00  0.00     0.032 C 
ENDBRANCH  26  27
ENDBRANCH   5  26
TORSDOF 9
