REMARK  7 active torsions:
REMARK  status: ('A' for Active; 'I' for Inactive)
REMARK    1  A    between atoms: O1_2  and  C2_3 
REMARK    2  A    between atoms: C2_3  and  C3_4 
REMARK    3  A    between atoms: C2_3  and  C8_11 
REMARK    4  A    between atoms: C8_11  and  N1_12 
REMARK    5  A    between atoms: C8_11  and  N5_26 
REMARK       I    between atoms: N1_12  and  C9_14 
REMARK    6  A    between atoms: C9_14  and  C10_16 
REMARK    7  A    between atoms: C11_22  and  C12_23 
ROOT
HETATM    1  C8  UNL     1      -0.182  -0.859  -0.019  1.00  0.00     0.093 C 
ENDROOT
BRANCH   1   2
HETATM    2  C2  UNL     1      -1.465  -0.373  -0.551  1.00  0.00     0.213 C 
BRANCH   2   3
HETATM    3  O1  UNL     1      -2.538  -1.186  -0.393  1.00  0.00    -0.381 OA
HETATM    4  C1  UNL     1      -3.366  -1.455  -1.429  1.00  0.00     0.202 C 
ENDBRANCH   2   3
BRANCH   2   5
HETATM    5  C3  UNL     1      -1.906   0.961   0.108  1.00  0.00     0.184 C 
HETATM    6  C4  UNL     1      -2.519   0.696   1.486  1.00  0.00     0.206 C 
HETATM    7  O2  UNL     1      -3.498   1.633   1.541  1.00  0.00    -0.353 OA
HETATM    8  C5  UNL     1      -3.729   2.184   0.312  1.00  0.00     0.157 C 
HETATM    9  C6  UNL     1      -5.225   2.185   0.088  1.00  0.00     0.078 C 
HETATM   10  C7  UNL     1      -3.227   3.631   0.190  1.00  0.00     0.078 C 
HETATM   11  O3  UNL     1      -3.026   1.414  -0.587  1.00  0.00    -0.345 OA
ENDBRANCH   2   5
ENDBRANCH   1   2
BRANCH   1  12
HETATM   12  N1  UNL     1       0.904   0.083  -0.231  1.00  0.00    -0.313 N 
HETATM   13  C9  UNL     1       1.429   0.837   0.899  1.00  0.00     0.276 C 
HETATM   14  O4  UNL     1       0.844   0.561   2.024  1.00  0.00    -0.266 OA
ATOM     15  H1  UNL     1       1.295   0.215  -1.164  1.00  0.00     0.170 HD
BRANCH  13  16
HETATM   16  C10 UNL     1       2.463   1.811   0.819  1.00  0.00     0.138 C 
HETATM   17  N2  UNL     1       2.104   3.163   0.523  1.00  0.00    -0.277 N 
HETATM   18  N3  UNL     1       3.316   3.784   0.404  1.00  0.00    -0.022 NA
ATOM     19  H2  UNL     1       1.172   3.566   0.425  1.00  0.00     0.184 HD
HETATM   20  N4  UNL     1       4.277   2.781   0.080  1.00  0.00    -0.285 N 
HETATM   21  C11 UNL     1       3.793   1.589   0.327  1.00  0.00     0.061 C 
ATOM     22  H4  UNL     1       5.209   2.966  -0.291  1.00  0.00     0.184 HD
BRANCH  21  23
HETATM   23  C12 UNL     1       4.554   0.310   0.250  1.00  0.00     0.039 A 
HETATM   24  C13 UNL     1       5.406   0.110  -1.005  1.00  0.00     0.011 A 
HETATM   25  C14 UNL     1       6.091   0.396   0.244  1.00  0.00     0.011 A 
ENDBRANCH  21  23
ENDBRANCH  13  16
ENDBRANCH   1  12
BRANCH   1  26
HETATM   26  N5  UNL     1       0.204  -2.195  -0.147  1.00  0.00    -0.267 NA
HETATM   27  C15 UNL     1      -0.577  -3.101   0.696  1.00  0.00     0.123 C 
HETATM   28  C16 UNL     1       0.263  -4.386   0.777  1.00  0.00     0.182 C 
HETATM   29  O5  UNL     1       0.164  -4.976  -0.449  1.00  0.00    -0.389 OA
HETATM   30  C17 UNL     1       0.715  -4.223  -1.445  1.00  0.00     0.182 C 
HETATM   31  C18 UNL     1       0.419  -2.759  -1.434  1.00  0.00     0.123 C 
ENDBRANCH   1  26
TORSDOF 7
