REMARK  8 active torsions:
REMARK  status: ('A' for Active; 'I' for Inactive)
REMARK    1  A    between atoms: C2_2  and  C3_3 
REMARK    2  A    between atoms: C3_3  and  O1_4 
REMARK    3  A    between atoms: O1_4  and  C4_5 
REMARK    4  A    between atoms: C6_9  and  O3_10 
REMARK    5  A    between atoms: C12_17  and  C13_18 
REMARK    6  A    between atoms: C13_18  and  O4_19 
REMARK    7  A    between atoms: O4_19  and  S1_20 
REMARK    8  A    between atoms: C17_26  and  O7_27 
ROOT
HETATM    1  C4  UNL     1       3.484  -0.965  -0.045  1.00  0.00     0.312 C 
HETATM    2  O2  UNL     1       3.121  -1.641  -1.178  1.00  0.00    -0.251 OA
HETATM    3  N1  UNL     1       1.958  -1.297  -1.712  1.00  0.00    -0.090 NA
HETATM    4  C5  UNL     1       0.911  -1.494  -0.758  1.00  0.00     0.142 C 
HETATM    5  C6  UNL     1      -0.468  -1.405  -1.293  1.00  0.00     0.141 C 
HETATM    6  C7  UNL     1      -1.402  -1.762  -0.131  1.00  0.00     0.043 C 
HETATM    7  C8  UNL     1      -1.350  -0.617   0.843  1.00  0.00    -0.032 C 
HETATM    8  C9  UNL     1      -2.252  -0.851   2.026  1.00  0.00     0.010 C 
HETATM    9  C10 UNL     1      -2.515   0.521   2.541  1.00  0.00     0.001 C 
HETATM   10  C11 UNL     1      -2.073   1.514   1.525  1.00  0.00     0.007 C 
HETATM   11  C12 UNL     1      -1.821   0.673   0.282  1.00  0.00     0.019 C 
HETATM   12  C15 UNL     1       0.050  -0.510   1.384  1.00  0.00     0.019 C 
HETATM   13  C16 UNL     1       1.118  -0.525   0.368  1.00  0.00     0.044 C 
HETATM   14  C17 UNL     1       2.418  -0.944   1.026  1.00  0.00     0.181 C 
ENDROOT
BRANCH  11  15
HETATM   15  C13 UNL     1      -3.092   0.623  -0.488  1.00  0.00     0.195 C 
BRANCH  15  16
HETATM   16  O4  UNL     1      -4.170   0.177   0.264  1.00  0.00    -0.276 OA
BRANCH  16  17
HETATM   17  S1  UNL     1      -5.587   0.117  -0.580  1.00  0.00     0.261 S 
HETATM   18  C14 UNL     1      -6.481   1.634  -0.307  1.00  0.00     0.194 C 
HETATM   19  O5  UNL     1      -6.443  -0.995   0.008  1.00  0.00    -0.199 OA
HETATM   20  O6  UNL     1      -5.413  -0.173  -2.036  1.00  0.00    -0.199 OA
ENDBRANCH  16  17
ENDBRANCH  15  16
ENDBRANCH  11  15
BRANCH   5  21
HETATM   21  O3  UNL     1      -0.619  -2.362  -2.298  1.00  0.00    -0.394 OA
ATOM     22  H3  UNL     1      -1.503  -2.305  -2.641  1.00  0.00     0.210 HD
ENDBRANCH   5  21
BRANCH  14  23
HETATM   23  O7  UNL     1       2.252  -2.209   1.539  1.00  0.00    -0.390 OA
ATOM     24  H7  UNL     1       1.582  -2.196   2.212  1.00  0.00     0.210 HD
ENDBRANCH  14  23
BRANCH   1  25
HETATM   25  O1  UNL     1       3.904   0.327  -0.252  1.00  0.00    -0.357 OA
BRANCH  25  26
HETATM   26  C3  UNL     1       5.226   0.529   0.146  1.00  0.00     0.170 C 
BRANCH  26  27
HETATM   27  C2  UNL     1       5.669   1.955  -0.090  1.00  0.00     0.022 C 
HETATM   28  C1  UNL     1       5.583   2.340  -1.542  1.00  0.00     0.007 C 
ENDBRANCH  26  27
ENDBRANCH  25  26
ENDBRANCH   1  25
TORSDOF 8
