REMARK  9 active torsions:
REMARK  status: ('A' for Active; 'I' for Inactive)
REMARK    1  A    between atoms: C3_3  and  C5_5 
REMARK    2  A    between atoms: C5_5  and  O2_7 
REMARK    3  A    between atoms: O2_7  and  C6_8 
REMARK    4  A    between atoms: C6_8  and  C7_9 
REMARK    5  A    between atoms: C8_10  and  O3_11 
REMARK    6  A    between atoms: C9_13  and  O4_14 
REMARK    7  A    between atoms: C12_20  and  C13_21 
REMARK    8  A    between atoms: C14_23  and  O6_24 
REMARK    9  A    between atoms: C14_23  and  O7_26 
ROOT
HETATM    1  C7  UNL     1       0.594  -0.282  -0.091  1.00  0.00     0.046 C 
HETATM    2  C8  UNL     1       0.887  -1.581   0.578  1.00  0.00     0.155 C 
HETATM    3  C9  UNL     1      -0.277  -2.427   0.931  1.00  0.00     0.170 C 
HETATM    4  C10 UNL     1      -1.376  -2.482  -0.088  1.00  0.00     0.112 C 
HETATM    5  N1  UNL     1      -2.642  -2.050   0.440  1.00  0.00    -0.409 N 
ATOM      6  H1  UNL     1      -3.460  -2.658   0.464  1.00  0.00     0.154 HD
HETATM    7  C11 UNL     1      -2.671  -0.722   0.924  1.00  0.00     0.102 A 
HETATM    8  C12 UNL     1      -3.870   0.094   0.475  1.00  0.00     0.133 A 
HETATM    9  C14 UNL     1      -2.932   1.079  -0.184  1.00  0.00     0.180 A 
HETATM   10  C17 UNL     1      -1.768   0.255   0.308  1.00  0.00     0.077 A 
HETATM   11  C18 UNL     1      -0.808  -0.232  -0.714  1.00  0.00     0.011 C 
HETATM   12  C19 UNL     1      -1.057  -1.582  -1.264  1.00  0.00     0.012 C 
HETATM   13  C20 UNL     1      -2.071  -1.676  -2.347  1.00  0.00     0.012 C 
ENDROOT
BRANCH   1  14
HETATM   14  C6  UNL     1       1.589   0.021  -1.190  1.00  0.00     0.186 C 
BRANCH  14  15
HETATM   15  O2  UNL     1       2.911   0.111  -0.774  1.00  0.00    -0.317 OA
BRANCH  15  16
HETATM   16  C5  UNL     1       3.465   0.979   0.125  1.00  0.00     0.288 C 
HETATM   17  O1  UNL     1       2.703   1.819   0.660  1.00  0.00    -0.260 OA
BRANCH  16  18
HETATM   18  C3  UNL     1       4.872   0.986   0.493  1.00  0.00     0.009 C 
HETATM   19  C2  UNL     1       5.736   0.135  -0.026  1.00  0.00    -0.018 C 
HETATM   20  C1  UNL     1       7.156   0.168   0.368  1.00  0.00     0.036 C 
HETATM   21  C4  UNL     1       5.356   1.976   1.478  1.00  0.00     0.054 C 
ENDBRANCH  16  18
ENDBRANCH  15  16
ENDBRANCH  14  15
ENDBRANCH   1  14
BRANCH   2  22
HETATM   22  O3  UNL     1       1.608  -1.306   1.743  1.00  0.00    -0.392 OA
ATOM     23  H3  UNL     1       1.795  -2.134   2.169  1.00  0.00     0.210 HD
ENDBRANCH   2  22
BRANCH   3  24
HETATM   24  O4  UNL     1       0.163  -3.734   1.148  1.00  0.00    -0.391 OA
ATOM     25  H4  UNL     1      -0.583  -4.276   1.374  1.00  0.00     0.210 HD
ENDBRANCH   3  24
BRANCH   9  26
HETATM   26  O6  UNL     1      -3.052   1.189  -1.551  1.00  0.00    -0.359 OA
HETATM   27  C15 UNL     1      -4.285   1.690  -1.907  1.00  0.00     0.205 C 
ENDBRANCH   9  26
BRANCH   9  28
HETATM   28  O7  UNL     1      -3.081   2.328   0.417  1.00  0.00    -0.359 OA
HETATM   29  C16 UNL     1      -2.114   3.229  -0.028  1.00  0.00     0.205 C 
ENDBRANCH   9  28
BRANCH   8  30
HETATM   30  C13 UNL     1      -4.721   0.630   1.545  1.00  0.00     0.243 C 
HETATM   31  O5  UNL     1      -4.278   0.989   2.626  1.00  0.00    -0.306 OA
ENDBRANCH   8  30
TORSDOF 9
