REMARK  9 active torsions:
REMARK  status: ('A' for Active; 'I' for Inactive)
REMARK    1  A    between atoms: C2_2  and  O1_3 
REMARK    2  A    between atoms: O1_3  and  C3_4 
REMARK    3  A    between atoms: C3_4  and  C4_5 
REMARK    4  A    between atoms: C6_7  and  O2_8 
REMARK    5  A    between atoms: C9_13  and  O4_14 
REMARK    6  A    between atoms: O4_14  and  C10_15 
REMARK    7  A    between atoms: C16_22  and  O5_23 
REMARK    8  A    between atoms: C18_25  and  O6_26 
REMARK    9  A    between atoms: C19_28  and  O7_29 
ROOT
HETATM    1  C4  UNL     1       1.174  -0.224  -0.306  1.00  0.00     0.005 A 
HETATM    2  C5  UNL     1       1.406  -1.400  -1.261  1.00  0.00     0.060 A 
HETATM    3  C6  UNL     1       1.161  -1.103  -2.663  1.00  0.00     0.262 C 
HETATM    4  O3  UNL     1       0.585   0.078  -3.016  1.00  0.00    -0.361 OA
HETATM    5  C7  UNL     1       0.953   1.181  -2.310  1.00  0.00     0.179 C 
HETATM    6  C8  UNL     1       0.498   0.941  -0.861  1.00  0.00     0.060 C 
HETATM    7  C9  UNL     1      -0.957   1.160  -0.707  1.00  0.00     0.122 C 
HETATM    8  C12 UNL     1      -1.858   0.232  -1.513  1.00  0.00     0.314 C 
HETATM    9  N1  UNL     1      -1.601  -1.098  -1.309  1.00  0.00     0.104 N 
HETATM   10  C13 UNL     1      -2.523  -2.134  -1.280  1.00  0.00     0.276 C 
HETATM   11  C14 UNL     1      -1.457  -2.953  -0.533  1.00  0.00     0.075 C 
HETATM   12  C15 UNL     1      -0.980  -1.539  -0.149  1.00  0.00     0.194 C 
HETATM   13  C16 UNL     1      -1.577  -1.201   1.161  1.00  0.00     0.191 C 
HETATM   14  C18 UNL     1      -2.142   0.162   1.317  1.00  0.00     0.181 C 
HETATM   15  C19 UNL     1      -1.388   1.287   0.719  1.00  0.00     0.186 C 
HETATM   16  C20 UNL     1       0.513  -1.488  -0.136  1.00  0.00     0.048 A 
ENDROOT
BRANCH   1  17
HETATM   17  C3  UNL     1       2.476   0.045   0.482  1.00  0.00     0.178 C 
BRANCH  17  18
HETATM   18  O1  UNL     1       2.834  -1.072   1.213  1.00  0.00    -0.391 OA
BRANCH  18  19
HETATM   19  C2  UNL     1       4.005  -0.871   1.939  1.00  0.00     0.163 C 
HETATM   20  C1  UNL     1       3.785   0.280   2.893  1.00  0.00     0.033 C 
ENDBRANCH  18  19
ENDBRANCH  17  18
ENDBRANCH   1  17
BRANCH   3  21
HETATM   21  O2  UNL     1       0.456  -2.110  -3.370  1.00  0.00    -0.371 OA
ATOM     22  H2  UNL     1       0.296  -1.916  -4.286  1.00  0.00     0.212 HD
ENDBRANCH   3  21
BRANCH   7  23
HETATM   23  O4  UNL     1      -1.254   2.386  -1.301  1.00  0.00    -0.376 OA
BRANCH  23  24
HETATM   24  C10 UNL     1      -0.693   3.505  -0.839  1.00  0.00     0.164 C 
HETATM   25  C11 UNL     1      -1.272   4.650  -1.704  1.00  0.00     0.033 C 
ENDBRANCH  23  24
ENDBRANCH   7  23
BRANCH  15  26
HETATM   26  O7  UNL     1      -0.302   1.529   1.580  1.00  0.00    -0.390 OA
ATOM     27  H7  UNL     1      -0.576   1.610   2.486  1.00  0.00     0.210 HD
ENDBRANCH  15  26
BRANCH  13  28
HETATM   28  O5  UNL     1      -0.595  -1.377   2.142  1.00  0.00    -0.385 OA
HETATM   29  C17 UNL     1      -0.949  -2.291   3.107  1.00  0.00     0.202 C 
ENDBRANCH  13  28
BRANCH  14  30
HETATM   30  O6  UNL     1      -3.534   0.212   1.051  1.00  0.00    -0.390 OA
ATOM     31  H6  UNL     1      -3.896   1.085   1.151  1.00  0.00     0.210 HD
ENDBRANCH  14  30
TORSDOF 9
