REMARK  13 active torsions:
REMARK  status: ('A' for Active; 'I' for Inactive)
REMARK    1  A    between atoms: S1_2  and  C2_3 
REMARK    2  A    between atoms: C2_3  and  C3_4 
REMARK    3  A    between atoms: C3_4  and  C4_5 
REMARK    4  A    between atoms: C4_5  and  N1_6 
REMARK    5  A    between atoms: C4_5  and  C18_25 
REMARK       I    between atoms: N1_6  and  C5_8 
REMARK    6  A    between atoms: C5_8  and  C6_10 
REMARK       I    between atoms: N2_17  and  C13_18 
REMARK    7  A    between atoms: C13_18  and  O3_20 
REMARK    8  A    between atoms: O3_20  and  C14_21 
REMARK       I    between atoms: C18_25  and  N3_27 
REMARK    9  A    between atoms: N3_27  and  C19_29 
REMARK   10  A    between atoms: C19_29  and  C20_30 
REMARK   11  A    between atoms: C20_30  and  C21_31 
REMARK   12  A    between atoms: C21_31  and  C22_32 
REMARK   13  A    between atoms: C22_32  and  C23_33 
ROOT
HETATM    1  C4  UNL     1       1.489   1.397   1.091  1.00  0.00     0.177 C 
ENDROOT
BRANCH   1   2
HETATM    2  C3  UNL     1       1.929   2.059   2.334  1.00  0.00     0.045 C 
BRANCH   2   3
HETATM    3  C2  UNL     1       1.816   3.529   2.446  1.00  0.00     0.076 C 
BRANCH   3   4
HETATM    4  S1  UNL     1       0.159   4.212   2.350  1.00  0.00    -0.173 SA
HETATM    5  C1  UNL     1       0.277   6.016   2.512  1.00  0.00     0.089 C 
ENDBRANCH   3   4
ENDBRANCH   2   3
ENDBRANCH   1   2
BRANCH   1   6
HETATM    6  N1  UNL     1       0.089   1.566   0.734  1.00  0.00    -0.346 N 
HETATM    7  C5  UNL     1      -0.813   0.472   0.747  1.00  0.00     0.247 C 
HETATM    8  O1  UNL     1      -0.373  -0.647   1.069  1.00  0.00    -0.271 OA
ATOM      9  H1  UNL     1      -0.251   2.490   0.469  1.00  0.00     0.163 HD
BRANCH   7  10
HETATM   10  C6  UNL     1      -2.206   0.672   0.390  1.00  0.00     0.122 C 
HETATM   11  C7  UNL     1      -2.910   1.627   1.361  1.00  0.00     0.050 C 
HETATM   12  C8  UNL     1      -2.396   1.160  -1.029  1.00  0.00     0.048 C 
HETATM   13  C9  UNL     1      -1.744   0.148  -1.923  1.00  0.00    -0.021 C 
HETATM   14  C12 UNL     1      -3.848   0.759  -1.239  1.00  0.00     0.041 C 
HETATM   15  C10 UNL     1      -2.457  -0.977  -1.857  1.00  0.00    -0.005 C 
HETATM   16  C11 UNL     1      -3.567  -0.728  -0.937  1.00  0.00     0.114 C 
HETATM   17  N2  UNL     1      -2.988  -0.550   0.401  1.00  0.00    -0.301 N 
HETATM   18  C13 UNL     1      -3.212  -1.455   1.450  1.00  0.00     0.365 C 
HETATM   19  O2  UNL     1      -2.712  -1.243   2.575  1.00  0.00    -0.238 OA
BRANCH  18  20
HETATM   20  O3  UNL     1      -3.983  -2.582   1.245  1.00  0.00    -0.294 OA
BRANCH  20  21
HETATM   21  C14 UNL     1      -4.259  -3.553   2.224  1.00  0.00     0.061 C 
HETATM   22  C15 UNL     1      -5.138  -4.607   1.553  1.00  0.00     0.046 C 
HETATM   23  C16 UNL     1      -2.985  -4.293   2.632  1.00  0.00     0.046 C 
HETATM   24  C17 UNL     1      -4.946  -3.036   3.442  1.00  0.00     0.046 C 
ENDBRANCH  20  21
ENDBRANCH  18  20
ENDBRANCH   7  10
ENDBRANCH   1   6
BRANCH   1  25
HETATM   25  C18 UNL     1       2.359   1.705  -0.104  1.00  0.00     0.240 C 
HETATM   26  O4  UNL     1       1.826   2.104  -1.158  1.00  0.00    -0.271 OA
HETATM   27  N3  UNL     1       3.743   1.536  -0.007  1.00  0.00    -0.359 N 
ATOM     28  H3  UNL     1       4.068   1.229   0.910  1.00  0.00     0.162 HD
BRANCH  27  29
HETATM   29  C19 UNL     1       4.773   1.718  -0.963  1.00  0.00     0.122 C 
BRANCH  29  30
HETATM   30  C20 UNL     1       4.908   0.831  -2.131  1.00  0.00     0.020 C 
BRANCH  30  31
HETATM   31  C21 UNL     1       3.785   0.686  -3.092  1.00  0.00     0.008 C 
BRANCH  31  32
HETATM   32  C22 UNL     1       4.179  -0.188  -4.275  1.00  0.00     0.060 C 
BRANCH  32  33
HETATM   33  C23 UNL     1       4.505  -1.568  -3.935  1.00  0.00     0.044 A 
HETATM   34  C24 UNL     1       4.937  -2.483  -4.898  1.00  0.00     0.135 A 
HETATM   35  N4  UNL     1       5.144  -3.668  -4.303  1.00  0.00    -0.296 N 
HETATM   36  N5  UNL     1       4.855  -3.510  -3.027  1.00  0.00    -0.243 N 
ATOM     37  H4  UNL     1       5.464  -4.526  -4.752  1.00  0.00     0.187 HD
HETATM   38  N6  UNL     1       4.476  -2.275  -2.791  1.00  0.00    -0.289 N 
ATOM     39  H5  UNL     1       4.917  -4.244  -2.322  1.00  0.00     0.208 HD
ATOM     40  H6  UNL     1       4.202  -1.908  -1.880  1.00  0.00     0.188 HD
ENDBRANCH  32  33
ENDBRANCH  31  32
ENDBRANCH  30  31
ENDBRANCH  29  30
ENDBRANCH  27  29
ENDBRANCH   1  25
TORSDOF 13
