REMARK  14 active torsions:
REMARK  status: ('A' for Active; 'I' for Inactive)
REMARK    1  A    between atoms: C2_2  and  C3_3 
REMARK    2  A    between atoms: C3_3  and  N1_4 
REMARK    3  A    between atoms: N1_4  and  C4_5 
REMARK    4  A    between atoms: N1_4  and  C8_10 
REMARK    5  A    between atoms: C4_5  and  C5_6 
REMARK    6  A    between atoms: C5_6  and  N2_7 
REMARK    7  A    between atoms: C11_13  and  N3_14 
REMARK    8  A    between atoms: N3_14  and  C12_16 
REMARK    9  A    between atoms: C15_21  and  N5_22 
REMARK   10  A    between atoms: N5_22  and  C16_24 
REMARK   11  A    between atoms: C20_30  and  N7_31 
REMARK   12  A    between atoms: N7_31  and  C21_33 
REMARK   13  A    between atoms: C21_33  and  C22_34 
REMARK   14  A    between atoms: C22_34  and  N8_35 
ROOT
HETATM    1  C12 UNL     1      -0.108  -0.601   0.734  1.00  0.00     0.684 A 
HETATM    2  N4  UNL     1      -0.681  -1.228  -0.324  1.00  0.00    -0.202 N 
ATOM      3  H4  UNL     1      -1.677  -1.079  -0.487  1.00  0.00     0.183 HD
HETATM    4  C13 UNL     1      -0.023  -2.024  -1.160  1.00  0.00     0.110 A 
HETATM    5  C14 UNL     1       1.311  -2.226  -0.943  1.00  0.00     0.067 A 
HETATM    6  C15 UNL     1       1.948  -1.604   0.133  1.00  0.00     0.123 A 
HETATM    7  N10 UNL     1       1.210  -0.812   0.931  1.00  0.00    -0.176 N 
ATOM      8  H10 UNL     1       1.666  -0.351   1.719  1.00  0.00     0.186 HD
ENDROOT
BRANCH   1   9
HETATM    9  N3  UNL     1      -0.829   0.148   1.524  1.00  0.00    -0.192 N 
ATOM     10  H3  UNL     1      -0.408   0.626   2.321  1.00  0.00     0.184 HD
BRANCH   9  11
HETATM   11  C11 UNL     1      -2.207   0.279   1.246  1.00  0.00     0.049 A 
HETATM   12  C10 UNL     1      -3.080  -0.014   2.293  1.00  0.00     0.032 A 
HETATM   13  C9  UNL     1      -4.410   0.078   2.048  1.00  0.00     0.032 A 
HETATM   14  C8  UNL     1      -4.959   0.449   0.807  1.00  0.00     0.036 A 
HETATM   15  C26 UNL     1      -4.084   0.732  -0.204  1.00  0.00    -0.033 A 
HETATM   16  C25 UNL     1      -2.716   0.643   0.036  1.00  0.00     0.039 A 
HETATM   17  C27 UNL     1      -4.520   1.108  -1.580  1.00  0.00     0.050 C 
BRANCH  14  18
HETATM   18  N1  UNL     1      -6.356   0.495   0.722  1.00  0.00    -0.379 N 
BRANCH  18  19
HETATM   19  C3  UNL     1      -7.161   1.571   1.175  1.00  0.00     0.122 C 
BRANCH  19  20
HETATM   20  C2  UNL     1      -6.591   2.687   1.939  1.00  0.00     0.015 C 
HETATM   21  C1  UNL     1      -5.579   3.479   1.220  1.00  0.00     0.006 C 
ENDBRANCH  19  20
ENDBRANCH  18  19
BRANCH  18  22
HETATM   22  C4  UNL     1      -7.054  -0.651   0.171  1.00  0.00     0.153 C 
BRANCH  22  23
HETATM   23  C5  UNL     1      -7.803  -0.455  -1.083  1.00  0.00     0.291 C 
BRANCH  23  24
HETATM   24  N2  UNL     1      -8.418  -1.770  -1.396  1.00  0.00     0.081 N 
HETATM   25  C6  UNL     1      -9.168  -1.714  -2.616  1.00  0.00     0.309 C 
HETATM   26  C7  UNL     1      -9.236  -2.222  -0.290  1.00  0.00     0.309 C 
ENDBRANCH  23  24
ENDBRANCH  22  23
ENDBRANCH  18  22
ENDBRANCH  14  18
ENDBRANCH   9  11
ENDBRANCH   1   9
BRANCH   6  27
HETATM   27  N5  UNL     1       3.307  -1.897   0.289  1.00  0.00    -0.328 N 
ATOM     28  H5  UNL     1       3.588  -2.859   0.481  1.00  0.00     0.169 HD
BRANCH  27  29
HETATM   29  C16 UNL     1       4.211  -0.990   0.198  1.00  0.00     0.124 A 
HETATM   30  C17 UNL     1       3.979   0.336  -0.054  1.00  0.00     0.074 A 
HETATM   31  C18 UNL     1       5.077   1.178  -0.125  1.00  0.00     0.026 A 
HETATM   32  C19 UNL     1       4.870   2.618  -0.390  1.00  0.00     0.069 C 
HETATM   33  N6  UNL     1       6.328   0.712   0.047  1.00  0.00    -0.196 N 
HETATM   34  C20 UNL     1       6.541  -0.572   0.290  1.00  0.00     0.679 A 
ATOM     35  H6  UNL     1       7.119   1.354  -0.010  1.00  0.00     0.184 HD
HETATM   36  N9  UNL     1       5.503  -1.410   0.364  1.00  0.00    -0.177 N 
ATOM     37  H9  UNL     1       5.680  -2.397   0.551  1.00  0.00     0.186 HD
BRANCH  34  38
HETATM   38  N7  UNL     1       7.735  -1.103   0.456  1.00  0.00    -0.224 N 
ATOM     39  H7  UNL     1       7.854  -2.099   0.640  1.00  0.00     0.177 HD
BRANCH  38  40
HETATM   40  C21 UNL     1       8.864  -0.217   0.367  1.00  0.00     0.168 C 
BRANCH  40  41
HETATM   41  C22 UNL     1      10.121  -1.073   0.318  1.00  0.00     0.291 C 
BRANCH  41  42
HETATM   42  N8  UNL     1      11.315  -0.275   0.242  1.00  0.00     0.081 N 
HETATM   43  C23 UNL     1      11.476   0.446  -0.988  1.00  0.00     0.309 C 
HETATM   44  C24 UNL     1      12.450  -1.208   0.351  1.00  0.00     0.309 C 
ENDBRANCH  41  42
ENDBRANCH  40  41
ENDBRANCH  38  40
ENDBRANCH  34  38
ENDBRANCH  27  29
ENDBRANCH   6  27
TORSDOF 14
