REMARK  12 active torsions:
REMARK  status: ('A' for Active; 'I' for Inactive)
REMARK    1  A    between atoms: C2_2  and  C3_3 
REMARK    2  A    between atoms: C3_3  and  C4_4 
REMARK    3  A    between atoms: C4_4  and  N1_5 
REMARK       I    between atoms: N1_5  and  C5_6 
REMARK    4  A    between atoms: N1_5  and  C16_22 
REMARK    5  A    between atoms: C5_6  and  C6_8 
REMARK    6  A    between atoms: C6_8  and  O2_9 
REMARK    7  A    between atoms: O2_9  and  C7_10 
REMARK    8  A    between atoms: C7_10  and  C8_12 
REMARK    9  A    between atoms: C10_14  and  O4_15 
REMARK   10  A    between atoms: C13_18  and  O5_19 
REMARK   11  A    between atoms: C17_23  and  N2_24 
REMARK       I    between atoms: N2_24  and  C18_26 
REMARK   12  A    between atoms: C18_26  and  C19_28 
ROOT
HETATM    1  N1  UNL     1      -1.516   0.833  -1.131  1.00  0.00    -0.308 N 
HETATM    2  C5  UNL     1      -0.219   0.474  -0.702  1.00  0.00     0.248 C 
HETATM    3  O1  UNL     1       0.416  -0.380  -1.370  1.00  0.00    -0.271 OA
ENDROOT
BRANCH   1   4
HETATM    4  C4  UNL     1      -2.224   1.874  -0.415  1.00  0.00     0.132 C 
BRANCH   4   5
HETATM    5  C3  UNL     1      -2.012   3.251  -0.950  1.00  0.00     0.020 C 
BRANCH   5   6
HETATM    6  C2  UNL     1      -2.798   4.238  -0.111  1.00  0.00    -0.003 C 
HETATM    7  C1  UNL     1      -2.382   4.229   1.326  1.00  0.00     0.005 C 
ENDBRANCH   5   6
ENDBRANCH   4   5
ENDBRANCH   1   4
BRANCH   1   8
HETATM    8  C16 UNL     1      -2.117   0.190  -2.267  1.00  0.00     0.150 A 
HETATM    9  C17 UNL     1      -3.034  -0.849  -2.095  1.00  0.00     0.145 A 
HETATM   10  N3  UNL     1      -3.553  -1.401  -3.182  1.00  0.00    -0.292 N 
HETATM   11  C23 UNL     1      -3.240  -1.009  -4.460  1.00  0.00     0.328 A 
ATOM     12  H3  UNL     1      -4.223  -2.160  -3.062  1.00  0.00     0.172 HD
HETATM   13  O7  UNL     1      -3.763  -1.569  -5.453  1.00  0.00    -0.247 OA
HETATM   14  N4  UNL     1      -2.360  -0.013  -4.606  1.00  0.00    -0.273 N 
HETATM   15  C24 UNL     1      -1.806   0.578  -3.539  1.00  0.00     0.280 A 
ATOM     16  H4  UNL     1      -2.107   0.301  -5.543  1.00  0.00     0.173 HD
HETATM   17  O8  UNL     1      -0.983   1.512  -3.758  1.00  0.00    -0.265 OA
BRANCH   9  18
HETATM   18  N2  UNL     1      -3.337  -1.237  -0.783  1.00  0.00    -0.310 N 
HETATM   19  C18 UNL     1      -4.216  -2.239  -0.355  1.00  0.00     0.231 C 
HETATM   20  O6  UNL     1      -4.868  -2.940  -1.138  1.00  0.00    -0.272 OA
ATOM     21  H2  UNL     1      -2.855  -0.723  -0.045  1.00  0.00     0.170 HD
BRANCH  19  22
HETATM   22  C19 UNL     1      -4.415  -2.518   1.101  1.00  0.00     0.038 A 
HETATM   23  C20 UNL     1      -3.650  -1.674   2.091  1.00  0.00     0.025 C 
HETATM   24  C21 UNL     1      -4.504  -3.984   1.523  1.00  0.00     0.020 A 
HETATM   25  C22 UNL     1      -5.708  -3.074   1.538  1.00  0.00     0.020 A 
ENDBRANCH  19  22
ENDBRANCH   9  18
ENDBRANCH   1   8
BRANCH   2  26
HETATM   26  C6  UNL     1       0.373   1.077   0.487  1.00  0.00     0.282 C 
BRANCH  26  27
HETATM   27  O2  UNL     1       1.686   0.628   0.760  1.00  0.00    -0.308 OA
BRANCH  27  28
HETATM   28  C7  UNL     1       2.779   0.788  -0.046  1.00  0.00     0.293 C 
HETATM   29  O3  UNL     1       2.640   1.393  -1.143  1.00  0.00    -0.259 OA
BRANCH  28  30
HETATM   30  C8  UNL     1       4.116   0.300   0.281  1.00  0.00     0.044 A 
HETATM   31  C9  UNL     1       4.365  -0.385   1.454  1.00  0.00     0.054 A 
HETATM   32  C10 UNL     1       5.636  -0.854   1.779  1.00  0.00     0.071 A 
HETATM   33  C12 UNL     1       6.699  -0.631   0.902  1.00  0.00     0.073 A 
HETATM   34  C13 UNL     1       6.468   0.056  -0.280  1.00  0.00     0.071 A 
HETATM   35  C15 UNL     1       5.193   0.499  -0.556  1.00  0.00     0.054 A 
BRANCH  32  36
HETATM   36  O4  UNL     1       5.920  -1.537   2.930  1.00  0.00    -0.356 OA
HETATM   37  C11 UNL     1       4.936  -1.819   3.881  1.00  0.00     0.210 C 
ENDBRANCH  32  36
BRANCH  34  38
HETATM   38  O5  UNL     1       7.528   0.292  -1.180  1.00  0.00    -0.356 OA
HETATM   39  C14 UNL     1       8.823  -0.181  -0.855  1.00  0.00     0.210 C 
ENDBRANCH  34  38
ENDBRANCH  28  30
ENDBRANCH  27  28
ENDBRANCH  26  27
ENDBRANCH   2  26
TORSDOF 12
