REMARK  13 active torsions:
REMARK  status: ('A' for Active; 'I' for Inactive)
REMARK    1  A    between atoms: C2_2  and  N1_3 
REMARK    2  A    between atoms: N1_3  and  C3_4 
REMARK    3  A    between atoms: N1_3  and  C5_6 
REMARK    4  A    between atoms: C5_6  and  C6_7 
REMARK    5  A    between atoms: C6_7  and  N2_8 
REMARK       I    between atoms: N2_8  and  C7_10 
REMARK    6  A    between atoms: C7_10  and  C8_12 
REMARK    7  A    between atoms: C8_12  and  C9_13 
REMARK    8  A    between atoms: C9_13  and  C10_14 
REMARK    9  A    between atoms: C10_14  and  C11_15 
REMARK   10  A    between atoms: C14_20  and  C15_21 
REMARK   11  A    between atoms: C15_21  and  C16_22 
REMARK   12  A    between atoms: C16_22  and  C17_23 
REMARK   13  A    between atoms: C26_35  and  O3_36 
ROOT
HETATM    1  C11 UNL     1       1.087   1.087   1.158  1.00  0.00    -0.003 C 
HETATM    2  C12 UNL     1       1.683  -0.048   0.870  1.00  0.00     0.043 C 
HETATM    3  C13 UNL     1       3.069  -0.365   0.486  1.00  0.00     0.062 A 
HETATM    4  N3  UNL     1       3.288  -1.652   0.083  1.00  0.00    -0.341 N 
ATOM      5  H3  UNL     1       2.590  -2.393   0.028  1.00  0.00     0.167 HD
HETATM    6  C14 UNL     1       4.597  -1.764  -0.229  1.00  0.00     0.106 A 
HETATM    7  N4  UNL     1       5.157  -0.560  -0.016  1.00  0.00    -0.340 N 
ATOM      8  H4  UNL     1       6.143  -0.350  -0.169  1.00  0.00     0.167 HD
HETATM    9  C19 UNL     1       4.258   0.326   0.422  1.00  0.00     0.072 A 
HETATM   10  C20 UNL     1       4.673   1.695   0.710  1.00  0.00     0.008 A 
HETATM   11  C21 UNL     1       6.046   1.694   0.566  1.00  0.00     0.016 A 
HETATM   12  C22 UNL     1       6.748   2.876   0.779  1.00  0.00     0.020 A 
HETATM   13  C23 UNL     1       6.123   4.043   1.127  1.00  0.00     0.060 A 
HETATM   14  C24 UNL     1       4.754   4.047   1.271  1.00  0.00     0.065 A 
HETATM   15  C25 UNL     1       4.056   2.879   1.061  1.00  0.00     0.042 A 
HETATM   16  C26 UNL     1       2.789   3.224   1.272  1.00  0.00     0.130 C 
HETATM   17  C27 UNL     1       1.527   2.506   1.222  1.00  0.00     0.212 C 
HETATM   18  O4  UNL     1       0.569   3.330   1.238  1.00  0.00    -0.285 OA
HETATM   19  N5  UNL     1       4.828   5.308   1.569  1.00  0.00    -0.321 N 
ATOM     20  H5  UNL     1       4.102   5.984   1.809  1.00  0.00     0.169 HD
HETATM   21  C28 UNL     1       6.232   5.451   1.457  1.00  0.00     0.258 A 
HETATM   22  O5  UNL     1       7.098   6.335   1.580  1.00  0.00    -0.267 OA
ENDROOT
BRANCH   1  23
HETATM   23  C10 UNL     1      -0.336   0.982   1.499  1.00  0.00     0.043 C 
BRANCH  23  24
HETATM   24  C9  UNL     1      -0.939  -0.374   1.466  1.00  0.00     0.014 C 
BRANCH  24  25
HETATM   25  C8  UNL     1      -2.407  -0.374   1.826  1.00  0.00     0.103 C 
BRANCH  25  26
HETATM   26  C7  UNL     1      -3.240   0.394   0.875  1.00  0.00     0.217 C 
HETATM   27  N2  UNL     1      -4.606   0.639   1.163  1.00  0.00    -0.359 N 
ATOM     28  H2  UNL     1      -5.014   0.289   2.030  1.00  0.00     0.162 HD
HETATM   29  O1  UNL     1      -2.704   0.815  -0.177  1.00  0.00    -0.274 OA
BRANCH  27  30
HETATM   30  C6  UNL     1      -5.417   1.379   0.237  1.00  0.00     0.152 C 
BRANCH  30  31
HETATM   31  C5  UNL     1      -5.556   0.716  -1.108  1.00  0.00     0.292 C 
BRANCH  31  32
HETATM   32  N1  UNL     1      -6.161  -0.581  -0.910  1.00  0.00     0.089 N 
BRANCH  32  33
HETATM   33  C2  UNL     1      -7.526  -0.540  -0.489  1.00  0.00     0.268 C 
HETATM   34  C1  UNL     1      -8.450   0.099  -1.476  1.00  0.00     0.037 C 
ENDBRANCH  32  33
BRANCH  32  35
HETATM   35  C3  UNL     1      -5.930  -1.473  -2.024  1.00  0.00     0.268 C 
HETATM   36  C4  UNL     1      -6.153  -2.888  -1.519  1.00  0.00     0.037 C 
ENDBRANCH  32  35
ENDBRANCH  31  32
ENDBRANCH  30  31
ENDBRANCH  27  30
ENDBRANCH  25  26
ENDBRANCH  24  25
ENDBRANCH  23  24
ENDBRANCH   1  23
BRANCH  16  37
HETATM   37  O3  UNL     1       2.667   4.573   1.615  1.00  0.00    -0.356 OA
ATOM     38  H3  UNL     1       1.762   4.819   1.766  1.00  0.00     0.218 HD
ENDBRANCH  16  37
BRANCH   6  39
HETATM   39  C15 UNL     1       5.281  -2.975  -0.714  1.00  0.00     0.052 C 
BRANCH  39  40
HETATM   40  C16 UNL     1       6.574  -2.901  -0.969  1.00  0.00     0.053 C 
BRANCH  40  41
HETATM   41  C17 UNL     1       7.281  -4.064  -1.446  1.00  0.00     0.145 C 
HETATM   42  C18 UNL     1       6.554  -5.337  -1.646  1.00  0.00     0.096 C 
HETATM   43  O2  UNL     1       8.501  -3.999  -1.689  1.00  0.00    -0.294 OA
ENDBRANCH  40  41
ENDBRANCH  39  40
ENDBRANCH   6  39
TORSDOF 13
