REMARK  14 active torsions:
REMARK  status: ('A' for Active; 'I' for Inactive)
REMARK    1  A    between atoms: C2_2  and  C4_4 
REMARK    2  A    between atoms: C4_4  and  N1_5 
REMARK    3  A    between atoms: N1_5  and  C5_7 
REMARK    4  A    between atoms: C7_9  and  O1_10 
REMARK    5  A    between atoms: O1_10  and  C8_11 
REMARK    6  A    between atoms: C8_11  and  C9_12 
REMARK    7  A    between atoms: C9_12  and  O2_13 
REMARK    8  A    between atoms: C11_17  and  C12_18 
REMARK    9  A    between atoms: C18_25  and  N4_26 
REMARK   10  A    between atoms: N4_26  and  C19_28 
REMARK   11  A    between atoms: C19_28  and  O3_29 
REMARK   12  A    between atoms: C19_28  and  C20_31 
REMARK       I    between atoms: N6_37  and  C24_39 
REMARK   13  A    between atoms: C24_39  and  C25_41 
REMARK   14  A    between atoms: C25_41  and  N7_42 
ROOT
HETATM    1  C12 UNL     1      -0.570   1.211  -0.233  1.00  0.00     0.060 A 
HETATM    2  C13 UNL     1      -0.398   2.254  -1.115  1.00  0.00    -0.022 A 
HETATM    3  C14 UNL     1      -1.515   2.953  -1.822  1.00  0.00     0.051 C 
HETATM    4  C15 UNL     1       0.934   2.499  -1.202  1.00  0.00     0.016 A 
HETATM    5  C16 UNL     1       1.557   3.564  -2.062  1.00  0.00     0.069 C 
HETATM    6  N3  UNL     1       1.636   1.639  -0.391  1.00  0.00    -0.340 N 
HETATM    7  C17 UNL     1       3.075   1.710  -0.249  1.00  0.00     0.158 C 
HETATM    8  C18 UNL     1       0.713   0.844   0.209  1.00  0.00     0.124 A 
ENDROOT
BRANCH   8   9
HETATM    9  N4  UNL     1       0.913  -0.065   1.253  1.00  0.00    -0.322 N 
ATOM     10  H4  UNL     1       0.120  -0.077   1.895  1.00  0.00     0.169 HD
BRANCH   9  11
HETATM   11  C19 UNL     1       1.891  -0.945   1.645  1.00  0.00     0.152 C 
BRANCH  11  12
HETATM   12  O3  UNL     1       1.782  -1.436   2.857  1.00  0.00    -0.345 OA
ATOM     13  H3  UNL     1       2.459  -2.045   3.128  1.00  0.00     0.219 HD
ENDBRANCH  11  12
BRANCH  11  14
HETATM   14  C20 UNL     1       3.053  -1.471   0.958  1.00  0.00     0.020 A 
HETATM   15  C21 UNL     1       2.937  -2.017  -0.328  1.00  0.00     0.033 A 
HETATM   16  C22 UNL     1       4.012  -2.575  -0.978  1.00  0.00     0.090 A 
HETATM   17  N5  UNL     1       5.229  -2.618  -0.400  1.00  0.00    -0.352 N 
HETATM   18  C23 UNL     1       5.351  -2.097   0.828  1.00  0.00     0.108 A 
ATOM     19  H5  UNL     1       6.028  -3.032  -0.880  1.00  0.00     0.166 HD
HETATM   20  N6  UNL     1       6.525  -2.170   1.399  1.00  0.00    -0.312 N 
HETATM   21  C28 UNL     1       4.300  -1.520   1.533  1.00  0.00     0.064 A 
HETATM   22  C24 UNL     1       7.629  -2.779   0.741  1.00  0.00     0.251 C 
ATOM     23  H6  UNL     1       6.651  -1.783   2.334  1.00  0.00     0.170 HD
HETATM   24  O4  UNL     1       7.719  -4.031   0.777  1.00  0.00    -0.271 OA
BRANCH  22  25
HETATM   25  C25 UNL     1       8.684  -2.042   0.011  1.00  0.00     0.375 C 
BRANCH  25  26
HETATM   26  N7  UNL     1       8.409  -0.623   0.088  1.00  0.00     0.100 N 
HETATM   27  C26 UNL     1       9.312   0.305  -0.551  1.00  0.00     0.303 A 
HETATM   28  C27 UNL     1       9.239   0.197   0.953  1.00  0.00     0.303 A 
ENDBRANCH  25  26
ENDBRANCH  22  25
ENDBRANCH  11  14
ENDBRANCH   9  11
ENDBRANCH   8   9
BRANCH   1  29
HETATM   29  C11 UNL     1      -1.871   0.643   0.133  1.00  0.00     0.123 A 
HETATM   30  N2  UNL     1      -2.045  -0.550   0.687  1.00  0.00    -0.322 N 
HETATM   31  C7  UNL     1      -3.286  -1.004   1.062  1.00  0.00     0.147 A 
ATOM     32  H2  UNL     1      -1.233  -1.148   0.839  1.00  0.00     0.169 HD
HETATM   33  C6  UNL     1      -4.393  -0.238   0.875  1.00  0.00     0.104 A 
HETATM   34  C5  UNL     1      -4.218   1.033   0.283  1.00  0.00     0.106 A 
HETATM   35  N8  UNL     1      -2.992   1.399  -0.050  1.00  0.00    -0.328 N 
ATOM     36  H8  UNL     1      -2.875   2.318  -0.477  1.00  0.00     0.169 HD
BRANCH  31  37
HETATM   37  O1  UNL     1      -3.319  -2.244   1.608  1.00  0.00    -0.334 OA
BRANCH  37  38
HETATM   38  C8  UNL     1      -4.380  -3.003   2.035  1.00  0.00     0.203 C 
BRANCH  38  39
HETATM   39  C9  UNL     1      -5.267  -3.412   0.890  1.00  0.00     0.193 C 
BRANCH  39  40
HETATM   40  O2  UNL     1      -6.367  -4.190   1.315  1.00  0.00    -0.394 OA
HETATM   41  C10 UNL     1      -7.077  -4.524   0.145  1.00  0.00     0.201 C 
ENDBRANCH  39  40
ENDBRANCH  38  39
ENDBRANCH  37  38
ENDBRANCH  31  37
BRANCH  34  42
HETATM   42  N1  UNL     1      -5.288   1.707   0.168  1.00  0.00    -0.372 N 
ATOM     43  H1  UNL     1      -6.135   1.255   0.513  1.00  0.00     0.161 HD
BRANCH  42  44
HETATM   44  C4  UNL     1      -5.462   3.010  -0.379  1.00  0.00     0.154 C 
BRANCH  44  45
HETATM   45  C2  UNL     1      -6.919   3.375  -0.449  1.00  0.00    -0.075 C 
HETATM   46  C1  UNL     1      -7.541   3.686  -1.570  1.00  0.00     0.015 C 
HETATM   47  C3  UNL     1      -7.716   3.383   0.827  1.00  0.00     0.044 C 
ENDBRANCH  44  45
ENDBRANCH  42  44
ENDBRANCH  34  42
ENDBRANCH   1  29
TORSDOF 14
