REMARK  12 active torsions:
REMARK  status: ('A' for Active; 'I' for Inactive)
REMARK    1  A    between atoms: C2_2  and  N1_3 
REMARK    2  A    between atoms: N1_3  and  C3_4 
REMARK    3  A    between atoms: N1_3  and  C5_6 
REMARK    4  A    between atoms: C5_6  and  C6_7 
REMARK    5  A    between atoms: C6_7  and  N2_8 
REMARK    6  A    between atoms: C9_14  and  C10_15 
REMARK    7  A    between atoms: C10_15  and  C11_16 
REMARK    8  A    between atoms: C14_25  and  O3_26 
REMARK    9  A    between atoms: C16_28  and  N6_29 
REMARK   10  A    between atoms: N6_29  and  C17_31 
REMARK   11  A    between atoms: C20_36  and  C21_37 
REMARK   12  A    between atoms: C23_39  and  O4_40 
ROOT
HETATM    1  N2  UNL     1      -1.703  -0.798   1.488  1.00  0.00    -0.373 N 
ATOM      2  H2  UNL     1      -0.727  -1.088   1.553  1.00  0.00     0.161 HD
HETATM    3  C7  UNL     1      -1.945   0.415   1.180  1.00  0.00     0.131 A 
HETATM    4  N3  UNL     1      -3.149   0.932   1.052  1.00  0.00    -0.350 N 
ATOM      5  H3  UNL     1      -3.940   0.301   1.180  1.00  0.00     0.166 HD
HETATM    6  C8  UNL     1      -3.435   2.227   0.765  1.00  0.00     0.100 A 
HETATM    7  C9  UNL     1      -2.425   3.115   0.582  1.00  0.00    -0.001 A 
HETATM    8  C14 UNL     1      -1.113   2.605   0.710  1.00  0.00     0.106 A 
HETATM    9  C16 UNL     1      -0.847   1.291   1.001  1.00  0.00     0.112 A 
ENDROOT
BRANCH   9  10
HETATM   10  N6  UNL     1       0.453   0.783   1.158  1.00  0.00    -0.337 N 
ATOM     11  H6  UNL     1       0.829   0.847   2.104  1.00  0.00     0.167 HD
BRANCH  10  12
HETATM   12  C17 UNL     1       1.237   0.253   0.300  1.00  0.00     0.108 A 
HETATM   13  C18 UNL     1       0.848   0.097  -1.036  1.00  0.00     0.065 A 
HETATM   14  C19 UNL     1       1.767  -0.446  -1.901  1.00  0.00     0.093 A 
HETATM   15  N7  UNL     1       2.985  -0.808  -1.462  1.00  0.00    -0.351 N 
HETATM   16  C20 UNL     1       3.377  -0.663  -0.164  1.00  0.00     0.117 A 
ATOM     17  H7  UNL     1       3.645  -1.209  -2.129  1.00  0.00     0.166 HD
HETATM   18  N8  UNL     1       2.476  -0.139   0.645  1.00  0.00    -0.328 N 
ATOM     19  H8  UNL     1       2.744  -0.020   1.622  1.00  0.00     0.169 HD
BRANCH  16  20
HETATM   20  C21 UNL     1       4.729  -1.026   0.251  1.00  0.00     0.017 A 
HETATM   21  C22 UNL     1       5.727  -1.324  -0.647  1.00  0.00     0.052 A 
HETATM   22  C23 UNL     1       7.017  -1.674  -0.225  1.00  0.00     0.069 A 
HETATM   23  C25 UNL     1       7.332  -1.735   1.094  1.00  0.00     0.037 A 
HETATM   24  C26 UNL     1       6.344  -1.441   2.016  1.00  0.00     0.010 A 
HETATM   25  C27 UNL     1       5.046  -1.087   1.592  1.00  0.00    -0.048 A 
HETATM   26  C28 UNL     1       4.018  -0.828   2.626  1.00  0.00     0.049 C 
BRANCH  22  27
HETATM   27  O4  UNL     1       7.971  -1.960  -1.181  1.00  0.00    -0.356 OA
HETATM   28  C24 UNL     1       9.295  -2.323  -0.968  1.00  0.00     0.210 C 
ENDBRANCH  22  27
ENDBRANCH  16  20
ENDBRANCH  10  12
ENDBRANCH   9  10
BRANCH   8  29
HETATM   29  O3  UNL     1      -0.055   3.513   0.531  1.00  0.00    -0.353 OA
HETATM   30  C15 UNL     1       0.473   3.838  -0.740  1.00  0.00     0.210 C 
ENDBRANCH   8  29
BRANCH   1  31
HETATM   31  C6  UNL     1      -2.701  -1.769   1.746  1.00  0.00     0.151 C 
BRANCH  31  32
HETATM   32  C5  UNL     1      -2.664  -3.004   0.897  1.00  0.00     0.292 C 
BRANCH  32  33
HETATM   33  N1  UNL     1      -2.801  -2.806  -0.509  1.00  0.00     0.089 N 
BRANCH  33  34
HETATM   34  C2  UNL     1      -4.103  -2.328  -0.912  1.00  0.00     0.268 C 
HETATM   35  C1  UNL     1      -5.254  -3.082  -0.331  1.00  0.00     0.037 C 
ENDBRANCH  33  34
BRANCH  33  36
HETATM   36  C3  UNL     1      -2.550  -4.126  -1.121  1.00  0.00     0.268 C 
HETATM   37  C4  UNL     1      -2.381  -4.035  -2.604  1.00  0.00     0.037 C 
ENDBRANCH  33  36
ENDBRANCH  32  33
ENDBRANCH  31  32
ENDBRANCH   1  31
BRANCH   7  38
HETATM   38  C10 UNL     1      -2.504   4.527   0.258  1.00  0.00     0.106 C 
BRANCH  38  39
HETATM   39  C11 UNL     1      -3.703   5.277   0.589  1.00  0.00     0.086 A 
HETATM   40  N4  UNL     1      -4.783   4.892   1.145  1.00  0.00    -0.307 N 
HETATM   41  C12 UNL     1      -5.720   5.927   1.292  1.00  0.00     0.327 A 
ATOM     42  H4  UNL     1      -4.949   3.933   1.451  1.00  0.00     0.170 HD
HETATM   43  O1  UNL     1      -6.889   5.939   1.789  1.00  0.00    -0.247 OA
HETATM   44  N5  UNL     1      -5.149   7.113   0.757  1.00  0.00    -0.274 N 
HETATM   45  C13 UNL     1      -3.854   6.728   0.298  1.00  0.00     0.272 A 
ATOM     46  H5  UNL     1      -5.573   8.039   0.711  1.00  0.00     0.173 HD
HETATM   47  O2  UNL     1      -2.992   7.451  -0.249  1.00  0.00    -0.266 OA
ENDBRANCH  38  39
ENDBRANCH   7  38
TORSDOF 12
