REMARK  13 active torsions:
REMARK  status: ('A' for Active; 'I' for Inactive)
REMARK       I    between atoms: C2_2  and  N1_4 
REMARK    1  A    between atoms: N1_4  and  C3_6 
REMARK    2  A    between atoms: C3_6  and  C4_7 
REMARK    3  A    between atoms: C4_7  and  C5_8 
REMARK    4  A    between atoms: C5_8  and  C6_9 
REMARK    5  A    between atoms: C6_9  and  N2_10 
REMARK       I    between atoms: N2_10  and  C7_12 
REMARK    6  A    between atoms: C7_12  and  C8_14 
REMARK    7  A    between atoms: C8_14  and  C9_15 
REMARK    8  A    between atoms: C9_15  and  C10_16 
REMARK    9  A    between atoms: C10_16  and  O3_17 
REMARK   10  A    between atoms: N3_19  and  C11_21 
REMARK   11  A    between atoms: C12_23  and  S2_24 
REMARK   12  A    between atoms: S2_24  and  C13_25 
REMARK   13  A    between atoms: C13_25  and  C14_26 
ROOT
HETATM    1  C11 UNL     1      -1.785  -2.430   2.302  1.00  0.00     0.084 A 
HETATM    2  S1  UNL     1      -3.010  -3.548   2.811  1.00  0.00    -0.064 SA
HETATM    3  C12 UNL     1      -3.100  -3.311   1.073  1.00  0.00     0.052 A 
HETATM    4  C25 UNL     1      -2.151  -2.493   0.945  1.00  0.00    -0.004 A 
HETATM    5  C26 UNL     1      -1.522  -1.773  -0.245  1.00  0.00     0.053 C 
ENDROOT
BRANCH   1   6
HETATM    6  N3  UNL     1      -0.870  -1.790   2.979  1.00  0.00    -0.334 N 
HETATM    7  C10 UNL     1       0.109  -0.911   2.637  1.00  0.00     0.116 C 
ATOM      8  H3  UNL     1      -0.895  -1.993   3.978  1.00  0.00     0.168 HD
BRANCH   7   9
HETATM    9  C9  UNL     1       1.377  -1.147   1.899  1.00  0.00     0.093 C 
BRANCH   9  10
HETATM   10  C8  UNL     1       2.397  -0.052   2.183  1.00  0.00     0.111 C 
BRANCH  10  11
HETATM   11  C7  UNL     1       3.623  -0.322   1.381  1.00  0.00     0.217 C 
HETATM   12  N2  UNL     1       4.771   0.464   1.517  1.00  0.00    -0.361 N 
ATOM     13  H2  UNL     1       4.743   1.227   2.193  1.00  0.00     0.162 HD
HETATM   14  O2  UNL     1       3.629  -1.294   0.548  1.00  0.00    -0.274 OA
BRANCH  12  15
HETATM   15  C6  UNL     1       6.008   0.273   0.762  1.00  0.00     0.122 C 
BRANCH  15  16
HETATM   16  C5  UNL     1       5.815   0.459  -0.686  1.00  0.00     0.021 C 
BRANCH  16  17
HETATM   17  C4  UNL     1       6.960   0.246  -1.596  1.00  0.00     0.021 C 
BRANCH  17  18
HETATM   18  C3  UNL     1       8.162   1.081  -1.357  1.00  0.00     0.122 C 
BRANCH  18  19
HETATM   19  N1  UNL     1       8.841   0.768  -0.149  1.00  0.00    -0.361 N 
HETATM   20  C2  UNL     1       9.991   1.515   0.273  1.00  0.00     0.213 C 
HETATM   21  C1  UNL     1      10.724   1.215   1.524  1.00  0.00     0.117 C 
HETATM   22  O1  UNL     1      10.374   2.453  -0.458  1.00  0.00    -0.274 OA
ATOM     23  H1  UNL     1       8.505  -0.002   0.429  1.00  0.00     0.162 HD
ENDBRANCH  18  19
ENDBRANCH  17  18
ENDBRANCH  16  17
ENDBRANCH  15  16
ENDBRANCH  12  15
ENDBRANCH  10  11
ENDBRANCH   9  10
ENDBRANCH   7   9
BRANCH   7  24
HETATM   24  O3  UNL     1      -0.049   0.331   2.989  1.00  0.00    -0.349 OA
ATOM     25  H3  UNL     1      -0.860   0.482   3.461  1.00  0.00     0.219 HD
ENDBRANCH   7  24
ENDBRANCH   1   6
BRANCH   3  26
HETATM   26  S2  UNL     1      -4.276  -4.155  -0.028  1.00  0.00    -0.117 SA
BRANCH  26  27
HETATM   27  C13 UNL     1      -4.325  -3.598  -1.688  1.00  0.00     0.124 C 
BRANCH  27  28
HETATM   28  C14 UNL     1      -4.946  -2.255  -1.792  1.00  0.00     0.020 A 
HETATM   29  C15 UNL     1      -5.394  -1.622  -0.660  1.00  0.00     0.027 A 
HETATM   30  C16 UNL     1      -5.953  -0.374  -0.814  1.00  0.00    -0.006 A 
HETATM   31  C17 UNL     1      -6.430   0.341   0.268  1.00  0.00     0.053 A 
HETATM   32  C21 UNL     1      -6.024   0.148  -2.083  1.00  0.00     0.048 A 
HETATM   33  C18 UNL     1      -6.983   1.582   0.116  1.00  0.00     0.103 A 
HETATM   34  C19 UNL     1      -7.054   2.107  -1.161  1.00  0.00     0.104 A 
HETATM   35  O6  UNL     1      -7.484   2.359   1.168  1.00  0.00    -0.346 OA
HETATM   36  C20 UNL     1      -6.583   1.404  -2.246  1.00  0.00     0.070 A 
HETATM   37  O5  UNL     1      -7.627   3.375  -1.259  1.00  0.00    -0.346 OA
HETATM   38  C23 UNL     1      -8.716   3.750  -0.426  1.00  0.00     0.202 C 
HETATM   39  C24 UNL     1      -8.643   3.154   0.941  1.00  0.00     0.202 C 
HETATM   40  N4  UNL     1      -5.577  -0.491  -3.189  1.00  0.00    -0.322 N 
HETATM   41  C22 UNL     1      -5.035  -1.702  -3.042  1.00  0.00     0.253 A 
ATOM     42  H4  UNL     1      -5.652  -0.059  -4.110  1.00  0.00     0.169 HD
HETATM   43  O4  UNL     1      -4.627  -2.271  -4.096  1.00  0.00    -0.268 OA
ENDBRANCH  27  28
ENDBRANCH  26  27
ENDBRANCH   3  26
TORSDOF 13
