REMARK  10 active torsions:
REMARK  status: ('A' for Active; 'I' for Inactive)
REMARK    1  A    between atoms: C2_2  and  C3_3 
REMARK    2  A    between atoms: C3_3  and  C4_4 
REMARK    3  A    between atoms: C4_4  and  C5_5 
REMARK    4  A    between atoms: C5_5  and  C6_6 
REMARK    5  A    between atoms: C7_7  and  C8_8 
REMARK    6  A    between atoms: C8_8  and  C9_9 
REMARK    7  A    between atoms: C9_9  and  C10_10 
REMARK    8  A    between atoms: C10_10  and  N1_11 
REMARK    9  A    between atoms: C20_27  and  C21_28 
REMARK   10  A    between atoms: C21_28  and  C22_29 
ROOT
HETATM    1  N1  UNL     1       0.342   0.619  -0.182  1.00  0.00    -0.332 N 
HETATM    2  C11 UNL     1       0.549  -0.786  -0.468  1.00  0.00     0.153 C 
HETATM    3  C12 UNL     1      -0.292  -1.728   0.312  1.00  0.00     0.187 C 
HETATM    4  O1  UNL     1       0.430  -2.897   0.608  1.00  0.00    -0.387 OA
HETATM    5  C13 UNL     1      -0.300  -3.936   0.038  1.00  0.00     0.193 C 
HETATM    6  C14 UNL     1      -0.047  -5.283   0.613  1.00  0.00     0.193 C 
HETATM    7  O2  UNL     1      -1.270  -5.910   0.844  1.00  0.00    -0.387 OA
HETATM    8  C15 UNL     1      -2.136  -5.847  -0.244  1.00  0.00     0.193 C 
HETATM    9  C16 UNL     1      -3.501  -5.347   0.106  1.00  0.00     0.193 C 
HETATM   10  O3  UNL     1      -3.930  -4.487  -0.927  1.00  0.00    -0.387 OA
HETATM   11  C17 UNL     1      -4.483  -3.327  -0.418  1.00  0.00     0.187 C 
HETATM   12  C18 UNL     1      -4.294  -2.122  -1.334  1.00  0.00     0.148 C 
HETATM   13  N2  UNL     1      -4.846  -0.991  -0.620  1.00  0.00    -0.357 N 
ATOM     14  H2  UNL     1      -5.856  -0.862  -0.675  1.00  0.00     0.162 HD
HETATM   15  C19 UNL     1      -4.131  -0.055   0.140  1.00  0.00     0.240 C 
HETATM   16  O4  UNL     1      -4.519   0.235   1.328  1.00  0.00    -0.271 OA
HETATM   17  C20 UNL     1      -2.911   0.676  -0.298  1.00  0.00     0.182 C 
HETATM   18  N3  UNL     1      -1.999   0.767   0.797  1.00  0.00    -0.329 N 
ATOM     19  H3  UNL     1      -2.368   0.544   1.722  1.00  0.00     0.165 HD
HETATM   20  C29 UNL     1      -0.623   1.139   0.726  1.00  0.00     0.319 C 
HETATM   21  O7  UNL     1      -0.210   2.034   1.565  1.00  0.00    -0.247 OA
ENDROOT
BRANCH   1  22
HETATM   22  C10 UNL     1       1.202   1.555  -0.881  1.00  0.00     0.128 C 
BRANCH  22  23
HETATM   23  C9  UNL     1       2.482   1.831  -0.085  1.00  0.00     0.023 C 
BRANCH  23  24
HETATM   24  C8  UNL     1       3.272   2.793  -0.910  1.00  0.00     0.028 C 
BRANCH  24  25
HETATM   25  C7  UNL     1       4.546   3.308  -0.472  1.00  0.00    -0.031 C 
HETATM   26  C6  UNL     1       5.840   2.706  -0.333  1.00  0.00    -0.031 C 
BRANCH  26  27
HETATM   27  C5  UNL     1       6.263   1.522   0.403  1.00  0.00     0.027 C 
BRANCH  27  28
HETATM   28  C4  UNL     1       5.891   0.214  -0.159  1.00  0.00     0.004 C 
BRANCH  28  29
HETATM   29  C3  UNL     1       6.331  -0.980   0.680  1.00  0.00    -0.000 C 
BRANCH  29  30
HETATM   30  C2  UNL     1       7.818  -0.963   0.798  1.00  0.00    -0.005 C 
HETATM   31  C1  UNL     1       8.245  -2.179   1.621  1.00  0.00     0.005 C 
ENDBRANCH  29  30
ENDBRANCH  28  29
ENDBRANCH  27  28
ENDBRANCH  26  27
ENDBRANCH  24  25
ENDBRANCH  23  24
ENDBRANCH  22  23
ENDBRANCH   1  22
BRANCH  17  32
HETATM   32  C21 UNL     1      -3.257   2.010  -0.937  1.00  0.00     0.073 C 
BRANCH  32  33
HETATM   33  C22 UNL     1      -3.983   2.926  -0.054  1.00  0.00    -0.053 A 
HETATM   34  C23 UNL     1      -3.343   3.830   0.752  1.00  0.00     0.010 A 
HETATM   35  C24 UNL     1      -4.008   4.697   1.592  1.00  0.00     0.040 A 
HETATM   36  C25 UNL     1      -5.369   4.662   1.628  1.00  0.00     0.105 A 
HETATM   37  C26 UNL     1      -6.050   3.763   0.828  1.00  0.00     0.105 A 
HETATM   38  O6  UNL     1      -6.311   5.394   2.356  1.00  0.00    -0.323 OA
HETATM   39  C27 UNL     1      -5.360   2.887  -0.020  1.00  0.00     0.047 A 
HETATM   40  O5  UNL     1      -7.399   3.945   1.067  1.00  0.00    -0.323 OA
HETATM   41  C28 UNL     1      -7.536   5.216   1.709  1.00  0.00     0.352 C 
ENDBRANCH  32  33
ENDBRANCH  17  32
TORSDOF 10
