REMARK  3 active torsions:
REMARK  status: ('A' for Active; 'I' for Inactive)
REMARK    1  A    between atoms: N1_1  and  N2_4 
REMARK    2  A    between atoms: N2_4  and  N3_6 
REMARK       I    between atoms: N3_6  and  C1_8 
REMARK       I    between atoms: C1_8  and  N5_10 
REMARK    3  A    between atoms: N5_10  and  C2_12 
ROOT
HETATM    1  N3  UNL     1       1.242  -0.536   0.387  1.00  0.00    -0.259 N 
ATOM      2  H3  UNL     1       0.538  -1.271   0.455  1.00  0.00     0.191 HD
HETATM    3  C1  UNL     1       0.847   0.668   0.490  1.00  0.00     0.222 C 
HETATM    4  N4  UNL     1       1.781   1.716   0.402  1.00  0.00    -0.061 NA
HETATM    5  N5  UNL     1      -0.511   0.958   0.691  1.00  0.00    -0.161 N 
ATOM      6  H5  UNL     1      -0.748   1.609   1.440  1.00  0.00     0.187 HD
ENDROOT
BRANCH   5   7
HETATM    7  C2  UNL     1      -1.478   0.467   0.004  1.00  0.00     0.703 A 
HETATM    8  N6  UNL     1      -2.771   0.760   0.216  1.00  0.00    -0.128 N 
HETATM    9  N7  UNL     1      -3.509   0.079  -0.673  1.00  0.00    -0.237 N 
ATOM     10  H6  UNL     1      -3.131   1.392   0.931  1.00  0.00     0.205 HD
HETATM   11  C3  UNL     1      -2.702  -0.655  -1.460  1.00  0.00     0.353 A 
ATOM     12  H7  UNL     1      -4.526   0.113  -0.742  1.00  0.00     0.192 HD
HETATM   13  O1  UNL     1      -3.032  -1.431  -2.417  1.00  0.00    -0.245 OA
HETATM   14  N8  UNL     1      -1.448  -0.396  -1.018  1.00  0.00    -0.139 N 
ATOM     15  H8  UNL     1      -0.599  -0.803  -1.410  1.00  0.00     0.189 HD
ENDBRANCH   5   7
BRANCH   1  16
HETATM   16  N2  UNL     1       2.564  -0.925   0.188  1.00  0.00    -0.247 N 
ATOM     17  H2  UNL     1       3.095  -0.567  -0.606  1.00  0.00     0.207 HD
BRANCH  16  18
HETATM   18  N1  UNL     1       3.149  -1.809   1.087  1.00  0.00    -0.331 N 
ATOM     19  H12 UNL     1       2.604  -2.158   1.875  1.00  0.00     0.178 HD
ATOM     20  H11 UNL     1       4.117  -2.094   0.941  1.00  0.00     0.178 HD
ENDBRANCH  16  18
ENDBRANCH   1  16
TORSDOF 3
