REMARK  2 active torsions:
REMARK  status: ('A' for Active; 'I' for Inactive)
REMARK    1  A    between atoms: N1_1  and  N2_4 
REMARK       I    between atoms: N2_4  and  C1_6 
REMARK       I    between atoms: C1_6  and  N3_8 
REMARK    2  A    between atoms: N3_8  and  C2_10 
ROOT
HETATM    1  C2  UNL     1       1.050   0.518   0.063  1.00  0.00     0.193 A 
HETATM    2  N4  UNL     1       1.981   1.428   0.230  1.00  0.00    -0.290 N 
ATOM      3  H4  UNL     1       1.844   2.422   0.048  1.00  0.00     0.172 HD
HETATM    4  C3  UNL     1       3.184   0.875   0.687  1.00  0.00     0.316 A 
HETATM    5  O2  UNL     1       4.280   1.490   0.948  1.00  0.00    -0.262 OA
HETATM    6  C4  UNL     1       2.973  -0.558   0.821  1.00  0.00     0.316 A 
HETATM    7  O3  UNL     1       3.784  -1.435   1.201  1.00  0.00    -0.262 OA
HETATM    8  N5  UNL     1       1.602  -0.736   0.413  1.00  0.00    -0.290 N 
ATOM      9  H5  UNL     1       1.107  -1.627   0.382  1.00  0.00     0.172 HD
ENDROOT
BRANCH   1  10
HETATM   10  N3  UNL     1      -0.270   0.818  -0.396  1.00  0.00    -0.279 N 
HETATM   11  C1  UNL     1      -1.286  -0.145  -0.582  1.00  0.00     0.341 C 
HETATM   12  N2  UNL     1      -2.590   0.249  -1.049  1.00  0.00    -0.258 N 
HETATM   13  O1  UNL     1      -1.060  -1.358  -0.341  1.00  0.00    -0.245 OA
ATOM     14  H2  UNL     1      -2.806   1.225  -1.254  1.00  0.00     0.191 HD
ATOM     15  H3  UNL     1      -0.493   1.792  -0.603  1.00  0.00     0.173 HD
BRANCH  12  16
HETATM   16  N1  UNL     1      -3.546  -0.753  -1.211  1.00  0.00    -0.341 N 
ATOM     17  H12 UNL     1      -3.314  -1.724  -1.002  1.00  0.00     0.177 HD
ATOM     18  H11 UNL     1      -4.470  -0.474  -1.542  1.00  0.00     0.177 HD
ENDBRANCH  12  16
ENDBRANCH   1  10
TORSDOF 2
