REMARK  3 active torsions:
REMARK  status: ('A' for Active; 'I' for Inactive)
REMARK    1  A    between atoms: C3_7  and  N3_8 
REMARK    2  A    between atoms: N4_11  and  N5_12 
REMARK       I    between atoms: N5_12  and  C4_14 
REMARK    3  A    between atoms: N7_16  and  N8_18 
ROOT
HETATM    1  C1  UNL     1      -1.924   0.002  -0.240  1.00  0.00     0.093 C 
HETATM    2  C2  UNL     1      -1.066   0.357   0.918  1.00  0.00     0.133 A 
HETATM    3  N1  UNL     1      -1.556   0.788   2.126  1.00  0.00    -0.273 N 
ATOM      4  H1  UNL     1      -2.541   0.910   2.360  1.00  0.00     0.189 HD
HETATM    5  N2  UNL     1      -0.541   1.018   2.932  1.00  0.00    -0.129 N 
ATOM      6  H2  UNL     1      -0.626   1.348   3.893  1.00  0.00     0.205 HD
HETATM    7  C3  UNL     1       0.612   0.760   2.318  1.00  0.00     0.713 A 
HETATM    8  N4  UNL     1       0.264   0.345   1.049  1.00  0.00    -0.070 N 
ENDROOT
BRANCH   8   9
HETATM    9  N5  UNL     1       1.227  -0.005   0.133  1.00  0.00    -0.250 N 
HETATM   10  C4  UNL     1       0.973  -0.438  -1.178  1.00  0.00     0.222 C 
HETATM   11  N6  UNL     1       1.050  -1.805  -1.574  1.00  0.00    -0.061 NA
HETATM   12  N7  UNL     1       0.682   0.423  -2.103  1.00  0.00    -0.279 N 
ATOM     13  H7  UNL     1       0.636   1.419  -1.886  1.00  0.00     0.189 HD
ATOM     14  H5  UNL     1       2.201   0.054   0.429  1.00  0.00     0.191 HD
BRANCH  12  15
HETATM   15  N8  UNL     1       0.435  -0.026  -3.389  1.00  0.00    -0.343 N 
ATOM     16  H82 UNL     1       0.485  -1.025  -3.590  1.00  0.00     0.176 HD
ATOM     17  H81 UNL     1       0.206   0.651  -4.117  1.00  0.00     0.176 HD
ENDBRANCH  12  15
ENDBRANCH   8   9
BRANCH   7  18
HETATM   18  N3  UNL     1       1.804   0.868   2.789  1.00  0.00    -0.232 N 
ATOM     19  H32 UNL     1       2.061   1.175   3.727  1.00  0.00     0.174 HD
ATOM     20  H31 UNL     1       2.687   0.670   2.319  1.00  0.00     0.174 HD
ENDBRANCH   7  18
TORSDOF 3
