REMARK  0 active torsions:
REMARK  status: ('A' for Active; 'I' for Inactive)
ROOT
HETATM    1  N1  UNL     1      -3.323   0.887   1.148  1.00  0.00    -0.233 N 
ATOM      2  H11 UNL     1      -3.973   0.145   1.409  1.00  0.00     0.174 HD
ATOM      3  H12 UNL     1      -3.471   1.887   1.282  1.00  0.00     0.174 HD
HETATM    4  C1  UNL     1      -2.199   0.503   0.590  1.00  0.00     0.693 C 
HETATM    5  N2  UNL     1      -1.289   1.542   0.224  1.00  0.00    -0.132 N 
ATOM      6  H2  UNL     1      -1.695   2.475   0.157  1.00  0.00     0.205 HD
HETATM    7  N3  UNL     1       0.080   1.461  -0.056  1.00  0.00    -0.281 N 
ATOM      8  H3  UNL     1       0.512   2.351  -0.304  1.00  0.00     0.187 HD
HETATM    9  C2  UNL     1       0.973   0.356  -0.055  1.00  0.00     0.117 C 
HETATM   10  C3  UNL     1       2.261   0.551  -0.213  1.00  0.00     0.135 C 
HETATM   11  N4  UNL     1       3.234  -0.458  -0.229  1.00  0.00    -0.113 NA
HETATM   12  C4  UNL     1       0.572  -1.035   0.111  1.00  0.00     0.268 C 
HETATM   13  O1  UNL     1       1.482  -1.865   0.062  1.00  0.00    -0.280 OA
HETATM   14  C5  UNL     1      -0.774  -1.608   0.332  1.00  0.00     0.312 C 
HETATM   15  O2  UNL     1      -0.850  -2.856   0.469  1.00  0.00    -0.263 OA
HETATM   16  N5  UNL     1      -1.993  -0.886   0.404  1.00  0.00    -0.152 N 
ATOM     17  H5  UNL     1      -2.840  -1.446   0.308  1.00  0.00     0.188 HD
ENDROOT
TORSDOF 0
