REMARK  2 active torsions:
REMARK  status: ('A' for Active; 'I' for Inactive)
REMARK    1  A    between atoms: N1_1  and  N2_4 
REMARK       I    between atoms: C1_6  and  N4_8 
REMARK    2  A    between atoms: N4_8  and  C2_10 
ROOT
HETATM    1  C2  UNL     1       1.282   0.301   0.008  1.00  0.00     0.181 A 
HETATM    2  N5  UNL     1       2.315   1.026  -0.268  1.00  0.00    -0.290 N 
ATOM      3  H5  UNL     1       2.468   1.972   0.083  1.00  0.00     0.172 HD
HETATM    4  C3  UNL     1       3.207   0.333  -1.122  1.00  0.00     0.328 A 
HETATM    5  O1  UNL     1       4.310   0.714  -1.600  1.00  0.00    -0.247 OA
HETATM    6  N6  UNL     1       2.643  -0.942  -1.384  1.00  0.00    -0.272 N 
ATOM      7  H6  UNL     1       3.038  -1.681  -1.966  1.00  0.00     0.174 HD
HETATM    8  C4  UNL     1       1.409  -0.978  -0.666  1.00  0.00     0.293 A 
HETATM    9  O2  UNL     1       0.652  -1.975  -0.683  1.00  0.00    -0.264 OA
ENDROOT
BRANCH   1  10
HETATM   10  N4  UNL     1       0.165   0.639   0.830  1.00  0.00    -0.311 N 
HETATM   11  C1  UNL     1      -1.176   0.385   0.479  1.00  0.00     0.208 C 
HETATM   12  N2  UNL     1      -1.707  -0.742   0.738  1.00  0.00    -0.280 N 
HETATM   13  N3  UNL     1      -1.924   1.391  -0.161  1.00  0.00    -0.062 NA
ATOM     14  H2  UNL     1      -1.161  -1.468   1.202  1.00  0.00     0.189 HD
ATOM     15  H4  UNL     1       0.349   1.092   1.725  1.00  0.00     0.170 HD
BRANCH  12  16
HETATM   16  N1  UNL     1      -3.031  -0.986   0.389  1.00  0.00    -0.343 N 
ATOM     17  H12 UNL     1      -3.563  -0.250  -0.075  1.00  0.00     0.176 HD
ATOM     18  H11 UNL     1      -3.457  -1.889   0.597  1.00  0.00     0.176 HD
ENDBRANCH  12  16
ENDBRANCH   1  10
TORSDOF 2
