REMARK  8 active torsions:
REMARK  status: ('A' for Active; 'I' for Inactive)
REMARK    1  A    between atoms: N1_1  and  C1_4 
REMARK    2  A    between atoms: C2_8  and  N3_9 
REMARK    3  A    between atoms: N3_9  and  C3_11 
REMARK    4  A    between atoms: C3_11  and  C4_12 
REMARK    5  A    between atoms: C4_12  and  N4_13 
REMARK    6  A    between atoms: N4_13  and  C5_15 
REMARK    7  A    between atoms: C6_18  and  N6_19 
REMARK    8  A    between atoms: N6_19  and  C7_21 
ROOT
HETATM    1  C5  UNL     1      -0.165   0.109   0.652  1.00  0.00     0.152 A 
HETATM    2  N5  UNL     1      -1.252   0.856   0.310  1.00  0.00    -0.174 N 
ATOM      3  H5  UNL     1      -1.120   1.778  -0.106  1.00  0.00     0.186 HD
HETATM    4  C6  UNL     1      -2.493   0.392   0.514  1.00  0.00     0.681 A 
HETATM    5  N7  UNL     1      -2.634  -0.821   1.060  1.00  0.00    -0.174 N 
ATOM      6  H7  UNL     1      -3.578  -1.174   1.214  1.00  0.00     0.186 HD
HETATM    7  C11 UNL     1      -1.575  -1.616   1.424  1.00  0.00     0.159 A 
HETATM    8  N8  UNL     1      -1.698  -2.837   1.974  1.00  0.00    -0.296 N 
ATOM      9  H8  UNL     1      -2.555  -3.343   2.198  1.00  0.00     0.177 HD
HETATM   10  S1  UNL     1      -0.114  -3.331   2.204  1.00  0.00     0.069 SA
HETATM   11  N9  UNL     1       0.670  -1.982   1.599  1.00  0.00    -0.306 N 
ATOM     12  H9  UNL     1       1.674  -1.817   1.529  1.00  0.00     0.176 HD
HETATM   13  C12 UNL     1      -0.329  -1.169   1.228  1.00  0.00     0.130 A 
ENDROOT
BRANCH   1  14
HETATM   14  N4  UNL     1       0.951   0.635   0.420  1.00  0.00    -0.352 N 
ATOM     15  H4  UNL     1       0.876   1.562   0.002  1.00  0.00     0.166 HD
BRANCH  14  16
HETATM   16  C4  UNL     1       2.283   0.223   0.612  1.00  0.00     0.082 C 
BRANCH  16  17
HETATM   17  C3  UNL     1       2.865  -0.534  -0.568  1.00  0.00     0.167 C 
BRANCH  17  18
HETATM   18  N3  UNL     1       4.234  -0.937  -0.315  1.00  0.00    -0.349 N 
ATOM     19  H3  UNL     1       4.407  -1.888   0.010  1.00  0.00     0.163 HD
BRANCH  18  20
HETATM   20  C2  UNL     1       5.239  -0.157  -0.480  1.00  0.00     0.258 A 
HETATM   21  O1  UNL     1       5.223   1.095  -0.889  1.00  0.00    -0.186 OA
HETATM   22  N2  UNL     1       6.449   1.527  -0.921  1.00  0.00    -0.088 N 
HETATM   23  C1  UNL     1       7.274   0.541  -0.526  1.00  0.00     0.699 A 
ATOM     24  H2  UNL     1       6.739   2.464  -1.201  1.00  0.00     0.214 HD
HETATM   25  N10 UNL     1       6.507  -0.532  -0.245  1.00  0.00    -0.152 N 
ATOM     26  H10 UNL     1       6.826  -1.445   0.080  1.00  0.00     0.188 HD
BRANCH  23  27
HETATM   27  N1  UNL     1       8.552   0.647  -0.448  1.00  0.00    -0.233 N 
ATOM     28  H12 UNL     1       9.132   1.459  -0.661  1.00  0.00     0.174 HD
ATOM     29  H11 UNL     1       9.178  -0.101  -0.148  1.00  0.00     0.174 HD
ENDBRANCH  23  27
ENDBRANCH  18  20
ENDBRANCH  17  18
ENDBRANCH  16  17
ENDBRANCH  14  16
ENDBRANCH   1  14
BRANCH   4  30
HETATM   30  N6  UNL     1      -3.522   1.118   0.182  1.00  0.00    -0.221 N 
ATOM     31  H6  UNL     1      -3.393   2.041  -0.233  1.00  0.00     0.178 HD
BRANCH  30  32
HETATM   32  C7  UNL     1      -4.829   0.602   0.408  1.00  0.00     0.099 C 
HETATM   33  C8  UNL     1      -5.959   1.565   0.010  1.00  0.00     0.026 C 
HETATM   34  C9  UNL     1      -6.737   0.336  -0.411  1.00  0.00     0.004 C 
HETATM   35  C10 UNL     1      -5.378  -0.339  -0.644  1.00  0.00     0.026 C 
ENDBRANCH  30  32
ENDBRANCH   4  30
TORSDOF 8
