REMARK  5 active torsions:
REMARK  status: ('A' for Active; 'I' for Inactive)
REMARK    1  A    between atoms: C2_2  and  N1_4 
REMARK    2  A    between atoms: N2_7  and  C6_8 
REMARK    3  A    between atoms: C7_11  and  N4_12 
REMARK    4  A    between atoms: C8_15  and  C9_16 
REMARK    5  A    between atoms: C11_25  and  N10_26 
ROOT
HETATM    1  N4  UNL     1       3.152  -0.325  -0.309  1.00  0.00    -0.069 N 
HETATM    2  N5  UNL     1       4.151  -0.879   0.346  1.00  0.00    -0.272 N 
ATOM      3  H5  UNL     1       4.013  -1.790   0.783  1.00  0.00     0.188 HD
HETATM    4  C8  UNL     1       5.351  -0.274   0.455  1.00  0.00     0.131 A 
HETATM    5  C10 UNL     1       5.522   0.957  -0.140  1.00  0.00     0.163 A 
HETATM    6  N8  UNL     1       6.763   1.633  -0.056  1.00  0.00    -0.080 NA
HETATM    7  N9  UNL     1       4.507   1.554  -0.824  1.00  0.00    -0.175 N 
ATOM      8  H9  UNL     1       4.621   2.465  -1.269  1.00  0.00     0.185 HD
HETATM    9  C11 UNL     1       3.347   0.879  -0.881  1.00  0.00     0.700 A 
ENDROOT
BRANCH   1  10
HETATM   10  C7  UNL     1       1.862  -0.997  -0.413  1.00  0.00     0.154 A 
HETATM   11  N3  UNL     1       0.738  -0.363  -0.314  1.00  0.00    -0.320 N 
HETATM   12  C6  UNL     1      -0.406  -1.014  -0.413  1.00  0.00     0.148 A 
ATOM     13  H3  UNL     1       0.736   0.645  -0.159  1.00  0.00     0.169 HD
HETATM   14  S1  UNL     1       0.117  -2.623  -0.663  1.00  0.00    -0.062 SA
HETATM   15  C12 UNL     1       1.803  -2.357  -0.623  1.00  0.00     0.104 A 
BRANCH  12  16
HETATM   16  N2  UNL     1      -1.736  -0.464  -0.337  1.00  0.00    -0.358 N 
HETATM   17  C5  UNL     1      -2.373  -0.183  -1.593  1.00  0.00     0.155 C 
HETATM   18  C4  UNL     1      -3.730   0.427  -1.453  1.00  0.00     0.292 C 
HETATM   19  N1  UNL     1      -4.323  -0.134  -0.250  1.00  0.00     0.095 N 
HETATM   20  C14 UNL     1      -3.687   0.351   0.939  1.00  0.00     0.292 C 
HETATM   21  C13 UNL     1      -2.284  -0.247   0.956  1.00  0.00     0.155 C 
BRANCH  19  22
HETATM   22  C2  UNL     1      -5.749  -0.103  -0.275  1.00  0.00     0.215 C 
HETATM   23  C1  UNL     1      -6.380   1.242  -0.310  1.00  0.00     0.042 C 
HETATM   24  C3  UNL     1      -6.287  -0.891   0.886  1.00  0.00     0.042 C 
ENDBRANCH  19  22
ENDBRANCH  12  16
ENDBRANCH   1  10
BRANCH   9  25
HETATM   25  N10 UNL     1       2.330   1.398  -1.530  1.00  0.00    -0.233 N 
ATOM     26 2H10 UNL     1       1.449   0.885  -1.573  1.00  0.00     0.174 HD
ATOM     27 1H10 UNL     1       2.478   2.310  -1.963  1.00  0.00     0.174 HD
ENDBRANCH   9  25
BRANCH   4  28
HETATM   28  C9  UNL     1       6.447  -0.891   1.178  1.00  0.00     0.141 C 
HETATM   29  N6  UNL     1       6.288  -2.032   1.726  1.00  0.00    -0.386 N 
ATOM     30  H62 UNL     1       5.393  -2.518   1.663  1.00  0.00     0.157 HD
ATOM     31  H61 UNL     1       7.059  -2.466   2.234  1.00  0.00     0.157 HD
HETATM   32  N7  UNL     1       7.686  -0.218   1.265  1.00  0.00    -0.081 NA
ENDBRANCH   4  28
TORSDOF 5
