REMARK  5 active torsions:
REMARK  status: ('A' for Active; 'I' for Inactive)
REMARK    1  A    between atoms: N2_5  and  C4_6 
REMARK    2  A    between atoms: C8_19  and  C9_20 
REMARK    3  A    between atoms: C9_20  and  N7_21 
REMARK    4  A    between atoms: C9_20  and  C10_25 
REMARK    5  A    between atoms: N8_31  and  N9_32 
ROOT
HETATM    1  C4  UNL     1       2.089  -1.082   0.008  1.00  0.00     0.150 A 
HETATM    2  N3  UNL     1       2.536  -2.333   0.242  1.00  0.00    -0.175 N 
ATOM      3  H3  UNL     1       3.513  -2.468   0.501  1.00  0.00     0.186 HD
HETATM    4  C5  UNL     1       1.739  -3.402   0.145  1.00  0.00     0.679 A 
HETATM    5  N4  UNL     1       2.236  -4.571   0.385  1.00  0.00    -0.234 N 
ATOM      6  H41 UNL     1       1.628  -5.387   0.311  1.00  0.00     0.174 HD
ATOM      7  H42 UNL     1       3.218  -4.674   0.642  1.00  0.00     0.174 HD
HETATM    8  N5  UNL     1       0.446  -3.266  -0.193  1.00  0.00    -0.173 N 
ATOM      9  H5  UNL     1      -0.147  -4.093  -0.261  1.00  0.00     0.186 HD
HETATM   10  C6  UNL     1      -0.075  -2.055  -0.442  1.00  0.00     0.174 A 
HETATM   11  C7  UNL     1       0.748  -0.971  -0.341  1.00  0.00     0.125 A 
HETATM   12  N6  UNL     1      -0.010   0.110  -0.637  1.00  0.00    -0.337 N 
ATOM     13  H6  UNL     1       0.322   1.074  -0.647  1.00  0.00     0.167 HD
HETATM   14  C8  UNL     1      -1.266  -0.277  -0.916  1.00  0.00     0.137 A 
HETATM   15  N8  UNL     1      -1.312  -1.614  -0.797  1.00  0.00    -0.229 N 
ENDROOT
BRANCH  14  16
HETATM   16  C9  UNL     1      -2.389   0.601  -1.285  1.00  0.00     0.256 C 
BRANCH  16  17
HETATM   17  N7  UNL     1      -1.992   1.597  -2.276  1.00  0.00    -0.068 N 
ATOM     18  H73 UNL     1      -1.186   2.137  -1.959  1.00  0.00     0.275 HD
ATOM     19  H72 UNL     1      -1.577   1.159  -3.098  1.00  0.00     0.275 HD
ATOM     20  H71 UNL     1      -2.770   2.205  -2.532  1.00  0.00     0.275 HD
ENDBRANCH  16  17
BRANCH  16  21
HETATM   21  C10 UNL     1      -2.970   1.356  -0.116  1.00  0.00     0.024 C 
HETATM   22  C11 UNL     1      -4.103   2.213  -0.623  1.00  0.00     0.007 C 
HETATM   23  C12 UNL     1      -5.348   1.418  -0.927  1.00  0.00     0.000 C 
HETATM   24  C13 UNL     1      -5.808   0.817   0.403  1.00  0.00     0.000 C 
HETATM   25  C14 UNL     1      -4.749  -0.144   0.844  1.00  0.00     0.000 C 
HETATM   26  C15 UNL     1      -3.396   0.457   1.013  1.00  0.00     0.007 C 
ENDBRANCH  16  21
ENDBRANCH  14  16
BRANCH  15  27
HETATM   27  N9  UNL     1      -2.377  -2.486  -0.981  1.00  0.00    -0.335 N 
ATOM     28  H92 UNL     1      -2.412  -3.501  -0.891  1.00  0.00     0.177 HD
ATOM     29  H91 UNL     1      -3.304  -2.155  -1.247  1.00  0.00     0.177 HD
ENDBRANCH  15  27
BRANCH   1  30
HETATM   30  N2  UNL     1       2.882   0.075   0.093  1.00  0.00    -0.355 N 
HETATM   31  C3  UNL     1       3.578   0.544  -1.100  1.00  0.00     0.169 C 
HETATM   32  C2  UNL     1       5.052   0.565  -0.814  1.00  0.00     0.082 C 
HETATM   33  N1  UNL     1       5.419   0.743   0.523  1.00  0.00    -0.375 N 
HETATM   34  C1  UNL     1       6.352  -0.192   1.067  1.00  0.00     0.154 C 
HETATM   35  C17 UNL     1       4.507   1.320   1.424  1.00  0.00     0.082 C 
HETATM   36  C16 UNL     1       3.081   0.866   1.286  1.00  0.00     0.169 C 
ENDBRANCH   1  30
TORSDOF 5
