REMARK  6 active torsions:
REMARK  status: ('A' for Active; 'I' for Inactive)
REMARK    1  A    between atoms: O1_2  and  C2_3 
REMARK    2  A    between atoms: C4_8  and  C5_9 
REMARK    3  A    between atoms: C5_9  and  O2_10 
REMARK    4  A    between atoms: O2_10  and  C6_11 
REMARK    5  A    between atoms: C7_14  and  N3_15 
REMARK    6  A    between atoms: C13_28  and  N7_29 
ROOT
HETATM    1  C6  UNL     1      -0.943  -1.001   0.383  1.00  0.00     0.170 A 
HETATM    2  N2  UNL     1      -0.910  -2.347   0.135  1.00  0.00    -0.170 N 
ATOM      3  H2  UNL     1      -0.056  -2.864   0.343  1.00  0.00     0.186 HD
HETATM    4  C7  UNL     1      -1.952  -3.005  -0.367  1.00  0.00     0.678 A 
HETATM    5  N4  UNL     1      -3.084  -2.346  -0.649  1.00  0.00    -0.194 N 
ATOM      6  H4  UNL     1      -3.879  -2.856  -1.034  1.00  0.00     0.184 HD
HETATM    7  C8  UNL     1      -3.191  -1.011  -0.431  1.00  0.00     0.047 A 
HETATM    8  C9  UNL     1      -2.096  -0.316   0.098  1.00  0.00     0.054 A 
HETATM    9  C10 UNL     1      -2.542   1.093   0.208  1.00  0.00     0.042 A 
HETATM   10  C11 UNL     1      -1.900   2.204   0.653  1.00  0.00     0.142 A 
HETATM   11  C12 UNL     1      -0.585   2.291   1.144  1.00  0.00     0.119 C 
HETATM   12  N5  UNL     1       0.477   2.443   1.556  1.00  0.00    -0.190 NA
HETATM   13  N6  UNL     1      -2.602   3.400   0.630  1.00  0.00    -0.181 N 
ATOM     14  H6  UNL     1      -2.130   4.241   0.963  1.00  0.00     0.185 HD
HETATM   15  C13 UNL     1      -3.845   3.514   0.203  1.00  0.00     0.677 A 
HETATM   16  N8  UNL     1      -4.450   2.420  -0.226  1.00  0.00    -0.195 N 
ATOM     17  H8  UNL     1      -5.411   2.501  -0.558  1.00  0.00     0.184 HD
HETATM   18  C14 UNL     1      -3.869   1.199  -0.251  1.00  0.00     0.046 A 
HETATM   19  C15 UNL     1      -4.339  -0.113  -0.673  1.00  0.00     0.117 A 
ENDROOT
BRANCH  15  20
HETATM   20  N7  UNL     1      -4.471   4.670   0.199  1.00  0.00    -0.234 N 
ATOM     21  H72 UNL     1      -4.004   5.514   0.530  1.00  0.00     0.174 HD
ATOM     22  H71 UNL     1      -5.432   4.758  -0.131  1.00  0.00     0.174 HD
ENDBRANCH  15  20
BRANCH   1  23
HETATM   23  O2  UNL     1       0.162  -0.422   0.896  1.00  0.00    -0.333 OA
BRANCH  23  24
HETATM   24  C5  UNL     1       1.370  -1.059   1.201  1.00  0.00     0.210 C 
BRANCH  24  25
HETATM   25  C4  UNL     1       2.074  -1.672   0.020  1.00  0.00     0.212 C 
HETATM   26  N1  UNL     1       3.305  -2.286   0.490  1.00  0.00    -0.066 N 
HETATM   27  C3  UNL     1       4.388  -1.386   0.231  1.00  0.00     0.264 C 
ATOM     28  H12 UNL     1       3.460  -3.211   0.089  1.00  0.00     0.277 HD
ATOM     29  H11 UNL     1       3.254  -2.566   1.469  1.00  0.00     0.277 HD
HETATM   30  C2  UNL     1       3.789  -0.084  -0.234  1.00  0.00     0.148 C 
HETATM   31  C16 UNL     1       2.518  -0.541  -0.909  1.00  0.00     0.069 C 
BRANCH  30  32
HETATM   32  O1  UNL     1       4.630   0.593  -1.116  1.00  0.00    -0.389 OA
HETATM   33  C1  UNL     1       4.884   1.846  -0.568  1.00  0.00     0.202 C 
ENDBRANCH  30  32
ENDBRANCH  24  25
ENDBRANCH  23  24
ENDBRANCH   1  23
BRANCH   4  34
HETATM   34  N3  UNL     1      -1.845  -4.270  -0.572  1.00  0.00    -0.234 N 
ATOM     35  H32 UNL     1      -0.983  -4.772  -0.357  1.00  0.00     0.174 HD
ATOM     36  H31 UNL     1      -2.644  -4.774  -0.957  1.00  0.00     0.174 HD
ENDBRANCH   4  34
TORSDOF 6
