REMARK  1 active torsions:
REMARK  status: ('A' for Active; 'I' for Inactive)
REMARK    1  A    between atoms: O1_2  and  C2_3 
ROOT
HETATM    1  C2  UNL     1       0.606   0.927   0.273  1.00  0.00     0.159 C 
HETATM    2  C3  UNL     1       1.826   0.227   0.841  1.00  0.00     0.304 C 
HETATM    3  N1  UNL     1       2.388  -0.694  -0.121  1.00  0.00     0.086 N 
HETATM    4  C4  UNL     1       3.450  -1.466   0.441  1.00  0.00     0.310 C 
HETATM    5  C5  UNL     1       1.388  -1.492  -0.787  1.00  0.00     0.273 C 
HETATM    6  C6  UNL     1       0.061  -1.475  -0.070  1.00  0.00     0.044 C 
HETATM    7  C7  UNL     1      -0.509  -0.068   0.019  1.00  0.00     0.013 C 
HETATM    8  C8  UNL     1      -1.414  -0.034   1.206  1.00  0.00     0.015 C 
HETATM    9  C9  UNL     1      -2.808  -0.531   0.919  1.00  0.00     0.028 C 
HETATM   10  C10 UNL     1      -3.331   0.255  -0.262  1.00  0.00     0.232 C 
HETATM   11  N2  UNL     1      -2.525  -0.091  -1.399  1.00  0.00    -0.074 N 
ATOM     12  H21 UNL     1      -2.927   0.295  -2.253  1.00  0.00     0.277 HD
ATOM     13  H22 UNL     1      -2.606  -1.087  -1.605  1.00  0.00     0.277 HD
HETATM   14  C11 UNL     1      -1.149   0.287  -1.275  1.00  0.00     0.244 C 
ENDROOT
BRANCH   1  15
HETATM   15  O1  UNL     1       0.972   1.625  -0.865  1.00  0.00    -0.388 OA
HETATM   16  C1  UNL     1       0.826   2.981  -0.633  1.00  0.00     0.202 C 
ENDBRANCH   1  15
TORSDOF 1
