REMARK  1 active torsions:
REMARK  status: ('A' for Active; 'I' for Inactive)
REMARK    1  A    between atoms: C2_2  and  C3_3 
ROOT
HETATM    1  C3  UNL     1       1.276  -0.616   0.220  1.00  0.00     0.238 C 
HETATM    2  N1  UNL     1       0.566  -1.345  -0.781  1.00  0.00    -0.065 N 
ATOM      3  H11 UNL     1       1.140  -2.056  -1.234  1.00  0.00     0.277 HD
ATOM      4  H12 UNL     1       0.364  -0.785  -1.609  1.00  0.00     0.277 HD
HETATM    5  C4  UNL     1      -0.632  -1.895  -0.166  1.00  0.00     0.269 C 
HETATM    6  C5  UNL     1      -1.435  -0.863   0.576  1.00  0.00     0.254 C 
HETATM    7  C6  UNL     1      -1.788   0.280  -0.349  1.00  0.00     0.020 C 
HETATM    8  C7  UNL     1      -2.240  -0.197  -1.701  1.00  0.00     0.012 C 
HETATM    9  C8  UNL     1      -0.453   0.989  -0.471  1.00  0.00     0.066 C 
HETATM   10  C9  UNL     1       0.360   0.475   0.725  1.00  0.00     0.274 C 
HETATM   11  C10 UNL     1       1.040   1.535   1.415  1.00  0.00     0.104 C 
HETATM   12  N2  UNL     1       1.592   2.384   1.954  1.00  0.00    -0.194 NA
HETATM   13  N3  UNL     1      -0.626  -0.215   1.565  1.00  0.00     0.116 N 
HETATM   14  C11 UNL     1      -1.324   0.666   2.429  1.00  0.00     0.312 C 
ENDROOT
BRANCH   1  15
HETATM   15  C2  UNL     1       2.626  -0.136  -0.179  1.00  0.00     0.032 C 
HETATM   16  C1  UNL     1       2.662   0.782  -1.342  1.00  0.00     0.007 C 
ENDBRANCH   1  15
TORSDOF 1
