REMARK  4 active torsions:
REMARK  status: ('A' for Active; 'I' for Inactive)
REMARK    1  A    between atoms: C2_2  and  N1_4 
REMARK    2  A    between atoms: N1_4  and  C4_6 
REMARK    3  A    between atoms: C4_6  and  N2_8 
REMARK    4  A    between atoms: N3_10  and  C5_12 
ROOT
HETATM    1  N2  UNL     1       0.587  -0.535  -0.811  1.00  0.00    -0.274 N 
ATOM      2  H2  UNL     1       1.234  -0.687  -1.585  1.00  0.00     0.189 HD
HETATM    3  N3  UNL     1       0.996  -0.219   0.362  1.00  0.00    -0.269 N 
ATOM      4  H3  UNL     1       0.350  -0.067   1.136  1.00  0.00     0.190 HD
ENDROOT
BRANCH   1   5
HETATM    5  C4  UNL     1      -0.818  -0.662  -0.971  1.00  0.00     0.186 C 
HETATM    6  S1  UNL     1      -1.353  -1.839  -1.959  1.00  0.00    -0.040 SA
BRANCH   5   7
HETATM    7  N1  UNL     1      -1.670   0.221  -0.282  1.00  0.00    -0.362 N 
ATOM      8  H1  UNL     1      -1.285   0.944   0.326  1.00  0.00     0.162 HD
BRANCH   7   9
HETATM    9  C2  UNL     1      -3.103   0.086  -0.450  1.00  0.00     0.076 C 
HETATM   10  C1  UNL     1      -3.788   1.147   0.386  1.00  0.00     0.032 C 
HETATM   11  C3  UNL     1      -3.485  -1.310   0.009  1.00  0.00     0.032 C 
ENDBRANCH   7   9
ENDBRANCH   5   7
ENDBRANCH   1   5
BRANCH   3  12
HETATM   12  C5  UNL     1       2.400  -0.093   0.520  1.00  0.00     0.190 C 
HETATM   13  N4  UNL     1       3.259  -1.022   0.357  1.00  0.00    -0.360 N 
HETATM   14  C6  UNL     1       4.615  -0.534   0.605  1.00  0.00     0.142 C 
ATOM     15  H4  UNL     1       3.030  -1.979   0.089  1.00  0.00     0.162 HD
HETATM   16  C7  UNL     1       4.347   0.726   1.419  1.00  0.00     0.142 C 
HETATM   17  N5  UNL     1       3.051   1.104   0.880  1.00  0.00    -0.360 N 
ATOM     18  H5  UNL     1       2.684   2.051   0.782  1.00  0.00     0.162 HD
ENDBRANCH   3  12
TORSDOF 4
