REMARK  3 active torsions:
REMARK  status: ('A' for Active; 'I' for Inactive)
REMARK    1  A    between atoms: N1_2  and  C2_4 
REMARK    2  A    between atoms: C2_4  and  N2_6 
REMARK    3  A    between atoms: N2_6  and  N3_8 
ROOT
HETATM    1  N2  UNL     1       0.709   0.196   0.031  1.00  0.00    -0.274 N 
ATOM      2  H2  UNL     1       0.993   0.685  -0.818  1.00  0.00     0.189 HD
ENDROOT
BRANCH   1   3
HETATM    3  C2  UNL     1       1.700  -0.469   0.777  1.00  0.00     0.186 C 
HETATM    4  S1  UNL     1       1.274  -1.255   2.134  1.00  0.00    -0.040 SA
BRANCH   3   5
HETATM    5  N1  UNL     1       3.045  -0.448   0.345  1.00  0.00    -0.370 N 
HETATM    6  C1  UNL     1       3.465   0.236  -0.850  1.00  0.00     0.148 C 
ATOM      7  H1  UNL     1       3.746  -0.937   0.902  1.00  0.00     0.161 HD
ENDBRANCH   3   5
ENDBRANCH   1   3
BRANCH   1   8
HETATM    8  N3  UNL     1      -0.639   0.224   0.387  1.00  0.00    -0.290 N 
HETATM    9  C3  UNL     1      -1.360   1.346  -0.028  1.00  0.00     0.095 C 
HETATM   10  C4  UNL     1      -2.027   1.106  -1.349  1.00  0.00     0.122 C 
HETATM   11  S2  UNL     1      -2.256  -0.714  -1.320  1.00  0.00    -0.137 SA
HETATM   12  C5  UNL     1      -1.334  -0.983   0.243  1.00  0.00     0.164 C 
HETATM   13  C6  UNL     1      -2.342  -1.289   1.309  1.00  0.00     0.046 C 
ENDBRANCH   1   8
TORSDOF 3
