REMARK  2 active torsions:
REMARK  status: ('A' for Active; 'I' for Inactive)
REMARK    1  A    between atoms: N2_6  and  C5_7 
REMARK    2  A    between atoms: C8_10  and  O1_11 
ROOT
HETATM    1  C1  UNL     1      -4.092   1.309  -0.281  1.00  0.00     0.309 C 
HETATM    2  N1  UNL     1      -3.115   0.280  -0.547  1.00  0.00     0.086 N 
HETATM    3  C2  UNL     1      -2.848  -0.420   0.663  1.00  0.00     0.273 C 
HETATM    4  C3  UNL     1      -1.785  -1.463   0.581  1.00  0.00     0.060 C 
HETATM    5  C4  UNL     1      -0.430  -0.816   0.892  1.00  0.00     0.275 C 
HETATM    6  N2  UNL     1      -0.001  -0.157  -0.287  1.00  0.00     0.095 N 
HETATM    7  C10 UNL     1      -0.771   1.039  -0.472  1.00  0.00     0.303 C 
HETATM    8  C11 UNL     1      -1.983   0.715  -1.278  1.00  0.00     0.302 C 
ENDROOT
BRANCH   6   9
HETATM    9  C5  UNL     1       1.399   0.006  -0.457  1.00  0.00     0.225 C 
HETATM   10  C6  UNL     1       2.068   0.856   0.595  1.00  0.00     0.038 C 
HETATM   11  C7  UNL     1       3.464   0.334   0.753  1.00  0.00     0.034 C 
HETATM   12  C8  UNL     1       3.625  -0.690  -0.352  1.00  0.00     0.120 C 
HETATM   13  C9  UNL     1       2.196  -1.248  -0.418  1.00  0.00     0.067 C 
BRANCH  12  14
HETATM   14  O1  UNL     1       4.504  -1.686   0.085  1.00  0.00    -0.396 OA
ATOM     15  H1  UNL     1       4.605  -2.328  -0.608  1.00  0.00     0.210 HD
ENDBRANCH  12  14
ENDBRANCH   6   9
TORSDOF 2
