REMARK  3 active torsions:
REMARK  status: ('A' for Active; 'I' for Inactive)
REMARK    1  A    between atoms: C6_7  and  O1_8 
REMARK    2  A    between atoms: C7_10  and  C8_11 
REMARK    3  A    between atoms: C8_11  and  O2_14 
ROOT
HETATM    1  C1  UNL     1       2.579  -2.169  -0.288  1.00  0.00     0.309 C 
HETATM    2  N1  UNL     1       1.928  -0.856  -0.252  1.00  0.00     0.085 N 
HETATM    3  C2  UNL     1       1.659  -0.452   1.114  1.00  0.00     0.277 C 
HETATM    4  C3  UNL     1       0.338   0.262   1.110  1.00  0.00     0.030 C 
HETATM    5  C4  UNL     1       0.623   1.758   1.283  1.00  0.00     0.010 C 
HETATM    6  C5  UNL     1       0.970   2.201  -0.102  1.00  0.00     0.033 C 
HETATM    7  C6  UNL     1       0.157   1.327  -1.054  1.00  0.00     0.131 C 
HETATM    8  C7  UNL     1      -0.225   0.129  -0.274  1.00  0.00     0.047 C 
HETATM    9  C11 UNL     1       0.595  -1.054  -0.813  1.00  0.00     0.287 C 
ENDROOT
BRANCH   8  10
HETATM   10  C8  UNL     1      -1.652  -0.260  -0.324  1.00  0.00     0.063 C 
HETATM   11  C9  UNL     1      -2.599   0.677   0.342  1.00  0.00     0.046 C 
HETATM   12  C10 UNL     1      -1.805  -1.613   0.370  1.00  0.00     0.046 C 
BRANCH  10  13
HETATM   13  O2  UNL     1      -2.018  -0.460  -1.650  1.00  0.00    -0.390 OA
ATOM     14  H2  UNL     1      -2.934  -0.710  -1.682  1.00  0.00     0.210 HD
ENDBRANCH  10  13
ENDBRANCH   8  10
BRANCH   7  15
HETATM   15  O1  UNL     1      -0.873   2.069  -1.559  1.00  0.00    -0.395 OA
ATOM     16  H1  UNL     1      -1.379   1.525  -2.151  1.00  0.00     0.210 HD
ENDBRANCH   7  15
TORSDOF 3
