REMARK  4 active torsions:
REMARK  status: ('A' for Active; 'I' for Inactive)
REMARK    1  A    between atoms: C6_6  and  C7_7 
REMARK    2  A    between atoms: C7_7  and  O2_9 
REMARK    3  A    between atoms: O2_9  and  O3_10 
REMARK    4  A    between atoms: N1_15  and  O4_16 
ROOT
HETATM    1  C1  UNL     1      -2.668  -0.461  -0.409  1.00  0.00     0.016 C 
HETATM    2  C2  UNL     1      -1.473   0.315  -0.003  1.00  0.00    -0.029 C 
HETATM    3  C3  UNL     1      -1.961   1.411   0.959  1.00  0.00     0.016 C 
HETATM    4  C4  UNL     1      -0.744   0.989  -1.113  1.00  0.00     0.013 C 
HETATM    5  C5  UNL     1       0.578   0.386  -1.455  1.00  0.00     0.039 C 
HETATM    6  C6  UNL     1       1.414   0.013  -0.272  1.00  0.00     0.129 C 
HETATM    7  C8  UNL     1       1.429  -1.516  -0.157  1.00  0.00     0.040 C 
HETATM    8  C9  UNL     1      -0.053  -1.754   0.144  1.00  0.00     0.025 C 
HETATM    9  C10 UNL     1      -0.478  -0.502   0.824  1.00  0.00     0.095 C 
HETATM   10  N1  UNL     1       0.704   0.362   0.923  1.00  0.00    -0.175 NA
ENDROOT
BRANCH   6  11
HETATM   11  C7  UNL     1       2.790   0.508  -0.317  1.00  0.00     0.313 C 
HETATM   12  O1  UNL     1       3.488   0.252  -1.324  1.00  0.00    -0.260 OA
BRANCH  11  13
HETATM   13  O2  UNL     1       3.325   1.248   0.727  1.00  0.00    -0.159 OA
BRANCH  13  14
HETATM   14  O3  UNL     1       4.587   1.694   0.673  1.00  0.00    -0.242 OA
ATOM     15  H3  UNL     1       4.953   2.201   1.388  1.00  0.00     0.254 HD
ENDBRANCH  13  14
ENDBRANCH  11  13
ENDBRANCH   6  11
BRANCH  10  16
HETATM   16  O4  UNL     1       1.377   0.194   2.051  1.00  0.00    -0.311 OA
ATOM     17  H4  UNL     1       0.906   0.425   2.843  1.00  0.00     0.237 HD
ENDBRANCH  10  16
TORSDOF 4
