REMARK  2 active torsions:
REMARK  status: ('A' for Active; 'I' for Inactive)
REMARK    1  A    between atoms: O1_2  and  C2_3 
REMARK       I    between atoms: C2_3  and  N1_5 
REMARK    2  A    between atoms: C3_6  and  O3_7 
ROOT
HETATM    1  C2  UNL     1       2.129   0.393  -0.047  1.00  0.00     0.364 C 
HETATM    2  O2  UNL     1       2.843   1.391   0.217  1.00  0.00    -0.238 OA
HETATM    3  N1  UNL     1       0.705   0.350   0.092  1.00  0.00    -0.296 N 
HETATM    4  C3  UNL     1       0.205   1.608   0.575  1.00  0.00     0.225 C 
HETATM    5  C4  UNL     1      -1.247   1.828   0.503  1.00  0.00     0.058 C 
HETATM    6  C5  UNL     1      -2.089   0.594   0.417  1.00  0.00    -0.010 C 
HETATM    7  C6  UNL     1      -1.692  -0.469   1.390  1.00  0.00     0.011 C 
HETATM    8  C7  UNL     1      -0.796  -1.493   0.766  1.00  0.00     0.010 C 
HETATM    9  C8  UNL     1      -1.490  -2.137  -0.448  1.00  0.00     0.013 C 
HETATM   10  C9  UNL     1      -0.997  -0.893  -1.216  1.00  0.00     0.010 C 
HETATM   11  C10 UNL     1      -2.043   0.135  -1.028  1.00  0.00     0.011 C 
HETATM   12  C11 UNL     1       0.131  -0.881  -0.264  1.00  0.00     0.100 C 
ENDROOT
BRANCH   1  13
HETATM   13  O1  UNL     1       2.853  -0.726  -0.508  1.00  0.00    -0.309 OA
HETATM   14  C1  UNL     1       4.254  -0.704  -0.652  1.00  0.00     0.215 C 
ENDBRANCH   1  13
BRANCH   4  15
HETATM   15  O3  UNL     1       0.865   2.669  -0.089  1.00  0.00    -0.377 OA
ATOM     16  H3  UNL     1       0.535   3.500   0.230  1.00  0.00     0.212 HD
ENDBRANCH   4  15
TORSDOF 2
