REMARK  2 active torsions:
REMARK  status: ('A' for Active; 'I' for Inactive)
REMARK    1  A    between atoms: C10_12  and  C11_13 
REMARK    2  A    between atoms: C11_13  and  O3_14 
ROOT
HETATM    1  C1  UNL     1      -3.460  -0.178  -1.215  1.00  0.00     0.015 C 
HETATM    2  C2  UNL     1      -2.415   0.034  -0.120  1.00  0.00    -0.041 C 
HETATM    3  C3  UNL     1      -3.082   0.301   1.179  1.00  0.00     0.015 C 
HETATM    4  C4  UNL     1      -1.429  -1.137  -0.125  1.00  0.00     0.022 C 
HETATM    5  C5  UNL     1      -0.477  -0.286  -0.922  1.00  0.00     0.087 C 
HETATM    6  C6  UNL     1      -1.344   0.932  -0.588  1.00  0.00     0.029 C 
HETATM    7  C7  UNL     1      -0.508   1.660   0.388  1.00  0.00     0.179 C 
HETATM    8  O1  UNL     1       0.805   1.301   0.209  1.00  0.00    -0.332 OA
HETATM    9  C8  UNL     1       0.855  -0.009  -0.214  1.00  0.00     0.287 C 
HETATM   10  O2  UNL     1       1.080  -0.919   0.792  1.00  0.00    -0.330 OA
HETATM   11  C9  UNL     1       2.311  -1.493   0.609  1.00  0.00     0.208 C 
HETATM   12  C10 UNL     1       2.974  -0.612  -0.423  1.00  0.00     0.175 C 
HETATM   13  O4  UNL     1       1.890  -0.121  -1.134  1.00  0.00    -0.323 OA
ENDROOT
BRANCH  12  14
HETATM   14  C11 UNL     1       3.758   0.497   0.244  1.00  0.00     0.198 C 
BRANCH  14  15
HETATM   15  O3  UNL     1       4.843   0.005   0.956  1.00  0.00    -0.398 OA
ATOM     16  H3  UNL     1       5.335   0.701   1.375  1.00  0.00     0.209 HD
ENDBRANCH  14  15
ENDBRANCH  12  14
TORSDOF 2
