REMARK  1 active torsions:
REMARK  status: ('A' for Active; 'I' for Inactive)
REMARK    1  A    between atoms: N1_1  and  C1_5 
ROOT
HETATM    1  C1  UNL     1       0.710   1.077   0.235  1.00  0.00     0.223 C 
HETATM    2  C2  UNL     1       1.768   0.821  -0.854  1.00  0.00     0.096 C 
HETATM    3  C3  UNL     1       2.914   0.008  -0.341  1.00  0.00     0.268 C 
HETATM    4  O1  UNL     1       2.740  -0.498   0.924  1.00  0.00    -0.329 OA
HETATM    5  C4  UNL     1       2.289  -1.690   0.324  1.00  0.00     0.289 C 
HETATM    6  C5  UNL     1       0.808  -1.718   0.444  1.00  0.00     0.229 C 
HETATM    7  O2  UNL     1       0.136  -1.032  -0.568  1.00  0.00    -0.372 OA
HETATM    8  C6  UNL     1      -0.390   0.136  -0.013  1.00  0.00     0.096 C 
HETATM    9  C7  UNL     1      -1.564   0.737  -0.747  1.00  0.00     0.023 C 
HETATM   10  C8  UNL     1      -2.336  -0.534  -1.093  1.00  0.00     0.008 C 
HETATM   11  C9  UNL     1      -2.263  -1.222   0.286  1.00  0.00     0.008 C 
HETATM   12  C10 UNL     1      -1.402  -0.180   1.016  1.00  0.00     0.023 C 
HETATM   13  C11 UNL     1      -2.168   1.054   0.593  1.00  0.00     0.015 C 
HETATM   14  O3  UNL     1       2.775  -1.286  -0.894  1.00  0.00    -0.329 OA
ENDROOT
BRANCH   1  15
HETATM   15  N1  UNL     1       0.387   2.479   0.131  1.00  0.00    -0.072 N 
ATOM     16  H13 UNL     1       1.199   3.094   0.194  1.00  0.00     0.274 HD
ATOM     17  H12 UNL     1       0.093   2.765  -0.803  1.00  0.00     0.274 HD
ATOM     18  H11 UNL     1      -0.314   2.649   0.852  1.00  0.00     0.274 HD
ENDBRANCH   1  15
TORSDOF 1
