REMARK  2 active torsions:
REMARK  status: ('A' for Active; 'I' for Inactive)
REMARK    1  A    between atoms: O1_2  and  C2_3 
REMARK    2  A    between atoms: C2_3  and  O2_4 
ROOT
HETATM    1  C2  UNL     1       0.852  -0.214  -0.085  1.00  0.00     0.191 C 
HETATM    2  C3  UNL     1       0.385   1.135   0.438  1.00  0.00     0.340 C 
HETATM    3  N1  UNL     1      -1.042   0.991   0.697  1.00  0.00     0.093 N 
HETATM    4  C4  UNL     1      -1.780   0.979  -0.564  1.00  0.00     0.273 C 
HETATM    5  C5  UNL     1      -1.255  -0.117  -1.442  1.00  0.00     0.040 C 
HETATM    6  C6  UNL     1      -0.304  -0.997  -0.660  1.00  0.00     0.053 C 
HETATM    7  C7  UNL     1      -1.108  -1.466   0.558  1.00  0.00     0.040 C 
HETATM    8  C8  UNL     1      -1.305  -0.224   1.416  1.00  0.00     0.273 C 
ENDROOT
BRANCH   1   9
HETATM    9  O1  UNL     1       1.875  -0.009  -0.969  1.00  0.00    -0.358 OA
HETATM   10  C1  UNL     1       2.872   0.714  -0.316  1.00  0.00     0.205 C 
ENDBRANCH   1   9
BRANCH   1  11
HETATM   11  O2  UNL     1       1.321  -0.932   1.016  1.00  0.00    -0.364 OA
ATOM     12  H2  UNL     1       0.610  -1.074   1.630  1.00  0.00     0.213 HD
ENDBRANCH   1  11
TORSDOF 2
