REMARK  2 active torsions:
REMARK  status: ('A' for Active; 'I' for Inactive)
REMARK    1  A    between atoms: C2_2  and  N1_4 
REMARK    2  A    between atoms: N2_7  and  O1_8 
ROOT
HETATM    1  N1  UNL     1      -0.223   0.157  -0.022  1.00  0.00     0.094 N 
HETATM    2  C4  UNL     1       0.628  -0.764  -0.711  1.00  0.00     0.289 C 
HETATM    3  C5  UNL     1       1.830  -1.205   0.059  1.00  0.00     0.150 C 
HETATM    4  N2  UNL     1       2.546  -0.116   0.676  1.00  0.00    -0.196 NA
HETATM    5  C6  UNL     1       1.722   0.837   1.339  1.00  0.00     0.150 C 
HETATM    6  C7  UNL     1       0.256   0.596   1.250  1.00  0.00     0.289 C 
ENDROOT
BRANCH   1   7
HETATM    7  C2  UNL     1      -1.581  -0.296   0.130  1.00  0.00     0.215 C 
HETATM    8  C1  UNL     1      -2.294  -0.496  -1.180  1.00  0.00     0.042 C 
HETATM    9  C3  UNL     1      -2.336   0.778   0.893  1.00  0.00     0.042 C 
ENDBRANCH   1   7
BRANCH   4  10
HETATM   10  O1  UNL     1       3.396   0.495  -0.186  1.00  0.00    -0.313 OA
ATOM     11  H1  UNL     1       3.868   1.212   0.220  1.00  0.00     0.237 HD
ENDBRANCH   4  10
TORSDOF 2
