REMARK  2 active torsions:
REMARK  status: ('A' for Active; 'I' for Inactive)
REMARK    1  A    between atoms: O1_2  and  C2_3 
REMARK    2  A    between atoms: C7_9  and  O2_10 
ROOT
HETATM    1  C2  UNL     1       0.633  -0.147  -0.325  1.00  0.00     0.290 C 
HETATM    2  C3  UNL     1       1.103   1.236  -0.552  1.00  0.00     0.105 C 
HETATM    3  C4  UNL     1       0.106   1.578   0.566  1.00  0.00     0.282 C 
HETATM    4  N1  UNL     1      -0.013   0.177   0.903  1.00  0.00     0.133 N 
HETATM    5  C5  UNL     1      -1.193  -0.485   0.442  1.00  0.00     0.256 C 
HETATM    6  C6  UNL     1      -2.490   0.241   0.636  1.00  0.00     0.046 C 
HETATM    7  C7  UNL     1      -0.689  -0.453  -0.974  1.00  0.00     0.217 C 
ENDROOT
BRANCH   1   8
HETATM    8  O1  UNL     1       1.489  -1.182  -0.380  1.00  0.00    -0.355 OA
HETATM    9  C1  UNL     1       2.536  -1.182   0.497  1.00  0.00     0.205 C 
ENDBRANCH   1   8
BRANCH   7  10
HETATM   10  O2  UNL     1      -0.729  -1.736  -1.531  1.00  0.00    -0.388 OA
ATOM     11  H2  UNL     1      -1.564  -1.929  -1.941  1.00  0.00     0.210 HD
ENDBRANCH   7  10
TORSDOF 2
