REMARK  2 active torsions:
REMARK  status: ('A' for Active; 'I' for Inactive)
REMARK    1  A    between atoms: C3_5  and  C4_6 
REMARK    2  A    between atoms: C4_6  and  O2_7 
ROOT
HETATM    1  O1  UNL     1      -1.623   1.199   1.803  1.00  0.00    -0.258 OA
HETATM    2  S1  UNL     1      -1.899   0.883   0.152  1.00  0.00     0.015 S 
HETATM    3  C1  UNL     1      -1.874  -0.908  -0.045  1.00  0.00     0.109 C 
HETATM    4  C2  UNL     1      -0.421  -1.153   0.211  1.00  0.00     0.020 C 
HETATM    5  C3  UNL     1       0.392  -0.162  -0.493  1.00  0.00     0.022 C 
HETATM    6  C5  UNL     1      -0.306   1.135  -0.637  1.00  0.00     0.115 C 
ENDROOT
BRANCH   5   7
HETATM    7  C4  UNL     1       1.710  -0.002   0.278  1.00  0.00     0.169 C 
BRANCH   7   8
HETATM    8  O2  UNL     1       2.543   0.916  -0.315  1.00  0.00    -0.400 OA
ATOM      9  H2  UNL     1       3.359   1.015   0.162  1.00  0.00     0.209 HD
ENDBRANCH   7   8
ENDBRANCH   5   7
TORSDOF 2
