REMARK  1 active torsions:
REMARK  status: ('A' for Active; 'I' for Inactive)
REMARK    1  A    between atoms: C3_4  and  C4_5 
ROOT
HETATM    1  C4  UNL     1       0.659   0.250   0.057  1.00  0.00     0.270 C 
HETATM    2  N1  UNL     1       1.070  -0.892   0.808  1.00  0.00    -0.066 NA
HETATM    3  O2  UNL     1       2.384  -0.786   1.092  1.00  0.00    -0.282 OA
HETATM    4  C5  UNL     1       3.068   0.017   0.179  1.00  0.00     0.222 C 
HETATM    5  C6  UNL     1       2.554   1.445   0.187  1.00  0.00     0.198 C 
HETATM    6  O3  UNL     1       1.217   1.380   0.634  1.00  0.00    -0.363 OA
ENDROOT
BRANCH   1   7
HETATM    7  C3  UNL     1      -0.820   0.378  -0.124  1.00  0.00     0.168 C 
HETATM    8  O1  UNL     1      -1.524   0.479   1.047  1.00  0.00    -0.382 OA
HETATM    9  C2  UNL     1      -2.829   0.149   0.787  1.00  0.00     0.168 C 
HETATM   10  C1  UNL     1      -2.855  -0.677  -0.480  1.00  0.00     0.029 C 
HETATM   11  C7  UNL     1      -1.356  -0.918  -0.704  1.00  0.00     0.038 C 
ENDBRANCH   1   7
TORSDOF 1
