REMARK  2 active torsions:
REMARK  status: ('A' for Active; 'I' for Inactive)
REMARK    1  A    between atoms: O1_2  and  C2_3 
REMARK    2  A    between atoms: C7_10  and  O4_11 
ROOT
HETATM    1  C2  UNL     1       1.028  -0.269  -0.158  1.00  0.00     0.288 C 
HETATM    2  O2  UNL     1       0.289  -0.542  -1.290  1.00  0.00    -0.348 OA
HETATM    3  C3  UNL     1      -1.037  -0.256  -1.092  1.00  0.00     0.179 C 
HETATM    4  C4  UNL     1      -1.686  -1.129  -0.034  1.00  0.00     0.040 C 
HETATM    5  C5  UNL     1      -0.943  -0.884   1.258  1.00  0.00     0.040 C 
HETATM    6  C6  UNL     1       0.125   0.142   0.979  1.00  0.00     0.180 C 
HETATM    7  O3  UNL     1      -0.520   1.315   0.585  1.00  0.00    -0.349 OA
HETATM    8  C7  UNL     1      -1.147   1.189  -0.638  1.00  0.00     0.286 C 
ENDROOT
BRANCH   1   9
HETATM    9  O1  UNL     1       1.904   0.788  -0.399  1.00  0.00    -0.363 OA
HETATM   10  C1  UNL     1       3.224   0.352  -0.247  1.00  0.00     0.204 C 
ENDBRANCH   1   9
BRANCH   8  11
HETATM   11  O4  UNL     1      -2.491   1.540  -0.593  1.00  0.00    -0.369 OA
ATOM     12  H4  UNL     1      -2.560   2.444  -0.309  1.00  0.00     0.212 HD
ENDBRANCH   8  11
TORSDOF 2
