REMARK  2 active torsions:
REMARK  status: ('A' for Active; 'I' for Inactive)
REMARK    1  A    between atoms: O1_2  and  C2_3 
REMARK    2  A    between atoms: C6_9  and  O4_11 
ROOT
HETATM    1  C2  UNL     1       0.541  -0.321  -0.178  1.00  0.00     0.206 C 
HETATM    2  C3  UNL     1      -0.361  -1.033  -1.168  1.00  0.00     0.205 C 
HETATM    3  O2  UNL     1      -1.329  -1.792  -0.559  1.00  0.00    -0.386 OA
HETATM    4  C4  UNL     1      -2.344  -1.089   0.024  1.00  0.00     0.194 C 
HETATM    5  C5  UNL     1      -1.881  -0.114   1.086  1.00  0.00     0.197 C 
HETATM    6  O3  UNL     1      -1.376   0.992   0.460  1.00  0.00    -0.351 OA
HETATM    7  C6  UNL     1      -0.003   0.977   0.293  1.00  0.00     0.186 C 
HETATM    8  C7  UNL     1       0.347   2.140  -0.622  1.00  0.00     0.082 C 
ENDROOT
BRANCH   7   9
HETATM    9  O4  UNL     1       0.567   1.257   1.540  1.00  0.00    -0.363 OA
ATOM     10  H4  UNL     1       0.219   2.088   1.841  1.00  0.00     0.213 HD
ENDBRANCH   7   9
BRANCH   1  11
HETATM   11  O1  UNL     1       1.797  -0.186  -0.736  1.00  0.00    -0.383 OA
HETATM   12  C1  UNL     1       2.746  -0.951  -0.027  1.00  0.00     0.202 C 
ENDBRANCH   1  11
TORSDOF 2
