REMARK  1 active torsions:
REMARK  status: ('A' for Active; 'I' for Inactive)
REMARK    1  A    between atoms: C6_11  and  N3_12 
ROOT
HETATM    1  C1  UNL     1      -0.209   2.320   0.166  1.00  0.00     0.043 C 
HETATM    2  C2  UNL     1       0.414   1.051  -0.274  1.00  0.00     0.180 C 
HETATM    3  O1  UNL     1       1.567   0.843   0.523  1.00  0.00    -0.361 OA
HETATM    4  C3  UNL     1       2.514   0.079  -0.158  1.00  0.00     0.254 C 
HETATM    5  C4  UNL     1       3.342  -0.590   0.865  1.00  0.00     0.093 C 
HETATM    6  N1  UNL     1       3.998  -1.098   1.668  1.00  0.00    -0.194 NA
HETATM    7  C5  UNL     1       1.792  -0.953  -1.005  1.00  0.00     0.281 C 
HETATM    8  N2  UNL     1       0.567  -1.281  -0.325  1.00  0.00    -0.037 N 
ATOM      9  H21 UNL     1       0.740  -1.584   0.634  1.00  0.00     0.280 HD
ATOM     10  H22 UNL     1       0.155  -2.140  -0.689  1.00  0.00     0.280 HD
HETATM   11  C6  UNL     1      -0.391  -0.155  -0.375  1.00  0.00     0.446 C 
ENDROOT
BRANCH  11  12
HETATM   12  N3  UNL     1      -1.377  -0.464   0.572  1.00  0.00     0.113 N 
HETATM   13  C7  UNL     1      -1.930  -1.782   0.198  1.00  0.00     0.312 C 
HETATM   14  C8  UNL     1      -2.496   0.415   0.691  1.00  0.00     0.312 C 
ENDBRANCH  11  12
TORSDOF 1
