REMARK  1 active torsions:
REMARK  status: ('A' for Active; 'I' for Inactive)
REMARK    1  A    between atoms: C2_2  and  C5_5 
ROOT
HETATM    1  C5  UNL     1       0.237  -0.406  -0.358  1.00  0.00     0.229 C 
HETATM    2  N1  UNL     1       0.752  -0.797   0.956  1.00  0.00    -0.039 N 
ATOM      3  H11 UNL     1       1.215  -1.699   1.066  1.00  0.00     0.281 HD
ATOM      4  H12 UNL     1       0.098  -1.031   1.703  1.00  0.00     0.281 HD
HETATM    5  C6  UNL     1       1.527   0.415   1.044  1.00  0.00     0.354 C 
HETATM    6  O1  UNL     1       2.906   0.237   1.128  1.00  0.00    -0.332 OA
HETATM    7  C7  UNL     1       3.241  -0.266  -0.112  1.00  0.00     0.341 C 
HETATM    8  O2  UNL     1       2.406   0.287  -1.045  1.00  0.00    -0.355 OA
HETATM    9  C8  UNL     1       1.240   0.689  -0.401  1.00  0.00     0.212 C 
ENDROOT
BRANCH   1  10
HETATM   10  C2  UNL     1      -1.204  -0.018  -0.233  1.00  0.00    -0.020 C 
HETATM   11  C1  UNL     1      -1.845   0.403  -1.509  1.00  0.00     0.016 C 
HETATM   12  C3  UNL     1      -1.432   1.061   0.797  1.00  0.00     0.016 C 
HETATM   13  C4  UNL     1      -1.954  -1.256   0.271  1.00  0.00     0.016 C 
ENDBRANCH   1  10
TORSDOF 1
