REMARK  4 active torsions:
REMARK  status: ('A' for Active; 'I' for Inactive)
REMARK    1  A    between atoms: C2_2  and  N1_4 
REMARK    2  A    between atoms: N1_4  and  C4_6 
REMARK    3  A    between atoms: C8_18  and  N6_19 
REMARK    4  A    between atoms: N6_19  and  C9_21 
ROOT
HETATM    1  C4  UNL     1      -1.115   0.987  -0.101  1.00  0.00     0.120 A 
HETATM    2  N2  UNL     1      -2.220   1.677  -0.361  1.00  0.00    -0.338 N 
ATOM      3  H2  UNL     1      -3.066   1.174  -0.630  1.00  0.00     0.168 HD
HETATM    4  C5  UNL     1      -2.257   3.018  -0.280  1.00  0.00     0.183 A 
HETATM    5  N3  UNL     1      -1.180   3.740   0.070  1.00  0.00    -0.338 N 
ATOM      6  H3  UNL     1      -1.228   4.757   0.127  1.00  0.00     0.168 HD
HETATM    7  C6  UNL     1      -0.019   3.078   0.348  1.00  0.00     0.124 A 
HETATM    8  N4  UNL     1       1.093   3.774   0.705  1.00  0.00    -0.338 N 
ATOM      9  H4  UNL     1       1.075   4.792   0.769  1.00  0.00     0.168 HD
HETATM   10  C7  UNL     1       2.217   3.087   0.972  1.00  0.00     0.183 A 
HETATM   11  N5  UNL     1       2.264   1.744   0.893  1.00  0.00    -0.338 N 
ATOM     12  H5  UNL     1       3.139   1.264   1.104  1.00  0.00     0.168 HD
HETATM   13  C8  UNL     1       1.197   1.025   0.546  1.00  0.00     0.122 A 
HETATM   14  C10 UNL     1       0.019   1.702   0.264  1.00  0.00     0.096 A 
ENDROOT
BRANCH  13  15
HETATM   15  N6  UNL     1       1.186  -0.258   0.455  1.00  0.00    -0.339 N 
ATOM     16  H6  UNL     1       0.318  -0.719   0.181  1.00  0.00     0.164 HD
BRANCH  15  17
HETATM   17  C9  UNL     1       2.343  -1.074   0.722  1.00  0.00     0.315 C 
HETATM   18  N7  UNL     1       1.961  -2.472   0.648  1.00  0.00    -0.285 N 
HETATM   19  N8  UNL     1       2.273  -2.967  -0.470  1.00  0.00    -0.231 N 
ATOM     20  H7  UNL     1       1.501  -2.986   1.400  1.00  0.00     0.185 HD
HETATM   21  N9  UNL     1       2.877  -1.979  -1.232  1.00  0.00    -0.012 NA
ATOM     22  H8  UNL     1       2.109  -3.930  -0.763  1.00  0.00     0.205 HD
HETATM   23  N10 UNL     1       3.332  -0.988  -0.360  1.00  0.00    -0.077 NA
ENDBRANCH  15  17
ENDBRANCH  13  15
BRANCH   1  24
HETATM   24  N1  UNL     1      -1.029  -0.298  -0.165  1.00  0.00    -0.371 N 
ATOM     25  H1  UNL     1      -0.132  -0.730   0.055  1.00  0.00     0.161 HD
BRANCH  24  26
HETATM   26  C2  UNL     1      -2.115  -1.152  -0.526  1.00  0.00     0.075 C 
HETATM   27  C1  UNL     1      -1.525  -2.438  -1.105  1.00  0.00     0.031 C 
HETATM   28  C3  UNL     1      -2.989  -1.553   0.636  1.00  0.00     0.031 C 
ENDBRANCH  24  26
ENDBRANCH   1  24
TORSDOF 4
