REMARK  3 active torsions:
REMARK  status: ('A' for Active; 'I' for Inactive)
REMARK    1  A    between atoms: S1_2  and  C2_3 
REMARK    2  A    between atoms: C3_6  and  C4_7 
REMARK    3  A    between atoms: C7_20  and  N6_21 
ROOT
HETATM    1  C2  UNL     1       2.000   0.179   0.563  1.00  0.00     0.160 A 
HETATM    2  N1  UNL     1       0.682   0.333   0.714  1.00  0.00    -0.320 N 
ATOM      3  H1  UNL     1       0.334   0.781   1.561  1.00  0.00     0.169 HD
HETATM    4  C3  UNL     1      -0.216  -0.087  -0.223  1.00  0.00     0.157 A 
HETATM    5  N5  UNL     1       0.299  -0.662  -1.300  1.00  0.00    -0.174 N 
ATOM      6  H5  UNL     1      -0.338  -0.992  -2.025  1.00  0.00     0.186 HD
HETATM    7  C7  UNL     1       1.646  -0.835  -1.487  1.00  0.00     0.679 A 
HETATM    8  N7  UNL     1       2.486  -0.408  -0.541  1.00  0.00    -0.171 N 
ATOM      9  H7  UNL     1       3.492  -0.528  -0.657  1.00  0.00     0.186 HD
ENDROOT
BRANCH   4  10
HETATM   10  C4  UNL     1      -1.597   0.148   0.081  1.00  0.00     0.161 A 
HETATM   11  N2  UNL     1      -1.959   0.757   1.244  1.00  0.00    -0.288 N 
HETATM   12  N3  UNL     1      -3.181   1.010   1.601  1.00  0.00    -0.251 N 
ATOM     13  H2  UNL     1      -1.214   1.035   1.883  1.00  0.00     0.187 HD
HETATM   14  C5  UNL     1      -4.198   0.662   0.794  1.00  0.00     0.341 A 
ATOM     15  H3  UNL     1      -3.369   1.471   2.491  1.00  0.00     0.191 HD
HETATM   16  O1  UNL     1      -5.392   0.896   1.116  1.00  0.00    -0.245 OA
HETATM   17  N4  UNL     1      -3.904   0.061  -0.363  1.00  0.00    -0.272 N 
HETATM   18  C6  UNL     1      -2.615  -0.206  -0.741  1.00  0.00     0.281 A 
ATOM     19  H4  UNL     1      -4.666  -0.208  -0.986  1.00  0.00     0.174 HD
HETATM   20  O2  UNL     1      -2.478  -0.776  -1.853  1.00  0.00    -0.265 OA
ENDBRANCH   4  10
BRANCH   1  21
HETATM   21  S1  UNL     1       3.110   0.769   1.862  1.00  0.00    -0.098 SA
HETATM   22  C1  UNL     1       4.806   0.405   1.340  1.00  0.00     0.099 C 
ENDBRANCH   1  21
BRANCH   7  23
HETATM   23  N6  UNL     1       2.097  -1.401  -2.554  1.00  0.00    -0.234 N 
ATOM     24  H62 UNL     1       1.455  -1.727  -3.277  1.00  0.00     0.174 HD
ATOM     25  H61 UNL     1       3.099  -1.530  -2.693  1.00  0.00     0.174 HD
ENDBRANCH   7  23
TORSDOF 3
