REMARK  3 active torsions:
REMARK  status: ('A' for Active; 'I' for Inactive)
REMARK       I    between atoms: N1_2  and  C3_4 
REMARK    1  A    between atoms: C3_4  and  C4_6 
REMARK    2  A    between atoms: C5_9  and  N3_10 
REMARK    3  A    between atoms: C7_16  and  C8_17 
ROOT
HETATM    1  C4  UNL     1      -0.859  -0.680  -0.111  1.00  0.00     0.130 A 
HETATM    2  N2  UNL     1      -1.645  -1.807  -0.071  1.00  0.00    -0.186 N 
ATOM      3  H2  UNL     1      -2.622  -1.699   0.201  1.00  0.00     0.184 HD
HETATM    4  C5  UNL     1      -1.213  -3.023  -0.364  1.00  0.00     0.676 A 
HETATM    5  N4  UNL     1       0.077  -3.131  -0.719  1.00  0.00    -0.201 N 
ATOM      6  H4  UNL     1       0.449  -4.050  -0.957  1.00  0.00     0.183 HD
HETATM    7  C6  UNL     1       0.881  -2.079  -0.769  1.00  0.00     0.122 A 
HETATM    8  C7  UNL     1       0.439  -0.752  -0.449  1.00  0.00     0.042 A 
ENDROOT
BRANCH   8   9
HETATM    9  C8  UNL     1       1.513   0.208  -0.191  1.00  0.00     0.077 A 
HETATM   10  N5  UNL     1       2.544   0.039  -1.018  1.00  0.00    -0.296 N 
HETATM   11  N6  UNL     1       3.694   0.778  -1.013  1.00  0.00    -0.273 N 
ATOM     12  H5  UNL     1       2.469  -0.704  -1.713  1.00  0.00     0.187 HD
HETATM   13  C9  UNL     1       3.876   1.805  -0.055  1.00  0.00     0.207 A 
ATOM     14  H6  UNL     1       4.423   0.589  -1.701  1.00  0.00     0.189 HD
HETATM   15  N7  UNL     1       5.049   2.625  -0.030  1.00  0.00    -0.062 NA
HETATM   16  N8  UNL     1       2.934   1.959   0.785  1.00  0.00    -0.337 N 
HETATM   17  C10 UNL     1       1.709   1.172   0.858  1.00  0.00     0.122 A 
ATOM     18  H8  UNL     1       3.046   2.704   1.473  1.00  0.00     0.168 HD
ENDBRANCH   8   9
BRANCH   1  19
HETATM   19  C3  UNL     1      -1.543   0.597   0.050  1.00  0.00     0.271 C 
HETATM   20  N1  UNL     1      -2.918   0.682   0.365  1.00  0.00    -0.355 N 
HETATM   21  C1  UNL     1      -3.511   2.021   0.494  1.00  0.00     0.152 C 
HETATM   22  C2  UNL     1      -3.789  -0.442   0.587  1.00  0.00     0.152 C 
HETATM   23  O1  UNL     1      -0.955   1.670  -0.080  1.00  0.00    -0.266 OA
ENDBRANCH   1  19
BRANCH   4  24
HETATM   24  N3  UNL     1      -1.967  -4.078  -0.320  1.00  0.00    -0.234 N 
ATOM     25  H32 UNL     1      -2.947  -3.996  -0.050  1.00  0.00     0.174 HD
ATOM     26  H31 UNL     1      -1.634  -5.015  -0.546  1.00  0.00     0.174 HD
ENDBRANCH   4  24
TORSDOF 3
