REMARK  3 active torsions:
REMARK  status: ('A' for Active; 'I' for Inactive)
REMARK    1  A    between atoms: S1_2  and  C2_3 
REMARK    2  A    between atoms: N2_6  and  N3_8 
REMARK       I    between atoms: N3_8  and  C4_10 
REMARK    3  A    between atoms: C4_10  and  C5_12 
ROOT
HETATM    1  C2  UNL     1       3.062   0.709  -0.184  1.00  0.00     0.166 C 
HETATM    2  C3  UNL     1       3.373  -0.600   0.315  1.00  0.00     0.126 C 
HETATM    3  N1  UNL     1       3.607  -1.663   0.718  1.00  0.00    -0.189 NA
HETATM    4  N2  UNL     1       1.875   1.160  -0.199  1.00  0.00    -0.282 N 
ATOM      5  H2  UNL     1       1.704   2.097  -0.564  1.00  0.00     0.188 HD
ENDROOT
BRANCH   1   6
HETATM    6  S1  UNL     1       4.385   1.718  -0.797  1.00  0.00    -0.104 SA
HETATM    7  C1  UNL     1       5.986   0.862  -0.673  1.00  0.00     0.098 C 
ENDBRANCH   1   6
BRANCH   4   8
HETATM    8  N3  UNL     1       0.785   0.397   0.277  1.00  0.00    -0.264 N 
HETATM    9  C4  UNL     1      -0.538   0.723  -0.116  1.00  0.00     0.275 C 
HETATM   10  O1  UNL     1      -0.651   1.713  -0.918  1.00  0.00    -0.266 OA
ATOM     11  H3  UNL     1       0.950  -0.390   0.905  1.00  0.00     0.190 HD
BRANCH   9  12
HETATM   12  C5  UNL     1      -1.720   0.012   0.320  1.00  0.00     0.099 A 
HETATM   13  C6  UNL     1      -2.728  -0.200  -0.629  1.00  0.00     0.029 A 
HETATM   14  C7  UNL     1      -2.472   0.294  -2.008  1.00  0.00     0.069 C 
HETATM   15  N4  UNL     1      -3.876  -0.832  -0.308  1.00  0.00    -0.312 N 
HETATM   16  C8  UNL     1      -4.069  -1.272   0.943  1.00  0.00     0.326 A 
ATOM     17  H4  UNL     1      -4.596  -0.975  -1.016  1.00  0.00     0.170 HD
HETATM   18  O2  UNL     1      -5.169  -1.870   1.215  1.00  0.00    -0.247 OA
HETATM   19  N5  UNL     1      -3.133  -1.086   1.866  1.00  0.00    -0.294 N 
HETATM   20  C9  UNL     1      -1.937  -0.441   1.590  1.00  0.00     0.120 A 
ATOM     21  H5  UNL     1      -3.300  -1.430   2.812  1.00  0.00     0.172 HD
HETATM   22  N6  UNL     1      -1.147  -0.243   2.567  1.00  0.00    -0.384 N 
ATOM     23  H62 UNL     1      -0.267   0.231   2.364  1.00  0.00     0.157 HD
ATOM     24  H61 UNL     1      -1.309  -0.581   3.516  1.00  0.00     0.157 HD
ENDBRANCH   9  12
ENDBRANCH   4   8
TORSDOF 3
