REMARK  2 active torsions:
REMARK  status: ('A' for Active; 'I' for Inactive)
REMARK    1  A    between atoms: C4_9  and  N4_10 
REMARK       I    between atoms: N4_10  and  C5_12 
REMARK       I    between atoms: C5_12  and  N5_13 
REMARK       I    between atoms: C5_12  and  N6_17 
REMARK    2  A    between atoms: C6_21  and  N7_22 
ROOT
HETATM    1  C1  UNL     1       4.060  -1.886  -0.126  1.00  0.00     0.158 C 
HETATM    2  N1  UNL     1       3.487  -0.566  -0.367  1.00  0.00    -0.331 N 
HETATM    3  C2  UNL     1       4.144   0.520  -0.809  1.00  0.00     0.185 A 
HETATM    4  N2  UNL     1       3.259   1.523  -0.895  1.00  0.00    -0.335 N 
ATOM      5  H2  UNL     1       3.467   2.473  -1.202  1.00  0.00     0.168 HD
HETATM    6  C3  UNL     1       2.052   1.071  -0.510  1.00  0.00     0.153 A 
HETATM    7  N3  UNL     1       0.828   1.651  -0.406  1.00  0.00    -0.323 N 
ATOM      8  H3  UNL     1       0.729   2.635  -0.656  1.00  0.00     0.169 HD
HETATM    9  C4  UNL     1      -0.250   0.985   0.010  1.00  0.00     0.150 A 
HETATM   10  C6  UNL     1      -0.099  -0.344   0.344  1.00  0.00     0.150 A 
HETATM   11  N8  UNL     1       1.110  -0.941   0.248  1.00  0.00    -0.322 N 
ATOM     12  H8  UNL     1       1.208  -1.925   0.498  1.00  0.00     0.169 HD
HETATM   13  C11 UNL     1       2.195  -0.244  -0.178  1.00  0.00     0.154 A 
ENDROOT
BRANCH   9  14
HETATM   14  N4  UNL     1      -1.380   1.535   0.101  1.00  0.00    -0.324 N 
HETATM   15  C5  UNL     1      -1.775   2.868  -0.182  1.00  0.00     0.481 C 
HETATM   16  N5  UNL     1      -1.570   3.100  -1.613  1.00  0.00    -0.033 N 
HETATM   17  N6  UNL     1      -1.113   3.892   0.548  1.00  0.00    -0.033 N 
ATOM     18  H53 UNL     1      -0.617   2.897  -1.915  1.00  0.00     0.278 HD
ATOM     19  H52 UNL     1      -2.046   2.413  -2.198  1.00  0.00     0.278 HD
ATOM     20  H51 UNL     1      -1.854   4.058  -1.816  1.00  0.00     0.278 HD
ATOM     21  H63 UNL     1      -1.201   3.713   1.548  1.00  0.00     0.278 HD
ATOM     22  H62 UNL     1      -0.104   3.800   0.431  1.00  0.00     0.278 HD
ATOM     23  H61 UNL     1      -1.397   4.850   0.345  1.00  0.00     0.278 HD
ATOM     24  H4  UNL     1      -2.129   0.926   0.430  1.00  0.00     0.165 HD
ENDBRANCH   9  14
BRANCH  10  25
HETATM   25  N7  UNL     1      -1.161  -1.167   0.800  1.00  0.00    -0.351 N 
HETATM   26  C7  UNL     1      -2.225  -1.395   1.853  1.00  0.00     0.156 A 
HETATM   27  C8  UNL     1      -2.054  -2.244   0.799  1.00  0.00     0.050 A 
HETATM   28  C9  UNL     1      -1.787  -3.634   0.573  1.00  0.00     0.035 A 
HETATM   29  C10 UNL     1      -2.808  -2.801  -0.274  1.00  0.00     0.035 A 
ENDBRANCH  10  25
TORSDOF 2
