REMARK  4 active torsions:
REMARK  status: ('A' for Active; 'I' for Inactive)
REMARK    1  A    between atoms: N1_2  and  C2_4 
REMARK    2  A    between atoms: C3_7  and  N3_8 
REMARK    3  A    between atoms: N3_8  and  O1_10 
REMARK    4  A    between atoms: C6_17  and  C7_18 
ROOT
HETATM    1  C2  UNL     1       2.442   0.696  -0.033  1.00  0.00     0.680 A 
HETATM    2  N2  UNL     1       1.815   1.879   0.098  1.00  0.00    -0.173 N 
ATOM      3  H2  UNL     1       2.373   2.733   0.091  1.00  0.00     0.186 HD
HETATM    4  C3  UNL     1       0.485   1.981   0.237  1.00  0.00     0.171 A 
HETATM    5  C5  UNL     1      -0.255   0.813   0.244  1.00  0.00     0.123 A 
HETATM    6  N4  UNL     1      -1.587   0.849   0.380  1.00  0.00    -0.294 N 
ATOM      7  H4  UNL     1      -2.051   1.752   0.479  1.00  0.00     0.187 HD
HETATM    8  N5  UNL     1      -2.325  -0.267   0.390  1.00  0.00    -0.294 N 
ATOM      9  H5  UNL     1      -3.337  -0.194   0.496  1.00  0.00     0.187 HD
HETATM   10  C6  UNL     1      -1.764  -1.483   0.264  1.00  0.00     0.140 A 
HETATM   11  C8  UNL     1      -0.401  -1.526   0.125  1.00  0.00     0.109 A 
HETATM   12  N7  UNL     1       0.238  -2.787  -0.012  1.00  0.00    -0.097 NA
HETATM   13  C9  UNL     1       0.386  -0.402   0.110  1.00  0.00     0.107 A 
HETATM   14  N8  UNL     1       1.723  -0.428  -0.025  1.00  0.00    -0.188 N 
ATOM     15  H8  UNL     1       2.198  -1.325  -0.123  1.00  0.00     0.184 HD
ENDROOT
BRANCH   4  16
HETATM   16  N3  UNL     1      -0.067   3.145   0.359  1.00  0.00    -0.248 N 
ATOM     17  H3  UNL     1       0.529   3.973   0.346  1.00  0.00     0.196 HD
BRANCH  16  18
HETATM   18  O1  UNL     1      -1.403   3.309   0.503  1.00  0.00    -0.284 OA
HETATM   19  C4  UNL     1      -2.166   3.964  -0.511  1.00  0.00     0.237 C 
ENDBRANCH  16  18
ENDBRANCH   4  16
BRANCH   1  20
HETATM   20  N1  UNL     1       3.727   0.685  -0.162  1.00  0.00    -0.230 N 
HETATM   21  C1  UNL     1       4.391  -0.597  -0.303  1.00  0.00     0.165 C 
ATOM     22  H1  UNL     1       4.261   1.554  -0.165  1.00  0.00     0.177 HD
ENDBRANCH   1  20
BRANCH  10  23
HETATM   23  C7  UNL     1      -2.552  -2.706   0.273  1.00  0.00     0.284 C 
HETATM   24  N6  UNL     1      -3.946  -2.628   0.417  1.00  0.00    -0.056 NA
HETATM   25  O2  UNL     1      -1.935  -3.808   0.148  1.00  0.00    -0.269 OA
ENDBRANCH  10  23
TORSDOF 4
