REMARK  5 active torsions:
REMARK  status: ('A' for Active; 'I' for Inactive)
REMARK    1  A    between atoms: O1_2  and  C2_3 
REMARK    2  A    between atoms: C5_6  and  C6_7 
REMARK    3  A    between atoms: C7_12  and  C8_13 
REMARK    4  A    between atoms: N3_16  and  C9_17 
REMARK    5  A    between atoms: C17_27  and  O2_28 
ROOT
HETATM    1  C9  UNL     1       2.246  -0.247  -0.386  1.00  0.00     0.081 A 
HETATM    2  C10 UNL     1       2.822   0.857  -1.012  1.00  0.00     0.035 A 
HETATM    3  C11 UNL     1       3.685   1.705  -0.351  1.00  0.00     0.025 A 
HETATM    4  C12 UNL     1       4.016   1.489   0.977  1.00  0.00     0.047 A 
HETATM    5  C13 UNL     1       4.914   2.368   1.670  1.00  0.00     0.099 C 
HETATM    6  N4  UNL     1       5.643   3.076   2.226  1.00  0.00    -0.191 NA
HETATM    7  C14 UNL     1       3.458   0.403   1.617  1.00  0.00     0.067 A 
HETATM    8  C15 UNL     1       2.599  -0.439   0.955  1.00  0.00     0.145 A 
HETATM    9  F3  UNL     1       2.093  -1.481   1.665  1.00  0.00    -0.204 F 
ENDROOT
BRANCH   1  10
HETATM   10  N3  UNL     1       1.391  -1.157  -1.061  1.00  0.00    -0.276 N 
HETATM   11  C6  UNL     1       0.064  -1.200  -1.057  1.00  0.00     0.139 A 
HETATM   12  N1  UNL     1      -0.223  -2.296  -1.854  1.00  0.00    -0.283 N 
HETATM   13  N2  UNL     1       0.873  -2.852  -2.292  1.00  0.00    -0.282 N 
ATOM     14  H1  UNL     1      -1.164  -2.624  -2.069  1.00  0.00     0.188 HD
HETATM   15  C7  UNL     1       1.921  -2.176  -1.824  1.00  0.00     0.171 A 
ATOM     16  H2  UNL     1       0.920  -3.673  -2.896  1.00  0.00     0.188 HD
BRANCH  11  17
HETATM   17  C5  UNL     1      -0.956  -0.398  -0.413  1.00  0.00     0.013 A 
HETATM   18  C4  UNL     1      -0.749   0.753   0.259  1.00  0.00     0.018 A 
HETATM   19  C3  UNL     1      -1.805   1.451   0.885  1.00  0.00     0.040 A 
HETATM   20  C2  UNL     1      -3.093   0.973   0.826  1.00  0.00     0.101 A 
HETATM   21  C17 UNL     1      -3.322  -0.189   0.150  1.00  0.00     0.102 A 
HETATM   22  C16 UNL     1      -2.267  -0.867  -0.463  1.00  0.00     0.055 A 
BRANCH  20  23
HETATM   23  O1  UNL     1      -4.163   1.615   1.419  1.00  0.00    -0.353 OA
HETATM   24  C1  UNL     1      -4.083   2.809   2.143  1.00  0.00     0.210 C 
ENDBRANCH  20  23
BRANCH  21  25
HETATM   25  O2  UNL     1      -4.599  -0.719   0.055  1.00  0.00    -0.353 OA
HETATM   26  C18 UNL     1      -4.840  -1.923  -0.644  1.00  0.00     0.210 C 
ENDBRANCH  21  25
ENDBRANCH  11  17
BRANCH  15  27
HETATM   27  C8  UNL     1       3.372  -2.431  -2.051  1.00  0.00     0.422 C 
HETATM   28  F1  UNL     1       4.047  -2.693  -0.899  1.00  0.00    -0.206 F 
HETATM   29  F2  UNL     1       3.921  -1.432  -2.819  1.00  0.00    -0.206 F 
ENDBRANCH  15  27
ENDBRANCH   1  10
TORSDOF 5
