REMARK  5 active torsions:
REMARK  status: ('A' for Active; 'I' for Inactive)
REMARK    1  A    between atoms: C7_9  and  O1_10 
REMARK    2  A    between atoms: O1_10  and  C8_11 
REMARK    3  A    between atoms: C8_11  and  C9_12 
REMARK    4  A    between atoms: N2_14  and  C11_15 
REMARK    5  A    between atoms: C11_15  and  C12_16 
ROOT
HETATM    1  N1  UNL     1       5.451   2.351  -2.769  1.00  0.00    -0.191 NA
HETATM    2  C1  UNL     1       5.171   1.654  -1.881  1.00  0.00     0.102 C 
HETATM    3  C2  UNL     1       4.845   0.801  -0.775  1.00  0.00     0.079 A 
HETATM    4  C3  UNL     1       5.797   0.665   0.226  1.00  0.00     0.049 A 
HETATM    5  C4  UNL     1       5.554  -0.134   1.313  1.00  0.00     0.035 A 
HETATM    6 CL1  UNL     1       6.763  -0.309   2.584  1.00  0.00    -0.084 Cl
HETATM    7  C5  UNL     1       4.351  -0.795   1.390  1.00  0.00     0.026 A 
HETATM    8  C6  UNL     1       3.399  -0.650   0.376  1.00  0.00     0.040 A 
HETATM    9  C7  UNL     1       3.628   0.149  -0.724  1.00  0.00     0.090 A 
ENDROOT
BRANCH   9  10
HETATM   10  O1  UNL     1       2.734   0.322  -1.736  1.00  0.00    -0.344 OA
BRANCH  10  11
HETATM   11  C8  UNL     1       1.477  -0.229  -1.880  1.00  0.00     0.236 C 
BRANCH  11  12
HETATM   12  C9  UNL     1       0.491   0.076  -0.848  1.00  0.00     0.068 A 
HETATM   13  C10 UNL     1      -0.520  -0.775  -0.377  1.00  0.00     0.140 A 
HETATM   14  N2  UNL     1      -1.214  -0.126   0.559  1.00  0.00    -0.283 N 
HETATM   15  N3  UNL     1      -0.662   1.070   0.667  1.00  0.00    -0.240 N 
HETATM   16  N4  UNL     1       0.355   1.215  -0.161  1.00  0.00    -0.287 N 
ATOM     17  H3  UNL     1      -0.983   1.792   1.312  1.00  0.00     0.208 HD
ATOM     18  H4  UNL     1       0.935   2.048  -0.260  1.00  0.00     0.188 HD
BRANCH  14  19
HETATM   19  C11 UNL     1      -2.342  -0.556   1.342  1.00  0.00     0.193 C 
BRANCH  19  20
HETATM   20  C12 UNL     1      -3.659  -0.254   0.739  1.00  0.00     0.022 A 
HETATM   21  C13 UNL     1      -4.212  -0.986  -0.283  1.00  0.00     0.126 A 
HETATM   22  F1  UNL     1      -3.576  -2.047  -0.790  1.00  0.00    -0.205 F 
HETATM   23  C14 UNL     1      -5.455  -0.674  -0.836  1.00  0.00     0.043 A 
HETATM   24  C15 UNL     1      -6.174   0.399  -0.361  1.00  0.00     0.005 A 
HETATM   25  C16 UNL     1      -5.636   1.144   0.662  1.00  0.00     0.024 A 
HETATM   26  C17 UNL     1      -4.411   0.827   1.198  1.00  0.00     0.045 A 
HETATM   27 CL2  UNL     1      -3.700   1.768   2.509  1.00  0.00    -0.084 Cl
ENDBRANCH  19  20
ENDBRANCH  14  19
ENDBRANCH  11  12
ENDBRANCH  10  11
ENDBRANCH   9  10
TORSDOF 5
