REMARK  5 active torsions:
REMARK  status: ('A' for Active; 'I' for Inactive)
REMARK    1  A    between atoms: O1_2  and  C2_3 
REMARK    2  A    between atoms: C5_6  and  C6_7 
REMARK    3  A    between atoms: C7_10  and  C8_11 
REMARK    4  A    between atoms: C16_22  and  O4_23 
REMARK    5  A    between atoms: C18_25  and  O5_26 
ROOT
HETATM    1  C2  UNL     1      -2.668   1.100   0.070  1.00  0.00     0.105 A 
HETATM    2  C3  UNL     1      -1.284   1.307   0.169  1.00  0.00     0.054 A 
HETATM    3  C4  UNL     1      -0.364   0.334  -0.149  1.00  0.00     0.016 A 
HETATM    4  C5  UNL     1       1.000   0.628  -0.020  1.00  0.00     0.036 A 
HETATM    5  C7  UNL     1       1.840  -0.414  -0.363  1.00  0.00     0.062 A 
HETATM    6  C14 UNL     1       1.301  -1.607  -0.785  1.00  0.00     0.300 A 
HETATM    7  O2  UNL     1       2.107  -2.514  -1.083  1.00  0.00    -0.259 OA
HETATM    8  O3  UNL     1       0.042  -1.845  -0.892  1.00  0.00    -0.271 OA
HETATM    9  C15 UNL     1      -0.807  -0.891  -0.580  1.00  0.00     0.126 A 
HETATM   10  C16 UNL     1      -2.184  -1.122  -0.686  1.00  0.00     0.139 A 
HETATM   11  C18 UNL     1      -3.080  -0.145  -0.368  1.00  0.00     0.138 A 
ENDROOT
BRANCH   5  12
HETATM   12  C8  UNL     1       3.295  -0.259  -0.262  1.00  0.00    -0.019 A 
HETATM   13  C9  UNL     1       3.912  -0.783   0.849  1.00  0.00     0.015 A 
HETATM   14  C10 UNL     1       5.281  -0.685   1.011  1.00  0.00     0.043 A 
HETATM   15  C11 UNL     1       6.012  -0.045   0.025  1.00  0.00     0.116 A 
HETATM   16  F3  UNL     1       7.371   0.075   0.135  1.00  0.00    -0.206 F 
HETATM   17  C12 UNL     1       5.397   0.488  -1.105  1.00  0.00     0.043 A 
HETATM   18  C13 UNL     1       4.042   0.365  -1.218  1.00  0.00     0.015 A 
ENDBRANCH   5  12
BRANCH   4  19
HETATM   19  C6  UNL     1       1.498   1.925   0.435  1.00  0.00     0.388 C 
HETATM   20  F1  UNL     1       1.236   2.977  -0.443  1.00  0.00    -0.209 F 
HETATM   21  F2  UNL     1       1.195   2.235   1.745  1.00  0.00    -0.209 F 
ENDBRANCH   4  19
BRANCH   1  22
HETATM   22  O1  UNL     1      -3.541   2.100   0.399  1.00  0.00    -0.353 OA
HETATM   23  C1  UNL     1      -3.195   3.374   0.846  1.00  0.00     0.210 C 
ENDBRANCH   1  22
BRANCH  10  24
HETATM   24  O4  UNL     1      -2.547  -2.394  -1.130  1.00  0.00    -0.351 OA
HETATM   25  C17 UNL     1      -2.712  -3.460  -0.237  1.00  0.00     0.210 C 
ENDBRANCH  10  24
BRANCH  11  26
HETATM   26  O5  UNL     1      -4.431  -0.371  -0.477  1.00  0.00    -0.351 OA
HETATM   27  C19 UNL     1      -5.278  -0.846   0.519  1.00  0.00     0.210 C 
ENDBRANCH  11  26
TORSDOF 5
