REMARK  8 active torsions:
REMARK  status: ('A' for Active; 'I' for Inactive)
REMARK    1  A    between atoms: O1_2  and  C2_3 
REMARK    2  A    between atoms: C5_8  and  N2_9 
REMARK    3  A    between atoms: N3_11  and  N4_13 
REMARK    4  A    between atoms: N4_13  and  C7_15 
REMARK    5  A    between atoms: C7_15  and  O2_16 
REMARK    6  A    between atoms: C7_15  and  C8_18 
REMARK    7  A    between atoms: C8_18  and  C9_20 
REMARK    8  A    between atoms: C10_23  and  O3_24 
ROOT
HETATM    1  N2  UNL     1       0.522   0.610   0.938  1.00  0.00    -0.280 N 
ATOM      2  H2  UNL     1       0.483   1.364   1.623  1.00  0.00     0.188 HD
HETATM    3  N3  UNL     1       1.642   0.326   0.474  1.00  0.00    -0.238 N 
ATOM      4  H3  UNL     1       1.683  -0.428  -0.211  1.00  0.00     0.208 HD
ENDROOT
BRANCH   1   5
HETATM    5  C5  UNL     1      -0.692  -0.011   0.606  1.00  0.00     0.122 A 
HETATM    6  C3  UNL     1      -1.026  -1.259   1.089  1.00  0.00     0.041 A 
HETATM    7  N1  UNL     1      -2.198  -1.828   0.751  1.00  0.00    -0.324 N 
HETATM    8  C4  UNL     1      -0.105  -2.017   1.997  1.00  0.00     0.071 C 
HETATM    9  C2  UNL     1      -3.073  -1.224  -0.050  1.00  0.00     0.225 A 
ATOM     10  H1  UNL     1      -2.423  -2.752   1.120  1.00  0.00     0.169 HD
HETATM   11  N5  UNL     1      -2.764  -0.011  -0.529  1.00  0.00    -0.301 N 
HETATM   12  C10 UNL     1      -1.598   0.613  -0.223  1.00  0.00     0.175 A 
ATOM     13  H5  UNL     1      -3.428   0.459  -1.144  1.00  0.00     0.171 HD
BRANCH   9  14
HETATM   14  O1  UNL     1      -4.283  -1.823  -0.393  1.00  0.00    -0.327 OA
HETATM   15  C1  UNL     1      -5.203  -1.171  -1.245  1.00  0.00     0.213 C 
ENDBRANCH   9  14
BRANCH  12  16
HETATM   16  O3  UNL     1      -1.358   1.857  -0.756  1.00  0.00    -0.339 OA
HETATM   17  C11 UNL     1      -2.289   2.493  -1.605  1.00  0.00     0.211 C 
ENDBRANCH  12  16
ENDBRANCH   1   5
BRANCH   3  18
HETATM   18  N4  UNL     1       2.830   0.939   0.803  1.00  0.00    -0.260 N 
HETATM   19  C6  UNL     1       2.636   2.250   1.494  1.00  0.00     0.181 C 
BRANCH  18  20
HETATM   20  C7  UNL     1       4.144   0.533   0.593  1.00  0.00     0.182 C 
BRANCH  20  21
HETATM   21  O2  UNL     1       5.057   1.383   1.052  1.00  0.00    -0.344 OA
ATOM     22  H2  UNL     1       5.954   1.106   0.909  1.00  0.00     0.219 HD
ENDBRANCH  20  21
BRANCH  20  23
HETATM   23  C8  UNL     1       4.740  -0.615  -0.016  1.00  0.00     0.119 C 
HETATM   24 CL1  UNL     1       6.567  -0.625  -0.008  1.00  0.00    -0.077 Cl
BRANCH  23  25
HETATM   25  C9  UNL     1       4.260  -1.668  -0.583  1.00  0.00     0.129 C 
HETATM   26 CL2  UNL     1       2.597  -2.124  -0.839  1.00  0.00    -0.069 Cl
HETATM   27 CL3  UNL     1       5.429  -2.872  -1.219  1.00  0.00    -0.069 Cl
ENDBRANCH  23  25
ENDBRANCH  20  23
ENDBRANCH  18  20
ENDBRANCH   3  18
TORSDOF 8
