REMARK  6 active torsions:
REMARK  status: ('A' for Active; 'I' for Inactive)
REMARK    1  A    between atoms: C2_2  and  C3_3 
REMARK    2  A    between atoms: C3_3  and  N1_4 
REMARK    3  A    between atoms: N1_4  and  S1_6 
REMARK    4  A    between atoms: S1_6  and  C5_9 
REMARK    5  A    between atoms: C9_14  and  C10_15 
REMARK    6  A    between atoms: C10_15  and  C11_16 
ROOT
HETATM    1  C5  UNL     1       0.429  -1.285   1.074  1.00  0.00     0.081 A 
HETATM    2  C6  UNL     1       0.916  -2.175   0.138  1.00  0.00     0.044 A 
HETATM    3  C7  UNL     1       0.118  -2.759  -0.827  1.00  0.00     0.013 A 
HETATM    4 BR1  UNL     1       0.801  -3.985  -2.114  1.00  0.00    -0.051 Br
HETATM    5  C8  UNL     1      -1.216  -2.411  -0.819  1.00  0.00     0.026 A 
HETATM    6  C9  UNL     1      -1.733  -1.516   0.115  1.00  0.00    -0.050 A 
HETATM    7  C14 UNL     1      -0.916  -0.954   1.059  1.00  0.00     0.033 A 
ENDROOT
BRANCH   6   8
HETATM    8  C10 UNL     1      -3.173  -1.169   0.089  1.00  0.00     0.097 C 
BRANCH   8   9
HETATM    9  C11 UNL     1      -3.441  -0.002  -0.769  1.00  0.00     0.033 A 
HETATM   10  C12 UNL     1      -3.442   1.318  -0.370  1.00  0.00     0.118 A 
HETATM   11  N2  UNL     1      -3.731   2.039  -1.460  1.00  0.00    -0.317 N 
HETATM   12  C13 UNL     1      -3.911   1.235  -2.526  1.00  0.00     0.324 A 
ATOM     13  H2  UNL     1      -3.805   3.056  -1.481  1.00  0.00     0.170 HD
HETATM   14  O3  UNL     1      -4.193   1.583  -3.699  1.00  0.00    -0.247 OA
HETATM   15  N3  UNL     1      -3.730  -0.005  -2.083  1.00  0.00    -0.311 N 
ATOM     16  H3  UNL     1      -3.800  -0.843  -2.660  1.00  0.00     0.170 HD
ENDBRANCH   8   9
ENDBRANCH   6   8
BRANCH   1  17
HETATM   17  S1  UNL     1       1.530  -0.600   2.259  1.00  0.00     0.264 S 
HETATM   18  O1  UNL     1       0.795  -0.295   3.535  1.00  0.00    -0.200 OA
HETATM   19  O2  UNL     1       2.618  -1.605   2.477  1.00  0.00    -0.200 OA
BRANCH  17  20
HETATM   20  N1  UNL     1       2.175   0.818   1.632  1.00  0.00    -0.287 N 
HETATM   21  C4  UNL     1       1.498   2.019   1.931  1.00  0.00     0.169 C 
BRANCH  20  22
HETATM   22  C3  UNL     1       2.935   0.744   0.460  1.00  0.00     0.102 C 
BRANCH  22  23
HETATM   23  C2  UNL     1       4.396   0.527   0.678  1.00  0.00     0.008 C 
HETATM   24  C1  UNL     1       5.308   1.392   0.256  1.00  0.00     0.013 C 
ENDBRANCH  22  23
ENDBRANCH  20  22
ENDBRANCH  17  20
ENDBRANCH   1  17
TORSDOF 6
