REMARK  7 active torsions:
REMARK  status: ('A' for Active; 'I' for Inactive)
REMARK    1  A    between atoms: C2_2  and  N1_3 
REMARK    2  A    between atoms: N1_3  and  C3_4 
REMARK    3  A    between atoms: N1_3  and  C5_6 
REMARK    4  A    between atoms: C5_6  and  C6_7 
REMARK    5  A    between atoms: C6_7  and  N2_8 
REMARK    6  A    between atoms: N2_8  and  C7_10 
REMARK       I    between atoms: N4_14  and  C9_16 
REMARK    7  A    between atoms: C9_16  and  C10_18 
ROOT
HETATM    1  C7  UNL     1      -0.983  -0.369  -0.193  1.00  0.00     0.125 A 
HETATM    2  N3  UNL     1      -1.496   0.891  -0.219  1.00  0.00    -0.176 N 
ATOM      3  H3  UNL     1      -0.875   1.668  -0.446  1.00  0.00     0.186 HD
HETATM    4  C8  UNL     1      -2.791   1.153   0.043  1.00  0.00     0.686 A 
HETATM    5  N4  UNL     1      -3.286   2.314   0.021  1.00  0.00    -0.159 N 
ATOM      6  H4  UNL     1      -4.282   2.342   0.241  1.00  0.00     0.187 HD
HETATM    7  C9  UNL     1      -2.736   3.554  -0.244  1.00  0.00     0.245 C 
HETATM    8  O1  UNL     1      -1.540   3.923  -0.020  1.00  0.00    -0.272 OA
HETATM    9  N5  UNL     1      -3.616   0.107   0.347  1.00  0.00    -0.195 N 
ATOM     10  H5  UNL     1      -4.599   0.287   0.549  1.00  0.00     0.184 HD
HETATM   11  C11 UNL     1      -3.151  -1.167   0.385  1.00  0.00     0.036 A 
HETATM   12  C12 UNL     1      -1.829  -1.423   0.116  1.00  0.00     0.009 A 
HETATM   13  C13 UNL     1      -1.410  -2.842   0.169  1.00  0.00     0.044 C 
HETATM   14  C14 UNL     1      -2.428  -3.573  -0.720  1.00  0.00     0.005 C 
HETATM   15  C15 UNL     1      -3.739  -3.583   0.009  1.00  0.00     0.006 C 
HETATM   16  C16 UNL     1      -4.030  -2.306   0.722  1.00  0.00     0.058 C 
ENDROOT
BRANCH   1  17
HETATM   17  N2  UNL     1       0.224  -0.681  -0.422  1.00  0.00    -0.371 N 
ATOM     18  H2  UNL     1       0.430  -1.678  -0.357  1.00  0.00     0.161 HD
BRANCH  17  19
HETATM   19  C6  UNL     1       1.342   0.145  -0.757  1.00  0.00     0.166 C 
BRANCH  19  20
HETATM   20  C5  UNL     1       2.451  -0.201   0.223  1.00  0.00     0.087 C 
BRANCH  20  21
HETATM   21  N1  UNL     1       3.644   0.510   0.059  1.00  0.00    -0.353 N 
BRANCH  21  22
HETATM   22  C2  UNL     1       3.660   1.875   0.338  1.00  0.00     0.064 C 
HETATM   23  C1  UNL     1       4.730   2.321   1.308  1.00  0.00     0.055 C 
ENDBRANCH  21  22
BRANCH  21  24
HETATM   24  C3  UNL     1       4.679  -0.084  -0.665  1.00  0.00     0.064 C 
HETATM   25  C4  UNL     1       4.516  -1.568  -0.902  1.00  0.00     0.055 C 
ENDBRANCH  21  24
ENDBRANCH  20  21
ENDBRANCH  19  20
ENDBRANCH  17  19
ENDBRANCH   1  17
BRANCH   7  26
HETATM   26  C10 UNL     1      -3.584   4.640  -0.867  1.00  0.00     0.188 C 
HETATM   27 BR1  UNL     1      -5.378   3.956  -1.140  1.00  0.00    -0.087 Br
ENDBRANCH   7  26
TORSDOF 7
