REMARK  8 active torsions:
REMARK  status: ('A' for Active; 'I' for Inactive)
REMARK    1  A    between atoms: C2_2  and  C3_3 
REMARK    2  A    between atoms: C3_3  and  N1_5 
REMARK    3  A    between atoms: C5_8  and  C6_9 
REMARK    4  A    between atoms: C6_9  and  C7_10 
REMARK       I    between atoms: C7_10  and  N2_12 
REMARK    5  A    between atoms: N2_12  and  C8_14 
REMARK    6  A    between atoms: C9_19  and  C10_20 
REMARK    7  A    between atoms: C10_20  and  C11_21 
REMARK    8  A    between atoms: C11_21  and  C12_22 
ROOT
HETATM    1  C7  UNL     1       1.465  -1.705  -0.040  1.00  0.00     0.226 C 
HETATM    2  O2  UNL     1       1.490  -2.959  -0.112  1.00  0.00    -0.273 OA
HETATM    3  N2  UNL     1       0.340  -1.091   0.548  1.00  0.00    -0.311 N 
ATOM      4  H2  UNL     1       0.495  -0.341   1.222  1.00  0.00     0.170 HD
ENDROOT
BRANCH   3   5
HETATM    5  C8  UNL     1      -0.874  -1.429   0.278  1.00  0.00     0.142 A 
HETATM    6  N3  UNL     1      -1.341  -2.361  -0.553  1.00  0.00    -0.284 N 
HETATM    7  N4  UNL     1      -2.682  -2.365  -0.518  1.00  0.00    -0.302 N 
ATOM      8  H3  UNL     1      -0.766  -2.977  -1.128  1.00  0.00     0.188 HD
HETATM    9  C9  UNL     1      -3.118  -1.423   0.347  1.00  0.00     0.047 A 
ATOM     10  H4  UNL     1      -3.282  -2.985  -1.062  1.00  0.00     0.186 HD
HETATM   11  C14 UNL     1      -1.974  -0.834   0.848  1.00  0.00     0.080 A 
HETATM   12 BR1  UNL     1      -1.943   0.585   2.133  1.00  0.00    -0.045 Br
BRANCH   9  13
HETATM   13  C10 UNL     1      -4.542  -1.127   0.655  1.00  0.00     0.060 C 
BRANCH  13  14
HETATM   14  C11 UNL     1      -5.033   0.128  -0.008  1.00  0.00     0.006 C 
BRANCH  14  15
HETATM   15  C12 UNL     1      -6.482   0.310   0.384  1.00  0.00    -0.004 C 
HETATM   16  C13 UNL     1      -7.083   1.554  -0.234  1.00  0.00     0.005 C 
ENDBRANCH  14  15
ENDBRANCH  13  14
ENDBRANCH   9  13
ENDBRANCH   3   5
BRANCH   1  17
HETATM   17  C6  UNL     1       2.604  -0.901  -0.568  1.00  0.00     0.144 C 
BRANCH  17  18
HETATM   18  C5  UNL     1       2.348   0.591  -0.345  1.00  0.00     0.224 C 
HETATM   19  O1  UNL     1       2.223   0.754   1.028  1.00  0.00    -0.357 OA
HETATM   20  C4  UNL     1       3.386   1.260   1.535  1.00  0.00     0.300 C 
HETATM   21  N1  UNL     1       4.366   1.360   0.484  1.00  0.00    -0.294 N 
HETATM   22  C15 UNL     1       3.601   1.285  -0.729  1.00  0.00     0.253 C 
HETATM   23  O3  UNL     1       3.919   1.706  -1.845  1.00  0.00    -0.270 OA
BRANCH  21  24
HETATM   24  C3  UNL     1       5.805   1.505   0.613  1.00  0.00     0.298 C 
HETATM   25  F1  UNL     1       6.204   2.731   0.092  1.00  0.00    -0.222 F 
BRANCH  24  26
HETATM   26  C2  UNL     1       6.511   0.387  -0.067  1.00  0.00     0.021 C 
HETATM   27  C1  UNL     1       7.259   0.626  -1.132  1.00  0.00     0.012 C 
ENDBRANCH  24  26
ENDBRANCH  21  24
ENDBRANCH  17  18
ENDBRANCH   1  17
TORSDOF 8
