REMARK  8 active torsions:
REMARK  status: ('A' for Active; 'I' for Inactive)
REMARK    1  A    between atoms: C2_2  and  C3_3 
REMARK    2  A    between atoms: C3_3  and  C4_4 
REMARK    3  A    between atoms: C4_4  and  C5_5 
REMARK    4  A    between atoms: C5_5  and  N1_6 
REMARK    5  A    between atoms: N1_6  and  C6_8 
REMARK    6  A    between atoms: C8_13  and  C9_14 
REMARK    7  A    between atoms: C9_14  and  C10_15 
REMARK    8  A    between atoms: C13_18  and  O2_19 
ROOT
HETATM    1  C6  UNL     1      -1.864   0.584  -1.000  1.00  0.00     0.130 A 
HETATM    2  N2  UNL     1      -1.772   1.769  -0.377  1.00  0.00    -0.306 N 
ATOM      3  H2  UNL     1      -2.620   2.318  -0.238  1.00  0.00     0.170 HD
HETATM    4  C7  UNL     1      -0.584   2.266   0.077  1.00  0.00     0.273 A 
HETATM    5  O1  UNL     1      -0.600   3.398   0.655  1.00  0.00    -0.266 OA
HETATM    6  C8  UNL     1       0.562   1.548  -0.098  1.00  0.00     0.102 A 
HETATM    7  N3  UNL     1       0.495   0.365  -0.716  1.00  0.00    -0.349 N 
ATOM      8  H3  UNL     1       1.351  -0.174  -0.849  1.00  0.00     0.166 HD
HETATM    9  C17 UNL     1      -0.664  -0.132  -1.165  1.00  0.00     0.067 A 
HETATM   10  C18 UNL     1      -0.713  -1.299  -1.772  1.00  0.00     0.047 C 
ENDROOT
BRANCH   6  11
HETATM   11  C9  UNL     1       1.703   1.999   0.325  1.00  0.00     0.046 C 
BRANCH  11  12
HETATM   12  C10 UNL     1       2.969   1.256   0.156  1.00  0.00    -0.032 A 
HETATM   13  C11 UNL     1       3.556   0.568   1.195  1.00  0.00     0.014 A 
HETATM   14  C12 UNL     1       4.745  -0.125   1.018  1.00  0.00     0.039 A 
HETATM   15  C13 UNL     1       5.387  -0.153  -0.202  1.00  0.00     0.085 A 
HETATM   16  C15 UNL     1       4.798   0.537  -1.241  1.00  0.00     0.045 A 
HETATM   17 BR1  UNL     1       5.684   0.501  -2.934  1.00  0.00    -0.048 Br
HETATM   18  C16 UNL     1       3.606   1.231  -1.065  1.00  0.00     0.033 A 
BRANCH  15  19
HETATM   19  O2  UNL     1       6.580  -0.853  -0.364  1.00  0.00    -0.355 OA
HETATM   20  C14 UNL     1       7.126  -1.538   0.748  1.00  0.00     0.210 C 
ENDBRANCH  15  19
ENDBRANCH  11  12
ENDBRANCH   6  11
BRANCH   1  21
HETATM   21  N1  UNL     1      -2.962   0.074  -1.446  1.00  0.00    -0.374 N 
ATOM     22  H1  UNL     1      -2.940  -0.835  -1.908  1.00  0.00     0.161 HD
BRANCH  21  23
HETATM   23  C5  UNL     1      -4.206   0.757  -1.305  1.00  0.00     0.121 C 
BRANCH  23  24
HETATM   24  C4  UNL     1      -4.848   0.547   0.067  1.00  0.00     0.023 C 
BRANCH  24  25
HETATM   25  C3  UNL     1      -5.089  -0.946   0.240  1.00  0.00     0.028 C 
BRANCH  25  26
HETATM   26  C2  UNL     1      -5.706  -1.256   1.533  1.00  0.00    -0.037 C 
HETATM   27  C1  UNL     1      -5.087  -2.049   2.386  1.00  0.00     0.007 C 
ENDBRANCH  25  26
ENDBRANCH  24  25
ENDBRANCH  23  24
ENDBRANCH  21  23
ENDBRANCH   1  21
TORSDOF 8
