REMARK  7 active torsions:
REMARK  status: ('A' for Active; 'I' for Inactive)
REMARK       I    between atoms: C2_2  and  N1_4 
REMARK    1  A    between atoms: N1_4  and  C4_6 
REMARK    2  A    between atoms: C4_6  and  C5_7 
REMARK    3  A    between atoms: C5_7  and  C6_8 
REMARK    4  A    between atoms: C6_8  and  N2_9 
REMARK    5  A    between atoms: N2_9  and  S1_11 
REMARK    6  A    between atoms: S1_11  and  N3_14 
REMARK    7  A    between atoms: N3_14  and  C7_16 
ROOT
HETATM    1  S1  UNL     1       0.904   0.971   2.092  1.00  0.00     0.320 S 
HETATM    2  O2  UNL     1       0.888   1.930   3.314  1.00  0.00    -0.182 OA
HETATM    3  O3  UNL     1       0.248  -0.273   2.633  1.00  0.00    -0.182 OA
ENDROOT
BRANCH   1   4
HETATM    4  N2  UNL     1      -0.157   1.767   0.964  1.00  0.00    -0.302 N 
ATOM      5  H2  UNL     1      -0.296   2.777   0.928  1.00  0.00     0.173 HD
BRANCH   4   6
HETATM    6  C6  UNL     1      -0.822   0.823   0.078  1.00  0.00     0.135 C 
BRANCH   6   7
HETATM    7  C5  UNL     1      -1.691   1.665  -0.823  1.00  0.00     0.040 C 
BRANCH   7   8
HETATM    8  C4  UNL     1      -2.472   0.907  -1.836  1.00  0.00     0.127 C 
BRANCH   8   9
HETATM    9  N1  UNL     1      -3.353  -0.022  -1.174  1.00  0.00    -0.357 N 
HETATM   10  C2  UNL     1      -4.653   0.429  -0.813  1.00  0.00     0.215 C 
HETATM   11  C1  UNL     1      -5.592  -0.499  -0.143  1.00  0.00     0.117 C 
HETATM   12  O1  UNL     1      -5.034   1.613  -1.052  1.00  0.00    -0.274 OA
HETATM   13  C3  UNL     1      -2.972  -1.390  -0.875  1.00  0.00     0.152 C 
ENDBRANCH   8   9
ENDBRANCH   7   8
ENDBRANCH   6   7
ENDBRANCH   4   6
ENDBRANCH   1   4
BRANCH   1  14
HETATM   14  N3  UNL     1       2.400   0.894   1.499  1.00  0.00    -0.253 N 
ATOM     15  H3  UNL     1       2.758   1.835   1.665  1.00  0.00     0.182 HD
BRANCH  14  16
HETATM   16  C7  UNL     1       3.339   0.338   0.964  1.00  0.00     0.121 A 
HETATM   17  N4  UNL     1       4.505   1.068   0.755  1.00  0.00    -0.350 N 
HETATM   18  C8  UNL     1       5.583   0.546   0.179  1.00  0.00     0.108 A 
ATOM     19  H4  UNL     1       4.534   2.042   1.056  1.00  0.00     0.166 HD
HETATM   20  C9  UNL     1       5.645  -0.756  -0.260  1.00  0.00     0.027 A 
HETATM   21 BR1  UNL     1       7.189  -1.488  -1.080  1.00  0.00    -0.050 Br
HETATM   22  C10 UNL     1       4.526  -1.522  -0.080  1.00  0.00     0.031 A 
HETATM   23  C11 UNL     1       3.393  -0.966   0.527  1.00  0.00    -0.016 A 
HETATM   24  C12 UNL     1       2.206  -1.839   0.699  1.00  0.00     0.052 C 
ENDBRANCH  14  16
ENDBRANCH   1  14
TORSDOF 7
