REMARK  6 active torsions:
REMARK  status: ('A' for Active; 'I' for Inactive)
REMARK    1  A    between atoms: C2_2  and  C3_3 
REMARK       I    between atoms: N3_9  and  C5_11 
REMARK    2  A    between atoms: C5_11  and  C6_13 
REMARK    3  A    between atoms: C6_13  and  C7_14 
REMARK    4  A    between atoms: C7_14  and  S1_15 
REMARK    5  A    between atoms: S1_15  and  N4_18 
REMARK    6  A    between atoms: N4_18  and  C9_20 
ROOT
HETATM    1  C3  UNL     1       5.431  -0.027   0.381  1.00  0.00     0.046 A 
HETATM    2  N1  UNL     1       4.764  -0.731   1.308  1.00  0.00    -0.302 N 
ATOM      3  H1  UNL     1       5.195  -1.354   1.991  1.00  0.00     0.186 HD
HETATM    4  N2  UNL     1       3.455  -0.497   1.207  1.00  0.00    -0.284 N 
ATOM      5  H2  UNL     1       2.737  -0.914   1.800  1.00  0.00     0.188 HD
HETATM    6  C4  UNL     1       3.224   0.368   0.211  1.00  0.00     0.142 A 
HETATM    7  N3  UNL     1       2.067   0.791  -0.137  1.00  0.00    -0.311 N 
ATOM      8  H3  UNL     1       2.021   1.450  -0.915  1.00  0.00     0.170 HD
HETATM    9  C5  UNL     1       0.843   0.414   0.476  1.00  0.00     0.224 C 
HETATM   10  O1  UNL     1       0.595  -0.789   0.661  1.00  0.00    -0.273 OA
HETATM   11  C12 UNL     1       4.456   0.673  -0.318  1.00  0.00     0.080 A 
HETATM   12 BR1  UNL     1       4.812   1.846  -1.759  1.00  0.00    -0.045 Br
ENDROOT
BRANCH   9  13
HETATM   13  C6  UNL     1      -0.077   1.486   0.867  1.00  0.00     0.120 C 
BRANCH  13  14
HETATM   14  C7  UNL     1      -1.494   1.093   1.106  1.00  0.00     0.172 C 
BRANCH  14  15
HETATM   15  S1  UNL     1      -2.371   0.466  -0.265  1.00  0.00     0.229 S 
HETATM   16  O2  UNL     1      -2.318   1.494  -1.360  1.00  0.00    -0.206 OA
HETATM   17  O3  UNL     1      -1.736  -0.775  -0.791  1.00  0.00    -0.206 OA
BRANCH  15  18
HETATM   18  N4  UNL     1      -3.998   0.063   0.142  1.00  0.00    -0.311 N 
HETATM   19  C8  UNL     1      -4.783   1.157   0.590  1.00  0.00     0.163 C 
BRANCH  18  20
HETATM   20  C9  UNL     1      -4.599  -0.845  -0.769  1.00  0.00     0.087 C 
HETATM   21  C10 UNL     1      -4.956  -2.117   0.005  1.00  0.00     0.032 C 
HETATM   22  C11 UNL     1      -5.902  -0.336  -1.349  1.00  0.00     0.032 C 
ENDBRANCH  18  20
ENDBRANCH  15  18
ENDBRANCH  14  15
ENDBRANCH  13  14
ENDBRANCH   9  13
BRANCH   1  23
HETATM   23  C2  UNL     1       6.897   0.005   0.146  1.00  0.00     0.055 C 
HETATM   24  C1  UNL     1       7.221  -0.812  -1.078  1.00  0.00     0.011 C 
ENDBRANCH   1  23
TORSDOF 6
