REMARK  8 active torsions:
REMARK  status: ('A' for Active; 'I' for Inactive)
REMARK    1  A    between atoms: C3_3  and  N1_4 
REMARK    2  A    between atoms: N1_4  and  C5_6 
REMARK    3  A    between atoms: C5_6  and  C6_7 
REMARK    4  A    between atoms: C9_10  and  C10_11 
REMARK    5  A    between atoms: C10_11  and  C11_12 
REMARK    6  A    between atoms: C13_17  and  C14_18 
REMARK    7  A    between atoms: C14_18  and  C15_19 
REMARK    8  A    between atoms: C17_23  and  O2_24 
ROOT
HETATM    1  C1  UNL     1      -5.462  -0.228  -3.237  1.00  0.00     0.013 C 
HETATM    2  C2  UNL     1      -5.214  -0.385  -2.068  1.00  0.00    -0.103 C 
HETATM    3  C3  UNL     1      -4.900  -0.555  -0.627  1.00  0.00     0.187 C 
ENDROOT
BRANCH   3   4
HETATM    4  N1  UNL     1      -4.418   0.691  -0.100  1.00  0.00    -0.285 NA
HETATM    5  C4  UNL     1      -5.491   1.644  -0.062  1.00  0.00     0.117 C 
BRANCH   4   6
HETATM    6  C5  UNL     1      -3.722   0.652   1.119  1.00  0.00     0.072 C 
BRANCH   6   7
HETATM    7  C6  UNL     1      -2.410  -0.011   1.129  1.00  0.00    -0.006 A 
HETATM    8  C7  UNL     1      -1.778  -0.542   0.028  1.00  0.00     0.014 A 
HETATM    9  C8  UNL     1      -0.512  -1.136   0.132  1.00  0.00     0.015 A 
HETATM   10  C9  UNL     1       0.157  -1.214   1.333  1.00  0.00     0.002 A 
HETATM   11  C17 UNL     1      -0.472  -0.683   2.438  1.00  0.00     0.094 A 
HETATM   12  C18 UNL     1      -1.716  -0.101   2.337  1.00  0.00     0.056 A 
HETATM   13 BR1  UNL     1      -2.540   0.618   3.897  1.00  0.00    -0.047 Br
BRANCH  10  14
HETATM   14  C10 UNL     1       1.484  -1.835   1.441  1.00  0.00     0.062 C 
BRANCH  14  15
HETATM   15  C11 UNL     1       2.523  -1.375   0.764  1.00  0.00     0.109 A 
HETATM   16  N2  UNL     1       3.775  -1.857   0.783  1.00  0.00    -0.308 N 
HETATM   17  C12 UNL     1       4.567  -1.144  -0.027  1.00  0.00     0.273 A 
ATOM     18  H2  UNL     1       4.081  -2.656   1.338  1.00  0.00     0.170 HD
HETATM   19  O1  UNL     1       5.778  -1.341  -0.225  1.00  0.00    -0.266 OA
HETATM   20  C13 UNL     1       3.805  -0.161  -0.596  1.00  0.00     0.098 A 
HETATM   21  N3  UNL     1       2.554  -0.336  -0.085  1.00  0.00    -0.338 N 
ATOM     22  H3  UNL     1       1.748   0.245  -0.317  1.00  0.00     0.167 HD
BRANCH  20  23
HETATM   23  C14 UNL     1       4.145   0.791  -1.469  1.00  0.00     0.008 C 
BRANCH  23  24
HETATM   24  C15 UNL     1       5.492   0.960  -2.008  1.00  0.00     0.025 C 
HETATM   25  C16 UNL     1       6.341   1.701  -0.994  1.00  0.00     0.009 C 
ENDBRANCH  23  24
ENDBRANCH  20  23
ENDBRANCH  14  15
ENDBRANCH  10  14
BRANCH  11  26
HETATM   26  O2  UNL     1       0.209  -0.764   3.657  1.00  0.00    -0.358 OA
ATOM     27  H2  UNL     1      -0.225  -0.398   4.419  1.00  0.00     0.217 HD
ENDBRANCH  11  26
ENDBRANCH   6   7
ENDBRANCH   4   6
ENDBRANCH   3   4
TORSDOF 8
