REMARK  8 active torsions:
REMARK  status: ('A' for Active; 'I' for Inactive)
REMARK    1  A    between atoms: C4_5  and  C5_6 
REMARK       I    between atoms: C5_6  and  N1_8 
REMARK    2  A    between atoms: N1_8  and  C6_10 
REMARK    3  A    between atoms: C6_10  and  C7_11 
REMARK    4  A    between atoms: C7_11  and  N2_12 
REMARK    5  A    between atoms: N2_12  and  C10_15 
REMARK    6  A    between atoms: C10_15  and  C11_16 
REMARK    7  A    between atoms: C11_16  and  O2_17 
REMARK    8  A    between atoms: N3_19  and  N4_20 
ROOT
HETATM    1  C5  UNL     1      -0.699   0.455  -0.284  1.00  0.00     0.269 C 
HETATM    2  O1  UNL     1      -0.408   0.476  -1.504  1.00  0.00    -0.266 OA
HETATM    3  N1  UNL     1       0.322   0.638   0.672  1.00  0.00    -0.354 N 
ATOM      4  H1  UNL     1       0.057   0.623   1.657  1.00  0.00     0.162 HD
ENDROOT
BRANCH   1   5
HETATM    5  C4  UNL     1      -2.094   0.243   0.156  1.00  0.00     0.123 C 
HETATM    6  C3  UNL     1      -2.534   0.199   1.395  1.00  0.00     0.034 C 
HETATM    7  C2  UNL     1      -4.000  -0.034   1.419  1.00  0.00     0.061 C 
HETATM    8  C1  UNL     1      -4.766   1.192   1.820  1.00  0.00     0.035 C 
HETATM    9 BR1  UNL     1      -4.438  -1.434   2.697  1.00  0.00    -0.079 Br
HETATM   10  C12 UNL     1      -4.301  -0.514   0.040  1.00  0.00     0.073 C 
HETATM   11  N3  UNL     1      -3.186   0.051  -0.732  1.00  0.00    -0.217 N 
HETATM   12  C13 UNL     1      -4.186  -2.006  -0.056  1.00  0.00     0.042 C 
HETATM   13  C14 UNL     1      -5.613   0.004  -0.495  1.00  0.00     0.042 C 
BRANCH  11  14
HETATM   14  N4  UNL     1      -3.250   0.325  -2.088  1.00  0.00    -0.035 N 
HETATM   15  O3  UNL     1      -3.284   1.505  -2.464  1.00  0.00    -0.516 OA
HETATM   16  O4  UNL     1      -3.274  -0.743  -2.953  1.00  0.00    -0.516 OA
ENDBRANCH  11  14
ENDBRANCH   1   5
BRANCH   3  17
HETATM   17  C6  UNL     1       1.705   0.844   0.359  1.00  0.00     0.151 C 
BRANCH  17  18
HETATM   18  C7  UNL     1       2.298  -0.308  -0.365  1.00  0.00     0.256 C 
BRANCH  18  19
HETATM   19  N2  UNL     1       3.709  -0.113  -0.693  1.00  0.00    -0.071 N 
HETATM   20  C8  UNL     1       4.239  -1.435  -0.962  1.00  0.00     0.272 C 
HETATM   21  C9  UNL     1       3.834   0.675  -1.905  1.00  0.00     0.272 C 
BRANCH  19  22
HETATM   22  C10 UNL     1       4.343   0.496   0.426  1.00  0.00     0.262 C 
BRANCH  22  23
HETATM   23  C11 UNL     1       5.845   0.490   0.410  1.00  0.00     0.192 C 
BRANCH  23  24
HETATM   24  O2  UNL     1       6.426  -0.750   0.373  1.00  0.00    -0.399 OA
ATOM     25  H2  UNL     1       7.376  -0.754   0.363  1.00  0.00     0.209 HD
ENDBRANCH  23  24
ENDBRANCH  22  23
ENDBRANCH  19  22
ENDBRANCH  18  19
ENDBRANCH  17  18
ENDBRANCH   3  17
TORSDOF 8
