REMARK  6 active torsions:
REMARK  status: ('A' for Active; 'I' for Inactive)
REMARK    1  A    between atoms: N1_2  and  C3_4 
REMARK    2  A    between atoms: C3_4  and  C4_5 
REMARK    3  A    between atoms: C4_5  and  N2_6 
REMARK       I    between atoms: N2_6  and  C6_8 
REMARK    4  A    between atoms: C6_8  and  C7_10 
REMARK    5  A    between atoms: C7_10  and  N3_11 
REMARK       I    between atoms: N3_11  and  C8_13 
REMARK       I    between atoms: C8_13  and  N4_15 
REMARK    6  A    between atoms: N4_15  and  C9_17 
ROOT
HETATM    1  N3  UNL     1       0.530  -0.876  -1.969  1.00  0.00    -0.334 N 
ATOM      2  H3  UNL     1       0.376  -1.853  -2.217  1.00  0.00     0.164 HD
HETATM    3  C8  UNL     1      -0.466  -0.158  -1.274  1.00  0.00     0.316 C 
HETATM    4  O2  UNL     1      -0.293   1.032  -0.980  1.00  0.00    -0.247 OA
HETATM    5  N4  UNL     1      -1.699  -0.788  -0.894  1.00  0.00    -0.338 N 
ATOM      6  H4  UNL     1      -1.855  -1.768  -1.130  1.00  0.00     0.164 HD
ENDROOT
BRANCH   1   7
HETATM    7  C7  UNL     1       1.763  -0.227  -2.327  1.00  0.00     0.227 C 
BRANCH   7   8
HETATM    8  C6  UNL     1       2.565   0.248  -1.184  1.00  0.00     0.237 C 
HETATM    9  N2  UNL     1       3.784   0.911  -1.427  1.00  0.00    -0.353 N 
HETATM   10  C5  UNL     1       4.289   1.149  -2.768  1.00  0.00     0.152 C 
HETATM   11  O1  UNL     1       2.171   0.065  -0.015  1.00  0.00    -0.272 OA
BRANCH   9  12
HETATM   12  C4  UNL     1       4.605   1.396  -0.312  1.00  0.00     0.155 C 
BRANCH  12  13
HETATM   13  C3  UNL     1       5.541   0.269   0.054  1.00  0.00     0.291 C 
BRANCH  13  14
HETATM   14  N1  UNL     1       6.417   0.588   1.138  1.00  0.00     0.081 N 
HETATM   15  C1  UNL     1       7.400   1.584   0.837  1.00  0.00     0.309 C 
HETATM   16  C2  UNL     1       6.908  -0.543   1.865  1.00  0.00     0.309 C 
ENDBRANCH  13  14
ENDBRANCH  12  13
ENDBRANCH   9  12
ENDBRANCH   7   8
ENDBRANCH   1   7
BRANCH   5  17
HETATM   17  C9  UNL     1      -2.733  -0.050  -0.175  1.00  0.00     0.091 C 
HETATM   18  C10 UNL     1      -3.949  -0.043  -1.045  1.00  0.00     0.030 C 
HETATM   19  C11 UNL     1      -5.254   0.076  -0.303  1.00  0.00    -0.011 C 
HETATM   20  C12 UNL     1      -5.789  -1.211   0.215  1.00  0.00     0.009 C 
HETATM   21  C17 UNL     1      -5.295   1.219   0.655  1.00  0.00     0.025 C 
HETATM   22  C13 UNL     1      -4.976  -1.911   1.228  1.00  0.00    -0.013 C 
HETATM   23  C14 UNL     1      -4.836  -1.160   2.522  1.00  0.00     0.011 C 
HETATM   24  C19 UNL     1      -3.536  -2.117   0.819  1.00  0.00     0.011 C 
HETATM   25  C15 UNL     1      -3.767  -0.128   2.135  1.00  0.00     0.010 C 
HETATM   26  C16 UNL     1      -4.447   1.142   1.849  1.00  0.00     0.087 C 
HETATM   27  C18 UNL     1      -2.935  -0.762   1.129  1.00  0.00     0.014 C 
HETATM   28 CL1  UNL     1      -3.283   2.518   1.938  1.00  0.00    -0.125 Cl
ENDBRANCH   5  17
TORSDOF 6
