REMARK  7 active torsions:
REMARK  status: ('A' for Active; 'I' for Inactive)
REMARK    1  A    between atoms: C2_2  and  C3_3 
REMARK    2  A    between atoms: C3_3  and  C4_5 
REMARK    3  A    between atoms: C3_3  and  C8_10 
REMARK    4  A    between atoms: C4_5  and  N1_6 
REMARK       I    between atoms: C8_10  and  N2_12 
REMARK    5  A    between atoms: N2_12  and  C9_14 
REMARK    6  A    between atoms: C14_21  and  C15_22 
REMARK    7  A    between atoms: C16_23  and  C17_24 
ROOT
HETATM    1  C9  UNL     1       0.379   1.185   0.246  1.00  0.00     0.105 A 
HETATM    2  C10 UNL     1       1.504   1.745  -0.541  1.00  0.00     0.067 A 
HETATM    3  C11 UNL     1       2.742   1.325  -0.334  1.00  0.00     0.062 A 
HETATM    4  N3  UNL     1       3.885   1.696  -0.928  1.00  0.00    -0.357 N 
ATOM      5  H3  UNL     1       3.952   2.398  -1.665  1.00  0.00     0.166 HD
HETATM    6  C12 UNL     1       4.937   1.017  -0.420  1.00  0.00     0.018 A 
HETATM    7  C13 UNL     1       6.341   1.337  -0.863  1.00  0.00     0.069 C 
HETATM    8  C14 UNL     1       4.484   0.166   0.538  1.00  0.00     0.015 A 
HETATM    9  C19 UNL     1       3.063   0.380   0.583  1.00  0.00     0.074 A 
HETATM   10  N4  UNL     1       2.153  -0.151   1.299  1.00  0.00    -0.319 N 
ATOM     11  H4  UNL     1       2.435  -0.858   1.978  1.00  0.00     0.169 HD
HETATM   12  C20 UNL     1       0.759   0.177   1.217  1.00  0.00     0.273 A 
HETATM   13  O3  UNL     1      -0.056  -0.416   1.979  1.00  0.00    -0.266 OA
ENDROOT
BRANCH   1  14
HETATM   14  N2  UNL     1      -0.787   1.588   0.040  1.00  0.00    -0.320 N 
HETATM   15  C8  UNL     1      -2.018   1.292   0.572  1.00  0.00     0.264 C 
HETATM   16  O1  UNL     1      -2.187   1.362   1.841  1.00  0.00    -0.269 OA
ATOM     17  H2  UNL     1      -0.834   2.299  -0.690  1.00  0.00     0.169 HD
BRANCH  15  18
HETATM   18  C3  UNL     1      -3.203   0.884  -0.281  1.00  0.00     0.207 C 
HETATM   19  F1  UNL     1      -3.332   1.934  -1.188  1.00  0.00    -0.231 F 
BRANCH  18  20
HETATM   20  C2  UNL     1      -2.791  -0.307  -1.071  1.00  0.00     0.051 C 
HETATM   21  C1  UNL     1      -2.581  -1.570  -0.314  1.00  0.00     0.009 C 
ENDBRANCH  18  20
BRANCH  18  22
HETATM   22  C4  UNL     1      -4.375   0.745   0.604  1.00  0.00     0.289 C 
BRANCH  22  23
HETATM   23  N1  UNL     1      -5.633   0.427   0.049  1.00  0.00    -0.075 N 
HETATM   24  C5  UNL     1      -5.995   1.158  -1.151  1.00  0.00     0.271 C 
HETATM   25  C6  UNL     1      -6.639   0.861   1.054  1.00  0.00     0.271 C 
HETATM   26  C7  UNL     1      -5.910  -0.980  -0.138  1.00  0.00     0.271 C 
ENDBRANCH  22  23
ENDBRANCH  18  22
ENDBRANCH  15  18
ENDBRANCH   1  14
BRANCH   8  27
HETATM   27  C15 UNL     1       5.102  -0.874   1.317  1.00  0.00     0.019 C 
HETATM   28  C16 UNL     1       6.020  -1.730   1.295  1.00  0.00     0.051 C 
BRANCH  28  29
HETATM   29  C17 UNL     1       7.010  -2.147   0.375  1.00  0.00     0.145 C 
HETATM   30  C18 UNL     1       8.017  -3.244   0.776  1.00  0.00     0.096 C 
HETATM   31  O2  UNL     1       7.195  -1.733  -0.770  1.00  0.00    -0.294 OA
ENDBRANCH  28  29
ENDBRANCH   8  27
TORSDOF 7
