REMARK  6 active torsions:
REMARK  status: ('A' for Active; 'I' for Inactive)
REMARK    1  A    between atoms: N1_2  and  C3_4 
REMARK    2  A    between atoms: C3_4  and  C4_5 
REMARK    3  A    between atoms: C4_5  and  C5_6 
REMARK    4  A    between atoms: N2_7  and  C6_9 
REMARK    5  A    between atoms: C13_21  and  C14_22 
REMARK    6  A    between atoms: C14_22  and  N5_23 
ROOT
HETATM    1  C6  UNL     1      -0.350   0.366   0.230  1.00  0.00     0.130 A 
HETATM    2  N3  UNL     1      -0.116   1.687   0.163  1.00  0.00    -0.339 N 
ATOM      3  H3  UNL     1       0.817   2.062   0.333  1.00  0.00     0.167 HD
HETATM    4  C7  UNL     1      -1.152   2.510  -0.136  1.00  0.00     0.062 A 
HETATM    5  C8  UNL     1      -0.891   3.883  -0.202  1.00  0.00     0.051 A 
HETATM    6  C9  UNL     1      -1.913   4.755  -0.503  1.00  0.00     0.013 A 
HETATM    7 BR1  UNL     1      -1.560   6.631  -0.593  1.00  0.00    -0.051 Br
HETATM    8  C10 UNL     1      -3.173   4.264  -0.734  1.00  0.00     0.021 A 
HETATM    9  C11 UNL     1      -3.470   2.914  -0.678  1.00  0.00     0.033 A 
HETATM   10  C12 UNL     1      -2.432   2.059  -0.375  1.00  0.00     0.059 A 
HETATM   11  N4  UNL     1      -2.609   0.721  -0.294  1.00  0.00    -0.353 N 
ATOM     12  H4  UNL     1      -3.545   0.353  -0.465  1.00  0.00     0.166 HD
HETATM   13  C13 UNL     1      -1.661  -0.131  -0.011  1.00  0.00     0.080 A 
ENDROOT
BRANCH   1  14
HETATM   14  N2  UNL     1       0.569  -0.430   0.502  1.00  0.00    -0.354 N 
HETATM   15  C5  UNL     1       1.871  -0.639   0.805  1.00  0.00     0.064 C 
ATOM     16  H2  UNL     1       0.140  -1.355   0.491  1.00  0.00     0.166 HD
BRANCH  15  17
HETATM   17  C4  UNL     1       2.840   0.546   0.785  1.00  0.00     0.074 C 
BRANCH  17  18
HETATM   18  C3  UNL     1       4.241   0.070   1.149  1.00  0.00     0.276 C 
BRANCH  18  19
HETATM   19  N1  UNL     1       4.715  -0.928   0.208  1.00  0.00     0.080 N 
HETATM   20  C1  UNL     1       6.047  -1.314   0.639  1.00  0.00     0.309 C 
HETATM   21  C2  UNL     1       4.852  -0.273  -1.085  1.00  0.00     0.309 C 
ENDBRANCH  18  19
ENDBRANCH  17  18
ENDBRANCH  15  17
ENDBRANCH   1  14
BRANCH  13  22
HETATM   22  C14 UNL     1      -1.798  -1.599   0.090  1.00  0.00     0.296 C 
BRANCH  22  23
HETATM   23  N5  UNL     1      -3.101  -2.097  -0.150  1.00  0.00    -0.073 N 
HETATM   24  C15 UNL     1      -3.414  -1.983  -1.581  1.00  0.00     0.272 C 
HETATM   25  C16 UNL     1      -3.107  -3.521   0.142  1.00  0.00     0.272 C 
HETATM   26  C17 UNL     1      -4.147  -1.483   0.612  1.00  0.00     0.272 C 
ENDBRANCH  22  23
ENDBRANCH  13  22
TORSDOF 6
