REMARK  9 active torsions:
REMARK  status: ('A' for Active; 'I' for Inactive)
REMARK    1  A    between atoms: C3_3  and  C4_4 
REMARK    2  A    between atoms: C6_6  and  C7_7 
REMARK       I    between atoms: C7_7  and  N1_9 
REMARK    3  A    between atoms: N1_9  and  C8_11 
REMARK    4  A    between atoms: C8_11  and  C9_12 
REMARK    5  A    between atoms: C9_12  and  N2_13 
REMARK    6  A    between atoms: N2_13  and  C11_15 
REMARK    7  A    between atoms: C11_15  and  C12_16 
REMARK    8  A    between atoms: C16_20  and  O2_21 
REMARK    9  A    between atoms: O2_21  and  C17_22 
ROOT
HETATM    1  C1  UNL     1      -5.524  -3.933   2.081  1.00  0.00     0.112 C 
HETATM    2  C2  UNL     1      -5.696  -3.027   0.921  1.00  0.00    -0.111 C 
HETATM    3  C3  UNL     1      -5.856  -2.291  -0.024  1.00  0.00    -0.100 C 
ENDROOT
BRANCH   3   4
HETATM    4  C4  UNL     1      -6.077  -1.405  -1.169  1.00  0.00     0.096 C 
HETATM    5  C5  UNL     1      -4.847  -1.233  -2.000  1.00  0.00     0.034 C 
HETATM    6  C6  UNL     1      -4.131   0.018  -1.509  1.00  0.00     0.086 C 
HETATM    7  C21 UNL     1      -4.920   0.503  -0.337  1.00  0.00     0.043 C 
HETATM    8  C22 UNL     1      -5.169   1.976  -0.331  1.00  0.00     0.089 C 
HETATM    9  C25 UNL     1      -6.327  -0.023  -0.652  1.00  0.00     0.153 C 
HETATM   10  C23 UNL     1      -5.459   2.417   1.089  1.00  0.00     0.021 C 
HETATM   11  C24 UNL     1      -6.387   2.145  -1.197  1.00  0.00     0.263 C 
HETATM   12  O4  UNL     1      -6.952   3.259  -1.427  1.00  0.00    -0.265 OA
HETATM   13  O5  UNL     1      -6.734   0.880  -1.661  1.00  0.00    -0.314 OA
BRANCH   6  14
HETATM   14  C7  UNL     1      -2.729  -0.289  -1.224  1.00  0.00     0.222 C 
HETATM   15  O1  UNL     1      -2.324  -1.472  -1.344  1.00  0.00    -0.273 OA
HETATM   16  N1  UNL     1      -1.797   0.684  -0.815  1.00  0.00    -0.359 N 
ATOM     17  H1  UNL     1      -2.106   1.650  -0.710  1.00  0.00     0.162 HD
BRANCH  16  18
HETATM   18  C8  UNL     1      -0.394   0.353  -0.534  1.00  0.00     0.152 C 
BRANCH  18  19
HETATM   19  C9  UNL     1       0.352   1.600  -0.127  1.00  0.00     0.291 C 
BRANCH  19  20
HETATM   20  N2  UNL     1       1.741   1.344   0.166  1.00  0.00     0.089 N 
HETATM   21  C10 UNL     1       1.916   0.553   1.364  1.00  0.00     0.310 C 
BRANCH  20  22
HETATM   22  C11 UNL     1       2.441   0.766  -0.962  1.00  0.00     0.310 C 
BRANCH  22  23
HETATM   23  C12 UNL     1       3.862   0.580  -0.569  1.00  0.00    -0.027 A 
HETATM   24  C13 UNL     1       4.626  -0.458  -1.058  1.00  0.00     0.018 A 
HETATM   25  C14 UNL     1       5.957  -0.624  -0.693  1.00  0.00    -0.024 A 
HETATM   26  C15 UNL     1       6.723  -1.775  -1.261  1.00  0.00     0.051 C 
HETATM   27  C16 UNL     1       6.514   0.279   0.180  1.00  0.00     0.123 A 
HETATM   28  C19 UNL     1       5.794   1.329   0.694  1.00  0.00     0.151 A 
HETATM   29  F1  UNL     1       6.364   2.205   1.551  1.00  0.00    -0.203 F 
HETATM   30  C20 UNL     1       4.482   1.471   0.318  1.00  0.00     0.054 A 
BRANCH  27  31
HETATM   31  O2  UNL     1       7.842   0.146   0.568  1.00  0.00    -0.276 OA
BRANCH  31  32
HETATM   32  C17 UNL     1       8.222  -0.587   1.658  1.00  0.00     0.260 C 
HETATM   33  C18 UNL     1       9.623  -0.753   2.104  1.00  0.00     0.126 C 
HETATM   34  O3  UNL     1       7.319  -1.162   2.330  1.00  0.00    -0.265 OA
ENDBRANCH  31  32
ENDBRANCH  27  31
ENDBRANCH  22  23
ENDBRANCH  20  22
ENDBRANCH  19  20
ENDBRANCH  18  19
ENDBRANCH  16  18
ENDBRANCH   6  14
ENDBRANCH   3   4
TORSDOF 9
