REMARK  9 active torsions:
REMARK  status: ('A' for Active; 'I' for Inactive)
REMARK    1  A    between atoms: C3_3  and  N1_4 
REMARK    2  A    between atoms: N1_4  and  C4_5 
REMARK    3  A    between atoms: N1_4  and  C8_11 
REMARK    4  A    between atoms: C4_5  and  C5_6 
REMARK    5  A    between atoms: C5_6  and  C6_7 
REMARK    6  A    between atoms: C6_7  and  O1_9 
REMARK    7  A    between atoms: C8_11  and  C9_12 
REMARK    8  A    between atoms: C10_16  and  C11_17 
REMARK    9  A    between atoms: C18_24  and  O3_25 
ROOT
HETATM    1  C1  UNL     1       4.588  -3.115   2.158  1.00  0.00     0.018 C 
HETATM    2  C2  UNL     1       3.867  -3.089   1.189  1.00  0.00    -0.072 C 
HETATM    3  C3  UNL     1       2.993  -3.100   0.053  1.00  0.00     0.158 C 
ENDROOT
BRANCH   3   4
HETATM    4  N1  UNL     1       2.315  -1.898  -0.222  1.00  0.00    -0.336 N 
BRANCH   4   5
HETATM    5  C4  UNL     1       2.982  -0.799  -0.722  1.00  0.00     0.072 C 
BRANCH   5   6
HETATM    6  C5  UNL     1       3.944  -0.062   0.185  1.00  0.00     0.076 C 
BRANCH   6   7
HETATM    7  C6  UNL     1       4.438   1.147  -0.644  1.00  0.00     0.118 C 
HETATM    8  C7  UNL     1       5.400   1.891   0.258  1.00  0.00     0.039 C 
BRANCH   7   9
HETATM    9  O1  UNL     1       3.322   1.942  -0.883  1.00  0.00    -0.396 OA
ATOM     10  H1  UNL     1       3.625   2.684  -1.392  1.00  0.00     0.210 HD
ENDBRANCH   7   9
ENDBRANCH   6   7
ENDBRANCH   5   6
ENDBRANCH   4   5
BRANCH   4  11
HETATM   11  C8  UNL     1       0.950  -1.991  -0.047  1.00  0.00     0.138 C 
BRANCH  11  12
HETATM   12  C9  UNL     1       0.074  -0.829  -0.247  1.00  0.00     0.149 A 
HETATM   13  O2  UNL     1       0.298   0.408  -0.592  1.00  0.00    -0.234 OA
HETATM   14  N2  UNL     1      -0.755   1.124  -0.660  1.00  0.00    -0.261 N 
HETATM   15  C10 UNL     1      -1.819   0.364  -0.343  1.00  0.00     0.077 A 
ATOM     16  H2  UNL     1      -0.786   2.112  -0.913  1.00  0.00     0.194 HD
HETATM   17  C18 UNL     1      -1.323  -0.885  -0.075  1.00  0.00     0.128 A 
BRANCH  15  18
HETATM   18  C11 UNL     1      -3.181   0.812  -0.290  1.00  0.00     0.007 C 
HETATM   19  C12 UNL     1      -3.352   2.282  -0.671  1.00  0.00     0.016 C 
HETATM   20  C13 UNL     1      -4.769   2.524  -0.198  1.00  0.00     0.006 C 
HETATM   21  C14 UNL     1      -5.131   1.381   0.711  1.00  0.00    -0.013 C 
HETATM   22  C15 UNL     1      -5.516   0.185  -0.136  1.00  0.00     0.006 C 
HETATM   23  C17 UNL     1      -3.735   0.911   1.146  1.00  0.00     0.020 C 
HETATM   24  C16 UNL     1      -4.228   0.035  -0.966  1.00  0.00     0.016 C 
ENDBRANCH  15  18
BRANCH  17  25
HETATM   25  O3  UNL     1      -1.994  -2.025   0.296  1.00  0.00    -0.356 OA
ATOM     26  H3  UNL     1      -2.936  -2.063   0.412  1.00  0.00     0.218 HD
ENDBRANCH  17  25
ENDBRANCH  11  12
ENDBRANCH   4  11
ENDBRANCH   3   4
TORSDOF 9
