REMARK  7 active torsions:
REMARK  status: ('A' for Active; 'I' for Inactive)
REMARK       I    between atoms: C2_2  and  N1_4 
REMARK    1  A    between atoms: N1_4  and  C3_6 
REMARK    2  A    between atoms: C3_6  and  C4_7 
REMARK    3  A    between atoms: C3_6  and  C12_17 
REMARK    4  A    between atoms: C4_7  and  C5_8 
REMARK    5  A    between atoms: C5_8  and  C7_10 
REMARK    6  A    between atoms: C12_17  and  N2_18 
REMARK    7  A    between atoms: C12_17  and  C13_22 
ROOT
HETATM    1  C3  UNL     1      -0.803   0.290  -1.037  1.00  0.00     0.141 C 
ENDROOT
BRANCH   1   2
HETATM    2  N1  UNL     1      -1.287   1.146  -0.022  1.00  0.00    -0.351 N 
HETATM    3  C2  UNL     1      -2.262   2.057   0.261  1.00  0.00     0.214 C 
HETATM    4  C1  UNL     1      -2.228   2.772   1.610  1.00  0.00     0.117 C 
HETATM    5  O1  UNL     1      -3.247   2.456  -0.443  1.00  0.00    -0.274 OA
ATOM      6  H1  UNL     1      -0.689   1.046   0.798  1.00  0.00     0.163 HD
ENDBRANCH   1   2
BRANCH   1   7
HETATM    7  C4  UNL     1       0.367  -0.539  -0.744  1.00  0.00     0.005 C 
BRANCH   7   8
HETATM    8  C5  UNL     1       1.677  -0.041  -0.360  1.00  0.00    -0.055 C 
HETATM    9  C6  UNL     1       2.338   0.893  -1.339  1.00  0.00     0.046 C 
BRANCH   8  10
HETATM   10  C7  UNL     1       1.933   0.437   1.023  1.00  0.00     0.177 C 
HETATM   11  C8  UNL     1       3.442   0.826   1.104  1.00  0.00     0.208 C 
HETATM   12  O2  UNL     1       3.635   0.755   2.458  1.00  0.00    -0.353 OA
HETATM   13  C9  UNL     1       2.584   0.080   3.036  1.00  0.00     0.157 C 
HETATM   14  C10 UNL     1       1.597   0.984   3.722  1.00  0.00     0.078 C 
HETATM   15  C11 UNL     1       3.202  -0.921   3.990  1.00  0.00     0.078 C 
HETATM   16  O3  UNL     1       1.906  -0.566   1.998  1.00  0.00    -0.344 OA
ENDBRANCH   8  10
ENDBRANCH   7   8
ENDBRANCH   1   7
BRANCH   1  17
HETATM   17  C12 UNL     1      -1.966  -0.522  -1.636  1.00  0.00     0.233 C 
BRANCH  17  18
HETATM   18  N2  UNL     1      -2.868   0.415  -2.240  1.00  0.00    -0.070 N 
ATOM     19  H23 UNL     1      -3.178   1.143  -1.597  1.00  0.00     0.275 HD
ATOM     20  H22 UNL     1      -2.415   1.025  -2.920  1.00  0.00     0.275 HD
ATOM     21  H21 UNL     1      -3.638  -0.123  -2.637  1.00  0.00     0.275 HD
ENDBRANCH  17  18
BRANCH  17  22
HETATM   22  C13 UNL     1      -1.548  -1.571  -2.566  1.00  0.00     0.022 C 
HETATM   23  C14 UNL     1      -2.375  -2.499  -3.021  1.00  0.00    -0.016 C 
HETATM   24  C15 UNL     1      -3.788  -2.541  -2.629  1.00  0.00     0.056 C 
HETATM   25  S1  UNL     1      -1.772  -3.774  -4.163  1.00  0.00    -0.058 SA
ENDBRANCH  17  22
ENDBRANCH   1  17
TORSDOF 7
