REMARK  11 active torsions:
REMARK  status: ('A' for Active; 'I' for Inactive)
REMARK    1  A    between atoms: C3_3  and  C4_4 
REMARK    2  A    between atoms: C4_4  and  C5_5 
REMARK    3  A    between atoms: C5_5  and  C6_6 
REMARK    4  A    between atoms: C6_6  and  N1_7 
REMARK    5  A    between atoms: N2_10  and  C9_11 
REMARK    6  A    between atoms: C9_11  and  C10_12 
REMARK    7  A    between atoms: C11_13  and  C12_14 
REMARK    8  A    between atoms: C13_15  and  C14_16 
REMARK    9  A    between atoms: C14_16  and  N3_17 
REMARK   10  A    between atoms: N3_17  and  C15_18 
REMARK   11  A    between atoms: C15_18  and  N4_20 
ROOT
HETATM    1  C1  UNL     1       7.967   2.092  -1.335  1.00  0.00     0.012 C 
HETATM    2  C2  UNL     1       8.055   0.965  -0.910  1.00  0.00    -0.117 C 
HETATM    3  C3  UNL     1       8.177  -0.413  -0.415  1.00  0.00     0.093 C 
ENDROOT
BRANCH   3   4
HETATM    4  C4  UNL     1       6.795  -0.835   0.058  1.00  0.00     0.014 C 
BRANCH   4   5
HETATM    5  C5  UNL     1       6.392   0.128   1.155  1.00  0.00     0.021 C 
BRANCH   5   6
HETATM    6  C6  UNL     1       5.024  -0.233   1.674  1.00  0.00     0.141 C 
BRANCH   6   7
HETATM    7  N1  UNL     1       4.025  -0.170   0.613  1.00  0.00    -0.217 N 
HETATM    8  C7  UNL     1       3.531   0.980  -0.083  1.00  0.00     0.161 C 
HETATM    9  C8  UNL     1       2.680   0.443  -1.183  1.00  0.00     0.162 C 
HETATM   10  N2  UNL     1       2.429  -0.945  -0.885  1.00  0.00    -0.206 N 
HETATM   11  C19 UNL     1       3.369  -1.316   0.096  1.00  0.00     0.672 C 
HETATM   12  N6  UNL     1       3.582  -2.558   0.457  1.00  0.00    -0.235 N 
ATOM     13  H62 UNL     1       4.263  -2.827   1.167  1.00  0.00     0.174 HD
ATOM     14  H61 UNL     1       3.110  -3.382   0.085  1.00  0.00     0.174 HD
BRANCH  10  15
HETATM   15  C9  UNL     1       1.425  -1.779  -1.465  1.00  0.00     0.236 C 
BRANCH  15  16
HETATM   16  C10 UNL     1       0.065  -1.350  -1.048  1.00  0.00    -0.072 C 
HETATM   17  C11 UNL     1      -1.031  -0.993  -0.691  1.00  0.00    -0.013 C 
BRANCH  17  18
HETATM   18  C12 UNL     1      -2.310  -0.565  -0.248  1.00  0.00    -0.013 C 
HETATM   19  C13 UNL     1      -3.391  -0.186   0.145  1.00  0.00    -0.062 C 
BRANCH  19  20
HETATM   20  C14 UNL     1      -4.694   0.279   0.645  1.00  0.00     0.366 C 
BRANCH  20  21
HETATM   21  N3  UNL     1      -5.570   0.662  -0.467  1.00  0.00     0.094 N 
HETATM   22  C18 UNL     1      -5.609   2.021  -0.829  1.00  0.00     0.413 A 
HETATM   23  N5  UNL     1      -4.929   1.144  -1.650  1.00  0.00    -0.006 NA
BRANCH  21  24
HETATM   24  C15 UNL     1      -6.654  -0.192  -0.748  1.00  0.00     0.297 C 
HETATM   25  S1  UNL     1      -6.486  -1.407  -1.831  1.00  0.00    -0.032 SA
BRANCH  24  26
HETATM   26  N4  UNL     1      -7.887   0.006  -0.091  1.00  0.00    -0.359 N 
HETATM   27  C16 UNL     1      -8.024   1.081   0.862  1.00  0.00     0.151 C 
HETATM   28  C17 UNL     1      -9.038  -0.852  -0.349  1.00  0.00     0.151 C 
ENDBRANCH  24  26
ENDBRANCH  21  24
ENDBRANCH  20  21
ENDBRANCH  19  20
ENDBRANCH  17  18
ENDBRANCH  15  16
ENDBRANCH  10  15
ENDBRANCH   6   7
ENDBRANCH   5   6
ENDBRANCH   4   5
ENDBRANCH   3   4
TORSDOF 11
