REMARK  6 active torsions:
REMARK  status: ('A' for Active; 'I' for Inactive)
REMARK    1  A    between atoms: N1_2  and  C4_5 
REMARK    2  A    between atoms: C4_5  and  C5_6 
REMARK    3  A    between atoms: C9_10  and  C10_11 
REMARK    4  A    between atoms: N3_14  and  C11_15 
REMARK    5  A    between atoms: C11_15  and  C12_16 
REMARK    6  A    between atoms: C12_16  and  N4_17 
ROOT
HETATM    1  C5  UNL     1       2.693  -0.226   0.239  1.00  0.00     0.024 C 
HETATM    2  C6  UNL     1       2.560  -0.447   1.679  1.00  0.00     0.016 C 
HETATM    3  C7  UNL     1       1.240  -1.231   1.775  1.00  0.00     0.037 C 
HETATM    4  C8  UNL     1       0.747  -1.390   0.352  1.00  0.00     0.236 C 
HETATM    5  C9  UNL     1       2.109  -1.519  -0.357  1.00  0.00     0.120 C 
HETATM    6  N3  UNL     1       0.368  -0.146  -0.216  1.00  0.00     0.096 N 
HETATM    7  C20 UNL     1       1.507   0.706  -0.119  1.00  0.00     0.285 C 
ENDROOT
BRANCH   6   8
HETATM    8  C11 UNL     1      -0.888   0.384   0.141  1.00  0.00     0.301 C 
BRANCH   8   9
HETATM    9  C12 UNL     1      -1.948  -0.497  -0.457  1.00  0.00     0.279 C 
BRANCH   9  10
HETATM   10  N4  UNL     1      -3.291  -0.119  -0.202  1.00  0.00     0.015 N 
HETATM   11  C13 UNL     1      -3.572   0.342   1.123  1.00  0.00     0.250 C 
HETATM   12  C14 UNL     1      -4.975   0.845   1.227  1.00  0.00     0.035 C 
HETATM   13  C15 UNL     1      -5.971   0.126   0.382  1.00  0.00     0.007 C 
HETATM   14  C16 UNL     1      -5.474  -1.258   0.055  1.00  0.00     0.035 C 
HETATM   15  C18 UNL     1      -6.264   0.842  -0.933  1.00  0.00     0.129 C 
HETATM   16  C17 UNL     1      -4.116  -1.287  -0.547  1.00  0.00     0.250 C 
HETATM   17  N5  UNL     1      -4.988   1.400  -1.373  1.00  0.00    -0.336 N 
HETATM   18  C19 UNL     1      -3.668   0.921  -1.105  1.00  0.00     0.415 C 
ATOM     19  H5  UNL     1      -5.046   2.241  -1.946  1.00  0.00     0.164 HD
HETATM   20  O2  UNL     1      -2.785   1.517  -1.765  1.00  0.00    -0.239 OA
ENDBRANCH   9  10
ENDBRANCH   8   9
ENDBRANCH   6   8
BRANCH   5  21
HETATM   21  C10 UNL     1       2.808  -2.727  -0.059  1.00  0.00     0.238 C 
HETATM   22  N2  UNL     1       2.335  -3.959  -0.592  1.00  0.00    -0.062 NA
HETATM   23  O1  UNL     1       3.847  -2.831   0.657  1.00  0.00    -0.276 OA
ENDBRANCH   5  21
BRANCH   1  24
HETATM   24  C4  UNL     1       3.932   0.153  -0.404  1.00  0.00     0.248 C 
BRANCH  24  25
HETATM   25  N1  UNL     1       4.661   1.305  -0.138  1.00  0.00    -0.078 N 
HETATM   26  C1  UNL     1       6.018   1.038   0.385  1.00  0.00     0.271 C 
HETATM   27  C2  UNL     1       4.088   2.328   0.691  1.00  0.00     0.271 C 
HETATM   28  C3  UNL     1       4.937   1.981  -1.424  1.00  0.00     0.271 C 
ENDBRANCH  24  25
ENDBRANCH   1  24
TORSDOF 6
