REMARK  7 active torsions:
REMARK  status: ('A' for Active; 'I' for Inactive)
REMARK    1  A    between atoms: C3_3  and  N1_4 
REMARK    2  A    between atoms: N1_4  and  C4_5 
REMARK    3  A    between atoms: C4_5  and  C5_6 
REMARK    4  A    between atoms: C5_6  and  C6_7 
REMARK       I    between atoms: C6_7  and  N2_9 
REMARK    5  A    between atoms: C8_14  and  C9_15 
REMARK    6  A    between atoms: C9_15  and  C10_16 
REMARK    7  A    between atoms: C12_18  and  N4_19 
ROOT
HETATM    1  C1  UNL     1       3.891   2.788   0.490  1.00  0.00     0.098 C 
HETATM    2  C2  UNL     1       3.331   1.713   0.693  1.00  0.00    -0.158 C 
HETATM    3  C3  UNL     1       2.637   0.450   0.956  1.00  0.00     0.339 C 
ENDROOT
BRANCH   3   4
HETATM    4  N1  UNL     1       3.313  -0.645   0.337  1.00  0.00     0.020 N 
HETATM    5  C18 UNL     1       4.189  -0.212  -0.693  1.00  0.00     0.262 C 
HETATM    6  C19 UNL     1       5.607  -0.163  -0.190  1.00  0.00     0.048 C 
HETATM    7  C20 UNL     1       5.405  -0.420   1.277  1.00  0.00     0.144 C 
HETATM    8  N5  UNL     1       4.165  -1.151   1.381  1.00  0.00    -0.046 NA
BRANCH   4   9
HETATM    9  C4  UNL     1       2.527  -1.765  -0.051  1.00  0.00     0.271 C 
BRANCH   9  10
HETATM   10  C5  UNL     1       1.068  -1.648  -0.226  1.00  0.00     0.133 C 
BRANCH  10  11
HETATM   11  C6  UNL     1       0.584  -0.779  -1.310  1.00  0.00     0.235 C 
HETATM   12  O1  UNL     1       1.505  -0.414  -2.132  1.00  0.00    -0.272 OA
HETATM   13  N2  UNL     1      -0.719  -0.326  -1.538  1.00  0.00    -0.213 N 
HETATM   14  C7  UNL     1      -0.924   0.559  -2.704  1.00  0.00     0.331 C 
HETATM   15  C12 UNL     1      -2.022  -0.390  -1.037  1.00  0.00     0.220 C 
HETATM   16  O2  UNL     1      -0.240   0.670  -3.743  1.00  0.00    -0.246 OA
HETATM   17  N3  UNL     1      -2.104   1.337  -2.468  1.00  0.00    -0.331 N 
HETATM   18  C8  UNL     1      -2.362   1.110  -1.028  1.00  0.00     0.163 C 
ATOM     19  H3  UNL     1      -2.634   1.906  -3.128  1.00  0.00     0.165 HD
BRANCH  18  20
HETATM   20  C9  UNL     1      -1.323   1.936  -0.333  1.00  0.00     0.033 C 
BRANCH  20  21
HETATM   21  C10 UNL     1      -1.440   3.411  -0.681  1.00  0.00    -0.002 C 
HETATM   22  C11 UNL     1      -2.776   3.982  -0.294  1.00  0.00     0.005 C 
ENDBRANCH  20  21
ENDBRANCH  18  20
BRANCH  15  23
HETATM   23  N4  UNL     1      -2.571  -1.093   0.003  1.00  0.00    -0.027 N 
HETATM   24  C13 UNL     1      -4.067  -0.815  -0.159  1.00  0.00     0.281 C 
HETATM   25  C14 UNL     1      -2.373  -0.762   1.359  1.00  0.00     0.245 C 
HETATM   26  C15 UNL     1      -3.188  -1.826   2.090  1.00  0.00     0.030 C 
HETATM   27  C16 UNL     1      -3.209  -3.028   1.211  1.00  0.00     0.030 C 
HETATM   28  C17 UNL     1      -2.540  -2.508  -0.068  1.00  0.00     0.245 C 
ENDBRANCH  15  23
ENDBRANCH  10  11
ENDBRANCH   9  10
ENDBRANCH   4   9
ENDBRANCH   3   4
TORSDOF 7
