REMARK  14 active torsions:
REMARK  status: ('A' for Active; 'I' for Inactive)
REMARK    1  A    between atoms: C2_2  and  C5_5 
REMARK    2  A    between atoms: C5_5  and  C6_6 
REMARK    3  A    between atoms: C5_5  and  N3_18 
REMARK    4  A    between atoms: C6_6  and  N1_7 
REMARK    5  A    between atoms: N1_7  and  S1_9 
REMARK    6  A    between atoms: S1_9  and  N2_12 
REMARK       I    between atoms: N3_18  and  C11_20 
REMARK       I    between atoms: C11_20  and  N4_22 
REMARK    7  A    between atoms: C15_26  and  N5_27 
REMARK    8  A    between atoms: C15_26  and  C16_31 
REMARK    9  A    between atoms: N5_27  and  O5_29 
REMARK   10  A    between atoms: C16_31  and  O6_32 
REMARK   11  A    between atoms: C16_31  and  N6_34 
REMARK       I    between atoms: N7_37  and  C19_38 
REMARK   12  A    between atoms: C19_38  and  O8_40 
REMARK   13  A    between atoms: O8_40  and  C20_41 
REMARK   14  A    between atoms: C26_47  and  C27_48 
ROOT
HETATM    1  N3  UNL     1       3.603   0.065   0.116  1.00  0.00    -0.336 N 
ATOM      2  H3  UNL     1       3.503   0.967  -0.349  1.00  0.00     0.164 HD
HETATM    3  C11 UNL     1       2.491  -0.544   0.723  1.00  0.00     0.318 C 
HETATM    4  O4  UNL     1       2.646  -1.680   1.296  1.00  0.00    -0.247 OA
HETATM    5  N4  UNL     1       1.223   0.047   0.724  1.00  0.00    -0.331 N 
HETATM    6  C12 UNL     1       0.998   1.321   0.096  1.00  0.00     0.128 C 
HETATM    7  C13 UNL     1      -0.498   1.422  -0.179  1.00  0.00     0.023 C 
HETATM    8  C14 UNL     1      -1.164   1.503   1.203  1.00  0.00     0.045 C 
HETATM    9  C15 UNL     1      -0.789   0.355   2.061  1.00  0.00     0.132 C 
HETATM   10  C29 UNL     1       0.121  -0.636   1.383  1.00  0.00     0.169 C 
ENDROOT
BRANCH   9  11
HETATM   11  N5  UNL     1       0.051   0.931   3.139  1.00  0.00    -0.285 N 
ATOM     12  H5  UNL     1      -0.048   1.911   3.404  1.00  0.00     0.188 HD
BRANCH  11  13
HETATM   13  O5  UNL     1       0.844   0.232   3.692  1.00  0.00    -0.293 OA
ATOM     14  H5  UNL     1       1.382   0.601   4.383  1.00  0.00     0.244 HD
ENDBRANCH  11  13
ENDBRANCH   9  11
BRANCH   9  15
HETATM   15  C16 UNL     1      -1.937  -0.334   2.661  1.00  0.00     0.146 C 
BRANCH  15  16
HETATM   16  O6  UNL     1      -1.990  -0.353   3.983  1.00  0.00    -0.347 OA
ATOM     17  H6  UNL     1      -2.733  -0.799   4.371  1.00  0.00     0.219 HD
ENDBRANCH  15  16
BRANCH  15  18
HETATM   18  N6  UNL     1      -3.011  -0.989   2.071  1.00  0.00    -0.359 N 
HETATM   19  C17 UNL     1      -3.229  -1.146   0.678  1.00  0.00     0.145 C 
HETATM   20  C18 UNL     1      -4.619  -1.734   0.351  1.00  0.00     0.149 C 
HETATM   21  N7  UNL     1      -5.619  -1.129   1.157  1.00  0.00    -0.310 N 
HETATM   22  C19 UNL     1      -6.838  -0.583   0.671  1.00  0.00     0.364 C 
HETATM   23  C26 UNL     1      -5.398  -1.075   2.592  1.00  0.00     0.208 C 
HETATM   24  O7  UNL     1      -7.679  -0.043   1.468  1.00  0.00    -0.238 OA
HETATM   25  C28 UNL     1      -4.038  -1.576   2.960  1.00  0.00     0.161 C 
BRANCH  22  26
HETATM   26  O8  UNL     1      -7.218  -0.584  -0.658  1.00  0.00    -0.298 OA
BRANCH  26  27
HETATM   27  C20 UNL     1      -8.435  -0.040  -1.104  1.00  0.00     0.133 C 
HETATM   28  C21 UNL     1      -9.368  -1.075  -1.681  1.00  0.00     0.032 C 
HETATM   29  C22 UNL     1     -10.751  -0.459  -1.718  1.00  0.00     0.002 C 
HETATM   30  C23 UNL     1     -10.810   0.873  -2.382  1.00  0.00     0.000 C 
HETATM   31  C24 UNL     1      -9.632   1.760  -2.178  1.00  0.00     0.002 C 
HETATM   32  C25 UNL     1      -8.309   1.065  -2.103  1.00  0.00     0.032 C 
ENDBRANCH  26  27
ENDBRANCH  22  26
BRANCH  23  33
HETATM   33  C27 UNL     1      -6.390  -2.012   3.214  1.00  0.00     0.198 C 
HETATM   34  O9  UNL     1      -7.209  -2.682   2.528  1.00  0.00    -0.646 OA
HETATM   35  O10 UNL     1      -6.386  -2.125   4.587  1.00  0.00    -0.646 OA
ENDBRANCH  23  33
ENDBRANCH  15  18
ENDBRANCH   9  15
BRANCH   1  36
HETATM   36  C5  UNL     1       4.882  -0.590   0.154  1.00  0.00     0.112 C 
BRANCH  36  37
HETATM   37  C2  UNL     1       5.804   0.222   1.037  1.00  0.00    -0.029 C 
HETATM   38  C1  UNL     1       6.059   1.596   0.488  1.00  0.00     0.016 C 
HETATM   39  C3  UNL     1       5.094   0.403   2.370  1.00  0.00     0.016 C 
HETATM   40  C4  UNL     1       7.101  -0.514   1.309  1.00  0.00     0.016 C 
ENDBRANCH  36  37
BRANCH  36  41
HETATM   41  C6  UNL     1       5.397  -0.802  -1.232  1.00  0.00     0.159 C 
BRANCH  41  42
HETATM   42  N1  UNL     1       5.616   0.409  -1.969  1.00  0.00    -0.305 N 
ATOM     43  H1  UNL     1       5.439   1.344  -1.603  1.00  0.00     0.173 HD
BRANCH  42  44
HETATM   44  S1  UNL     1       6.216   0.083  -3.551  1.00  0.00     0.299 S 
HETATM   45  O1  UNL     1       5.456   0.863  -4.595  1.00  0.00    -0.188 OA
HETATM   46  O2  UNL     1       5.947  -1.375  -3.865  1.00  0.00    -0.188 OA
BRANCH  44  47
HETATM   47  N2  UNL     1       7.901   0.326  -3.670  1.00  0.00    -0.189 NA
HETATM   48  C7  UNL     1       8.254   1.663  -3.392  1.00  0.00     0.135 C 
HETATM   49  C8  UNL     1       9.431   1.860  -2.480  1.00  0.00     0.183 C 
HETATM   50  O3  UNL     1      10.337   0.802  -2.551  1.00  0.00    -0.389 OA
HETATM   51  C9  UNL     1       9.667  -0.313  -2.062  1.00  0.00     0.183 C 
HETATM   52  C10 UNL     1       8.642  -0.722  -3.099  1.00  0.00     0.135 C 
ENDBRANCH  44  47
ENDBRANCH  42  44
ENDBRANCH  41  42
ENDBRANCH  36  41
ENDBRANCH   1  36
TORSDOF 14
