REMARK  12 active torsions:
REMARK  status: ('A' for Active; 'I' for Inactive)
REMARK    1  A    between atoms: C2_2  and  N1_5 
REMARK    2  A    between atoms: N1_5  and  C5_7 
REMARK    3  A    between atoms: C5_7  and  C6_8 
REMARK    4  A    between atoms: C5_7  and  C25_48 
REMARK       I    between atoms: C6_8  and  N2_10 
REMARK    5  A    between atoms: N3_12  and  S1_13 
REMARK    6  A    between atoms: S1_13  and  C8_16 
REMARK    7  A    between atoms: C9_20  and  C10_21 
REMARK       I    between atoms: C10_21  and  N5_23 
REMARK    8  A    between atoms: N5_23  and  C11_25 
REMARK    9  A    between atoms: C11_25  and  C12_26 
REMARK       I    between atoms: C12_26  and  N6_28 
REMARK   10  A    between atoms: N6_28  and  S2_30 
REMARK   11  A    between atoms: S2_30  and  C13_33 
REMARK   12  A    between atoms: C19_39  and  C20_40 
REMARK       I    between atoms: C20_40  and  N7_42 
ROOT
HETATM    1  C6  UNL     1      -3.041   0.274   0.155  1.00  0.00     0.245 C 
HETATM    2  O1  UNL     1      -3.871  -0.670   0.078  1.00  0.00    -0.271 OA
HETATM    3  N2  UNL     1      -1.641   0.079   0.046  1.00  0.00    -0.318 N 
HETATM    4  C7  UNL     1      -0.663   1.139   0.059  1.00  0.00     0.241 C 
HETATM    5  N3  UNL     1       0.633   0.476   0.176  1.00  0.00    -0.150 NA
HETATM    6  C9  UNL     1       0.365  -0.673  -0.616  1.00  0.00     0.104 C 
HETATM    7  C19 UNL     1      -0.897  -1.206  -0.069  1.00  0.00     0.231 C 
ENDROOT
BRANCH   6   8
HETATM    8  C10 UNL     1       1.456  -1.497  -1.038  1.00  0.00     0.263 C 
HETATM    9  O4  UNL     1       1.412  -2.685  -1.412  1.00  0.00    -0.267 OA
HETATM   10  N5  UNL     1       2.782  -0.914  -1.048  1.00  0.00    -0.338 N 
ATOM     11  H5  UNL     1       2.863   0.060  -0.756  1.00  0.00     0.164 HD
BRANCH  10  12
HETATM   12  C11 UNL     1       3.976  -1.575  -1.427  1.00  0.00     0.115 A 
HETATM   13  C17 UNL     1       3.886  -2.394  -2.728  1.00  0.00     0.044 A 
HETATM   14  C18 UNL     1       4.160  -3.047  -1.428  1.00  0.00     0.044 A 
BRANCH  12  15
HETATM   15  C12 UNL     1       5.238  -0.763  -1.299  1.00  0.00     0.259 C 
HETATM   16  O5  UNL     1       6.332  -1.311  -1.634  1.00  0.00    -0.270 OA
HETATM   17  N6  UNL     1       5.239   0.538  -0.833  1.00  0.00    -0.252 N 
ATOM     18  H6  UNL     1       4.370   0.996  -0.557  1.00  0.00     0.181 HD
BRANCH  17  19
HETATM   19  S2  UNL     1       6.764   1.376  -0.729  1.00  0.00     0.240 S 
HETATM   20  O6  UNL     1       7.856   0.569  -1.344  1.00  0.00    -0.205 OA
HETATM   21  O7  UNL     1       6.660   2.710  -1.405  1.00  0.00    -0.205 OA
BRANCH  19  22
HETATM   22  C13 UNL     1       7.183   1.672   0.979  1.00  0.00     0.072 C 
HETATM   23  C14 UNL     1       7.303   0.386   1.745  1.00  0.00     0.033 C 
HETATM   24  C15 UNL     1       6.146   2.543   1.648  1.00  0.00     0.033 C 
HETATM   25  C16 UNL     1       8.518   2.377   1.016  1.00  0.00     0.033 C 
ENDBRANCH  19  22
ENDBRANCH  17  19
ENDBRANCH  12  15
ENDBRANCH  10  12
ENDBRANCH   6   8
BRANCH   5  26
HETATM   26  S1  UNL     1       1.058   0.327   1.783  1.00  0.00     0.253 S 
HETATM   27  O2  UNL     1       0.112  -0.437   2.667  1.00  0.00    -0.205 OA
HETATM   28  O3  UNL     1       2.389  -0.348   1.934  1.00  0.00    -0.205 OA
BRANCH  26  29
HETATM   29  C8  UNL     1       1.229   1.900   2.569  1.00  0.00     0.208 C 
HETATM   30  N4  UNL     1       1.517   1.920   3.801  1.00  0.00    -0.398 N 
ATOM     31  H42 UNL     1       1.643   1.045   4.310  1.00  0.00     0.156 HD
ATOM     32  H41 UNL     1       1.616   2.828   4.255  1.00  0.00     0.156 HD
ENDBRANCH  26  29
ENDBRANCH   5  26
BRANCH   7  33
HETATM   33  C20 UNL     1      -1.606  -2.139  -0.976  1.00  0.00     0.248 C 
HETATM   34  O8  UNL     1      -2.154  -1.654  -1.995  1.00  0.00    -0.271 OA
HETATM   35  N7  UNL     1      -1.727  -3.537  -0.800  1.00  0.00    -0.346 N 
HETATM   36  C21 UNL     1      -1.214  -4.310   0.309  1.00  0.00     0.152 C 
HETATM   37  C24 UNL     1      -2.431  -4.374  -1.790  1.00  0.00     0.152 C 
HETATM   38  C22 UNL     1      -2.349  -4.918   1.104  1.00  0.00     0.187 C 
HETATM   39  O9  UNL     1      -3.291  -5.406   0.204  1.00  0.00    -0.388 OA
HETATM   40  C23 UNL     1      -2.770  -5.658  -1.055  1.00  0.00     0.187 C 
ENDBRANCH   7  33
BRANCH   1  41
HETATM   41  C5  UNL     1      -3.627   1.614   0.370  1.00  0.00     0.177 C 
BRANCH  41  42
HETATM   42  N1  UNL     1      -4.799   1.926  -0.343  1.00  0.00    -0.401 N 
ATOM     43  H1  UNL     1      -5.651   2.087   0.194  1.00  0.00     0.154 HD
BRANCH  42  44
HETATM   44  C2  UNL     1      -4.877   2.030  -1.714  1.00  0.00     0.015 C 
HETATM   45  C1  UNL     1      -3.964   3.164  -2.228  1.00  0.00     0.037 C 
HETATM   46  C3  UNL     1      -6.295   2.569  -2.040  1.00  0.00     0.037 C 
HETATM   47  C4  UNL     1      -4.680   0.881  -2.612  1.00  0.00     0.037 C 
ENDBRANCH  42  44
ENDBRANCH  41  42
BRANCH  41  48
HETATM   48  C25 UNL     1      -4.070   1.745   1.851  1.00  0.00    -0.022 C 
HETATM   49  C26 UNL     1      -5.204   0.783   2.130  1.00  0.00     0.017 C 
HETATM   50  C27 UNL     1      -2.995   1.441   2.825  1.00  0.00     0.017 C 
HETATM   51  C28 UNL     1      -4.531   3.161   2.065  1.00  0.00     0.017 C 
ENDBRANCH  41  48
ENDBRANCH   1  41
TORSDOF 12
