REMARK  14 active torsions:
REMARK  status: ('A' for Active; 'I' for Inactive)
REMARK    1  A    between atoms: C3_5  and  O2_6 
REMARK    2  A    between atoms: O2_6  and  C4_7 
REMARK    3  A    between atoms: C4_7  and  N2_8 
REMARK    4  A    between atoms: C4_7  and  C24_40 
REMARK       I    between atoms: N2_8  and  C5_10 
REMARK    5  A    between atoms: C5_10  and  C6_12 
REMARK       I    between atoms: C6_12  and  N3_14 
REMARK    6  A    between atoms: N3_14  and  C7_16 
REMARK    7  A    between atoms: C7_16  and  C8_17 
REMARK    8  A    between atoms: C7_16  and  C20_36 
REMARK       I    between atoms: C8_17  and  N4_19 
REMARK    9  A    between atoms: N4_19  and  C9_21 
REMARK   10  A    between atoms: C9_21  and  C10_22 
REMARK   11  A    between atoms: C9_21  and  C16_32 
REMARK   12  A    between atoms: C10_22  and  C11_24 
REMARK   13  A    between atoms: C11_24  and  S1_25 
REMARK   14  A    between atoms: S1_25  and  C12_28 
ROOT
HETATM    1  C6  UNL     1      -1.565  -0.718   0.645  1.00  0.00     0.310 C 
HETATM    2  O4  UNL     1      -1.550  -0.845  -0.601  1.00  0.00    -0.262 OA
HETATM    3  N3  UNL     1      -0.434  -0.936   1.467  1.00  0.00    -0.339 N 
ATOM      4  H3  UNL     1      -0.542  -0.783   2.470  1.00  0.00     0.163 HD
ENDROOT
BRANCH   3   5
HETATM    5  C7  UNL     1       0.879  -1.365   0.983  1.00  0.00     0.184 C 
BRANCH   5   6
HETATM    6  C8  UNL     1       1.583  -0.253   0.301  1.00  0.00     0.241 C 
HETATM    7  O5  UNL     1       1.152   0.902   0.518  1.00  0.00    -0.271 OA
HETATM    8  N4  UNL     1       2.678  -0.382  -0.576  1.00  0.00    -0.347 N 
ATOM      9  H4  UNL     1       3.039  -1.323  -0.732  1.00  0.00     0.163 HD
BRANCH   8  10
HETATM   10  C9  UNL     1       3.344   0.713  -1.283  1.00  0.00     0.162 C 
BRANCH  10  11
HETATM   11  C10 UNL     1       4.795   0.501  -1.141  1.00  0.00     0.164 C 
HETATM   12  O6  UNL     1       5.191  -0.458  -0.411  1.00  0.00    -0.295 OA
BRANCH  11  13
HETATM   13  C11 UNL     1       5.911   1.257  -1.738  1.00  0.00     0.221 C 
BRANCH  13  14
HETATM   14  S1  UNL     1       7.492   0.706  -1.094  1.00  0.00     0.158 S 
HETATM   15  O7  UNL     1       7.545   0.927   0.390  1.00  0.00    -0.227 OA
HETATM   16  O8  UNL     1       7.609  -0.783  -1.296  1.00  0.00    -0.227 OA
BRANCH  14  17
HETATM   17  C12 UNL     1       8.813   1.579  -1.849  1.00  0.00     0.053 C 
HETATM   18  C13 UNL     1       8.848   1.374  -3.353  1.00  0.00     0.031 C 
HETATM   19  C14 UNL     1      10.159   1.203  -1.323  1.00  0.00     0.031 C 
HETATM   20  C15 UNL     1       8.631   3.067  -1.636  1.00  0.00     0.031 C 
ENDBRANCH  14  17
ENDBRANCH  13  14
ENDBRANCH  11  13
ENDBRANCH  10  11
BRANCH  10  21
HETATM   21  C16 UNL     1       2.990   0.655  -2.749  1.00  0.00    -0.024 C 
HETATM   22  C17 UNL     1       3.552   1.758  -3.589  1.00  0.00     0.017 C 
HETATM   23  C18 UNL     1       1.480   0.704  -2.844  1.00  0.00     0.017 C 
HETATM   24  C19 UNL     1       3.425  -0.640  -3.395  1.00  0.00     0.017 C 
ENDBRANCH  10  21
ENDBRANCH   8  10
ENDBRANCH   5   6
BRANCH   5  25
HETATM   25  C20 UNL     1       1.604  -2.087   2.045  1.00  0.00    -0.022 C 
HETATM   26  C21 UNL     1       0.724  -3.311   2.388  1.00  0.00     0.017 C 
HETATM   27  C22 UNL     1       1.795  -1.269   3.309  1.00  0.00     0.017 C 
HETATM   28  C23 UNL     1       2.948  -2.655   1.700  1.00  0.00     0.017 C 
ENDBRANCH   5  25
ENDBRANCH   3   5
BRANCH   1  29
HETATM   29  C5  UNL     1      -2.838  -0.321   1.229  1.00  0.00     0.311 C 
HETATM   30  N2  UNL     1      -3.965   0.120   0.500  1.00  0.00    -0.326 N 
ATOM     31  H2  UNL     1      -3.900   0.180  -0.516  1.00  0.00     0.165 HD
HETATM   32  O3  UNL     1      -2.941  -0.372   2.504  1.00  0.00    -0.262 OA
BRANCH  30  33
HETATM   33  C4  UNL     1      -5.245   0.501   1.162  1.00  0.00     0.233 C 
BRANCH  33  34
HETATM   34  O2  UNL     1      -6.295  -0.067   0.510  1.00  0.00    -0.336 OA
BRANCH  34  35
HETATM   35  C3  UNL     1      -6.907  -1.176   0.984  1.00  0.00     0.308 C 
HETATM   36  C2  UNL     1      -8.373  -0.984   1.230  1.00  0.00     0.278 C 
HETATM   37  N1  UNL     1      -8.986  -2.259   1.383  1.00  0.00    -0.234 N 
HETATM   38  O1  UNL     1      -9.044   0.081   1.306  1.00  0.00    -0.268 OA
HETATM   39  C1  UNL     1     -10.127  -2.642   2.152  1.00  0.00     0.174 C 
HETATM   40  S2  UNL     1      -8.028  -3.306   0.401  1.00  0.00     0.309 S 
HETATM   41  N5  UNL     1      -6.901  -2.104  -0.198  1.00  0.00    -0.160 NA
HETATM   42  O9  UNL     1      -7.320  -4.361   1.161  1.00  0.00    -0.188 OA
HETATM   43  O10 UNL     1      -8.799  -3.839  -0.775  1.00  0.00    -0.188 OA
HETATM   44  C28 UNL     1      -7.689  -1.326  -1.189  1.00  0.00     0.134 C 
ENDBRANCH  34  35
ENDBRANCH  33  34
BRANCH  33  45
HETATM   45  C24 UNL     1      -5.362   1.965   1.380  1.00  0.00    -0.007 C 
HETATM   46  C25 UNL     1      -5.498   2.765   0.106  1.00  0.00     0.019 C 
HETATM   47  C26 UNL     1      -6.461   2.280   2.331  1.00  0.00     0.019 C 
HETATM   48  C27 UNL     1      -4.072   2.481   2.032  1.00  0.00     0.019 C 
ENDBRANCH  33  45
ENDBRANCH  30  33
ENDBRANCH   1  29
TORSDOF 14
