REMARK  17 active torsions:
REMARK  status: ('A' for Active; 'I' for Inactive)
REMARK    1  A    between atoms: N2_7  and  C4_9 
REMARK    2  A    between atoms: C4_9  and  C5_10 
REMARK    3  A    between atoms: C4_9  and  C18_31 
REMARK    4  A    between atoms: C5_10  and  C6_11 
REMARK    5  A    between atoms: C6_11  and  C7_12 
REMARK    6  A    between atoms: C7_12  and  N3_13 
REMARK       I    between atoms: C8_15  and  N5_17 
REMARK    7  A    between atoms: N5_17  and  C9_19 
REMARK    8  A    between atoms: C9_19  and  C12_22 
REMARK    9  A    between atoms: C12_22  and  O2_23 
REMARK   10  A    between atoms: C12_22  and  N6_25 
REMARK   11  A    between atoms: N6_25  and  C14_27 
REMARK   12  A    between atoms: C14_27  and  C15_28 
REMARK       I    between atoms: C18_31  and  N7_33 
REMARK   13  A    between atoms: N7_33  and  C19_34 
REMARK   14  A    between atoms: C19_34  and  C20_35 
REMARK   15  A    between atoms: C19_34  and  C24_39 
REMARK   16  A    between atoms: C20_35  and  C21_36 
REMARK   17  A    between atoms: C24_39  and  O4_40 
ROOT
HETATM    1  C4  UNL     1      -3.233   0.467  -0.160  1.00  0.00     0.190 C 
ENDROOT
BRANCH   1   2
HETATM    2  N2  UNL     1      -3.239   1.705  -0.701  1.00  0.00    -0.360 N 
HETATM    3  C3  UNL     1      -2.903   2.896  -0.694  1.00  0.00     0.130 A 
HETATM    4  N1  UNL     1      -3.270   3.809  -1.679  1.00  0.00    -0.245 N 
HETATM    5  C25 UNL     1      -2.182   3.601   0.240  1.00  0.00     0.015 A 
HETATM    6  O1  UNL     1      -2.794   4.943  -1.338  1.00  0.00    -0.240 OA
ATOM      7  H1  UNL     1      -3.817   3.609  -2.516  1.00  0.00     0.196 HD
HETATM    8  C2  UNL     1      -2.137   4.912  -0.216  1.00  0.00     0.082 A 
HETATM    9  C1  UNL     1      -1.475   6.104   0.410  1.00  0.00     0.079 C 
HETATM   10  C26 UNL     1      -1.578   3.195   1.534  1.00  0.00     0.055 C 
ATOM     11  H2  UNL     1      -3.810   1.610  -1.541  1.00  0.00     0.162 HD
ENDBRANCH   1   2
BRANCH   1  12
HETATM   12  C5  UNL     1      -2.592  -0.536  -1.093  1.00  0.00     0.037 C 
BRANCH  12  13
HETATM   13  C6  UNL     1      -1.201  -0.332  -1.502  1.00  0.00     0.022 C 
BRANCH  13  14
HETATM   14  C7  UNL     1      -0.241  -0.371  -0.307  1.00  0.00     0.122 C 
BRANCH  14  15
HETATM   15  N3  UNL     1       1.094  -0.220  -0.826  1.00  0.00    -0.365 N 
HETATM   16  C8  UNL     1       1.902   0.740  -0.604  1.00  0.00     0.185 C 
HETATM   17  N4  UNL     1       1.573   1.835   0.229  1.00  0.00    -0.064 NA
HETATM   18  N5  UNL     1       3.174   0.788  -1.245  1.00  0.00    -0.349 N 
ATOM     19  H5  UNL     1       3.201   1.268  -2.145  1.00  0.00     0.163 HD
ATOM     20  H3  UNL     1       1.430  -0.963  -1.439  1.00  0.00     0.162 HD
BRANCH  18  21
HETATM   21  C9  UNL     1       4.426   0.246  -0.786  1.00  0.00     0.090 C 
HETATM   22  C10 UNL     1       4.140  -1.170  -0.220  1.00  0.00     0.047 C 
HETATM   23  C11 UNL     1       5.259   0.007  -2.055  1.00  0.00     0.047 C 
BRANCH  21  24
HETATM   24  C12 UNL     1       5.109   1.014   0.245  1.00  0.00     0.141 C 
BRANCH  24  25
HETATM   25  O2  UNL     1       4.324   1.766   1.002  1.00  0.00    -0.348 OA
ATOM     26  H2  UNL     1       4.770   2.267   1.675  1.00  0.00     0.219 HD
ENDBRANCH  24  25
BRANCH  24  27
HETATM   27  N6  UNL     1       6.463   1.123   0.602  1.00  0.00    -0.367 N 
HETATM   28  C13 UNL     1       6.727   2.001   1.773  1.00  0.00     0.151 C 
BRANCH  27  29
HETATM   29  C14 UNL     1       7.621   0.545  -0.016  1.00  0.00     0.128 C 
BRANCH  29  30
HETATM   30  C15 UNL     1       8.049  -0.799   0.485  1.00  0.00    -0.005 C 
HETATM   31  C16 UNL     1       8.413  -0.770   1.967  1.00  0.00     0.011 C 
HETATM   32  C17 UNL     1       9.320  -1.199  -0.276  1.00  0.00     0.011 C 
ENDBRANCH  29  30
ENDBRANCH  27  29
ENDBRANCH  24  27
ENDBRANCH  21  24
ENDBRANCH  18  21
ENDBRANCH  14  15
ENDBRANCH  13  14
ENDBRANCH  12  13
ENDBRANCH   1  12
BRANCH   1  33
HETATM   33  C18 UNL     1      -4.703  -0.082  -0.087  1.00  0.00     0.314 C 
HETATM   34  O3  UNL     1      -5.496   0.733  -0.640  1.00  0.00    -0.255 OA
HETATM   35  N7  UNL     1      -5.005  -1.245   0.494  1.00  0.00    -0.374 NA
BRANCH  35  36
HETATM   36  C19 UNL     1      -5.324  -2.460   1.100  1.00  0.00     0.110 C 
BRANCH  36  37
HETATM   37  C20 UNL     1      -6.702  -2.715   1.615  1.00  0.00     0.076 C 
BRANCH  37  38
HETATM   38  C21 UNL     1      -7.853  -2.633   0.676  1.00  0.00    -0.016 C 
HETATM   39  C22 UNL     1      -7.853  -3.544  -0.498  1.00  0.00     0.010 C 
HETATM   40  C23 UNL     1      -9.077  -3.108   1.533  1.00  0.00     0.010 C 
ENDBRANCH  37  38
ENDBRANCH  36  37
BRANCH  36  41
HETATM   41  C24 UNL     1      -4.570  -3.646   0.601  1.00  0.00     0.274 C 
HETATM   42 CL1  UNL     1      -4.926  -5.132   1.485  1.00  0.00    -0.088 Cl
BRANCH  41  43
HETATM   43  O4  UNL     1      -4.741  -3.881  -0.755  1.00  0.00    -0.374 OA
ATOM     44  H4  UNL     1      -4.261  -4.636  -1.073  1.00  0.00     0.212 HD
ENDBRANCH  41  43
ENDBRANCH  36  41
ENDBRANCH  35  36
ENDBRANCH   1  33
TORSDOF 17
