REMARK  5 active torsions:
REMARK  status: ('A' for Active; 'I' for Inactive)
REMARK    1  A    between atoms: C2_2  and  N2_6 
REMARK    2  A    between atoms: N2_6  and  C3_8 
REMARK    3  A    between atoms: C3_8  and  C4_9 
REMARK       I    between atoms: N3_13  and  C7_14 
REMARK    4  A    between atoms: C7_14  and  O3_16 
REMARK    5  A    between atoms: O3_16  and  C8_17 
ROOT
HETATM    1  C4  UNL     1      -2.334  -0.437  -0.639  1.00  0.00     0.026 C 
HETATM    2  C5  UNL     1      -3.013  -1.394   0.284  1.00  0.00     0.036 C 
HETATM    3  C6  UNL     1      -2.373  -1.347   1.665  1.00  0.00     0.202 C 
HETATM    4  O1  UNL     1      -1.078  -1.712   1.579  1.00  0.00    -0.274 OA
HETATM    5  N3  UNL     1      -0.384  -1.145   0.635  1.00  0.00    -0.201 N 
HETATM    6  C7  UNL     1       1.045  -1.019   0.855  1.00  0.00     0.387 C 
HETATM    7  O2  UNL     1       1.508  -1.446   1.930  1.00  0.00    -0.236 OA
HETATM    8  C14 UNL     1      -0.845  -0.646  -0.603  1.00  0.00     0.168 C 
ENDROOT
BRANCH   6   9
HETATM    9  O3  UNL     1       1.911  -0.463  -0.046  1.00  0.00    -0.297 OA
BRANCH   9  10
HETATM   10  C8  UNL     1       3.288  -0.319   0.097  1.00  0.00     0.133 C 
HETATM   11  C9  UNL     1       4.076  -1.011  -0.988  1.00  0.00     0.032 C 
HETATM   12  C10 UNL     1       5.186  -0.198  -1.549  1.00  0.00     0.002 C 
HETATM   13  C11 UNL     1       5.908   0.682  -0.592  1.00  0.00     0.000 C 
HETATM   14  C12 UNL     1       5.072   1.279   0.488  1.00  0.00     0.002 C 
HETATM   15  C13 UNL     1       3.615   1.172   0.079  1.00  0.00     0.032 C 
ENDBRANCH   9  10
ENDBRANCH   6   9
BRANCH   1  16
HETATM   16  C3  UNL     1      -2.698   1.004  -0.475  1.00  0.00     0.127 C 
BRANCH  16  17
HETATM   17  N2  UNL     1      -4.046   1.386  -0.689  1.00  0.00    -0.380 N 
ATOM     18  H2  UNL     1      -4.243   1.942  -1.521  1.00  0.00     0.160 HD
BRANCH  17  19
HETATM   19  C2  UNL     1      -5.137   1.069   0.140  1.00  0.00     0.066 C 
HETATM   20  C1  UNL     1      -6.417   0.505  -0.434  1.00  0.00     0.088 C 
HETATM   21  N1  UNL     1      -5.043   1.290   1.424  1.00  0.00    -0.389 N 
ATOM     22  H12 UNL     1      -5.834   1.060   2.025  1.00  0.00     0.157 HD
ATOM     23  H11 UNL     1      -4.179   1.670   1.811  1.00  0.00     0.157 HD
ENDBRANCH  17  19
ENDBRANCH  16  17
ENDBRANCH   1  16
TORSDOF 5
