REMARK  3 active torsions:
REMARK  status: ('A' for Active; 'I' for Inactive)
REMARK    1  A    between atoms: N1_2  and  C3_4 
REMARK    2  A    between atoms: N4_11  and  N5_12 
REMARK       I    between atoms: N5_12  and  C5_14 
REMARK    3  A    between atoms: C5_14  and  C6_16 
ROOT
HETATM    1  C3  UNL     1      -3.268  -1.006  -0.059  1.00  0.00     0.718 A 
HETATM    2  N2  UNL     1      -4.279  -1.965  -0.237  1.00  0.00    -0.128 N 
ATOM      3  H2  UNL     1      -5.273  -1.772  -0.358  1.00  0.00     0.205 HD
HETATM    4  N3  UNL     1      -3.725  -3.142  -0.221  1.00  0.00    -0.260 N 
ATOM      5  H3  UNL     1      -4.205  -4.036  -0.326  1.00  0.00     0.190 HD
HETATM    6  C4  UNL     1      -2.416  -2.967  -0.042  1.00  0.00     0.230 A 
HETATM    7  S1  UNL     1      -1.350  -4.178   0.039  1.00  0.00    -0.037 SA
HETATM    8  N4  UNL     1      -2.118  -1.621   0.062  1.00  0.00    -0.054 N 
ENDROOT
BRANCH   8   9
HETATM    9  N5  UNL     1      -0.825  -1.190   0.246  1.00  0.00    -0.246 N 
HETATM   10  C5  UNL     1      -0.208   0.040   0.367  1.00  0.00     0.241 C 
HETATM   11  O1  UNL     1      -0.728   1.139   0.334  1.00  0.00    -0.271 OA
ATOM     12  H5  UNL     1      -0.163  -1.964   0.308  1.00  0.00     0.191 HD
BRANCH  10  13
HETATM   13  C6  UNL     1       1.304   0.058   0.568  1.00  0.00     0.079 C 
HETATM   14  C7  UNL     1       1.896  -0.651  -0.631  1.00  0.00     0.014 C 
HETATM   15  C8  UNL     1       3.315  -0.253  -0.894  1.00  0.00     0.001 C 
HETATM   16  C9  UNL     1       4.138  -0.077   0.349  1.00  0.00     0.000 C 
HETATM   17  C10 UNL     1       4.216   1.410   0.658  1.00  0.00     0.000 C 
HETATM   18  C11 UNL     1       2.951   1.762   1.406  1.00  0.00     0.001 C 
HETATM   19  C12 UNL     1       1.747   1.484   0.532  1.00  0.00     0.014 C 
ENDBRANCH  10  13
ENDBRANCH   8   9
BRANCH   1  20
HETATM   20  N1  UNL     1      -3.647   0.346  -0.042  1.00  0.00    -0.223 N 
HETATM   21  C1  UNL     1      -4.018   0.975   1.198  1.00  0.00     0.168 C 
HETATM   22  C2  UNL     1      -3.737   1.086  -1.272  1.00  0.00     0.168 C 
ENDBRANCH   1  20
TORSDOF 3
