REMARK  4 active torsions:
REMARK  status: ('A' for Active; 'I' for Inactive)
REMARK    1  A    between atoms: C3_4  and  S1_5 
REMARK    2  A    between atoms: S1_5  and  C4_6 
REMARK    3  A    between atoms: C10_13  and  S3_14 
REMARK    4  A    between atoms: S3_14  and  N2_15 
ROOT
HETATM    1  N1  UNL     1       2.821  -2.916  -0.286  1.00  0.00    -0.100 NA
HETATM    2  C1  UNL     1       2.438  -1.525  -0.522  1.00  0.00     0.078 A 
HETATM    3  C2  UNL     1       1.173  -1.171  -0.835  1.00  0.00     0.054 A 
HETATM    4  C3  UNL     1       0.927   0.156  -1.035  1.00  0.00     0.044 A 
HETATM    5  S2  UNL     1       2.445   0.878  -0.787  1.00  0.00    -0.068 SA
HETATM    6  C10 UNL     1       3.360  -0.515  -0.435  1.00  0.00     0.145 A 
ENDROOT
BRANCH   4   7
HETATM    7  S1  UNL     1      -0.599   1.002  -1.459  1.00  0.00    -0.118 SA
BRANCH   7   8
HETATM    8  C4  UNL     1      -1.471   1.466   0.068  1.00  0.00     0.053 C 
HETATM    9  C5  UNL     1      -1.887   0.144   0.727  1.00  0.00     0.015 C 
HETATM   10  C6  UNL     1      -2.973  -0.431  -0.171  1.00  0.00     0.001 C 
HETATM   11  C7  UNL     1      -4.193   0.443  -0.133  1.00  0.00     0.000 C 
HETATM   12  C8  UNL     1      -3.880   1.789   0.475  1.00  0.00     0.001 C 
HETATM   13  C9  UNL     1      -2.656   2.326  -0.260  1.00  0.00     0.015 C 
ENDBRANCH   7   8
ENDBRANCH   4   7
BRANCH   6  14
HETATM   14  S3  UNL     1       5.083  -0.657  -0.045  1.00  0.00     0.265 S 
HETATM   15  O1  UNL     1       5.641  -1.965  -0.517  1.00  0.00    -0.200 OA
HETATM   16  O2  UNL     1       5.770   0.520  -0.668  1.00  0.00    -0.200 OA
BRANCH  14  17
HETATM   17  N2  UNL     1       5.202  -0.503   1.675  1.00  0.00    -0.324 N 
ATOM     18  H22 UNL     1       4.426  -0.360   2.322  1.00  0.00     0.169 HD
ATOM     19  H21 UNL     1       6.194  -0.585   1.899  1.00  0.00     0.169 HD
ENDBRANCH  14  17
ENDBRANCH   6  14
TORSDOF 4
