REMARK  12 active torsions:
REMARK  status: ('A' for Active; 'I' for Inactive)
REMARK       I    between atoms: C2_2  and  N1_4 
REMARK    1  A    between atoms: N1_4  and  C3_6 
REMARK    2  A    between atoms: C3_6  and  C4_7 
REMARK    3  A    between atoms: C4_7  and  C5_8 
REMARK    4  A    between atoms: C5_8  and  C6_9 
REMARK    5  A    between atoms: C6_9  and  N2_10 
REMARK    6  A    between atoms: C7_12  and  C8_13 
REMARK    7  A    between atoms: C9_14  and  O2_15 
REMARK    8  A    between atoms: N3_21  and  C13_22 
REMARK    9  A    between atoms: C13_22  and  C14_23 
REMARK       I    between atoms: C14_23  and  N4_25 
REMARK   10  A    between atoms: N4_25  and  C15_27 
REMARK   11  A    between atoms: C15_27  and  C16_28 
REMARK   12  A    between atoms: C16_28  and  C17_29 
ROOT
HETATM    1  C8  UNL     1      -1.632  -1.261   0.704  1.00  0.00     0.081 C 
HETATM    2  C9  UNL     1      -1.737  -2.567   1.136  1.00  0.00     0.089 C 
HETATM    3  C10 UNL     1      -1.075  -3.682   0.607  1.00  0.00    -0.012 C 
HETATM    4  C11 UNL     1       0.099  -3.645  -0.100  1.00  0.00     0.019 C 
HETATM    5  C12 UNL     1       0.739  -2.588  -0.735  1.00  0.00     0.257 C 
HETATM    6  O3  UNL     1       1.725  -2.939  -1.433  1.00  0.00    -0.267 OA
HETATM    7  N3  UNL     1       0.394  -1.294  -0.659  1.00  0.00    -0.271 N 
HETATM    8  C23 UNL     1      -0.547  -0.656   0.104  1.00  0.00     0.265 C 
HETATM    9  O5  UNL     1      -0.429   0.584   0.283  1.00  0.00    -0.267 OA
HETATM   10  C24 UNL     1       1.052  -4.772  -0.393  1.00  0.00     0.045 C 
HETATM   11  C25 UNL     1       0.675  -5.983   0.439  1.00  0.00     0.005 C 
HETATM   12  C26 UNL     1      -0.541  -6.698  -0.062  1.00  0.00     0.001 C 
HETATM   13  C27 UNL     1      -1.782  -5.871  -0.132  1.00  0.00     0.005 C 
HETATM   14  C28 UNL     1      -1.906  -4.845   0.975  1.00  0.00     0.042 C 
ENDROOT
BRANCH   7  15
HETATM   15  C13 UNL     1       1.126  -0.430  -1.558  1.00  0.00     0.238 C 
BRANCH  15  16
HETATM   16  C14 UNL     1       2.386   0.071  -0.965  1.00  0.00     0.236 C 
HETATM   17  O4  UNL     1       2.386   0.880  -0.002  1.00  0.00    -0.272 OA
HETATM   18  N4  UNL     1       3.667  -0.326  -1.446  1.00  0.00    -0.359 N 
ATOM     19  H4  UNL     1       3.681  -0.980  -2.228  1.00  0.00     0.162 HD
BRANCH  18  20
HETATM   20  C15 UNL     1       4.930   0.099  -0.944  1.00  0.00     0.127 C 
BRANCH  20  21
HETATM   21  C16 UNL     1       5.092   1.577  -1.073  1.00  0.00     0.053 C 
BRANCH  21  22
HETATM   22  C17 UNL     1       6.447   2.011  -0.555  1.00  0.00    -0.082 C 
HETATM   23  C18 UNL     1       7.330   2.629  -1.321  1.00  0.00    -0.024 C 
HETATM   24  C19 UNL     1       8.650   3.025  -0.727  1.00  0.00     0.027 C 
HETATM   25  C20 UNL     1       8.399   3.684   0.623  1.00  0.00     0.004 C 
HETATM   26  C21 UNL     1       7.428   2.936   1.471  1.00  0.00     0.005 C 
HETATM   27  C22 UNL     1       6.808   1.733   0.854  1.00  0.00     0.034 C 
ENDBRANCH  21  22
ENDBRANCH  20  21
ENDBRANCH  18  20
ENDBRANCH  15  16
ENDBRANCH   7  15
BRANCH   1  28
HETATM   28  C7  UNL     1      -2.809  -0.442   0.903  1.00  0.00     0.103 C 
HETATM   29  N2  UNL     1      -2.913   0.787   0.574  1.00  0.00    -0.398 N 
ATOM     30  H2  UNL     1      -2.098   1.217   0.136  1.00  0.00     0.158 HD
BRANCH  29  31
HETATM   31  C6  UNL     1      -4.062   1.622   0.759  1.00  0.00     0.119 C 
BRANCH  31  32
HETATM   32  C5  UNL     1      -5.380   0.916   0.676  1.00  0.00     0.021 C 
BRANCH  32  33
HETATM   33  C4  UNL     1      -6.504   1.890   0.873  1.00  0.00     0.021 C 
BRANCH  33  34
HETATM   34  C3  UNL     1      -6.564   2.992  -0.133  1.00  0.00     0.122 C 
BRANCH  34  35
HETATM   35  N1  UNL     1      -7.689   3.880   0.119  1.00  0.00    -0.361 N 
HETATM   36  C2  UNL     1      -7.981   5.008  -0.692  1.00  0.00     0.213 C 
HETATM   37  C1  UNL     1      -9.140   5.882  -0.398  1.00  0.00     0.117 C 
HETATM   38  O1  UNL     1      -7.222   5.240  -1.669  1.00  0.00    -0.274 OA
ATOM     39  H1  UNL     1      -8.296   3.683   0.915  1.00  0.00     0.162 HD
ENDBRANCH  34  35
ENDBRANCH  33  34
ENDBRANCH  32  33
ENDBRANCH  31  32
ENDBRANCH  29  31
ENDBRANCH   1  28
BRANCH   2  40
HETATM   40  O2  UNL     1      -2.555  -2.855   2.184  1.00  0.00    -0.359 OA
ATOM     41  H2  UNL     1      -2.627  -3.754   2.481  1.00  0.00     0.217 HD
ENDBRANCH   2  40
TORSDOF 12
