REMARK  12 active torsions:
REMARK  status: ('A' for Active; 'I' for Inactive)
REMARK    1  A    between atoms: C2_2  and  S1_3 
REMARK    2  A    between atoms: S1_3  and  C4_5 
REMARK    3  A    between atoms: C4_5  and  C5_6 
REMARK    4  A    between atoms: C5_6  and  C6_7 
REMARK    5  A    between atoms: C7_8  and  C8_9 
REMARK    6  A    between atoms: C8_9  and  C9_11 
REMARK    7  A    between atoms: C11_13  and  S2_14 
REMARK    8  A    between atoms: S2_14  and  C12_15 
REMARK    9  A    between atoms: C12_15  and  C13_16 
REMARK   10  A    between atoms: C13_16  and  C14_17 
REMARK   11  A    between atoms: C18_27  and  O2_28 
REMARK   12  A    between atoms: C19_30  and  C20_31 
ROOT
HETATM    1  C6  UNL     1      -0.874   0.147   0.322  1.00  0.00    -0.006 C 
HETATM    2  C7  UNL     1      -0.549  -0.049   1.577  1.00  0.00     0.049 C 
ENDROOT
BRANCH   2   3
HETATM    3  C8  UNL     1       0.749  -0.139   2.154  1.00  0.00     0.179 C 
HETATM    4  O1  UNL     1       0.864  -0.330   3.414  1.00  0.00    -0.291 OA
BRANCH   3   5
HETATM    5  C9  UNL     1       2.055  -0.030   1.432  1.00  0.00     0.260 C 
HETATM    6  C10 UNL     1       2.166  -1.158   0.471  1.00  0.00     0.058 C 
HETATM    7  C11 UNL     1       3.608  -1.593   0.543  1.00  0.00     0.075 C 
HETATM    8  C17 UNL     1       4.068  -1.104   1.863  1.00  0.00     0.248 C 
HETATM    9  N2  UNL     1       3.160  -0.095   2.307  1.00  0.00    -0.063 N 
ATOM     10  H22 UNL     1       3.616   0.811   2.417  1.00  0.00     0.278 HD
ATOM     11  H21 UNL     1       2.875  -0.235   3.276  1.00  0.00     0.278 HD
BRANCH   7  12
HETATM   12  S2  UNL     1       4.462  -1.054  -0.904  1.00  0.00    -0.162 SA
BRANCH  12  13
HETATM   13  C12 UNL     1       4.688   0.675  -1.166  1.00  0.00     0.081 C 
BRANCH  13  14
HETATM   14  C13 UNL     1       5.691   1.278  -0.213  1.00  0.00     0.075 C 
BRANCH  14  15
HETATM   15  C14 UNL     1       7.018   0.587  -0.428  1.00  0.00     0.051 A 
HETATM   16  N1  UNL     1       7.516  -0.491   0.151  1.00  0.00    -0.363 N 
HETATM   17  C15 UNL     1       8.685  -0.927  -0.182  1.00  0.00     0.095 A 
ATOM     18  H1  UNL     1       6.975  -0.981   0.864  1.00  0.00     0.165 HD
HETATM   19  C16 UNL     1       9.374  -0.232  -1.147  1.00  0.00     0.068 A 
HETATM   20  S3  UNL     1       8.266   1.024  -1.512  1.00  0.00    -0.087 SA
ENDBRANCH  14  15
ENDBRANCH  13  14
ENDBRANCH  12  13
ENDBRANCH   7  12
ENDBRANCH   3   5
ENDBRANCH   2   3
BRANCH   1  21
HETATM   21  C5  UNL     1      -2.367   0.212  -0.091  1.00  0.00     0.033 C 
HETATM   22  C18 UNL     1      -3.114  -0.789   0.672  1.00  0.00     0.155 C 
HETATM   23  C19 UNL     1      -3.575  -1.403  -0.630  1.00  0.00     0.088 A 
HETATM   24  C21 UNL     1      -2.607  -0.579  -1.367  1.00  0.00     0.036 A 
HETATM   25  C22 UNL     1      -2.497  -2.027  -1.443  1.00  0.00    -0.021 A 
HETATM   26  C23 UNL     1      -1.475  -2.861  -0.737  1.00  0.00     0.016 C 
HETATM   27  C24 UNL     1      -3.015  -2.675  -2.720  1.00  0.00     0.016 C 
BRANCH  21  28
HETATM   28  C4  UNL     1      -2.686   1.633  -0.148  1.00  0.00     0.024 C 
BRANCH  28  29
HETATM   29  S1  UNL     1      -4.231   2.252  -0.599  1.00  0.00    -0.203 SA
HETATM   30  C3  UNL     1      -5.564   1.931   0.555  1.00  0.00     0.082 C 
BRANCH  29  31
HETATM   31  C2  UNL     1      -4.151   4.094  -0.593  1.00  0.00     0.062 C 
HETATM   32  C1  UNL     1      -3.850   4.515   0.815  1.00  0.00     0.015 C 
ENDBRANCH  29  31
ENDBRANCH  28  29
ENDBRANCH  21  28
BRANCH  22  33
HETATM   33  O2  UNL     1      -4.037  -0.472   1.611  1.00  0.00    -0.393 OA
ATOM     34  H2  UNL     1      -4.522  -1.122   2.106  1.00  0.00     0.210 HD
ENDBRANCH  22  33
BRANCH  23  35
HETATM   35  C20 UNL     1      -4.975  -1.586  -0.959  1.00  0.00     0.185 C 
HETATM   36  O3  UNL     1      -5.573  -1.084  -1.938  1.00  0.00    -0.647 OA
HETATM   37  O4  UNL     1      -5.744  -2.393  -0.119  1.00  0.00    -0.647 OA
ENDBRANCH  23  35
ENDBRANCH   1  21
TORSDOF 12
