REMARK  11 active torsions:
REMARK  status: ('A' for Active; 'I' for Inactive)
REMARK    1  A    between atoms: C2_2  and  C4_4 
REMARK       I    between atoms: C4_4  and  N1_6 
REMARK    2  A    between atoms: N1_6  and  C5_8 
REMARK    3  A    between atoms: C5_8  and  C6_9 
REMARK       I    between atoms: C6_9  and  N2_11 
REMARK    4  A    between atoms: N2_11  and  C7_13 
REMARK    5  A    between atoms: C7_13  and  C8_14 
REMARK    6  A    between atoms: C7_13  and  C12_18 
REMARK       I    between atoms: C12_18  and  N3_20 
REMARK    7  A    between atoms: N3_20  and  C13_22 
REMARK    8  A    between atoms: C13_22  and  C14_23 
REMARK    9  A    between atoms: C13_22  and  C20_33 
REMARK   10  A    between atoms: C14_23  and  C15_24 
REMARK       I    between atoms: C20_33  and  N5_35 
REMARK   11  A    between atoms: N5_35  and  C21_37 
ROOT
HETATM    1  C12 UNL     1      -0.079  -0.188   0.195  1.00  0.00     0.244 C 
HETATM    2  O3  UNL     1      -0.601   0.630   1.001  1.00  0.00    -0.271 OA
HETATM    3  N3  UNL     1      -0.718  -0.607  -0.995  1.00  0.00    -0.345 N 
ATOM      4  H3  UNL     1      -0.249  -1.266  -1.616  1.00  0.00     0.163 HD
ENDROOT
BRANCH   3   5
HETATM    5  C13 UNL     1      -2.030  -0.109  -1.339  1.00  0.00     0.181 C 
BRANCH   5   6
HETATM    6  C14 UNL     1      -3.053  -1.237  -1.355  1.00  0.00     0.076 C 
BRANCH   6   7
HETATM    7  C15 UNL     1      -3.164  -1.893  -0.037  1.00  0.00    -0.021 A 
HETATM    8  C16 UNL     1      -2.492  -3.091   0.161  1.00  0.00     0.015 A 
HETATM    9  C17 UNL     1      -2.573  -3.681   1.394  1.00  0.00     0.075 A 
HETATM   10  C18 UNL     1      -3.317  -3.069   2.393  1.00  0.00     0.246 A 
HETATM   11  O4  UNL     1      -3.369  -3.646   3.520  1.00  0.00    -0.268 OA
HETATM   12  N4  UNL     1      -3.958  -1.914   2.182  1.00  0.00    -0.317 N 
HETATM   13  C19 UNL     1      -3.898  -1.306   0.979  1.00  0.00     0.088 A 
ATOM     14  H4  UNL     1      -4.497  -1.489   2.937  1.00  0.00     0.169 HD
HETATM   15 BR1  UNL     1      -4.842   0.338   0.669  1.00  0.00    -0.031 Br
ENDBRANCH   6   7
ENDBRANCH   5   6
BRANCH   5  16
HETATM   16  C20 UNL     1      -2.028   0.642  -2.617  1.00  0.00     0.241 C 
HETATM   17  O5  UNL     1      -0.953   0.822  -3.224  1.00  0.00    -0.271 OA
HETATM   18  N5  UNL     1      -3.215   1.172  -3.181  1.00  0.00    -0.355 N 
ATOM     19  H5  UNL     1      -4.095   1.023  -2.688  1.00  0.00     0.162 HD
BRANCH  18  20
HETATM   20  C21 UNL     1      -3.238   1.914  -4.423  1.00  0.00     0.076 C 
HETATM   21  C22 UNL     1      -3.821   1.099  -5.557  1.00  0.00     0.032 C 
HETATM   22  C23 UNL     1      -3.881   3.271  -4.304  1.00  0.00     0.032 C 
ENDBRANCH  18  20
ENDBRANCH   5  16
ENDBRANCH   3   5
BRANCH   1  23
HETATM   23  C7  UNL     1       1.281  -0.726   0.536  1.00  0.00     0.200 C 
BRANCH  23  24
HETATM   24  N2  UNL     1       1.731  -0.136   1.785  1.00  0.00    -0.343 N 
HETATM   25  C6  UNL     1       1.801  -0.904   2.961  1.00  0.00     0.236 C 
HETATM   26  O2  UNL     1       1.448  -2.146   2.936  1.00  0.00    -0.272 OA
ATOM     27  H2  UNL     1       2.000   0.848   1.809  1.00  0.00     0.163 HD
BRANCH  25  28
HETATM   28  C5  UNL     1       2.247  -0.440   4.286  1.00  0.00     0.225 C 
BRANCH  28  29
HETATM   29  N1  UNL     1       2.713   0.911   4.263  1.00  0.00    -0.348 N 
HETATM   30  C4  UNL     1       3.851   1.322   3.540  1.00  0.00     0.246 C 
HETATM   31  O1  UNL     1       4.513   0.468   2.878  1.00  0.00    -0.268 OA
ATOM     32  H1  UNL     1       2.197   1.612   4.795  1.00  0.00     0.163 HD
BRANCH  30  33
HETATM   33  C2  UNL     1       4.313   2.700   3.514  1.00  0.00    -0.004 C 
HETATM   34  C1  UNL     1       5.377   3.062   2.835  1.00  0.00     0.024 C 
HETATM   35  C3  UNL     1       3.563   3.756   4.270  1.00  0.00     0.053 C 
ENDBRANCH  30  33
ENDBRANCH  28  29
ENDBRANCH  25  28
ENDBRANCH  23  24
BRANCH  23  36
HETATM   36  C8  UNL     1       2.281  -0.454  -0.508  1.00  0.00     0.010 C 
HETATM   37  C9  UNL     1       2.954  -1.415  -1.147  1.00  0.00    -0.089 C 
HETATM   38  C10 UNL     1       3.946  -1.034  -2.192  1.00  0.00     0.042 C 
HETATM   39  C11 UNL     1       2.767  -2.852  -0.867  1.00  0.00     0.042 C 
ENDBRANCH  23  36
ENDBRANCH   1  23
TORSDOF 11
