REMARK  12 active torsions:
REMARK  status: ('A' for Active; 'I' for Inactive)
REMARK    1  A    between atoms: C2_2  and  N1_3 
REMARK       I    between atoms: C3_5  and  N2_6 
REMARK       I    between atoms: C3_5  and  N9_36 
REMARK    2  A    between atoms: C4_8  and  C5_9 
REMARK    3  A    between atoms: C4_8  and  N8_29 
REMARK    4  A    between atoms: C5_9  and  C6_10 
REMARK    5  A    between atoms: C5_9  and  N6_16 
REMARK    6  A    between atoms: C6_10  and  N3_11 
REMARK       I    between atoms: N6_16  and  C8_18 
REMARK    7  A    between atoms: C8_18  and  C9_20 
REMARK    8  A    between atoms: C9_20  and  C10_21 
REMARK    9  A    between atoms: C9_20  and  N7_25 
REMARK   10  A    between atoms: C10_21  and  C11_22 
REMARK   11  A    between atoms: N8_29  and  C16_31 
REMARK   12  A    between atoms: N9_36  and  C21_38 
ROOT
HETATM    1  N1  UNL     1       1.526  -0.682  -2.086  1.00  0.00    -0.226 N 
ATOM      2  H1  UNL     1       2.336  -1.180  -2.455  1.00  0.00     0.177 HD
HETATM    3  C3  UNL     1       1.176  -0.905  -0.830  1.00  0.00     0.679 C 
HETATM    4  N2  UNL     1       0.088  -0.220  -0.372  1.00  0.00    -0.179 N 
ATOM      5  H2  UNL     1      -0.723  -0.404  -0.963  1.00  0.00     0.185 HD
HETATM    6  C4  UNL     1      -0.217   0.570   0.559  1.00  0.00     0.120 C 
HETATM    7  N9  UNL     1       2.003  -1.845  -0.177  1.00  0.00    -0.192 N 
ATOM      8  H9  UNL     1       1.547  -2.642   0.267  1.00  0.00     0.184 HD
ENDROOT
BRANCH   6   9
HETATM    9  C5  UNL     1      -1.616   1.101   0.684  1.00  0.00     0.170 C 
BRANCH   9  10
HETATM   10  C6  UNL     1      -1.852   2.454   0.155  1.00  0.00     0.154 C 
BRANCH  10  11
HETATM   11  N3  UNL     1      -1.566   2.608  -1.258  1.00  0.00    -0.365 N 
HETATM   12  C7  UNL     1      -1.561   3.819  -1.715  1.00  0.00     0.197 C 
HETATM   13  N4  UNL     1      -1.292   4.116  -3.096  1.00  0.00    -0.067 NA
HETATM   14  N5  UNL     1      -1.823   4.952  -0.894  1.00  0.00    -0.067 NA
ATOM     15  H3  UNL     1      -1.379   1.806  -1.859  1.00  0.00     0.161 HD
ENDBRANCH  10  11
ENDBRANCH   9  10
BRANCH   9  16
HETATM   16  N6  UNL     1      -2.612   0.144   0.251  1.00  0.00    -0.346 N 
HETATM   17  C8  UNL     1      -3.466  -0.539   1.141  1.00  0.00     0.249 C 
HETATM   18  O1  UNL     1      -3.385  -0.331   2.394  1.00  0.00    -0.271 OA
ATOM     19  H6  UNL     1      -2.700  -0.046  -0.747  1.00  0.00     0.163 HD
BRANCH  17  20
HETATM   20  C9  UNL     1      -4.469  -1.512   0.606  1.00  0.00     0.276 C 
BRANCH  20  21
HETATM   21  C10 UNL     1      -3.798  -2.496  -0.276  1.00  0.00     0.046 C 
BRANCH  21  22
HETATM   22  C11 UNL     1      -4.730  -3.500  -0.859  1.00  0.00    -0.020 C 
HETATM   23  C12 UNL     1      -5.398  -4.311   0.202  1.00  0.00     0.009 C 
HETATM   24  C13 UNL     1      -3.968  -4.400  -1.845  1.00  0.00     0.009 C 
ENDBRANCH  21  22
ENDBRANCH  20  21
BRANCH  20  25
HETATM   25  N7  UNL     1      -5.211  -2.062   1.713  1.00  0.00    -0.066 N 
HETATM   26  C14 UNL     1      -5.954  -1.035   2.413  1.00  0.00     0.267 C 
ATOM     27  H72 UNL     1      -5.819  -2.825   1.414  1.00  0.00     0.277 HD
ATOM     28  H71 UNL     1      -4.605  -2.583   2.347  1.00  0.00     0.277 HD
ENDBRANCH  20  25
ENDBRANCH  17  20
ENDBRANCH   9  16
ENDBRANCH   6   9
BRANCH   6  29
HETATM   29  N8  UNL     1       0.769   0.971   1.497  1.00  0.00    -0.368 N 
HETATM   30  C15 UNL     1       1.164  -0.015   2.492  1.00  0.00     0.151 C 
BRANCH  29  31
HETATM   31  C16 UNL     1       1.326   2.278   1.508  1.00  0.00     0.085 C 
HETATM   32  C17 UNL     1       1.914   2.774   0.245  1.00  0.00     0.025 C 
HETATM   33  C18 UNL     1       3.210   3.414   0.595  1.00  0.00     0.002 C 
HETATM   34  C19 UNL     1       3.159   3.645   2.067  1.00  0.00     0.002 C 
HETATM   35  C20 UNL     1       2.409   2.428   2.580  1.00  0.00     0.025 C 
ENDBRANCH  29  31
ENDBRANCH   6  29
BRANCH   1  36
HETATM   36  C2  UNL     1       0.834   0.216  -2.955  1.00  0.00     0.133 C 
HETATM   37  C1  UNL     1       1.580   0.268  -4.288  1.00  0.00     0.027 C 
ENDBRANCH   1  36
BRANCH   7  38
HETATM   38  C21 UNL     1       3.426  -1.770  -0.088  1.00  0.00     0.054 A 
HETATM   39  C22 UNL     1       4.161  -2.791   0.500  1.00  0.00     0.047 A 
HETATM   40  C23 UNL     1       5.534  -2.740   0.606  1.00  0.00     0.095 A 
HETATM   41  N10 UNL     1       6.230  -1.690   0.142  1.00  0.00    -0.338 N 
HETATM   42  C24 UNL     1       7.684  -1.619   0.245  1.00  0.00     0.158 C 
HETATM   43  C25 UNL     1       5.555  -0.685  -0.431  1.00  0.00     0.192 A 
HETATM   44  F1  UNL     1       6.278   0.377  -0.897  1.00  0.00    -0.186 F 
HETATM   45  C26 UNL     1       4.161  -0.703  -0.557  1.00  0.00     0.091 A 
ENDBRANCH   7  38
TORSDOF 12
