REMARK  13 active torsions:
REMARK  status: ('A' for Active; 'I' for Inactive)
REMARK    1  A    between atoms: C2_2  and  C3_3 
REMARK    2  A    between atoms: C3_3  and  N1_6 
REMARK       I    between atoms: N1_6  and  C7_8 
REMARK    3  A    between atoms: C7_8  and  C8_10 
REMARK    4  A    between atoms: C8_10  and  C9_11 
REMARK    5  A    between atoms: C9_11  and  C10_12 
REMARK    6  A    between atoms: C10_12  and  N2_13 
REMARK    7  A    between atoms: C10_12  and  C12_18 
REMARK    8  A    between atoms: C12_18  and  C13_19 
REMARK    9  A    between atoms: C13_19  and  C14_20 
REMARK   10  A    between atoms: C14_20  and  C15_21 
REMARK       I    between atoms: C15_21  and  N5_23 
REMARK   11  A    between atoms: N5_23  and  N6_25 
REMARK       I    between atoms: N6_25  and  C16_27 
REMARK       I    between atoms: N7_30  and  C18_32 
REMARK   12  A    between atoms: N9_34  and  C19_36 
REMARK       I    between atoms: N10_37  and  C20_39 
REMARK   13  A    between atoms: C20_39  and  C21_41 
ROOT
HETATM    1  C12 UNL     1       1.292   1.270   0.262  1.00  0.00     0.012 C 
HETATM    2  N7  UNL     1       1.894   2.368   0.293  1.00  0.00    -0.336 N 
ATOM      3  H7  UNL     1       2.598   2.506  -0.433  1.00  0.00     0.168 HD
HETATM    4  C18 UNL     1       1.734   3.418   1.177  1.00  0.00     0.193 C 
HETATM    5  N8  UNL     1       0.522   4.201   1.229  1.00  0.00    -0.063 NA
HETATM    6  N9  UNL     1       2.652   3.784   2.025  1.00  0.00    -0.327 N 
ATOM      7  H9  UNL     1       2.467   4.572   2.645  1.00  0.00     0.169 HD
ENDROOT
BRANCH   1   8
HETATM    8  C10 UNL     1       0.228   0.857   1.231  1.00  0.00     0.130 C 
BRANCH   8   9
HETATM    9  C9  UNL     1      -1.008   0.597   0.408  1.00  0.00     0.040 C 
BRANCH   9  10
HETATM   10  C8  UNL     1      -2.117  -0.009   1.255  1.00  0.00     0.105 C 
BRANCH  10  11
HETATM   11  C7  UNL     1      -3.344  -0.194   0.447  1.00  0.00     0.220 C 
HETATM   12  N1  UNL     1      -4.009  -1.415   0.234  1.00  0.00    -0.344 N 
HETATM   13  C6  UNL     1      -3.459  -2.641   0.734  1.00  0.00     0.154 C 
HETATM   14  O1  UNL     1      -3.820   0.885  -0.089  1.00  0.00    -0.273 OA
BRANCH  12  15
HETATM   15  C3  UNL     1      -5.258  -1.374  -0.527  1.00  0.00     0.045 C 
HETATM   16  C4  UNL     1      -5.095  -0.618  -1.839  1.00  0.00     0.043 C 
HETATM   17  C5  UNL     1      -5.819  -2.716  -0.821  1.00  0.00     0.043 C 
BRANCH  15  18
HETATM   18  C2  UNL     1      -6.276  -0.581   0.256  1.00  0.00    -0.007 C 
HETATM   19  C1  UNL     1      -7.132  -1.210   1.044  1.00  0.00     0.009 C 
ENDBRANCH  15  18
ENDBRANCH  12  15
ENDBRANCH  10  11
ENDBRANCH   9  10
ENDBRANCH   8   9
BRANCH   8  20
HETATM   20  N2  UNL     1       0.720  -0.339   1.852  1.00  0.00    -0.357 N 
HETATM   21  C11 UNL     1       1.187  -0.431   3.022  1.00  0.00     0.197 C 
HETATM   22  N3  UNL     1       1.645  -1.722   3.499  1.00  0.00    -0.067 NA
HETATM   23  N4  UNL     1       1.289   0.677   3.895  1.00  0.00    -0.067 NA
ATOM     24  H2  UNL     1       0.690  -1.194   1.297  1.00  0.00     0.162 HD
ENDBRANCH   8  20
ENDBRANCH   1   8
BRANCH   1  25
HETATM   25  C13 UNL     1       1.608   0.320  -0.823  1.00  0.00     0.064 C 
BRANCH  25  26
HETATM   26  C14 UNL     1       1.963  -1.071  -0.490  1.00  0.00     0.110 C 
BRANCH  26  27
HETATM   27  C15 UNL     1       2.321  -1.745  -1.770  1.00  0.00     0.236 C 
HETATM   28  O2  UNL     1       2.278  -1.124  -2.832  1.00  0.00    -0.272 OA
HETATM   29  N5  UNL     1       2.705  -3.091  -1.719  1.00  0.00    -0.268 N 
ATOM     30  H5  UNL     1       2.728  -3.581  -0.825  1.00  0.00     0.190 HD
BRANCH  29  31
HETATM   31  N6  UNL     1       3.055  -3.760  -2.889  1.00  0.00    -0.268 N 
HETATM   32  C16 UNL     1       2.467  -5.027  -3.145  1.00  0.00     0.232 C 
HETATM   33  C17 UNL     1       2.842  -5.740  -4.385  1.00  0.00     0.119 C 
HETATM   34  O3  UNL     1       1.648  -5.545  -2.346  1.00  0.00    -0.272 OA
ATOM     35  H6  UNL     1       3.718  -3.350  -3.547  1.00  0.00     0.190 HD
ENDBRANCH  29  31
ENDBRANCH  26  27
ENDBRANCH  25  26
ENDBRANCH   1  25
BRANCH   6  36
HETATM   36  C19 UNL     1       3.887   3.126   2.110  1.00  0.00     0.185 C 
HETATM   37  N10 UNL     1       4.943   3.625   1.579  1.00  0.00    -0.323 N 
HETATM   38  C20 UNL     1       4.795   4.882   0.903  1.00  0.00     0.222 C 
ATOM     39  H10 UNL     1       5.844   3.151   1.635  1.00  0.00     0.169 HD
HETATM   40  O4  UNL     1       4.647   5.909   1.626  1.00  0.00    -0.273 OA
BRANCH  38  41
HETATM   41  C21 UNL     1       4.807   5.017  -0.559  1.00  0.00     0.098 C 
HETATM   42  C22 UNL     1       4.545   6.460  -0.917  1.00  0.00     0.014 C 
ENDBRANCH  38  41
ENDBRANCH   6  36
TORSDOF 13
