REMARK  13 active torsions:
REMARK  status: ('A' for Active; 'I' for Inactive)
REMARK    1  A    between atoms: O1_3  and  N2_4 
REMARK    2  A    between atoms: N2_4  and  C2_6 
REMARK    3  A    between atoms: C2_6  and  O2_7 
REMARK    4  A    between atoms: C2_6  and  N3_9 
REMARK    5  A    between atoms: N3_9  and  C3_10 
REMARK    6  A    between atoms: C3_10  and  C4_11 
REMARK    7  A    between atoms: C3_10  and  C8_21 
REMARK    8  A    between atoms: C4_11  and  C5_12 
REMARK    9  A    between atoms: C6_13  and  C7_14 
REMARK   10  A    between atoms: C7_14  and  N4_15 
REMARK   11  A    between atoms: C7_14  and  O3_19 
REMARK   12  A    between atoms: C8_21  and  O4_22 
REMARK   13  A    between atoms: C8_21  and  C9_24 
ROOT
HETATM    1  N1  UNL     1       2.546   6.716   0.842  1.00  0.00    -0.162 NA
HETATM    2  C1  UNL     1       2.316   5.937   0.026  1.00  0.00     0.253 C 
HETATM    3  O1  UNL     1       2.075   5.061  -0.939  1.00  0.00    -0.155 OA
ENDROOT
BRANCH   3   4
HETATM    4  N2  UNL     1       1.509   3.820  -0.908  1.00  0.00    -0.201 N 
ATOM      5  H2  UNL     1       0.493   3.733  -0.871  1.00  0.00     0.200 HD
BRANCH   4   6
HETATM    6  C2  UNL     1       2.309   2.646  -0.927  1.00  0.00     0.319 C 
BRANCH   6   7
HETATM    7  O2  UNL     1       3.595   2.944  -0.936  1.00  0.00    -0.320 OA
ATOM      8  H2  UNL     1       4.130   2.159  -0.949  1.00  0.00     0.222 HD
ENDBRANCH   6   7
BRANCH   6   9
HETATM    9  N3  UNL     1       1.883   1.335  -0.937  1.00  0.00    -0.370 NA
BRANCH   9  10
HETATM   10  C3  UNL     1       1.479   0.025  -0.946  1.00  0.00     0.101 C 
BRANCH  10  11
HETATM   11  C4  UNL     1       2.419  -1.084  -0.687  1.00  0.00     0.098 C 
BRANCH  11  12
HETATM   12  C5  UNL     1       3.632  -1.233  -1.490  1.00  0.00    -0.020 C 
HETATM   13  C6  UNL     1       4.846  -1.349  -0.958  1.00  0.00     0.029 C 
BRANCH  13  14
HETATM   14  C7  UNL     1       5.193  -1.352   0.469  1.00  0.00     0.340 C 
BRANCH  14  15
HETATM   15  N4  UNL     1       4.629  -2.509   1.160  1.00  0.00    -0.050 N 
ATOM     16  H43 UNL     1       3.620  -2.569   1.023  1.00  0.00     0.277 HD
ATOM     17  H42 UNL     1       4.903  -3.382   0.709  1.00  0.00     0.277 HD
ATOM     18  H41 UNL     1       4.870  -2.511   2.151  1.00  0.00     0.277 HD
ENDBRANCH  14  15
BRANCH  14  19
HETATM   19  O3  UNL     1       4.834  -0.146   1.111  1.00  0.00    -0.367 OA
ATOM     20  H3  UNL     1       5.058  -0.148   2.034  1.00  0.00     0.212 HD
ENDBRANCH  14  19
ENDBRANCH  13  14
ENDBRANCH  11  12
ENDBRANCH  10  11
BRANCH  10  21
HETATM   21  C8  UNL     1       0.305  -0.323  -1.818  1.00  0.00     0.207 C 
BRANCH  21  22
HETATM   22  O4  UNL     1       0.372  -1.729  -2.107  1.00  0.00    -0.386 OA
ATOM     23  H4  UNL     1      -0.370  -1.949  -2.658  1.00  0.00     0.210 HD
ENDBRANCH  21  22
BRANCH  21  24
HETATM   24  C9  UNL     1      -1.011  -0.350  -0.990  1.00  0.00     0.169 C 
HETATM   25  C10 UNL     1      -1.465   0.974  -0.542  1.00  0.00     0.066 C 
HETATM   26  C11 UNL     1      -2.881   0.878   0.071  1.00  0.00     0.275 C 
HETATM   27  N5  UNL     1      -3.420  -0.411  -0.018  1.00  0.00     0.093 N 
HETATM   28  C12 UNL     1      -4.795  -0.356  -0.482  1.00  0.00     0.273 C 
HETATM   29  C15 UNL     1      -3.565  -1.168   1.186  1.00  0.00     0.232 C 
HETATM   30  C13 UNL     1      -5.552   0.003   0.796  1.00  0.00     0.032 C 
HETATM   31  C14 UNL     1      -4.841  -0.794   1.853  1.00  0.00     0.038 C 
HETATM   32  C16 UNL     1      -2.420  -1.083   2.160  1.00  0.00     0.146 C 
HETATM   33  C17 UNL     1      -1.190  -1.428   1.381  1.00  0.00     0.261 C 
HETATM   34  O5  UNL     1      -0.323  -2.044   2.075  1.00  0.00    -0.265 OA
HETATM   35  O6  UNL     1      -0.798  -1.234   0.107  1.00  0.00    -0.313 OA
ENDBRANCH  21  24
ENDBRANCH  10  21
ENDBRANCH   9  10
ENDBRANCH   6   9
ENDBRANCH   4   6
ENDBRANCH   3   4
TORSDOF 13
