REMARK  11 active torsions:
REMARK  status: ('A' for Active; 'I' for Inactive)
REMARK    1  A    between atoms: O1_2  and  C2_3 
REMARK    2  A    between atoms: C2_3  and  C3_4 
REMARK    3  A    between atoms: C3_4  and  O2_5 
REMARK    4  A    between atoms: O2_5  and  C4_6 
REMARK    5  A    between atoms: C7_11  and  N2_12 
REMARK    6  A    between atoms: C12_22  and  N5_23 
REMARK    7  A    between atoms: C15_28  and  O4_29 
REMARK    8  A    between atoms: O4_29  and  C16_30 
REMARK    9  A    between atoms: C16_30  and  O5_31 
REMARK   10  A    between atoms: O5_31  and  C17_32 
REMARK   11  A    between atoms: C17_32  and  N6_33 
ROOT
HETATM    1  C4  UNL     1       1.812  -0.084  -1.140  1.00  0.00     0.105 A 
HETATM    2  C5  UNL     1       0.499  -0.327  -1.464  1.00  0.00     0.070 A 
HETATM    3  C6  UNL     1      -0.554   0.094  -0.647  1.00  0.00     0.066 A 
HETATM    4  N1  UNL     1      -1.852  -0.139  -0.948  1.00  0.00    -0.191 N 
ATOM      5  H1  UNL     1      -2.089  -0.639  -1.805  1.00  0.00     0.184 HD
HETATM    6  C7  UNL     1      -2.839   0.283  -0.127  1.00  0.00     0.682 A 
HETATM    7  N4  UNL     1      -2.498   0.935   0.988  1.00  0.00    -0.176 N 
ATOM      8  H4  UNL     1      -3.256   1.246   1.595  1.00  0.00     0.186 HD
HETATM    9  C12 UNL     1      -1.261   1.214   1.375  1.00  0.00     0.127 A 
HETATM   10  C13 UNL     1      -0.250   0.762   0.498  1.00  0.00     0.038 A 
HETATM   11  C14 UNL     1       1.061   1.017   0.842  1.00  0.00     0.058 A 
HETATM   12  C15 UNL     1       2.107   0.616   0.061  1.00  0.00     0.122 A 
ENDROOT
BRANCH   6  13
HETATM   13  N2  UNL     1      -4.193   0.045  -0.413  1.00  0.00    -0.207 N 
HETATM   14  C8  UNL     1      -5.207   1.054  -0.251  1.00  0.00     0.161 C 
HETATM   15  C9  UNL     1      -6.201   0.664   0.792  1.00  0.00     0.143 C 
HETATM   16  N3  UNL     1      -6.199  -0.729   1.056  1.00  0.00    -0.358 N 
HETATM   17  C10 UNL     1      -5.694  -1.695   0.179  1.00  0.00     0.236 C 
ATOM     18  H3  UNL     1      -6.591  -1.047   1.942  1.00  0.00     0.162 HD
HETATM   19  O3  UNL     1      -6.069  -2.908   0.247  1.00  0.00    -0.272 OA
HETATM   20  C11 UNL     1      -4.676  -1.261  -0.869  1.00  0.00     0.244 C 
ENDBRANCH   6  13
BRANCH   9  21
HETATM   21  N5  UNL     1      -0.959   1.807   2.418  1.00  0.00    -0.384 N 
ATOM     22  H52 UNL     1      -1.689   2.133   3.051  1.00  0.00     0.157 HD
ATOM     23  H51 UNL     1      -0.007   2.022   2.716  1.00  0.00     0.157 HD
ENDBRANCH   9  21
BRANCH   1  24
HETATM   24  O2  UNL     1       2.885  -0.444  -1.841  1.00  0.00    -0.346 OA
BRANCH  24  25
HETATM   25  C3  UNL     1       3.199  -1.095  -2.974  1.00  0.00     0.201 C 
BRANCH  25  26
HETATM   26  C2  UNL     1       2.724  -2.529  -2.968  1.00  0.00     0.193 C 
BRANCH  26  27
HETATM   27  O1  UNL     1       3.057  -3.171  -4.143  1.00  0.00    -0.394 OA
HETATM   28  C1  UNL     1       4.402  -3.222  -4.356  1.00  0.00     0.201 C 
ENDBRANCH  26  27
ENDBRANCH  25  26
ENDBRANCH  24  25
ENDBRANCH   1  24
BRANCH  12  29
HETATM   29  O4  UNL     1       3.417   0.865   0.391  1.00  0.00    -0.245 OA
BRANCH  29  30
HETATM   30  C16 UNL     1       3.917   1.452   1.376  1.00  0.00     0.152 C 
BRANCH  30  31
HETATM   31  O5  UNL     1       4.455   2.082   2.434  1.00  0.00    -0.263 OA
BRANCH  31  32
HETATM   32  C17 UNL     1       3.600   2.555   3.403  1.00  0.00     0.417 C 
BRANCH  32  33
HETATM   33  N6  UNL     1       4.266   3.234   4.472  1.00  0.00    -0.057 N 
ATOM     34  H63 UNL     1       4.985   2.639   4.884  1.00  0.00     0.276 HD
ATOM     35  H62 UNL     1       4.853   3.986   4.111  1.00  0.00     0.276 HD
ATOM     36  H61 UNL     1       3.632   3.585   5.190  1.00  0.00     0.276 HD
ENDBRANCH  32  33
ENDBRANCH  31  32
ENDBRANCH  30  31
ENDBRANCH  29  30
ENDBRANCH  12  29
TORSDOF 11
