REMARK  12 active torsions:
REMARK  status: ('A' for Active; 'I' for Inactive)
REMARK    1  A    between atoms: N1_2  and  C2_4 
REMARK    2  A    between atoms: C3_7  and  C4_8 
REMARK    3  A    between atoms: C7_13  and  C8_14 
REMARK    4  A    between atoms: C8_14  and  N3_16 
REMARK    5  A    between atoms: N3_16  and  O3_17 
REMARK    6  A    between atoms: N3_16  and  C11_19 
REMARK    7  A    between atoms: C11_19  and  O4_20 
REMARK    8  A    between atoms: C11_19  and  C12_22 
REMARK    9  A    between atoms: C12_22  and  C14_24 
REMARK   10  A    between atoms: C14_24  and  O5_25 
REMARK   11  A    between atoms: C14_24  and  N4_27 
REMARK   12  A    between atoms: N4_27  and  O6_29 
ROOT
HETATM    1  C4  UNL     1       3.401  -0.069   0.114  1.00  0.00     0.086 A 
HETATM    2  C5  UNL     1       3.422   1.246   0.535  1.00  0.00     0.116 A 
HETATM    3  C6  UNL     1       2.234   1.871   0.761  1.00  0.00     0.291 A 
HETATM    4  O1  UNL     1       2.205   3.058   1.141  1.00  0.00    -0.260 OA
HETATM    5  O2  UNL     1       1.118   1.221   0.581  1.00  0.00    -0.260 OA
HETATM    6  C7  UNL     1       1.045  -0.012   0.189  1.00  0.00     0.153 A 
HETATM    7  N5  UNL     1       2.203  -0.653  -0.045  1.00  0.00    -0.335 N 
ATOM      8  H5  UNL     1       2.170  -1.624  -0.356  1.00  0.00     0.168 HD
ENDROOT
BRANCH   6   9
HETATM    9  C8  UNL     1      -0.296  -0.718   0.011  1.00  0.00     0.182 C 
HETATM   10  C9  UNL     1      -0.016  -1.792  -1.018  1.00  0.00     0.043 C 
BRANCH   9  11
HETATM   11  N3  UNL     1      -1.228   0.236  -0.352  1.00  0.00    -0.253 N 
BRANCH  11  12
HETATM   12  O3  UNL     1      -0.697   1.353  -0.924  1.00  0.00    -0.284 OA
HETATM   13  C10 UNL     1      -1.398   2.510  -0.622  1.00  0.00     0.237 C 
ENDBRANCH  11  12
BRANCH  11  14
HETATM   14  C11 UNL     1      -2.572   0.030  -0.642  1.00  0.00     0.254 C 
BRANCH  14  15
HETATM   15  O4  UNL     1      -2.755  -0.760  -1.813  1.00  0.00    -0.374 OA
ATOM     16  H4  UNL     1      -3.673  -0.901  -2.011  1.00  0.00     0.212 HD
ENDBRANCH  14  15
BRANCH  14  17
HETATM   17  C12 UNL     1      -3.517  -0.498   0.375  1.00  0.00     0.108 C 
HETATM   18  C13 UNL     1      -3.274  -1.883   0.895  1.00  0.00     0.023 C 
BRANCH  17  19
HETATM   19  C14 UNL     1      -4.984  -0.418   0.014  1.00  0.00     0.145 C 
BRANCH  19  20
HETATM   20  O5  UNL     1      -5.255  -1.096  -1.188  1.00  0.00    -0.348 OA
ATOM     21  H5  UNL     1      -6.176  -1.046  -1.415  1.00  0.00     0.219 HD
ENDBRANCH  19  20
BRANCH  19  22
HETATM   22  N4  UNL     1      -5.655   0.776   0.230  1.00  0.00    -0.246 N 
HETATM   23  C15 UNL     1      -5.364   1.970  -0.437  1.00  0.00     0.187 C 
BRANCH  22  24
HETATM   24  O6  UNL     1      -6.097   0.949   1.506  1.00  0.00    -0.286 OA
ATOM     25  H6  UNL     1      -6.557   1.767   1.654  1.00  0.00     0.244 HD
ENDBRANCH  22  24
ENDBRANCH  19  22
ENDBRANCH  17  19
ENDBRANCH  14  17
ENDBRANCH  11  14
ENDBRANCH   9  11
ENDBRANCH   6   9
BRANCH   1  26
HETATM   26  C3  UNL     1       4.660  -0.770  -0.111  1.00  0.00     0.163 A 
HETATM   27  N2  UNL     1       5.874  -0.253   0.107  1.00  0.00    -0.172 N 
HETATM   28  C2  UNL     1       6.853  -1.141  -0.131  1.00  0.00     0.694 A 
ATOM     29  H2  UNL     1       6.037   0.705   0.418  1.00  0.00     0.186 HD
HETATM   30  N7  UNL     1       6.191  -2.258  -0.516  1.00  0.00    -0.131 N 
HETATM   31  N6  UNL     1       4.868  -2.030  -0.503  1.00  0.00    -0.269 N 
ATOM     32  H7  UNL     1       6.632  -3.140  -0.777  1.00  0.00     0.205 HD
ATOM     33  H6  UNL     1       4.144  -2.705  -0.751  1.00  0.00     0.189 HD
BRANCH  28  34
HETATM   34  N1  UNL     1       8.129  -0.979  -0.005  1.00  0.00    -0.229 N 
HETATM   35  C1  UNL     1       8.597   0.327   0.458  1.00  0.00     0.165 C 
ATOM     36  H1  UNL     1       8.783  -1.732  -0.220  1.00  0.00     0.177 HD
ENDBRANCH  28  34
ENDBRANCH   1  26
TORSDOF 12
