REMARK  11 active torsions:
REMARK  status: ('A' for Active; 'I' for Inactive)
REMARK    1  A    between atoms: O1_2  and  C2_3 
REMARK    2  A    between atoms: C2_3  and  C3_5 
REMARK    3  A    between atoms: C4_6  and  O3_7 
REMARK    4  A    between atoms: O3_7  and  C5_8 
REMARK    5  A    between atoms: C5_8  and  C6_9 
REMARK    6  A    between atoms: C6_9  and  C7_10 
REMARK    7  A    between atoms: C7_10  and  C8_11 
REMARK    8  A    between atoms: C8_11  and  N1_12 
REMARK    9  A    between atoms: C11_18  and  C12_19 
REMARK   10  A    between atoms: N2_20  and  N3_22 
REMARK   11  A    between atoms: C13_23  and  N4_24 
ROOT
HETATM    1  C3  UNL     1       0.486  -1.187  -0.372  1.00  0.00     0.097 A 
HETATM    2  C4  UNL     1       0.483  -0.728   0.956  1.00  0.00     0.086 A 
HETATM    3  C9  UNL     1      -0.317   0.329   1.338  1.00  0.00     0.039 A 
HETATM    4  C10 UNL     1      -1.116   0.930   0.387  1.00  0.00     0.017 A 
HETATM    5  C11 UNL     1      -1.128   0.497  -0.920  1.00  0.00     0.006 A 
HETATM    6  C16 UNL     1      -0.309  -0.579  -1.290  1.00  0.00     0.077 A 
HETATM    7  N7  UNL     1      -0.304  -1.048  -2.638  1.00  0.00    -0.100 NA
ENDROOT
BRANCH   5   8
HETATM    8  C12 UNL     1      -1.969   1.126  -1.929  1.00  0.00     0.121 C 
HETATM    9  N2  UNL     1      -1.988   0.735  -3.135  1.00  0.00    -0.286 N 
ATOM     10  H2  UNL     1      -1.381  -0.050  -3.372  1.00  0.00     0.187 HD
BRANCH   9  11
HETATM   11  N3  UNL     1      -2.743   1.261  -4.155  1.00  0.00    -0.032 N 
HETATM   12  C13 UNL     1      -3.896   0.682  -4.541  1.00  0.00     0.705 A 
HETATM   13  N5  UNL     1      -4.639   1.191  -5.538  1.00  0.00    -0.139 N 
HETATM   14  C14 UNL     1      -4.208   2.305  -6.154  1.00  0.00     0.342 A 
ATOM     15  H5  UNL     1      -5.510   0.742  -5.821  1.00  0.00     0.189 HD
HETATM   16  O4  UNL     1      -4.895   2.814  -7.109  1.00  0.00    -0.246 OA
HETATM   17  N6  UNL     1      -3.056   2.877  -5.764  1.00  0.00    -0.258 N 
HETATM   18  C15 UNL     1      -2.310   2.375  -4.771  1.00  0.00     0.364 A 
ATOM     19  H6  UNL     1      -2.739   3.722  -6.240  1.00  0.00     0.175 HD
HETATM   20  O5  UNL     1      -1.256   2.946  -4.453  1.00  0.00    -0.244 OA
BRANCH  12  21
HETATM   21  N4  UNL     1      -4.279  -0.372  -3.938  1.00  0.00    -0.233 N 
ATOM     22  H42 UNL     1      -3.715  -0.758  -3.181  1.00  0.00     0.174 HD
ATOM     23  H41 UNL     1      -5.152  -0.811  -4.230  1.00  0.00     0.174 HD
ENDBRANCH  12  21
ENDBRANCH   9  11
ENDBRANCH   5   8
BRANCH   1  24
HETATM   24  C2  UNL     1       1.336  -2.309  -0.772  1.00  0.00     0.297 C 
HETATM   25  O2  UNL     1       1.332  -2.711  -1.962  1.00  0.00    -0.259 OA
BRANCH  24  26
HETATM   26  O1  UNL     1       2.173  -2.977   0.110  1.00  0.00    -0.322 OA
HETATM   27  C1  UNL     1       2.984  -4.065  -0.325  1.00  0.00     0.213 C 
ENDBRANCH  24  26
ENDBRANCH   1  24
BRANCH   2  28
HETATM   28  O3  UNL     1       1.320  -1.413   1.797  1.00  0.00    -0.350 OA
BRANCH  28  29
HETATM   29  C5  UNL     1       1.596  -1.245   3.144  1.00  0.00     0.175 C 
BRANCH  29  30
HETATM   30  C6  UNL     1       2.237   0.041   3.546  1.00  0.00     0.028 C 
BRANCH  30  31
HETATM   31  C7  UNL     1       2.471   0.071   5.064  1.00  0.00     0.029 C 
BRANCH  31  32
HETATM   32  C8  UNL     1       3.127   1.396   5.450  1.00  0.00     0.230 C 
BRANCH  32  33
HETATM   33  N1  UNL     1       3.352   1.440   6.861  1.00  0.00    -0.079 N 
ATOM     34  H13 UNL     1       2.496   1.269   7.389  1.00  0.00     0.274 HD
ATOM     35  H12 UNL     1       3.891   0.638   7.187  1.00  0.00     0.274 HD
ATOM     36  H11 UNL     1       3.790   2.324   7.119  1.00  0.00     0.274 HD
ENDBRANCH  32  33
ENDBRANCH  31  32
ENDBRANCH  30  31
ENDBRANCH  29  30
ENDBRANCH  28  29
ENDBRANCH   2  28
TORSDOF 11
