REMARK  10 active torsions:
REMARK  status: ('A' for Active; 'I' for Inactive)
REMARK    1  A    between atoms: C4_5  and  C5_6 
REMARK    2  A    between atoms: C5_6  and  C6_8 
REMARK    3  A    between atoms: C6_8  and  O3_9 
REMARK    4  A    between atoms: O3_9  and  C7_10 
REMARK    5  A    between atoms: C7_10  and  N1_11 
REMARK    6  A    between atoms: C7_10  and  C8_15 
REMARK    7  A    between atoms: C8_15  and  C9_19 
REMARK    8  A    between atoms: C10_20  and  O4_21 
REMARK    9  A    between atoms: C14_32  and  O7_33 
REMARK   10  A    between atoms: C16_35  and  O8_36 
ROOT
HETATM    1  C1  UNL     1       3.512   4.008   2.124  1.00  0.00     0.210 C 
HETATM    2  O1  UNL     1       3.130   3.320   1.110  1.00  0.00    -0.353 OA
HETATM    3  C2  UNL     1       2.714   2.547   0.143  1.00  0.00     0.105 A 
HETATM    4  C3  UNL     1       2.162   1.274   0.322  1.00  0.00     0.055 A 
HETATM    5  C4  UNL     1       1.743   0.508  -0.719  1.00  0.00     0.017 A 
HETATM    6  C13 UNL     1       1.866   0.999  -1.995  1.00  0.00     0.055 A 
HETATM    7  C14 UNL     1       2.404   2.245  -2.209  1.00  0.00     0.105 A 
HETATM    8  C16 UNL     1       2.831   3.033  -1.173  1.00  0.00     0.135 A 
ENDROOT
BRANCH   8   9
HETATM    9  O8  UNL     1       3.379   4.302  -1.399  1.00  0.00    -0.351 OA
HETATM   10  C17 UNL     1       2.539   5.461  -1.432  1.00  0.00     0.210 C 
ENDBRANCH   8   9
BRANCH   5  11
HETATM   11  C5  UNL     1       1.163  -0.833  -0.524  1.00  0.00     0.183 C 
HETATM   12  O2  UNL     1       0.806  -1.461  -1.545  1.00  0.00    -0.290 OA
BRANCH  11  13
HETATM   13  C6  UNL     1       0.998  -1.430   0.797  1.00  0.00     0.254 C 
BRANCH  13  14
HETATM   14  O3  UNL     1       0.440  -2.661   0.886  1.00  0.00    -0.347 OA
BRANCH  14  15
HETATM   15  C7  UNL     1      -0.880  -2.759   0.390  1.00  0.00     0.370 C 
BRANCH  15  16
HETATM   16  N1  UNL     1      -0.974  -3.938  -0.439  1.00  0.00    -0.047 N 
ATOM     17  H13 UNL     1      -0.275  -3.950  -1.182  1.00  0.00     0.277 HD
ATOM     18  H12 UNL     1      -0.676  -4.783   0.048  1.00  0.00     0.277 HD
ATOM     19  H11 UNL     1      -1.927  -4.009  -0.797  1.00  0.00     0.277 HD
ENDBRANCH  15  16
BRANCH  15  20
HETATM   20  C8  UNL     1      -1.806  -3.024   1.545  1.00  0.00     0.079 C 
HETATM   21  N2  UNL     1      -1.285  -3.344   2.692  1.00  0.00    -0.398 N 
ATOM     22  H22 UNL     1      -0.271  -3.391   2.792  1.00  0.00     0.156 HD
ATOM     23  H21 UNL     1      -1.913  -3.524   3.475  1.00  0.00     0.156 HD
BRANCH  20  24
HETATM   24  C9  UNL     1      -3.219  -2.958   1.406  1.00  0.00     0.109 A 
HETATM   25  C10 UNL     1      -3.949  -2.639   0.308  1.00  0.00     0.162 A 
HETATM   26  N3  UNL     1      -5.328  -2.626   0.299  1.00  0.00    -0.288 N 
HETATM   27  C11 UNL     1      -6.002  -2.941   1.418  1.00  0.00     0.329 A 
ATOM     28  H3  UNL     1      -5.833  -2.379  -0.552  1.00  0.00     0.172 HD
HETATM   29  O5  UNL     1      -7.251  -2.926   1.398  1.00  0.00    -0.247 OA
HETATM   30  N4  UNL     1      -5.305  -3.263   2.529  1.00  0.00    -0.275 N 
HETATM   31  C12 UNL     1      -3.970  -3.282   2.558  1.00  0.00     0.266 A 
ATOM     32  H4  UNL     1      -5.818  -3.501   3.378  1.00  0.00     0.173 HD
HETATM   33  O6  UNL     1      -3.411  -3.595   3.639  1.00  0.00    -0.267 OA
BRANCH  25  34
HETATM   34  O4  UNL     1      -3.316  -2.305  -0.867  1.00  0.00    -0.345 OA
ATOM     35  H4  UNL     1      -3.827  -2.082  -1.636  1.00  0.00     0.219 HD
ENDBRANCH  25  34
ENDBRANCH  20  24
ENDBRANCH  15  20
ENDBRANCH  14  15
ENDBRANCH  13  14
ENDBRANCH  11  13
ENDBRANCH   5  11
BRANCH   7  36
HETATM   36  O7  UNL     1       2.529   2.748  -3.521  1.00  0.00    -0.353 OA
HETATM   37  C15 UNL     1       2.087   1.932  -4.585  1.00  0.00     0.210 C 
ENDBRANCH   7  36
TORSDOF 10
