REMARK  11 active torsions:
REMARK  status: ('A' for Active; 'I' for Inactive)
REMARK    1  A    between atoms: C2_2  and  O1_3 
REMARK    2  A    between atoms: O1_3  and  C3_4 
REMARK       I    between atoms: C3_4  and  N1_6 
REMARK    3  A    between atoms: N1_6  and  C4_8 
REMARK    4  A    between atoms: C5_11  and  N3_12 
REMARK    5  A    between atoms: N3_12  and  C6_14 
REMARK    6  A    between atoms: C6_14  and  C7_15 
REMARK    7  A    between atoms: C7_15  and  N4_16 
REMARK    8  A    between atoms: N4_16  and  N5_17 
REMARK    9  A    between atoms: N5_17  and  S1_19 
REMARK   10  A    between atoms: S1_19  and  C8_22 
REMARK   11  A    between atoms: C10_25  and  N6_26 
ROOT
HETATM    1  C4  UNL     1       2.344   0.069   0.126  1.00  0.00     0.691 A 
HETATM    2  N2  UNL     1       1.131   0.578  -0.211  1.00  0.00    -0.174 N 
ATOM      3  H2  UNL     1       0.793   0.406  -1.158  1.00  0.00     0.186 HD
HETATM    4  C5  UNL     1       0.350   1.285   0.603  1.00  0.00     0.156 A 
HETATM    5  C10 UNL     1       0.809   1.524   1.901  1.00  0.00     0.214 A 
HETATM    6  C11 UNL     1       2.035   1.009   2.240  1.00  0.00     0.296 A 
HETATM    7  O8  UNL     1       2.470   1.215   3.412  1.00  0.00    -0.265 OA
HETATM    8  N7  UNL     1       2.780   0.299   1.370  1.00  0.00    -0.153 N 
ATOM      9  H7  UNL     1       3.686  -0.067   1.663  1.00  0.00     0.187 HD
ENDROOT
BRANCH   4  10
HETATM   10  N3  UNL     1      -0.896   1.827   0.240  1.00  0.00    -0.372 N 
ATOM     11  H3  UNL     1      -1.374   2.386   0.946  1.00  0.00     0.161 HD
BRANCH  10  12
HETATM   12  C6  UNL     1      -1.566   1.675  -1.024  1.00  0.00     0.139 C 
BRANCH  12  13
HETATM   13  C7  UNL     1      -2.102   0.273  -1.137  1.00  0.00     0.155 C 
BRANCH  13  14
HETATM   14  N4  UNL     1      -3.045   0.036  -0.054  1.00  0.00    -0.130 NA
BRANCH  14  15
HETATM   15  N5  UNL     1      -3.593  -1.230  -0.074  1.00  0.00    -0.225 N 
ATOM     16  H5  UNL     1      -3.178  -2.028   0.407  1.00  0.00     0.195 HD
BRANCH  15  17
HETATM   17  S1  UNL     1      -5.051  -1.331  -0.994  1.00  0.00     0.306 S 
HETATM   18  O3  UNL     1      -5.123  -2.759  -1.514  1.00  0.00    -0.196 OA
HETATM   19  O4  UNL     1      -4.993  -0.418  -2.165  1.00  0.00    -0.196 OA
BRANCH  17  20
HETATM   20  C8  UNL     1      -6.447  -1.006   0.029  1.00  0.00     0.260 C 
HETATM   21  C9  UNL     1      -6.894   0.411   0.139  1.00  0.00     0.111 C 
HETATM   22  O5  UNL     1      -7.026  -1.910   0.625  1.00  0.00    -0.279 OA
ENDBRANCH  17  20
ENDBRANCH  15  17
ENDBRANCH  14  15
ENDBRANCH  13  14
ENDBRANCH  12  13
ENDBRANCH  10  12
ENDBRANCH   4  10
BRANCH   5  23
HETATM   23  N6  UNL     1       0.027   2.273   2.829  1.00  0.00    -0.106 N 
HETATM   24  O6  UNL     1      -0.128   3.508   2.770  1.00  0.00    -0.531 OA
HETATM   25  O7  UNL     1      -0.592   1.594   3.847  1.00  0.00    -0.531 OA
ENDBRANCH   5  23
BRANCH   1  26
HETATM   26  N1  UNL     1       3.033  -0.615  -0.752  1.00  0.00    -0.135 N 
HETATM   27  C3  UNL     1       4.294  -1.155  -0.431  1.00  0.00     0.379 C 
HETATM   28  O2  UNL     1       4.391  -2.257   0.157  1.00  0.00    -0.238 OA
ATOM     29  H1  UNL     1       2.650  -0.760  -1.686  1.00  0.00     0.189 HD
BRANCH  27  30
HETATM   30  O1  UNL     1       5.431  -0.452  -0.776  1.00  0.00    -0.304 OA
BRANCH  30  31
HETATM   31  C2  UNL     1       6.731  -0.904  -0.501  1.00  0.00     0.176 C 
HETATM   32  C1  UNL     1       7.065  -2.219  -1.136  1.00  0.00     0.034 C 
ENDBRANCH  30  31
ENDBRANCH  27  30
ENDBRANCH   1  26
TORSDOF 11
