REMARK  13 active torsions:
REMARK  status: ('A' for Active; 'I' for Inactive)
REMARK    1  A    between atoms: N2_5  and  C4_6 
REMARK    2  A    between atoms: C4_6  and  C5_7 
REMARK    3  A    between atoms: C5_7  and  C6_8 
REMARK    4  A    between atoms: C6_8  and  N3_9 
REMARK    5  A    between atoms: N3_9  and  C7_11 
REMARK    6  A    between atoms: C7_11  and  C8_12 
REMARK    7  A    between atoms: C8_12  and  C9_13 
REMARK    8  A    between atoms: C9_13  and  N4_14 
REMARK       I    between atoms: N4_14  and  C10_16 
REMARK    9  A    between atoms: C10_16  and  C11_18 
REMARK   10  A    between atoms: C12_21  and  C13_22 
REMARK   11  A    between atoms: N6_27  and  C17_28 
REMARK   12  A    between atoms: C17_28  and  C18_29 
REMARK   13  A    between atoms: C26_37  and  O2_38 
ROOT
HETATM    1  C11 UNL     1      -1.700   0.095  -0.169  1.00  0.00     0.074 C 
HETATM    2  N5  UNL     1      -1.979   0.728  -1.234  1.00  0.00    -0.382 N 
ATOM      3  H5  UNL     1      -1.211   1.224  -1.686  1.00  0.00     0.160 HD
HETATM    4  C12 UNL     1      -3.271   0.818  -1.871  1.00  0.00     0.105 C 
HETATM    5  C14 UNL     1      -4.449   0.453  -1.064  1.00  0.00     0.016 C 
HETATM    6  C15 UNL     1      -5.193  -0.772  -1.473  1.00  0.00     0.047 C 
HETATM    7  C16 UNL     1      -6.257  -1.125  -0.438  1.00  0.00     0.274 C 
HETATM    8  N6  UNL     1      -5.646  -1.263   0.844  1.00  0.00     0.094 N 
HETATM    9  C21 UNL     1      -5.083  -0.021   1.326  1.00  0.00     0.232 C 
HETATM   10  C22 UNL     1      -6.124   1.081   1.373  1.00  0.00     0.075 C 
HETATM   11  C23 UNL     1      -6.195   1.843   0.093  1.00  0.00    -0.049 A 
HETATM   12  C24 UNL     1      -7.095   2.890   0.085  1.00  0.00     0.010 A 
HETATM   13  C25 UNL     1      -7.245   3.657  -1.049  1.00  0.00     0.037 A 
HETATM   14  C26 UNL     1      -6.528   3.421  -2.183  1.00  0.00     0.066 A 
HETATM   15  C27 UNL     1      -5.618   2.353  -2.152  1.00  0.00     0.045 A 
HETATM   16  C28 UNL     1      -5.465   1.586  -1.026  1.00  0.00    -0.038 A 
HETATM   17  C29 UNL     1      -3.986   0.392   0.404  1.00  0.00     0.040 C 
HETATM   18  C30 UNL     1      -2.852  -0.604   0.493  1.00  0.00     0.070 C 
ENDROOT
BRANCH   1  19
HETATM   19  C10 UNL     1      -0.394   0.020   0.447  1.00  0.00     0.263 C 
HETATM   20  N4  UNL     1       0.693   0.700  -0.165  1.00  0.00    -0.356 N 
ATOM     21  H4  UNL     1       0.559   1.229  -1.026  1.00  0.00     0.162 HD
HETATM   22  O1  UNL     1      -0.302  -0.654   1.511  1.00  0.00    -0.266 OA
BRANCH  20  23
HETATM   23  C9  UNL     1       2.013   0.623   0.471  1.00  0.00     0.128 C 
BRANCH  23  24
HETATM   24  C8  UNL     1       2.587  -0.742   0.529  1.00  0.00     0.064 C 
BRANCH  24  25
HETATM   25  C7  UNL     1       3.844  -0.959   1.262  1.00  0.00     0.061 C 
BRANCH  25  26
HETATM   26  N3  UNL     1       5.055  -0.362   0.978  1.00  0.00    -0.382 N 
ATOM     27  H3  UNL     1       5.821  -0.915   0.593  1.00  0.00     0.163 HD
BRANCH  26  28
HETATM   28  C6  UNL     1       5.229   1.008   1.220  1.00  0.00     0.062 C 
BRANCH  28  29
HETATM   29  C5  UNL     1       6.686   1.469   1.189  1.00  0.00     0.074 C 
BRANCH  29  30
HETATM   30  C4  UNL     1       7.329   1.187  -0.119  1.00  0.00     0.277 C 
BRANCH  30  31
HETATM   31  N2  UNL     1       8.704   1.639  -0.169  1.00  0.00     0.091 N 
HETATM   32  C3  UNL     1       9.284   1.261  -1.439  1.00  0.00     0.291 C 
HETATM   33  C2  UNL     1      10.441   0.305  -1.273  1.00  0.00     0.146 C 
HETATM   34  N1  UNL     1      10.253  -0.698  -0.276  1.00  0.00    -0.413 N 
HETATM   35  C1  UNL     1       9.764  -1.956  -0.733  1.00  0.00     0.143 C 
HETATM   36  C32 UNL     1       9.648  -0.229   0.951  1.00  0.00     0.146 C 
HETATM   37  C31 UNL     1       9.505   1.281   0.953  1.00  0.00     0.291 C 
ENDBRANCH  30  31
ENDBRANCH  29  30
ENDBRANCH  28  29
ENDBRANCH  26  28
ENDBRANCH  25  26
ENDBRANCH  24  25
ENDBRANCH  23  24
ENDBRANCH  20  23
ENDBRANCH   1  19
BRANCH   4  38
HETATM   38  C13 UNL     1      -3.122   0.201  -3.230  1.00  0.00     0.112 C 
HETATM   39  S1  UNL     1      -2.561  -1.520  -3.172  1.00  0.00    -0.096 SA
ENDBRANCH   4  38
BRANCH   8  40
HETATM   40  C17 UNL     1      -6.416  -1.947   1.835  1.00  0.00     0.277 C 
BRANCH  40  41
HETATM   41  C18 UNL     1      -6.621  -3.415   1.567  1.00  0.00     0.014 A 
HETATM   42  C19 UNL     1      -7.445  -4.142   2.641  1.00  0.00     0.007 A 
HETATM   43  C20 UNL     1      -7.924  -3.989   1.237  1.00  0.00     0.007 A 
ENDBRANCH  40  41
ENDBRANCH   8  40
BRANCH  14  44
HETATM   44  O2  UNL     1      -6.673   4.194  -3.338  1.00  0.00    -0.361 OA
ATOM     45  H2  UNL     1      -6.173   4.029  -4.129  1.00  0.00     0.217 HD
ENDBRANCH  14  44
TORSDOF 13
