REMARK  14 active torsions:
REMARK  status: ('A' for Active; 'I' for Inactive)
REMARK    1  A    between atoms: C2_2  and  C3_3 
REMARK    2  A    between atoms: C3_3  and  C4_4 
REMARK    3  A    between atoms: C4_4  and  C5_5 
REMARK    4  A    between atoms: C5_5  and  O1_6 
REMARK    5  A    between atoms: O1_6  and  C6_7 
REMARK       I    between atoms: C6_7  and  N1_9 
REMARK       I    between atoms: N2_12  and  C9_13 
REMARK    6  A    between atoms: C9_13  and  C10_15 
REMARK    7  A    between atoms: C10_15  and  C11_16 
REMARK    8  A    between atoms: C10_15  and  N5_34 
REMARK    9  A    between atoms: C11_16  and  N3_17 
REMARK       I    between atoms: N3_17  and  C12_19 
REMARK   10  A    between atoms: C12_19  and  C13_21 
REMARK   11  A    between atoms: C15_23  and  C16_24 
REMARK       I    between atoms: N5_34  and  C23_36 
REMARK   12  A    between atoms: C23_36  and  C24_38 
REMARK   13  A    between atoms: C24_38  and  C27_41 
REMARK   14  A    between atoms: C27_41  and  N6_42 
ROOT
HETATM    1  C10 UNL     1      -0.630   1.894  -0.606  1.00  0.00     0.194 C 
ENDROOT
BRANCH   1   2
HETATM    2  C9  UNL     1       0.101   1.088   0.381  1.00  0.00     0.244 C 
HETATM    3  N2  UNL     1       1.088   0.125   0.052  1.00  0.00    -0.347 N 
HETATM    4  C8  UNL     1       1.543  -0.206  -1.257  1.00  0.00     0.146 C 
HETATM    5  C28 UNL     1       1.701  -0.607   1.170  1.00  0.00     0.146 C 
HETATM    6  C7  UNL     1       3.019  -0.458  -1.368  1.00  0.00     0.148 C 
HETATM    7  N1  UNL     1       3.672  -0.763  -0.129  1.00  0.00    -0.325 N 
HETATM    8  C6  UNL     1       4.826  -1.621  -0.114  1.00  0.00     0.362 C 
HETATM    9  C29 UNL     1       3.181  -0.211   1.105  1.00  0.00     0.148 C 
HETATM   10  O2  UNL     1       5.397  -1.881   0.977  1.00  0.00    -0.238 OA
HETATM   11  O3  UNL     1      -0.185   1.283   1.614  1.00  0.00    -0.271 OA
BRANCH   8  12
HETATM   12  O1  UNL     1       5.323  -2.166  -1.274  1.00  0.00    -0.304 OA
BRANCH  12  13
HETATM   13  C5  UNL     1       6.445  -2.994  -1.310  1.00  0.00     0.180 C 
BRANCH  13  14
HETATM   14  C4  UNL     1       7.729  -2.344  -0.858  1.00  0.00     0.027 C 
BRANCH  14  15
HETATM   15  C3  UNL     1       8.881  -3.356  -0.950  1.00  0.00     0.002 C 
BRANCH  15  16
HETATM   16  C2  UNL     1      10.175  -2.692  -0.498  1.00  0.00    -0.004 C 
HETATM   17  C1  UNL     1      10.479  -1.502  -1.390  1.00  0.00     0.005 C 
ENDBRANCH  15  16
ENDBRANCH  14  15
ENDBRANCH  13  14
ENDBRANCH  12  13
ENDBRANCH   8  12
ENDBRANCH   1   2
BRANCH   1  18
HETATM   18  C11 UNL     1      -1.532   0.976  -1.405  1.00  0.00     0.158 C 
BRANCH  18  19
HETATM   19  N3  UNL     1      -2.493   0.297  -0.561  1.00  0.00    -0.354 N 
HETATM   20  C12 UNL     1      -3.414  -0.577  -1.123  1.00  0.00     0.253 C 
HETATM   21  O4  UNL     1      -3.327  -0.706  -2.412  1.00  0.00    -0.268 OA
ATOM     22  H3  UNL     1      -2.493   0.461   0.446  1.00  0.00     0.162 HD
BRANCH  20  23
HETATM   23  C13 UNL     1      -4.456  -1.362  -0.507  1.00  0.00     0.053 A 
HETATM   24  C14 UNL     1      -5.450  -1.954  -1.310  1.00  0.00     0.043 A 
HETATM   25  C15 UNL     1      -6.414  -2.666  -0.638  1.00  0.00     0.010 A 
HETATM   26  N4  UNL     1      -6.448  -2.814   0.674  1.00  0.00    -0.358 N 
HETATM   27  C18 UNL     1      -5.491  -2.249   1.490  1.00  0.00     0.051 A 
ATOM     28  H4  UNL     1      -7.201  -3.360   1.094  1.00  0.00     0.166 HD
HETATM   29  C19 UNL     1      -5.436  -2.348   2.835  1.00  0.00     0.045 A 
HETATM   30  C22 UNL     1      -4.506  -1.527   0.867  1.00  0.00     0.047 A 
HETATM   31  C20 UNL     1      -4.403  -1.722   3.468  1.00  0.00    -0.018 A 
HETATM   32  C21 UNL     1      -4.115  -1.679   4.950  1.00  0.00     0.056 C 
HETATM   33  S1  UNL     1      -3.542  -1.016   2.181  1.00  0.00    -0.092 SA
BRANCH  25  34
HETATM   34  C16 UNL     1      -7.528  -3.332  -1.417  1.00  0.00     0.052 C 
HETATM   35  C17 UNL     1      -7.027  -4.718  -1.759  1.00  0.00     0.011 C 
ENDBRANCH  25  34
ENDBRANCH  20  23
ENDBRANCH  18  19
ENDBRANCH   1  18
BRANCH   1  36
HETATM   36  N5  UNL     1      -1.510   2.864   0.028  1.00  0.00    -0.345 N 
HETATM   37  C23 UNL     1      -1.505   4.230  -0.312  1.00  0.00     0.228 C 
HETATM   38  O5  UNL     1      -0.731   4.662  -1.189  1.00  0.00    -0.273 OA
ATOM     39  H5  UNL     1      -2.157   2.541   0.748  1.00  0.00     0.163 HD
BRANCH  37  40
HETATM   40  C24 UNL     1      -2.424   5.162   0.376  1.00  0.00     0.057 C 
HETATM   41  C25 UNL     1      -2.079   5.202   1.853  1.00  0.00     0.027 C 
HETATM   42  C26 UNL     1      -3.843   4.610   0.250  1.00  0.00     0.027 C 
BRANCH  40  43
HETATM   43  C27 UNL     1      -2.377   6.501  -0.287  1.00  0.00     0.247 C 
BRANCH  43  44
HETATM   44  N6  UNL     1      -3.231   7.493   0.295  1.00  0.00    -0.078 N 
ATOM     45  H63 UNL     1      -4.192   7.152   0.334  1.00  0.00     0.274 HD
ATOM     46  H62 UNL     1      -3.035   7.586   1.292  1.00  0.00     0.274 HD
ATOM     47  H61 UNL     1      -3.199   8.407  -0.157  1.00  0.00     0.274 HD
ENDBRANCH  43  44
ENDBRANCH  40  43
ENDBRANCH  37  40
ENDBRANCH   1  36
TORSDOF 14
