REMARK  14 active torsions:
REMARK  status: ('A' for Active; 'I' for Inactive)
REMARK    1  A    between atoms: C3_3  and  N1_4 
REMARK    2  A    between atoms: N1_4  and  C4_5 
REMARK       I    between atoms: N1_4  and  C8_9 
REMARK    3  A    between atoms: C4_5  and  C5_6 
REMARK    4  A    between atoms: C5_6  and  C6_7 
REMARK    5  A    between atoms: C8_9  and  C9_11 
REMARK    6  A    between atoms: C9_11  and  N2_12 
REMARK    7  A    between atoms: C10_13  and  S1_14 
REMARK    8  A    between atoms: S1_14  and  C11_15 
REMARK    9  A    between atoms: C13_19  and  C14_20 
REMARK   10  A    between atoms: C21_29  and  O2_30 
REMARK   11  A    between atoms: N6_38  and  C26_39 
REMARK   12  A    between atoms: C26_39  and  C27_40 
REMARK   13  A    between atoms: C27_40  and  C28_41 
REMARK   14  A    between atoms: C28_41  and  O3_42 
ROOT
HETATM    1  C1  UNL     1       2.586  -5.683  -1.402  1.00  0.00     0.014 C 
HETATM    2  C2  UNL     1       2.815  -4.578  -1.814  1.00  0.00    -0.098 C 
HETATM    3  C3  UNL     1       3.076  -3.196  -2.314  1.00  0.00     0.219 C 
ENDROOT
BRANCH   3   4
HETATM    4  N1  UNL     1       3.153  -2.375  -1.093  1.00  0.00    -0.340 N 
HETATM    5  C8  UNL     1       1.956  -1.792  -0.577  1.00  0.00     0.238 C 
HETATM    6  O1  UNL     1       0.870  -1.968  -1.183  1.00  0.00    -0.271 OA
BRANCH   4   7
HETATM    7  C4  UNL     1       4.449  -2.241  -0.475  1.00  0.00     0.127 C 
BRANCH   7   8
HETATM    8  C5  UNL     1       5.204  -1.017  -0.873  1.00  0.00     0.020 C 
BRANCH   8   9
HETATM    9  C6  UNL     1       5.412  -1.002  -2.371  1.00  0.00    -0.003 C 
HETATM   10  C7  UNL     1       6.170   0.236  -2.818  1.00  0.00     0.005 C 
ENDBRANCH   8   9
ENDBRANCH   7   8
ENDBRANCH   4   7
BRANCH   5  11
HETATM   11  C9  UNL     1       2.058  -0.993   0.674  1.00  0.00     0.234 C 
BRANCH  11  12
HETATM   12  N2  UNL     1       0.818  -0.457   1.125  1.00  0.00    -0.312 N 
HETATM   13  C10 UNL     1       0.008  -1.091   2.002  1.00  0.00     0.148 A 
HETATM   14  N3  UNL     1      -1.179  -0.586   2.390  1.00  0.00    -0.334 N 
HETATM   15  C13 UNL     1      -1.661   0.563   1.957  1.00  0.00     0.076 A 
ATOM     16  H3  UNL     1      -1.736  -1.122   3.056  1.00  0.00     0.168 HD
HETATM   17  C24 UNL     1      -0.867   1.277   1.043  1.00  0.00     0.094 A 
HETATM   18  N5  UNL     1      -1.329   2.443   0.618  1.00  0.00    -0.348 N 
HETATM   19  C30 UNL     1       0.367   0.739   0.649  1.00  0.00     0.135 A 
HETATM   20  C25 UNL     1      -0.582   3.154  -0.237  1.00  0.00     0.186 A 
ATOM     21  H5  UNL     1      -2.234   2.792   0.935  1.00  0.00     0.167 HD
HETATM   22  N6  UNL     1       0.622   2.712  -0.670  1.00  0.00    -0.308 N 
HETATM   23  C29 UNL     1       1.095   1.501  -0.224  1.00  0.00     0.278 A 
HETATM   24  O4  UNL     1       2.191   1.105  -0.622  1.00  0.00    -0.265 OA
BRANCH  13  25
HETATM   25  S1  UNL     1       0.550  -2.666   2.683  1.00  0.00    -0.094 SA
BRANCH  25  26
HETATM   26  C11 UNL     1      -0.056  -4.036   1.712  1.00  0.00     0.078 C 
HETATM   27  C12 UNL     1      -1.579  -4.139   1.811  1.00  0.00     0.016 C 
ENDBRANCH  25  26
ENDBRANCH  13  25
BRANCH  15  28
HETATM   28  C14 UNL     1      -2.942   1.137   2.357  1.00  0.00     0.028 A 
HETATM   29  C15 UNL     1      -3.244   2.144   3.226  1.00  0.00     0.019 A 
HETATM   30  C16 UNL     1      -2.152   2.904   3.962  1.00  0.00     0.069 C 
HETATM   31  N4  UNL     1      -4.548   2.371   3.339  1.00  0.00    -0.358 N 
HETATM   32  C17 UNL     1      -5.158   1.469   2.501  1.00  0.00     0.044 A 
ATOM     33  H4  UNL     1      -5.002   3.070   3.926  1.00  0.00     0.166 HD
HETATM   34  C18 UNL     1      -6.481   1.252   2.229  1.00  0.00     0.039 A 
HETATM   35  C23 UNL     1      -4.196   0.711   1.898  1.00  0.00     0.008 A 
HETATM   36  C19 UNL     1      -6.860   0.245   1.326  1.00  0.00    -0.027 A 
HETATM   37  C20 UNL     1      -8.275  -0.029   0.999  1.00  0.00     0.051 C 
HETATM   38  C21 UNL     1      -5.844  -0.496   0.741  1.00  0.00     0.072 A 
HETATM   39  C22 UNL     1      -4.508  -0.304   0.991  1.00  0.00     0.051 A 
BRANCH  38  40
HETATM   40  O2  UNL     1      -6.243  -1.483  -0.144  1.00  0.00    -0.360 OA
ATOM     41  H2  UNL     1      -5.547  -1.991  -0.545  1.00  0.00     0.217 HD
ENDBRANCH  38  40
ENDBRANCH  15  28
BRANCH  22  42
HETATM   42  C26 UNL     1       1.431   3.495  -1.568  1.00  0.00     0.135 C 
BRANCH  42  43
HETATM   43  C27 UNL     1       1.197   3.283  -3.018  1.00  0.00     0.046 C 
BRANCH  43  44
HETATM   44  C28 UNL     1       2.102   4.195  -3.863  1.00  0.00     0.165 C 
BRANCH  44  45
HETATM   45  O3  UNL     1       1.836   5.535  -3.518  1.00  0.00    -0.401 OA
ATOM     46  H3  UNL     1       2.395   6.098  -4.040  1.00  0.00     0.209 HD
ENDBRANCH  44  45
ENDBRANCH  43  44
ENDBRANCH  42  43
ENDBRANCH  22  42
ENDBRANCH  11  12
ENDBRANCH   5  11
ENDBRANCH   3   4
TORSDOF 14
