REMARK  13 active torsions:
REMARK  status: ('A' for Active; 'I' for Inactive)
REMARK    1  A    between atoms: C2_2  and  C3_3 
REMARK    2  A    between atoms: C3_3  and  N1_4 
REMARK    3  A    between atoms: N1_4  and  C4_5 
REMARK    4  A    between atoms: N1_4  and  C7_8 
REMARK    5  A    between atoms: C4_5  and  C5_6 
REMARK    6  A    between atoms: C7_8  and  C8_9 
REMARK    7  A    between atoms: C8_9  and  N2_10 
REMARK       I    between atoms: N2_10  and  C9_12 
REMARK    8  A    between atoms: C9_12  and  C10_14 
REMARK    9  A    between atoms: C15_23  and  N5_24 
REMARK   10  A    between atoms: N5_24  and  C16_25 
REMARK       I    between atoms: N8_35  and  C22_36 
REMARK       I    between atoms: C22_36  and  N9_38 
REMARK   11  A    between atoms: N9_38  and  C23_40 
REMARK   12  A    between atoms: C23_40  and  C24_41 
REMARK   13  A    between atoms: C24_41  and  N10_42 
ROOT
HETATM    1  C10 UNL     1       3.137   1.391  -0.312  1.00  0.00     0.059 A 
HETATM    2  C11 UNL     1       3.803   2.551   0.113  1.00  0.00     0.105 A 
HETATM    3  N3  UNL     1       3.221   3.318   1.010  1.00  0.00    -0.372 N 
ATOM      4  H3  UNL     1       3.698   4.163   1.324  1.00  0.00     0.164 HD
HETATM    5  C12 UNL     1       2.015   3.019   1.524  1.00  0.00     0.117 A 
HETATM    6  C13 UNL     1       1.348   1.880   1.115  1.00  0.00     0.059 A 
HETATM    7  N4  UNL     1       0.148   1.607   1.612  1.00  0.00    -0.361 N 
ATOM      8  H4  UNL     1      -0.250   2.242   2.304  1.00  0.00     0.165 HD
HETATM    9  C14 UNL     1      -0.554   0.548   1.249  1.00  0.00     0.133 A 
HETATM   10  C15 UNL     1      -0.054  -0.396   0.268  1.00  0.00     0.127 A 
HETATM   11  C29 UNL     1       1.190  -0.087  -0.224  1.00  0.00     0.061 A 
HETATM   12  C30 UNL     1       1.916   1.026   0.165  1.00  0.00     0.012 A 
ENDROOT
BRANCH  10  13
HETATM   13  N5  UNL     1      -0.885  -1.371  -0.020  1.00  0.00    -0.370 NA
BRANCH  13  14
HETATM   14  C16 UNL     1      -1.622  -2.271  -0.288  1.00  0.00     0.261 A 
HETATM   15  N6  UNL     1      -2.980  -2.011  -0.143  1.00  0.00    -0.301 N 
HETATM   16  C17 UNL     1      -3.921  -2.897  -0.336  1.00  0.00     0.122 A 
ATOM     17  H6  UNL     1      -3.260  -1.069   0.131  1.00  0.00     0.171 HD
HETATM   18  C18 UNL     1      -3.518  -4.191  -0.704  1.00  0.00     0.003 A 
HETATM   19  N8  UNL     1      -5.357  -2.851  -0.325  1.00  0.00    -0.285 N 
HETATM   20  C19 UNL     1      -2.183  -4.471  -0.854  1.00  0.00     0.103 A 
HETATM   21  C20 UNL     1      -4.743  -5.040  -0.812  1.00  0.00     0.064 C 
HETATM   22  N7  UNL     1      -1.246  -3.518  -0.648  1.00  0.00    -0.326 N 
ATOM     23  H7  UNL     1      -0.257  -3.740  -0.764  1.00  0.00     0.169 HD
HETATM   24  C21 UNL     1      -5.762  -4.192  -0.003  1.00  0.00     0.140 C 
HETATM   25  C22 UNL     1      -6.141  -1.759  -0.666  1.00  0.00     0.324 C 
HETATM   26  O2  UNL     1      -5.553  -0.682  -1.075  1.00  0.00    -0.247 OA
HETATM   27  N9  UNL     1      -7.577  -1.710  -0.624  1.00  0.00    -0.341 N 
ATOM     28  H9  UNL     1      -8.084  -2.525  -0.280  1.00  0.00     0.164 HD
BRANCH  27  29
HETATM   29  C23 UNL     1      -8.320  -0.572  -1.042  1.00  0.00     0.154 C 
BRANCH  29  30
HETATM   30  C24 UNL     1      -8.134   0.727  -0.381  1.00  0.00     0.292 C 
BRANCH  30  31
HETATM   31  N10 UNL     1      -8.481   0.827   1.018  1.00  0.00     0.090 N 
HETATM   32  C25 UNL     1      -8.218   2.240   1.410  1.00  0.00     0.272 C 
HETATM   33  C26 UNL     1      -9.347   3.001   0.753  1.00  0.00     0.032 C 
HETATM   34  C27 UNL     1     -10.458   1.990   0.524  1.00  0.00     0.032 C 
HETATM   35  C28 UNL     1      -9.936   0.736   1.182  1.00  0.00     0.272 C 
ENDBRANCH  30  31
ENDBRANCH  29  30
ENDBRANCH  27  29
ENDBRANCH  13  14
ENDBRANCH  10  13
BRANCH   1  36
HETATM   36  C9  UNL     1       3.877   0.518  -1.236  1.00  0.00     0.253 C 
HETATM   37  N2  UNL     1       5.081   0.021  -0.699  1.00  0.00    -0.355 N 
ATOM     38  H2  UNL     1       5.265   0.290   0.268  1.00  0.00     0.162 HD
HETATM   39  O1  UNL     1       3.507   0.247  -2.376  1.00  0.00    -0.268 OA
BRANCH  37  40
HETATM   40  C8  UNL     1       6.086  -0.803  -1.300  1.00  0.00     0.153 C 
BRANCH  40  41
HETATM   41  C7  UNL     1       7.195  -1.071  -0.263  1.00  0.00     0.292 C 
BRANCH  41  42
HETATM   42  N1  UNL     1       7.696   0.147   0.251  1.00  0.00     0.089 N 
BRANCH  42  43
HETATM   43  C3  UNL     1       8.264  -0.095   1.624  1.00  0.00     0.272 C 
BRANCH  43  44
HETATM   44  C2  UNL     1       8.295   1.236   2.326  1.00  0.00     0.026 C 
HETATM   45  C1  UNL     1       6.924   1.862   2.416  1.00  0.00     0.007 C 
ENDBRANCH  43  44
ENDBRANCH  42  43
BRANCH  42  46
HETATM   46  C4  UNL     1       8.633   0.907  -0.451  1.00  0.00     0.272 C 
BRANCH  46  47
HETATM   47  C5  UNL     1       8.468   1.204  -1.899  1.00  0.00     0.026 C 
HETATM   48  C6  UNL     1       9.670   2.129  -2.253  1.00  0.00     0.007 C 
ENDBRANCH  46  47
ENDBRANCH  42  46
ENDBRANCH  41  42
ENDBRANCH  40  41
ENDBRANCH  37  40
ENDBRANCH   1  36
TORSDOF 13
