REMARK  19 active torsions:
REMARK  status: ('A' for Active; 'I' for Inactive)
REMARK    1  A    between atoms: C2_2  and  C3_3 
REMARK    2  A    between atoms: C3_3  and  C4_4 
REMARK    3  A    between atoms: C4_4  and  N1_5 
REMARK    4  A    between atoms: C4_4  and  C11_14 
REMARK    5  A    between atoms: N1_5  and  C5_6 
REMARK    6  A    between atoms: C5_6  and  O1_7 
REMARK    7  A    between atoms: C5_6  and  C6_9 
REMARK    8  A    between atoms: C6_9  and  C7_10 
REMARK    9  A    between atoms: C11_14  and  C12_16 
REMARK   10  A    between atoms: C12_16  and  O3_17 
REMARK   11  A    between atoms: C12_16  and  N2_19 
REMARK   12  A    between atoms: N2_19  and  C13_21 
REMARK   13  A    between atoms: C14_26  and  C15_27 
REMARK   14  A    between atoms: C15_27  and  C16_28 
REMARK   15  A    between atoms: C16_28  and  C17_29 
REMARK   16  A    between atoms: C17_29  and  C18_30 
REMARK   17  A    between atoms: C18_30  and  C19_31 
REMARK   18  A    between atoms: C20_36  and  N7_37 
REMARK       I    between atoms: N7_37  and  C21_39 
REMARK   19  A    between atoms: C21_39  and  C22_41 
ROOT
HETATM    1  C13 UNL     1      -1.377  -0.235   0.455  1.00  0.00     0.167 A 
HETATM    2  N3  UNL     1      -1.165  -1.435   0.995  1.00  0.00    -0.279 N 
ATOM      3  H3  UNL     1      -1.943  -2.070   1.174  1.00  0.00     0.189 HD
HETATM    4  N4  UNL     1       0.025  -1.773   1.283  1.00  0.00    -0.296 N 
ATOM      5  H4  UNL     1       0.209  -2.688   1.695  1.00  0.00     0.187 HD
HETATM    6  C14 UNL     1       1.034  -0.933   1.048  1.00  0.00     0.069 A 
HETATM    7  S1  UNL     1       0.218   0.397   0.373  1.00  0.00    -0.038 SA
ENDROOT
BRANCH   6   8
HETATM    8  C15 UNL     1       2.488  -1.165   1.387  1.00  0.00     0.066 C 
BRANCH   8   9
HETATM    9  C16 UNL     1       3.180  -1.743   0.198  1.00  0.00     0.007 C 
BRANCH   9  10
HETATM   10  C17 UNL     1       3.268  -0.856  -0.972  1.00  0.00     0.006 C 
BRANCH  10  11
HETATM   11  C18 UNL     1       4.093   0.361  -0.974  1.00  0.00     0.061 C 
BRANCH  11  12
HETATM   12  C19 UNL     1       5.547   0.181  -0.932  1.00  0.00     0.049 A 
HETATM   13  N5  UNL     1       6.139   0.039  -2.196  1.00  0.00    -0.289 N 
HETATM   14  N6  UNL     1       7.404  -0.179  -2.284  1.00  0.00    -0.132 N 
ATOM     15  H5  UNL     1       5.570   0.108  -3.040  1.00  0.00     0.187 HD
HETATM   16  C20 UNL     1       8.216  -0.279  -1.193  1.00  0.00     0.699 A 
ATOM     17  H6  UNL     1       7.818  -0.282  -3.211  1.00  0.00     0.205 HD
HETATM   18  N8  UNL     1       7.657  -0.146   0.011  1.00  0.00    -0.192 N 
HETATM   19  C26 UNL     1       6.311   0.088   0.161  1.00  0.00     0.046 A 
ATOM     20  H8  UNL     1       8.244  -0.220   0.842  1.00  0.00     0.184 HD
HETATM   21  C27 UNL     1       5.833   0.299   1.527  1.00  0.00     0.071 C 
BRANCH  16  22
HETATM   22  N7  UNL     1       9.500  -0.478  -1.344  1.00  0.00    -0.158 N 
HETATM   23  C21 UNL     1      10.332  -0.583  -0.201  1.00  0.00     0.243 C 
HETATM   24  O4  UNL     1      10.090  -1.567   0.569  1.00  0.00    -0.272 OA
ATOM     25  H7  UNL     1       9.900  -0.557  -2.279  1.00  0.00     0.187 HD
BRANCH  23  26
HETATM   26  C22 UNL     1      11.413   0.363   0.112  1.00  0.00     0.031 C 
HETATM   27  C23 UNL     1      12.169  -0.166   1.321  1.00  0.00     0.025 C 
HETATM   28  C24 UNL     1      12.408   0.485  -1.025  1.00  0.00     0.025 C 
HETATM   29  C25 UNL     1      10.885   1.760   0.444  1.00  0.00     0.025 C 
ENDBRANCH  23  26
ENDBRANCH  16  22
ENDBRANCH  11  12
ENDBRANCH  10  11
ENDBRANCH   9  10
ENDBRANCH   8   9
ENDBRANCH   6   8
BRANCH   1  30
HETATM   30  N2  UNL     1      -2.512   0.365   0.222  1.00  0.00    -0.313 N 
ATOM     31  H2  UNL     1      -2.439   1.282  -0.219  1.00  0.00     0.170 HD
BRANCH  30  32
HETATM   32  C12 UNL     1      -3.797  -0.064   0.487  1.00  0.00     0.192 C 
BRANCH  32  33
HETATM   33  C11 UNL     1      -5.066  -0.062  -0.088  1.00  0.00     0.235 C 
HETATM   34  O2  UNL     1      -5.366   0.408  -1.239  1.00  0.00    -0.285 OA
BRANCH  33  35
HETATM   35  C4  UNL     1      -6.280  -0.644   0.698  1.00  0.00     0.243 C 
BRANCH  35  36
HETATM   36  C3  UNL     1      -6.606  -1.982   0.116  1.00  0.00     0.047 C 
BRANCH  36  37
HETATM   37  C2  UNL     1      -5.455  -2.959   0.321  1.00  0.00    -0.001 C 
HETATM   38  C1  UNL     1      -5.861  -4.276  -0.312  1.00  0.00     0.005 C 
ENDBRANCH  36  37
ENDBRANCH  35  36
BRANCH  35  39
HETATM   39  N1  UNL     1      -7.327   0.345   0.570  1.00  0.00    -0.415 NA
BRANCH  39  40
HETATM   40  C5  UNL     1      -8.252   1.231   0.463  1.00  0.00     0.185 C 
BRANCH  40  41
HETATM   41  O1  UNL     1      -8.324   2.386   1.100  1.00  0.00    -0.339 OA
ATOM     42  H1  UNL     1      -9.008   3.041   1.021  1.00  0.00     0.220 HD
ENDBRANCH  40  41
BRANCH  40  43
HETATM   43  C6  UNL     1      -9.470   1.088  -0.437  1.00  0.00     0.108 C 
BRANCH  43  44
HETATM   44  C7  UNL     1     -10.380   2.271  -0.347  1.00  0.00    -0.043 C 
HETATM   45  C8  UNL     1     -10.997   2.576   0.973  1.00  0.00     0.015 C 
HETATM   46  C9  UNL     1      -9.622   3.524  -0.840  1.00  0.00     0.015 C 
HETATM   47  C10 UNL     1     -11.528   2.066  -1.322  1.00  0.00     0.015 C 
ENDBRANCH  43  44
ENDBRANCH  40  43
ENDBRANCH  39  40
ENDBRANCH  35  39
ENDBRANCH  33  35
ENDBRANCH  32  33
BRANCH  32  48
HETATM   48  O3  UNL     1      -3.792  -0.670   1.709  1.00  0.00    -0.343 OA
ATOM     49  H3  UNL     1      -2.927  -0.671   2.101  1.00  0.00     0.219 HD
ENDBRANCH  32  48
ENDBRANCH  30  32
ENDBRANCH   1  30
TORSDOF 19
