REMARK  13 active torsions:
REMARK  status: ('A' for Active; 'I' for Inactive)
REMARK    1  A    between atoms: C2_2  and  C4_4 
REMARK    2  A    between atoms: C4_4  and  O1_5 
REMARK    3  A    between atoms: O1_5  and  C5_6 
REMARK    4  A    between atoms: C16_19  and  O4_21 
REMARK    5  A    between atoms: C18_23  and  O5_24 
REMARK    6  A    between atoms: C19_26  and  C20_27 
REMARK    7  A    between atoms: C19_26  and  N4_50 
REMARK    8  A    between atoms: C20_27  and  C22_29 
REMARK    9  A    between atoms: C22_29  and  C23_30 
REMARK   10  A    between atoms: C23_30  and  C24_31 
REMARK   11  A    between atoms: C25_33  and  N1_34 
REMARK   12  A    between atoms: C28_37  and  N2_38 
REMARK   13  A    between atoms: C30_45  and  O8_46 
ROOT
HETATM    1  C5  UNL     1      -3.575   0.695   0.584  1.00  0.00     0.296 C 
HETATM    2  O2  UNL     1      -2.521   1.559   0.497  1.00  0.00    -0.347 OA
HETATM    3  C6  UNL     1      -1.529   1.296  -0.448  1.00  0.00     0.200 C 
HETATM    4  C7  UNL     1      -2.254   0.994  -1.717  1.00  0.00     0.084 C 
HETATM    5  C8  UNL     1      -3.105   2.258  -1.983  1.00  0.00     0.048 C 
HETATM    6  C9  UNL     1      -1.459   0.783  -2.957  1.00  0.00     0.048 C 
HETATM    7  O3  UNL     1      -3.159  -0.044  -1.640  1.00  0.00    -0.361 OA
HETATM    8  C10 UNL     1      -3.632  -0.382  -0.411  1.00  0.00     0.121 C 
HETATM    9  C11 UNL     1      -5.095  -0.786  -0.617  1.00  0.00     0.022 C 
HETATM   10  C12 UNL     1      -5.349  -1.119  -2.079  1.00  0.00     0.013 C 
HETATM   11  C13 UNL     1      -5.355  -2.004   0.187  1.00  0.00     0.008 C 
HETATM   12  C14 UNL     1      -4.075  -2.296   0.919  1.00  0.00     0.011 C 
HETATM   13  C15 UNL     1      -3.054  -1.689   0.001  1.00  0.00     0.062 C 
HETATM   14  C16 UNL     1      -1.751  -1.666   0.710  1.00  0.00     0.089 C 
HETATM   15  C17 UNL     1      -1.355  -3.170   0.761  1.00  0.00     0.049 C 
HETATM   16  C18 UNL     1      -0.613  -1.023   0.002  1.00  0.00     0.194 C 
HETATM   17  C19 UNL     1      -0.484   0.451   0.059  1.00  0.00     0.176 C 
ENDROOT
BRANCH  17  18
HETATM   18  C20 UNL     1       0.928   0.811  -0.365  1.00  0.00    -0.050 C 
HETATM   19  C21 UNL     1       1.200   2.058  -0.665  1.00  0.00     0.017 C 
BRANCH  18  20
HETATM   20  C22 UNL     1       2.011  -0.205  -0.352  1.00  0.00     0.039 C 
BRANCH  20  21
HETATM   21  C23 UNL     1       3.333   0.423  -0.695  1.00  0.00     0.039 C 
BRANCH  21  22
HETATM   22  C24 UNL     1       4.409  -0.681  -0.659  1.00  0.00     0.161 C 
HETATM   23  O6  UNL     1       5.633  -0.152  -0.971  1.00  0.00    -0.355 OA
HETATM   24  C25 UNL     1       6.332  -0.029   0.197  1.00  0.00     0.264 C 
HETATM   25  C30 UNL     1       5.985  -1.326   0.934  1.00  0.00     0.204 C 
HETATM   26  C31 UNL     1       4.486  -1.368   0.663  1.00  0.00     0.232 C 
HETATM   27  F1  UNL     1       4.050  -2.663   0.553  1.00  0.00    -0.244 F 
BRANCH  24  28
HETATM   28  N1  UNL     1       7.753   0.127   0.044  1.00  0.00    -0.280 N 
HETATM   29  C26 UNL     1       8.476   0.343   1.163  1.00  0.00     0.102 A 
HETATM   30  C27 UNL     1       9.838   0.503   1.104  1.00  0.00     0.065 A 
HETATM   31  C28 UNL     1      10.466   0.441  -0.115  1.00  0.00     0.103 A 
HETATM   32  N3  UNL     1       9.738   0.227  -1.219  1.00  0.00    -0.295 N 
HETATM   33  C29 UNL     1       8.415   0.075  -1.129  1.00  0.00     0.330 A 
ATOM     34  H3  UNL     1      10.195   0.180  -2.130  1.00  0.00     0.172 HD
HETATM   35  O7  UNL     1       7.695  -0.130  -2.161  1.00  0.00    -0.246 OA
BRANCH  31  36
HETATM   36  N2  UNL     1      11.762   0.593  -0.180  1.00  0.00    -0.385 N 
ATOM     37  H22 UNL     1      12.316   0.756   0.661  1.00  0.00     0.157 HD
ATOM     38  H21 UNL     1      12.229   0.547  -1.086  1.00  0.00     0.157 HD
ENDBRANCH  31  36
ENDBRANCH  24  28
BRANCH  25  39
HETATM   39  O8  UNL     1       6.160  -1.229   2.298  1.00  0.00    -0.388 OA
ATOM     40  H8  UNL     1       5.945  -2.033   2.755  1.00  0.00     0.210 HD
ENDBRANCH  25  39
ENDBRANCH  21  22
ENDBRANCH  20  21
ENDBRANCH  18  20
ENDBRANCH  17  18
BRANCH  17  41
HETATM   41  N4  UNL     1      -0.337   0.733   1.504  1.00  0.00    -0.135 N 
HETATM   42  O9  UNL     1      -1.015   1.544   2.103  1.00  0.00    -0.535 OA
HETATM   43  O10 UNL     1       0.623   0.044   2.178  1.00  0.00    -0.535 OA
ENDBRANCH  17  41
BRANCH  16  44
HETATM   44  O5  UNL     1      -0.521  -1.606  -1.255  1.00  0.00    -0.389 OA
ATOM     45  H5  UNL     1       0.206  -1.195  -1.707  1.00  0.00     0.210 HD
ENDBRANCH  16  44
BRANCH  14  46
HETATM   46  O4  UNL     1      -1.811  -1.317   2.032  1.00  0.00    -0.387 OA
ATOM     47  H4  UNL     1      -0.977  -1.302   2.486  1.00  0.00     0.210 HD
ENDBRANCH  14  46
BRANCH   1  48
HETATM   48  O1  UNL     1      -4.738   1.461   0.538  1.00  0.00    -0.354 OA
BRANCH  48  49
HETATM   49  C4  UNL     1      -5.429   1.479   1.750  1.00  0.00     0.204 C 
BRANCH  49  50
HETATM   50  C2  UNL     1      -6.661   2.299   1.619  1.00  0.00    -0.070 C 
HETATM   51  C1  UNL     1      -6.922   2.864   0.450  1.00  0.00     0.016 C 
HETATM   52  C3  UNL     1      -7.593   2.495   2.759  1.00  0.00     0.044 C 
ENDBRANCH  49  50
ENDBRANCH  48  49
ENDBRANCH   1  48
TORSDOF 13
