REMARK  17 active torsions:
REMARK  status: ('A' for Active; 'I' for Inactive)
REMARK    1  A    between atoms: C2_2  and  O2_4 
REMARK    2  A    between atoms: O2_4  and  C3_5 
REMARK    3  A    between atoms: C4_6  and  C6_8 
REMARK    4  A    between atoms: C6_8  and  O3_9 
REMARK    5  A    between atoms: C8_13  and  C9_14 
REMARK    6  A    between atoms: N1_15  and  O5_17 
REMARK    7  A    between atoms: C12_22  and  O6_23 
REMARK    8  A    between atoms: O6_23  and  C13_24 
REMARK    9  A    between atoms: C13_24  and  C14_26 
REMARK   10  A    between atoms: C22_34  and  C23_35 
REMARK   11  A    between atoms: C23_35  and  C25_37 
REMARK   12  A    between atoms: C25_37  and  C26_39 
REMARK   13  A    between atoms: C26_39  and  O9_40 
REMARK   14  A    between atoms: C26_39  and  N2_42 
REMARK   15  A    between atoms: N2_42  and  C27_45 
REMARK   16  A    between atoms: C27_45  and  C28_46 
REMARK   17  A    between atoms: C28_46  and  N3_47 
ROOT
HETATM    1  C3  UNL     1      -0.369  -2.563   0.402  1.00  0.00     0.177 C 
HETATM    2  C4  UNL     1      -1.716  -3.157   0.582  1.00  0.00     0.106 C 
HETATM    3  C5  UNL     1      -2.034  -4.335  -0.312  1.00  0.00     0.051 C 
HETATM    4  O4  UNL     1      -2.751  -2.274   0.353  1.00  0.00    -0.369 OA
HETATM    5  C7  UNL     1      -2.492  -1.238  -0.505  1.00  0.00     0.144 C 
HETATM    6  C8  UNL     1      -3.875  -0.610  -0.724  1.00  0.00     0.057 C 
HETATM    7  C10 UNL     1      -4.433  -0.044   0.536  1.00  0.00     0.035 C 
HETATM    8  C11 UNL     1      -3.432   0.029   1.666  1.00  0.00     0.113 C 
HETATM    9 CL1  UNL     1      -4.116   1.178   2.843  1.00  0.00    -0.122 Cl
HETATM   10  C12 UNL     1      -2.148   0.657   1.034  1.00  0.00     0.162 C 
HETATM   11  C18 UNL     1      -1.493  -0.278   0.097  1.00  0.00     0.029 A 
HETATM   12  C19 UNL     1      -0.573   0.308  -0.945  1.00  0.00     0.005 A 
HETATM   13  C20 UNL     1      -0.044   1.679  -0.747  1.00  0.00     0.006 C 
HETATM   14  C21 UNL     1       1.415   1.504  -1.228  1.00  0.00     0.006 C 
HETATM   15  C22 UNL     1       1.752   0.373  -0.217  1.00  0.00     0.002 C 
HETATM   16  C29 UNL     1       0.632  -0.514  -0.442  1.00  0.00     0.007 A 
HETATM   17  C30 UNL     1      -0.294  -1.056   0.580  1.00  0.00     0.003 A 
HETATM   18  C31 UNL     1      -0.048  -0.623   2.031  1.00  0.00     0.019 C 
ENDROOT
BRANCH  15  19
HETATM   19  C23 UNL     1       3.136  -0.029  -0.651  1.00  0.00     0.060 C 
HETATM   20  C24 UNL     1       3.243  -0.527  -2.050  1.00  0.00     0.018 C 
BRANCH  19  21
HETATM   21  C25 UNL     1       3.905  -0.832   0.290  1.00  0.00     0.186 C 
HETATM   22  O8  UNL     1       3.438  -1.159   1.354  1.00  0.00    -0.293 OA
BRANCH  21  23
HETATM   23  C26 UNL     1       5.283  -1.281  -0.007  1.00  0.00     0.389 C 
BRANCH  23  24
HETATM   24  O9  UNL     1       5.800  -2.030   1.054  1.00  0.00    -0.364 OA
ATOM     25  H9  UNL     1       6.685  -2.318   0.863  1.00  0.00     0.212 HD
ENDBRANCH  23  24
BRANCH  23  26
HETATM   26  N2  UNL     1       6.175  -0.196  -0.364  1.00  0.00    -0.040 N 
ATOM     27  H22 UNL     1       7.075  -0.546  -0.693  1.00  0.00     0.280 HD
ATOM     28  H21 UNL     1       5.867   0.275  -1.215  1.00  0.00     0.280 HD
BRANCH  26  29
HETATM   29  C27 UNL     1       6.340   0.742   0.730  1.00  0.00     0.263 C 
BRANCH  29  30
HETATM   30  C28 UNL     1       7.263   1.874   0.366  1.00  0.00     0.257 C 
BRANCH  30  31
HETATM   31  N3  UNL     1       6.749   2.622  -0.776  1.00  0.00    -0.078 N 
ATOM     32  H33 UNL     1       6.568   2.013  -1.574  1.00  0.00     0.274 HD
ATOM     33  H32 UNL     1       5.797   2.951  -0.613  1.00  0.00     0.274 HD
ATOM     34  H31 UNL     1       7.374   3.389  -1.023  1.00  0.00     0.274 HD
ENDBRANCH  30  31
ENDBRANCH  29  30
ENDBRANCH  26  29
ENDBRANCH  23  26
ENDBRANCH  21  23
ENDBRANCH  19  21
ENDBRANCH  15  19
BRANCH   1  35
HETATM   35  O2  UNL     1       0.477  -3.093  -0.541  1.00  0.00    -0.312 OA
BRANCH  35  36
HETATM   36  C2  UNL     1       1.579  -3.833  -0.521  1.00  0.00     0.255 C 
HETATM   37  C1  UNL     1       2.301  -4.277  -1.744  1.00  0.00     0.126 C 
HETATM   38  O1  UNL     1       1.941  -4.115   0.632  1.00  0.00    -0.266 OA
ENDBRANCH  35  36
ENDBRANCH   1  35
BRANCH  10  39
HETATM   39  O6  UNL     1      -2.755   1.791   0.387  1.00  0.00    -0.313 OA
BRANCH  39  40
HETATM   40  C13 UNL     1      -2.659   3.080   0.856  1.00  0.00     0.267 C 
HETATM   41  O7  UNL     1      -1.989   3.255   1.898  1.00  0.00    -0.264 OA
BRANCH  40  42
HETATM   42  C14 UNL     1      -3.291   4.242   0.218  1.00  0.00     0.037 C 
HETATM   43  C15 UNL     1      -2.942   5.520   0.983  1.00  0.00     0.025 C 
HETATM   44  C16 UNL     1      -2.851   4.480  -1.202  1.00  0.00     0.025 C 
HETATM   45  C17 UNL     1      -4.811   4.135   0.225  1.00  0.00     0.025 C 
ENDBRANCH  40  42
ENDBRANCH  39  40
ENDBRANCH  10  39
BRANCH   2  46
HETATM   46  C6  UNL     1      -1.974  -3.684   1.991  1.00  0.00     0.204 C 
BRANCH  46  47
HETATM   47  O3  UNL     1      -0.965  -4.594   2.310  1.00  0.00    -0.398 OA
ATOM     48  H3  UNL     1      -1.126  -4.922   3.187  1.00  0.00     0.209 HD
ENDBRANCH  46  47
ENDBRANCH   2  46
BRANCH   6  49
HETATM   49  C9  UNL     1      -3.965   0.219  -1.922  1.00  0.00     0.094 C 
HETATM   50  N1  UNL     1      -5.078   0.357  -2.570  1.00  0.00    -0.284 N 
ATOM     51  H1  UNL     1      -5.116   0.942  -3.405  1.00  0.00     0.192 HD
BRANCH  50  52
HETATM   52  O5  UNL     1      -6.208  -0.288  -2.127  1.00  0.00    -0.291 OA
ATOM     53  H5  UNL     1      -7.024  -0.187  -2.602  1.00  0.00     0.244 HD
ENDBRANCH  50  52
ENDBRANCH   6  49
TORSDOF 17
