REMARK  15 active torsions:
REMARK  status: ('A' for Active; 'I' for Inactive)
REMARK    1  A    between atoms: C3_3  and  O1_4 
REMARK    2  A    between atoms: O1_4  and  C4_5 
REMARK    3  A    between atoms: C4_5  and  C5_7 
REMARK    4  A    between atoms: C10_12  and  C11_13 
REMARK    5  A    between atoms: C11_13  and  O3_14 
REMARK    6  A    between atoms: O3_14  and  C12_15 
REMARK    7  A    between atoms: C13_17  and  C14_18 
REMARK    8  A    between atoms: C14_18  and  O5_19 
REMARK    9  A    between atoms: C15_21  and  O6_22 
REMARK   10  A    between atoms: C16_24  and  O7_25 
REMARK   11  A    between atoms: C17_27  and  O8_28 
REMARK   12  A    between atoms: C20_32  and  O9_33 
REMARK   13  A    between atoms: O9_33  and  C21_34 
REMARK   14  A    between atoms: C23_37  and  C24_38 
REMARK   15  A    between atoms: C29_45  and  O12_47 
ROOT
HETATM    1  C1  UNL     1      -1.866   2.871   1.110  1.00  0.00     0.017 C 
HETATM    2  C2  UNL     1      -1.215   2.416   0.077  1.00  0.00    -0.051 C 
HETATM    3  C3  UNL     1      -1.368   3.054  -1.298  1.00  0.00     0.164 C 
HETATM    4  C7  UNL     1      -1.373   2.034  -2.373  1.00  0.00     0.071 C 
HETATM    5  C8  UNL     1      -0.688   0.742  -2.099  1.00  0.00    -0.074 C 
HETATM    6  C9  UNL     1       0.054   0.261  -3.061  1.00  0.00     0.015 C 
HETATM    7  C10 UNL     1      -0.939   0.159  -0.751  1.00  0.00     0.020 C 
HETATM    8  C18 UNL     1      -0.238  -0.987  -0.262  1.00  0.00     0.029 C 
HETATM    9  C19 UNL     1       0.214  -2.115  -1.064  1.00  0.00     0.014 C 
HETATM   10  C20 UNL     1       0.937  -0.511   0.659  1.00  0.00     0.164 C 
HETATM   11  C29 UNL     1       0.206   0.702   1.325  1.00  0.00     0.089 C 
HETATM   12  C30 UNL     1       1.137   1.619   2.046  1.00  0.00     0.049 C 
HETATM   13  C31 UNL     1      -0.308   1.313   0.110  1.00  0.00     0.068 C 
ENDROOT
BRANCH   7  14
HETATM   14  C11 UNL     1      -2.413   0.127  -0.624  1.00  0.00     0.186 C 
BRANCH  14  15
HETATM   15  O3  UNL     1      -3.159  -0.346   0.346  1.00  0.00    -0.357 OA
BRANCH  15  16
HETATM   16  C12 UNL     1      -3.460  -1.629   0.595  1.00  0.00     0.291 C 
HETATM   17  O4  UNL     1      -4.887  -1.813   0.292  1.00  0.00    -0.348 OA
HETATM   18  C13 UNL     1      -4.991  -3.156  -0.045  1.00  0.00     0.179 C 
HETATM   19  C15 UNL     1      -4.904  -3.970   1.217  1.00  0.00     0.180 C 
HETATM   20  C16 UNL     1      -3.586  -3.681   1.869  1.00  0.00     0.183 C 
HETATM   21  C17 UNL     1      -3.368  -2.161   1.984  1.00  0.00     0.204 C 
BRANCH  18  22
HETATM   22  C14 UNL     1      -6.317  -3.339  -0.753  1.00  0.00     0.198 C 
BRANCH  22  23
HETATM   23  O5  UNL     1      -6.257  -2.492  -1.885  1.00  0.00    -0.398 OA
ATOM     24  H5  UNL     1      -7.089  -2.607  -2.329  1.00  0.00     0.209 HD
ENDBRANCH  22  23
ENDBRANCH  18  22
BRANCH  19  25
HETATM   25  O6  UNL     1      -4.994  -5.319   0.915  1.00  0.00    -0.390 OA
ATOM     26  H6  UNL     1      -4.939  -5.833   1.712  1.00  0.00     0.210 HD
ENDBRANCH  19  25
BRANCH  20  27
HETATM   27  O7  UNL     1      -3.571  -4.292   3.115  1.00  0.00    -0.390 OA
ATOM     28  H7  UNL     1      -2.735  -4.109   3.528  1.00  0.00     0.210 HD
ENDBRANCH  20  27
BRANCH  21  29
HETATM   29  O8  UNL     1      -4.325  -1.687   2.856  1.00  0.00    -0.388 OA
ATOM     30  H8  UNL     1      -4.266  -2.026   3.741  1.00  0.00     0.210 HD
ENDBRANCH  21  29
ENDBRANCH  15  16
ENDBRANCH  14  15
ENDBRANCH   7  14
BRANCH  10  31
HETATM   31  O9  UNL     1       2.046  -0.164  -0.027  1.00  0.00    -0.351 OA
BRANCH  31  32
HETATM   32  C21 UNL     1       3.238  -0.752   0.356  1.00  0.00     0.284 C 
HETATM   33  O10 UNL     1       3.788  -1.630  -0.652  1.00  0.00    -0.330 OA
HETATM   34  C22 UNL     1       4.925  -2.302  -0.248  1.00  0.00     0.149 C 
HETATM   35  C23 UNL     1       5.824  -1.659   0.464  1.00  0.00     0.015 C 
HETATM   36  C26 UNL     1       5.681  -0.242   0.800  1.00  0.00     0.043 C 
HETATM   37  C27 UNL     1       6.532   0.546  -0.197  1.00  0.00     0.017 C 
HETATM   38  C28 UNL     1       4.258   0.231   0.785  1.00  0.00     0.146 C 
HETATM   39 CL1  UNL     1       4.247   1.718  -0.209  1.00  0.00    -0.119 Cl
BRANCH  35  40
HETATM   40  C24 UNL     1       7.019  -2.413   0.877  1.00  0.00     0.154 C 
HETATM   41  C25 UNL     1       8.053  -1.739   1.691  1.00  0.00     0.096 C 
HETATM   42  O11 UNL     1       7.169  -3.611   0.550  1.00  0.00    -0.293 OA
ENDBRANCH  35  40
ENDBRANCH  31  32
ENDBRANCH  10  31
BRANCH  11  43
HETATM   43  O12 UNL     1      -0.718   0.256   2.235  1.00  0.00    -0.387 OA
ATOM     44  H12 UNL     1      -1.162   0.992   2.639  1.00  0.00     0.210 HD
ENDBRANCH  11  43
BRANCH   3  45
HETATM   45  O1  UNL     1      -0.397   4.018  -1.557  1.00  0.00    -0.311 OA
BRANCH  45  46
HETATM   46  C4  UNL     1      -0.673   5.346  -1.831  1.00  0.00     0.259 C 
HETATM   47  O2  UNL     1      -1.917   5.650  -1.840  1.00  0.00    -0.265 OA
BRANCH  46  48
HETATM   48  C5  UNL     1       0.360   6.381  -2.103  1.00  0.00     0.106 C 
HETATM   49  C6  UNL     1      -0.287   7.662  -2.532  1.00  0.00     0.015 C 
ENDBRANCH  46  48
ENDBRANCH  45  46
ENDBRANCH   3  45
TORSDOF 15
