REMARK  2 active torsions:
REMARK  status: ('A' for Active; 'I' for Inactive)
REMARK    1  A    between atoms: N1_1  and  N2_4 
REMARK       I    between atoms: N2_4  and  C1_6 
REMARK       I    between atoms: C1_6  and  N3_8 
REMARK    2  A    between atoms: C4_15  and  N6_16 
ROOT
HETATM    1  N2  UNL     1      -3.198   0.259  -0.180  1.00  0.00    -0.257 N 
ATOM      2  H2  UNL     1      -3.441   0.646   0.732  1.00  0.00     0.191 HD
HETATM    3  C1  UNL     1      -1.842  -0.008  -0.474  1.00  0.00     0.350 C 
HETATM    4  O1  UNL     1      -1.630  -0.492  -1.641  1.00  0.00    -0.244 OA
HETATM    5  N3  UNL     1      -0.750   0.216   0.403  1.00  0.00    -0.196 N 
HETATM    6  C2  UNL     1      -0.710   0.705   1.653  1.00  0.00     0.351 A 
HETATM    7  O2  UNL     1      -1.690   1.081   2.330  1.00  0.00    -0.244 OA
HETATM    8  N4  UNL     1       0.592   0.726   2.075  1.00  0.00    -0.243 N 
ATOM      9  H4  UNL     1       0.925   1.047   2.984  1.00  0.00     0.192 HD
HETATM   10  N5  UNL     1       1.340   0.256   1.094  1.00  0.00    -0.244 N 
HETATM   11  C3  UNL     1       2.629  -0.026   0.744  1.00  0.00     0.154 A 
HETATM   12  C4  UNL     1       2.656  -0.534  -0.535  1.00  0.00     0.124 A 
HETATM   13  C5  UNL     1       1.337  -0.546  -0.939  1.00  0.00     0.088 A 
HETATM   14  C6  UNL     1       0.535  -0.058   0.070  1.00  0.00     0.144 A 
ENDROOT
BRANCH   1  15
HETATM   15  N1  UNL     1      -4.214   0.008  -1.104  1.00  0.00    -0.341 N 
ATOM     16  H12 UNL     1      -3.953  -0.379  -2.011  1.00  0.00     0.177 HD
ATOM     17  H11 UNL     1      -5.193   0.201  -0.892  1.00  0.00     0.177 HD
ENDBRANCH   1  15
BRANCH  12  18
HETATM   18  N6  UNL     1       3.802  -0.948  -1.261  1.00  0.00    -0.114 N 
HETATM   19  O3  UNL     1       3.750  -1.399  -2.419  1.00  0.00    -0.532 OA
HETATM   20  O4  UNL     1       5.035  -0.853  -0.672  1.00  0.00    -0.532 OA
ENDBRANCH  12  18
TORSDOF 2
