REMARK  1 active torsions:
REMARK  status: ('A' for Active; 'I' for Inactive)
REMARK    1  A    between atoms: N1_1  and  N2_4 
ROOT
HETATM    1  N2  UNL     1       2.009  -0.172   0.105  1.00  0.00    -0.199 N 
HETATM    2  C1  UNL     1       1.737   1.164   0.021  1.00  0.00     0.201 A 
HETATM    3  S1  UNL     1       2.972   2.231   0.023  1.00  0.00    -0.038 SA
HETATM    4  N3  UNL     1       0.466   1.589  -0.062  1.00  0.00    -0.317 N 
ATOM      5  H3  UNL     1       0.296   2.593  -0.124  1.00  0.00     0.170 HD
HETATM    6  C2  UNL     1      -0.591   0.764  -0.068  1.00  0.00     0.126 A 
HETATM    7  N4  UNL     1      -1.860   1.190  -0.151  1.00  0.00    -0.309 N 
ATOM      8  H4  UNL     1      -2.026   2.195  -0.212  1.00  0.00     0.170 HD
HETATM    9  C3  UNL     1      -2.927   0.370  -0.158  1.00  0.00     0.246 A 
HETATM   10  O1  UNL     1      -4.108   0.830  -0.239  1.00  0.00    -0.268 OA
HETATM   11  C4  UNL     1      -2.707  -0.989  -0.076  1.00  0.00     0.075 A 
HETATM   12  C5  UNL     1      -1.403  -1.469   0.012  1.00  0.00     0.026 A 
HETATM   13  C6  UNL     1      -0.325  -0.608   0.017  1.00  0.00     0.078 A 
HETATM   14  C7  UNL     1       0.981  -1.039   0.102  1.00  0.00     0.282 A 
HETATM   15  O2  UNL     1       1.216  -2.269   0.179  1.00  0.00    -0.265 OA
ENDROOT
BRANCH   1  16
HETATM   16  N1  UNL     1       3.334  -0.613   0.191  1.00  0.00    -0.333 N 
ATOM     17  H12 UNL     1       4.114   0.045   0.193  1.00  0.00     0.177 HD
ATOM     18  H11 UNL     1       3.537  -1.611   0.254  1.00  0.00     0.177 HD
ENDBRANCH   1  16
TORSDOF 1
