REMARK  4 active torsions:
REMARK  status: ('A' for Active; 'I' for Inactive)
REMARK    1  A    between atoms: C1_2  and  O2_3 
REMARK    2  A    between atoms: O2_3  and  C2_4 
REMARK       I    between atoms: C2_4  and  N1_6 
REMARK    3  A    between atoms: N2_8  and  C3_10 
REMARK    4  A    between atoms: C4_11  and  O4_12 
ROOT
HETATM    1  C3  UNL     1      -0.830   0.536   0.137  1.00  0.00     0.168 A 
HETATM    2  C4  UNL     1      -1.419  -0.712   0.175  1.00  0.00     0.178 A 
HETATM    3  N3  UNL     1      -2.759  -0.800   0.106  1.00  0.00    -0.287 N 
ATOM      4  H3  UNL     1      -3.179  -1.729   0.135  1.00  0.00     0.172 HD
HETATM    5  C5  UNL     1      -3.576   0.253   0.002  1.00  0.00     0.329 A 
HETATM    6  O5  UNL     1      -4.837   0.155  -0.062  1.00  0.00    -0.247 OA
HETATM    7  N4  UNL     1      -3.020   1.491  -0.037  1.00  0.00    -0.273 N 
ATOM      8  H4  UNL     1      -3.614   2.316  -0.116  1.00  0.00     0.173 HD
HETATM    9  C6  UNL     1      -1.680   1.626   0.029  1.00  0.00     0.281 A 
HETATM   10  O6  UNL     1      -1.163   2.770  -0.006  1.00  0.00    -0.265 OA
ENDROOT
BRANCH   1  11
HETATM   11  N2  UNL     1       0.566   0.752   0.202  1.00  0.00    -0.288 N 
HETATM   12  N1  UNL     1       1.422  -0.150  -0.045  1.00  0.00    -0.244 N 
HETATM   13  C2  UNL     1       2.816   0.055   0.017  1.00  0.00     0.386 C 
ATOM     14  H1  UNL     1       1.083  -1.077  -0.303  1.00  0.00     0.192 HD
HETATM   15  O3  UNL     1       3.422   1.031  -0.496  1.00  0.00    -0.236 OA
ATOM     16  H2  UNL     1       0.901   1.680   0.461  1.00  0.00     0.187 HD
BRANCH  13  17
HETATM   17  O2  UNL     1       3.595  -0.877   0.688  1.00  0.00    -0.234 OA
BRANCH  17  18
HETATM   18  C1  UNL     1       4.969  -0.775   0.810  1.00  0.00     0.408 C 
HETATM   19  O1  UNL     1       5.560   0.189   0.303  1.00  0.00    -0.275 OA
ENDBRANCH  17  18
ENDBRANCH  13  17
ENDBRANCH   1  11
BRANCH   2  20
HETATM   20  O4  UNL     1      -0.623  -1.828   0.281  1.00  0.00    -0.344 OA
ATOM     21  H4  UNL     1      -1.028  -2.687   0.307  1.00  0.00     0.219 HD
ENDBRANCH   2  20
TORSDOF 4
