REMARK  1 active torsions:
REMARK  status: ('A' for Active; 'I' for Inactive)
REMARK    1  A    between atoms: C6_14  and  N5_15 
ROOT
HETATM    1  C1  UNL     1       1.695  -1.849  -0.232  1.00  0.00     0.161 C 
HETATM    2  N1  UNL     1       1.401  -0.446  -0.180  1.00  0.00    -0.299 N 
HETATM    3  C2  UNL     1       2.455   0.412  -0.329  1.00  0.00     0.329 A 
HETATM    4  O1  UNL     1       3.603  -0.087  -0.476  1.00  0.00    -0.246 OA
HETATM    5  N2  UNL     1       2.233   1.729  -0.315  1.00  0.00    -0.273 N 
ATOM      6  H2  UNL     1       3.026   2.360  -0.427  1.00  0.00     0.173 HD
HETATM    7  C3  UNL     1       1.007   2.256  -0.160  1.00  0.00     0.278 A 
HETATM    8  O2  UNL     1       0.792   3.505  -0.145  1.00  0.00    -0.265 OA
HETATM    9  C4  UNL     1      -0.071   1.425  -0.009  1.00  0.00     0.132 A 
HETATM   10  N3  UNL     1      -1.378   1.611   0.150  1.00  0.00    -0.336 N 
ATOM     11  H3  UNL     1      -1.825   2.527   0.194  1.00  0.00     0.167 HD
HETATM   12  C5  UNL     1      -2.031   0.456   0.245  1.00  0.00     0.152 A 
HETATM   13  N4  UNL     1      -3.418   0.198   0.420  1.00  0.00    -0.080 NA
HETATM   14  C6  UNL     1      -1.061  -0.551   0.137  1.00  0.00     0.173 A 
HETATM   15  C7  UNL     1       0.151   0.046  -0.021  1.00  0.00     0.107 A 
ENDROOT
BRANCH  14  16
HETATM   16  N5  UNL     1      -1.366  -1.938   0.236  1.00  0.00    -0.110 N 
HETATM   17  O3  UNL     1      -1.691  -2.601  -0.770  1.00  0.00    -0.532 OA
HETATM   18  O4  UNL     1      -1.301  -2.550   1.458  1.00  0.00    -0.532 OA
ENDBRANCH  14  16
TORSDOF 1
