REMARK  2 active torsions:
REMARK  status: ('A' for Active; 'I' for Inactive)
REMARK    1  A    between atoms: N2_3  and  C2_5 
REMARK    2  A    between atoms: C4_11  and  C5_12 
ROOT
HETATM    1  N1  UNL     1      -5.168  -0.978   0.472  1.00  0.00    -0.172 NA
HETATM    2  C1  UNL     1      -4.093  -1.148   0.022  1.00  0.00     0.183 C 
HETATM    3  N2  UNL     1      -2.818  -1.333  -0.518  1.00  0.00    -0.276 N 
ATOM      4  H2  UNL     1      -2.642  -2.062  -1.210  1.00  0.00     0.179 HD
ENDROOT
BRANCH   3   5
HETATM    5  C2  UNL     1      -1.840  -0.531  -0.104  1.00  0.00     0.172 A 
HETATM    6  N3  UNL     1      -2.108   0.415   0.804  1.00  0.00    -0.307 N 
HETATM    7  S1  UNL     1      -0.854   1.404   1.299  1.00  0.00     0.003 SA
ATOM      8  H3  UNL     1      -3.048   0.529   1.182  1.00  0.00     0.176 HD
HETATM    9  C3  UNL     1       0.636   1.056   0.554  1.00  0.00     0.120 A 
HETATM   10  N4  UNL     1       1.858   1.740   0.791  1.00  0.00    -0.092 NA
HETATM   11  C4  UNL     1       0.549   0.003  -0.343  1.00  0.00     0.086 A 
HETATM   12  C6  UNL     1      -0.585  -0.702  -0.625  1.00  0.00     0.232 A 
HETATM   13  O1  UNL     1      -0.452  -1.641  -1.487  1.00  0.00    -0.283 OA
BRANCH  11  14
HETATM   14  C5  UNL     1       1.827  -0.336  -1.018  1.00  0.00     0.129 C 
HETATM   15  N5  UNL     1       2.957  -0.622  -0.220  1.00  0.00    -0.089 NA
HETATM   16  S2  UNL     1       1.841  -0.358  -2.648  1.00  0.00    -0.063 SA
ENDBRANCH  11  14
ENDBRANCH   3   5
TORSDOF 2
