REMARK  3 active torsions:
REMARK  status: ('A' for Active; 'I' for Inactive)
REMARK    1  A    between atoms: N1_1  and  C1_4 
REMARK    2  A    between atoms: C5_14  and  S1_15 
REMARK    3  A    between atoms: S1_15  and  N4_16 
ROOT
HETATM    1  C1  UNL     1       0.095  -0.998  -0.312  1.00  0.00     0.126 C 
HETATM    2  N2  UNL     1       1.298  -1.429   0.150  1.00  0.00    -0.293 N 
ATOM      3  H2  UNL     1       1.412  -2.438   0.242  1.00  0.00     0.172 HD
HETATM    4  C2  UNL     1       2.372  -0.663   0.505  1.00  0.00     0.328 C 
HETATM    5  O1  UNL     1       3.270  -1.293   1.114  1.00  0.00    -0.247 OA
HETATM    6  N3  UNL     1       2.595   0.648   0.297  1.00  0.00    -0.275 N 
ATOM      7  H3  UNL     1       3.554   0.969   0.430  1.00  0.00     0.173 HD
HETATM    8  C3  UNL     1       1.697   1.587  -0.067  1.00  0.00     0.250 C 
HETATM    9  O2  UNL     1       2.125   2.774  -0.180  1.00  0.00    -0.268 OA
HETATM   10  C4  UNL     1       0.350   1.450  -0.340  1.00  0.00     0.103 C 
HETATM   11  C5  UNL     1      -0.401   0.290  -0.360  1.00  0.00     0.128 C 
ENDROOT
BRANCH  11  12
HETATM   12  S1  UNL     1      -2.130   0.405  -0.454  1.00  0.00     0.260 S 
HETATM   13  O3  UNL     1      -2.499   1.862  -0.440  1.00  0.00    -0.201 OA
HETATM   14  O4  UNL     1      -2.675  -0.174  -1.726  1.00  0.00    -0.201 OA
BRANCH  12  15
HETATM   15  N4  UNL     1      -2.901  -0.326   0.904  1.00  0.00    -0.324 N 
ATOM     16  H42 UNL     1      -2.387  -0.770   1.665  1.00  0.00     0.169 HD
ATOM     17  H41 UNL     1      -3.917  -0.258   0.849  1.00  0.00     0.169 HD
ENDBRANCH  12  15
ENDBRANCH  11  12
BRANCH   1  18
HETATM   18  N1  UNL     1      -0.722  -1.882  -0.777  1.00  0.00    -0.384 N 
ATOM     19  H12 UNL     1      -0.356  -2.833  -0.742  1.00  0.00     0.157 HD
ATOM     20  H11 UNL     1      -1.625  -1.558  -1.124  1.00  0.00     0.157 HD
ENDBRANCH   1  18
TORSDOF 3
