REMARK  0 active torsions:
REMARK  status: ('A' for Active; 'I' for Inactive)
ROOT
HETATM    1  O1  UNL     1       3.744   0.806  -0.855  1.00  0.00    -0.247 OA
HETATM    2  C1  UNL     1       2.607   0.337  -0.565  1.00  0.00     0.328 A 
HETATM    3  N1  UNL     1       1.567   1.164  -0.403  1.00  0.00    -0.293 N 
ATOM      4  H1  UNL     1       1.717   2.166  -0.518  1.00  0.00     0.172 HD
HETATM    5  C2  UNL     1       0.317   0.722  -0.091  1.00  0.00     0.137 A 
HETATM    6  C3  UNL     1       0.082  -0.617   0.070  1.00  0.00     0.093 A 
HETATM    7  C4  UNL     1       1.185  -1.462  -0.104  1.00  0.00     0.264 A 
HETATM    8  O2  UNL     1       1.080  -2.709   0.021  1.00  0.00    -0.267 OA
HETATM    9  N2  UNL     1       2.401  -0.983  -0.412  1.00  0.00    -0.275 N 
ATOM     10  H2  UNL     1       3.180  -1.630  -0.532  1.00  0.00     0.173 HD
HETATM   11  C5  UNL     1      -1.176  -1.273   0.401  1.00  0.00     0.122 C 
HETATM   12  N3  UNL     1      -2.265  -0.474   0.804  1.00  0.00    -0.277 N 
ATOM     13  H3  UNL     1      -2.953  -0.782   1.491  1.00  0.00     0.179 HD
HETATM   14  S1  UNL     1      -2.334   1.066   0.038  1.00  0.00     0.324 S 
HETATM   15  O3  UNL     1      -3.282   1.933   0.793  1.00  0.00    -0.182 OA
HETATM   16  O4  UNL     1      -2.759   0.862  -1.395  1.00  0.00    -0.182 OA
HETATM   17  N4  UNL     1      -0.721   1.678   0.061  1.00  0.00    -0.252 N 
ATOM     18  H4  UNL     1      -0.524   2.672   0.177  1.00  0.00     0.182 HD
ENDROOT
TORSDOF 0
