REMARK  1 active torsions:
REMARK  status: ('A' for Active; 'I' for Inactive)
REMARK    1  A    between atoms: C1_2  and  C2_4 
ROOT
HETATM    1  C2  UNL     1      -1.021  -0.018  -0.153  1.00  0.00     0.117 A 
HETATM    2  C3  UNL     1      -1.387  -1.392  -0.225  1.00  0.00     0.276 A 
HETATM    3  O2  UNL     1      -2.614  -1.649  -0.278  1.00  0.00    -0.266 OA
HETATM    4  N2  UNL     1      -0.479  -2.365  -0.237  1.00  0.00    -0.264 N 
ATOM      5  H2  UNL     1      -0.793  -3.334  -0.290  1.00  0.00     0.190 HD
HETATM    6  N3  UNL     1       0.808  -2.114  -0.183  1.00  0.00    -0.282 N 
ATOM      7  H3  UNL     1       1.475  -2.885  -0.196  1.00  0.00     0.188 HD
HETATM    8  C4  UNL     1       1.250  -0.856  -0.111  1.00  0.00     0.141 A 
HETATM    9  N4  UNL     1       2.588  -0.670  -0.036  1.00  0.00    -0.292 N 
ATOM     10  H4  UNL     1       3.228  -1.464  -0.053  1.00  0.00     0.172 HD
HETATM   11  C5  UNL     1       3.050   0.584   0.061  1.00  0.00     0.328 A 
HETATM   12  O3  UNL     1       4.293   0.764   0.131  1.00  0.00    -0.247 OA
HETATM   13  N5  UNL     1       2.198   1.621   0.082  1.00  0.00    -0.275 N 
ATOM     14  H5  UNL     1       2.577   2.565   0.157  1.00  0.00     0.173 HD
HETATM   15  C6  UNL     1       0.843   1.463   0.007  1.00  0.00     0.264 A 
HETATM   16  O4  UNL     1       0.116   2.473   0.038  1.00  0.00    -0.267 OA
HETATM   17  C7  UNL     1       0.344   0.204  -0.095  1.00  0.00     0.098 A 
ENDROOT
BRANCH   1  18
HETATM   18  C1  UNL     1      -2.060   0.954  -0.132  1.00  0.00     0.271 C 
HETATM   19  N1  UNL     1      -3.315   0.505   0.468  1.00  0.00    -0.057 NA
HETATM   20  O1  UNL     1      -2.070   2.094  -0.528  1.00  0.00    -0.271 OA
ENDBRANCH   1  18
TORSDOF 1
