REMARK  1 active torsions:
REMARK  status: ('A' for Active; 'I' for Inactive)
REMARK    1  A    between atoms: C1_2  and  C2_4 
ROOT
HETATM    1  C2  UNL     1       1.820  -0.245   0.190  1.00  0.00     0.173 A 
HETATM    2  N2  UNL     1       1.089   0.899   0.313  1.00  0.00    -0.332 N 
ATOM      3  H2  UNL     1       1.473   1.823   0.510  1.00  0.00     0.168 HD
HETATM    4  C3  UNL     1      -0.214   0.624   0.135  1.00  0.00     0.135 A 
HETATM    5  C4  UNL     1      -1.245   1.551   0.191  1.00  0.00     0.278 C 
HETATM    6  O2  UNL     1      -0.898   2.760   0.164  1.00  0.00    -0.265 OA
HETATM    7  N3  UNL     1      -2.567   1.329   0.270  1.00  0.00    -0.273 N 
ATOM      8  H3  UNL     1      -3.156   2.150   0.406  1.00  0.00     0.173 HD
HETATM    9  C5  UNL     1      -3.205   0.139   0.189  1.00  0.00     0.330 C 
HETATM   10  O3  UNL     1      -4.441   0.243   0.404  1.00  0.00    -0.246 OA
HETATM   11  N4  UNL     1      -2.710  -1.090  -0.080  1.00  0.00    -0.273 N 
ATOM     12  H4  UNL     1      -3.391  -1.850  -0.084  1.00  0.00     0.173 HD
HETATM   13  C6  UNL     1      -1.438  -1.444  -0.343  1.00  0.00     0.278 C 
HETATM   14  O4  UNL     1      -1.247  -2.573  -0.887  1.00  0.00    -0.265 OA
HETATM   15  C7  UNL     1      -0.270  -0.750  -0.106  1.00  0.00     0.135 A 
HETATM   16  N5  UNL     1       0.975  -1.258  -0.069  1.00  0.00    -0.332 N 
ATOM     17  H5  UNL     1       1.231  -2.235  -0.212  1.00  0.00     0.168 HD
ENDROOT
BRANCH   1  18
HETATM   18  C1  UNL     1       3.271  -0.293   0.328  1.00  0.00     0.298 C 
HETATM   19  N1  UNL     1       4.031   0.872   0.605  1.00  0.00    -0.054 NA
HETATM   20  O1  UNL     1       3.825  -1.421   0.190  1.00  0.00    -0.268 OA
ENDBRANCH   1  18
TORSDOF 1
