REMARK  2 active torsions:
REMARK  status: ('A' for Active; 'I' for Inactive)
REMARK    1  A    between atoms: N1_1  and  S1_4 
REMARK    2  A    between atoms: S1_4  and  C1_7 
ROOT
HETATM    1  C1  UNL     1      -1.124  -0.347  -0.245  1.00  0.00     0.228 A 
HETATM    2  N2  UNL     1      -0.325   0.671  -0.536  1.00  0.00    -0.315 N 
ATOM      3  H2  UNL     1      -0.739   1.512  -0.938  1.00  0.00     0.169 HD
HETATM    4  C2  UNL     1       1.011   0.649  -0.326  1.00  0.00     0.144 A 
HETATM    5  N3  UNL     1       2.019   1.517  -0.525  1.00  0.00    -0.292 N 
ATOM      6  H3  UNL     1       1.913   2.452  -0.918  1.00  0.00     0.172 HD
HETATM    7  C3  UNL     1       3.187   0.978  -0.132  1.00  0.00     0.326 A 
HETATM    8  O3  UNL     1       4.335   1.520  -0.178  1.00  0.00    -0.247 OA
HETATM    9  N4  UNL     1       2.882  -0.251   0.318  1.00  0.00    -0.301 N 
ATOM     10  H4  UNL     1       3.566  -0.912   0.687  1.00  0.00     0.171 HD
HETATM   11  C4  UNL     1       1.564  -0.502   0.222  1.00  0.00     0.149 A 
HETATM   12  C5  UNL     1       0.744  -1.567   0.528  1.00  0.00     0.278 A 
HETATM   13  O4  UNL     1       1.237  -2.595   1.017  1.00  0.00    -0.265 OA
HETATM   14  N5  UNL     1      -0.583  -1.465   0.288  1.00  0.00    -0.296 N 
ATOM     15  H5  UNL     1      -1.191  -2.252   0.515  1.00  0.00     0.171 HD
ENDROOT
BRANCH   1  16
HETATM   16  S1  UNL     1      -2.841  -0.236  -0.548  1.00  0.00     0.289 S 
HETATM   17  O1  UNL     1      -3.535  -1.483  -0.042  1.00  0.00    -0.198 OA
HETATM   18  O2  UNL     1      -3.044  -0.045  -2.006  1.00  0.00    -0.198 OA
BRANCH  16  19
HETATM   19  N1  UNL     1      -3.477   1.088   0.372  1.00  0.00    -0.322 N 
ATOM     20  H12 UNL     1      -4.181   1.024   1.107  1.00  0.00     0.169 HD
ATOM     21  H11 UNL     1      -3.009   1.928   0.031  1.00  0.00     0.169 HD
ENDBRANCH  16  19
ENDBRANCH   1  16
TORSDOF 2
