REMARK  10 active torsions:
REMARK  status: ('A' for Active; 'I' for Inactive)
REMARK    1  A    between atoms: C2_5  and  N2_6 
REMARK    2  A    between atoms: N2_6  and  C3_8 
REMARK    3  A    between atoms: C3_8  and  C4_9 
REMARK    4  A    between atoms: C4_9  and  O2_10 
REMARK    5  A    between atoms: C6_17  and  N5_18 
REMARK    6  A    between atoms: N5_18  and  C7_20 
REMARK    7  A    between atoms: N6_21  and  O3_23 
REMARK    8  A    between atoms: C8_27  and  N8_28 
REMARK    9  A    between atoms: N8_28  and  C9_30 
REMARK   10  A    between atoms: C9_30  and  C10_31 
ROOT
HETATM    1  O1  UNL     1      -0.469  -2.029  -1.066  1.00  0.00    -0.266 OA
HETATM    2  C1  UNL     1       0.511  -1.230  -0.982  1.00  0.00     0.277 A 
HETATM    3  N1  UNL     1       1.716  -1.528  -1.469  1.00  0.00    -0.155 N 
ATOM      4  H1  UNL     1       1.875  -2.425  -1.929  1.00  0.00     0.187 HD
HETATM    5  C2  UNL     1       2.734  -0.629  -1.350  1.00  0.00     0.682 A 
HETATM    6  N3  UNL     1       2.543   0.556  -0.748  1.00  0.00    -0.175 N 
ATOM      7  H3  UNL     1       3.320   1.213  -0.671  1.00  0.00     0.186 HD
HETATM    8  C5  UNL     1       1.327   0.892  -0.240  1.00  0.00     0.156 A 
HETATM    9  N4  UNL     1       1.148   2.086   0.362  1.00  0.00    -0.175 N 
ATOM     10  H4  UNL     1       1.914   2.754   0.447  1.00  0.00     0.186 HD
HETATM   11  C6  UNL     1      -0.065   2.364   0.842  1.00  0.00     0.686 A 
HETATM   12  N7  UNL     1      -1.084   1.477   0.728  1.00  0.00    -0.175 N 
ATOM     13  H7  UNL     1      -1.995   1.733   1.109  1.00  0.00     0.186 HD
HETATM   14  C8  UNL     1      -0.952   0.278   0.138  1.00  0.00     0.136 A 
HETATM   15  C14 UNL     1       0.297  -0.026  -0.364  1.00  0.00     0.122 A 
ENDROOT
BRANCH  14  16
HETATM   16  N8  UNL     1      -1.908  -0.572   0.027  1.00  0.00    -0.372 N 
ATOM     17  H8  UNL     1      -1.757  -1.471  -0.431  1.00  0.00     0.161 HD
BRANCH  16  18
HETATM   18  C9  UNL     1      -3.195  -0.226   0.563  1.00  0.00     0.153 C 
BRANCH  18  19
HETATM   19  C10 UNL     1      -4.204  -1.316   0.549  1.00  0.00     0.139 C 
HETATM   20  C11 UNL     1      -4.453  -1.923  -0.812  1.00  0.00     0.035 C 
HETATM   21  C12 UNL     1      -5.335  -3.109  -0.394  1.00  0.00     0.029 C 
HETATM   22  C13 UNL     1      -4.890  -3.330   1.018  1.00  0.00     0.168 C 
HETATM   23  O4  UNL     1      -3.838  -2.443   1.279  1.00  0.00    -0.384 OA
ENDBRANCH  18  19
ENDBRANCH  16  18
ENDBRANCH  14  16
BRANCH  11  24
HETATM   24  N5  UNL     1      -0.280   3.478   1.424  1.00  0.00    -0.186 N 
ATOM     25  H5  UNL     1      -1.229   3.629   1.766  1.00  0.00     0.185 HD
BRANCH  24  26
HETATM   26  C7  UNL     1       0.631   4.523   1.651  1.00  0.00     0.221 C 
HETATM   27  N6  UNL     1       1.663   4.316   2.382  1.00  0.00    -0.264 N 
ATOM     28  H6  UNL     1       1.793   3.387   2.782  1.00  0.00     0.194 HD
BRANCH  27  29
HETATM   29  O3  UNL     1       2.597   5.272   2.654  1.00  0.00    -0.289 OA
ATOM     30  H3  UNL     1       3.362   5.119   3.196  1.00  0.00     0.244 HD
ENDBRANCH  27  29
ENDBRANCH  24  26
ENDBRANCH  11  24
BRANCH   5  31
HETATM   31  N2  UNL     1       3.877  -0.952  -1.832  1.00  0.00    -0.224 N 
ATOM     32  H2  UNL     1       3.976  -1.862  -2.281  1.00  0.00     0.177 HD
BRANCH  31  33
HETATM   33  C3  UNL     1       5.024  -0.092  -1.769  1.00  0.00     0.164 C 
BRANCH  33  34
HETATM   34  C4  UNL     1       5.736  -0.196  -0.419  1.00  0.00     0.184 C 
BRANCH  34  35
HETATM   35  O2  UNL     1       6.162  -1.510  -0.215  1.00  0.00    -0.399 OA
ATOM     36  H2  UNL     1       6.604  -1.575   0.623  1.00  0.00     0.209 HD
ENDBRANCH  34  35
ENDBRANCH  33  34
ENDBRANCH  31  33
ENDBRANCH   5  31
TORSDOF 10
