REMARK  10 active torsions:
REMARK  status: ('A' for Active; 'I' for Inactive)
REMARK    1  A    between atoms: N1_1  and  C1_4 
REMARK    2  A    between atoms: C3_8  and  C4_9 
REMARK    3  A    between atoms: C4_9  and  N3_10 
REMARK    4  A    between atoms: N4_13  and  C7_14 
REMARK    5  A    between atoms: C7_14  and  C8_15 
REMARK    6  A    between atoms: C8_15  and  O1_16 
REMARK    7  A    between atoms: C13_25  and  N6_26 
REMARK    8  A    between atoms: N6_26  and  C14_28 
REMARK    9  A    between atoms: C14_28  and  C15_29 
REMARK   10  A    between atoms: C15_29  and  O3_30 
ROOT
HETATM    1  C1  UNL     1       1.388   2.878   1.217  1.00  0.00     0.127 A 
HETATM    2  N2  UNL     1       0.079   2.751   1.396  1.00  0.00    -0.350 N 
ATOM      3  H2  UNL     1      -0.449   3.559   1.725  1.00  0.00     0.166 HD
HETATM    4  C2  UNL     1      -0.585   1.597   1.161  1.00  0.00     0.099 A 
HETATM    5  C3  UNL     1       0.072   0.469   0.714  1.00  0.00     0.004 A 
HETATM    6  C11 UNL     1       1.449   0.570   0.518  1.00  0.00     0.073 A 
HETATM    7  C12 UNL     1       2.247  -0.456   0.084  1.00  0.00     0.272 A 
HETATM    8  O2  UNL     1       1.741  -1.569  -0.164  1.00  0.00    -0.267 OA
HETATM    9  N5  UNL     1       3.584  -0.364  -0.104  1.00  0.00    -0.155 N 
ATOM     10  H5  UNL     1       4.121  -1.168  -0.429  1.00  0.00     0.187 HD
HETATM   11  C13 UNL     1       4.187   0.804   0.145  1.00  0.00     0.681 A 
HETATM   12  N7  UNL     1       3.440   1.853   0.577  1.00  0.00    -0.187 N 
ATOM     13  H7  UNL     1       3.911   2.738   0.763  1.00  0.00     0.184 HD
HETATM   14  C16 UNL     1       2.108   1.784   0.772  1.00  0.00     0.109 A 
ENDROOT
BRANCH   5  15
HETATM   15  C4  UNL     1      -0.558  -0.813   0.446  1.00  0.00     0.313 C 
BRANCH  15  16
HETATM   16  N3  UNL     1      -2.032  -0.818   0.650  1.00  0.00     0.096 N 
HETATM   17  C5  UNL     1      -2.357  -2.250   0.454  1.00  0.00     0.303 C 
HETATM   18  C6  UNL     1      -3.801  -2.552   0.447  1.00  0.00     0.302 C 
HETATM   19  N4  UNL     1      -4.532  -1.706  -0.510  1.00  0.00     0.093 N 
HETATM   20  C9  UNL     1      -3.594  -0.934  -1.271  1.00  0.00     0.302 C 
HETATM   21  C10 UNL     1      -2.703  -0.082  -0.403  1.00  0.00     0.303 C 
BRANCH  19  22
HETATM   22  C7  UNL     1      -5.481  -0.986   0.269  1.00  0.00     0.298 C 
BRANCH  22  23
HETATM   23  C8  UNL     1      -6.468  -0.125  -0.423  1.00  0.00     0.194 C 
BRANCH  23  24
HETATM   24  O1  UNL     1      -5.962   0.903  -1.168  1.00  0.00    -0.399 OA
ATOM     25  H1  UNL     1      -6.595   1.455  -1.612  1.00  0.00     0.209 HD
ENDBRANCH  23  24
ENDBRANCH  22  23
ENDBRANCH  19  22
ENDBRANCH  15  16
ENDBRANCH   5  15
BRANCH   1  26
HETATM   26  N1  UNL     1       2.037   3.976   1.436  1.00  0.00    -0.384 N 
ATOM     27  H12 UNL     1       1.506   4.783   1.764  1.00  0.00     0.157 HD
ATOM     28  H11 UNL     1       3.043   4.074   1.298  1.00  0.00     0.157 HD
ENDBRANCH   1  26
BRANCH  11  29
HETATM   29  N6  UNL     1       5.457   0.912  -0.025  1.00  0.00    -0.224 N 
ATOM     30  H6  UNL     1       5.892   1.814   0.170  1.00  0.00     0.177 HD
BRANCH  29  31
HETATM   31  C14 UNL     1       6.298  -0.159  -0.472  1.00  0.00     0.164 C 
BRANCH  31  32
HETATM   32  C15 UNL     1       7.727   0.235  -0.096  1.00  0.00     0.184 C 
BRANCH  32  33
HETATM   33  O3  UNL     1       8.598  -0.760  -0.500  1.00  0.00    -0.399 OA
ATOM     34  H3  UNL     1       9.486  -0.515  -0.266  1.00  0.00     0.209 HD
ENDBRANCH  32  33
ENDBRANCH  31  32
ENDBRANCH  29  31
ENDBRANCH  11  29
TORSDOF 10
