REMARK  7 active torsions:
REMARK  status: ('A' for Active; 'I' for Inactive)
REMARK    1  A    between atoms: N1_1  and  C1_4 
REMARK    2  A    between atoms: C2_7  and  N3_8 
REMARK    3  A    between atoms: C7_18  and  N6_19 
REMARK    4  A    between atoms: N6_19  and  C8_21 
REMARK    5  A    between atoms: C8_21  and  C9_22 
REMARK    6  A    between atoms: C9_22  and  C10_23 
REMARK    7  A    between atoms: C10_23  and  C11_24 
ROOT
HETATM    1  C1  UNL     1      -0.900  -2.576  -0.287  1.00  0.00     0.705 A 
HETATM    2  N2  UNL     1      -2.024  -2.013   0.188  1.00  0.00    -0.022 N 
ATOM      3  H2  UNL     1      -2.764  -2.624   0.534  1.00  0.00     0.203 HD
HETATM    4  C2  UNL     1      -2.223  -0.662   0.230  1.00  0.00     0.709 A 
HETATM    5  N5  UNL     1      -1.228   0.102  -0.232  1.00  0.00    -0.021 N 
ATOM      6  H5  UNL     1      -1.321   1.118  -0.225  1.00  0.00     0.203 HD
HETATM    7  C7  UNL     1      -0.084  -0.475  -0.715  1.00  0.00     0.707 A 
HETATM    8  N9  UNL     1       0.099  -1.805  -0.751  1.00  0.00    -0.022 N 
ATOM      9  H9  UNL     1       0.960  -2.213  -1.115  1.00  0.00     0.203 HD
ENDROOT
BRANCH   7  10
HETATM   10  N6  UNL     1       0.875   0.287  -1.162  1.00  0.00    -0.225 N 
ATOM     11  H6  UNL     1       0.766   1.301  -1.149  1.00  0.00     0.177 HD
BRANCH  10  12
HETATM   12  C8  UNL     1       2.105  -0.306  -1.682  1.00  0.00     0.138 C 
BRANCH  12  13
HETATM   13  C9  UNL     1       2.965   0.802  -2.222  1.00  0.00     0.026 C 
BRANCH  13  14
HETATM   14  C10 UNL     1       3.319   1.760  -1.133  1.00  0.00     0.059 C 
BRANCH  14  15
HETATM   15  C11 UNL     1       4.101   1.086  -0.089  1.00  0.00     0.019 A 
HETATM   16  C12 UNL     1       3.628   0.517   1.050  1.00  0.00     0.099 A 
HETATM   17  C13 UNL     1       4.501  -0.090   1.921  1.00  0.00     0.251 A 
HETATM   18  O1  UNL     1       4.056  -0.619   2.979  1.00  0.00    -0.268 OA
HETATM   19  N7  UNL     1       5.804  -0.125   1.660  1.00  0.00    -0.275 N 
HETATM   20  C14 UNL     1       6.298   0.434   0.535  1.00  0.00     0.327 A 
ATOM     21  H7  UNL     1       6.438  -0.579   2.317  1.00  0.00     0.173 HD
HETATM   22  O2  UNL     1       7.538   0.365   0.351  1.00  0.00    -0.247 OA
HETATM   23  N8  UNL     1       5.448   1.019  -0.302  1.00  0.00    -0.312 N 
ATOM     24  H8  UNL     1       5.823   1.442  -1.151  1.00  0.00     0.170 HD
ENDBRANCH  14  15
ENDBRANCH  13  14
ENDBRANCH  12  13
ENDBRANCH  10  12
ENDBRANCH   7  10
BRANCH   4  25
HETATM   25  N3  UNL     1      -3.419  -0.113   0.741  1.00  0.00    -0.213 N 
HETATM   26  C3  UNL     1      -3.657   1.296   0.750  1.00  0.00     0.168 C 
HETATM   27  C4  UNL     1      -5.129   1.582   0.477  1.00  0.00     0.252 C 
HETATM   28  N4  UNL     1      -6.003   0.809   1.300  1.00  0.00    -0.072 N 
HETATM   29  C5  UNL     1      -5.805  -0.592   0.893  1.00  0.00     0.252 C 
ATOM     30  H42 UNL     1      -5.868   0.966   2.299  1.00  0.00     0.277 HD
ATOM     31  H41 UNL     1      -6.976   1.112   1.259  1.00  0.00     0.277 HD
HETATM   32  C6  UNL     1      -4.413  -1.012   1.276  1.00  0.00     0.168 C 
ENDBRANCH   4  25
BRANCH   1  33
HETATM   33  N1  UNL     1      -0.723  -3.854  -0.321  1.00  0.00    -0.234 N 
ATOM     34  H12 UNL     1      -1.481  -4.439   0.031  1.00  0.00     0.174 HD
ATOM     35  H11 UNL     1       0.130  -4.281  -0.682  1.00  0.00     0.174 HD
ENDBRANCH   1  33
TORSDOF 7
