REMARK  9 active torsions:
REMARK  status: ('A' for Active; 'I' for Inactive)
REMARK    1  A    between atoms: N1_1  and  C1_4 
REMARK    2  A    between atoms: C5_14  and  N5_15 
REMARK    3  A    between atoms: N5_15  and  C6_17 
REMARK    4  A    between atoms: C8_24  and  N8_25 
REMARK    5  A    between atoms: N8_25  and  C9_27 
REMARK    6  A    between atoms: C9_27  and  C10_28 
REMARK    7  A    between atoms: C10_28  and  C11_29 
REMARK    8  A    between atoms: C11_29  and  C12_30 
REMARK    9  A    between atoms: C12_30  and  N9_31 
ROOT
HETATM    1  C6  UNL     1      -0.084  -1.877   1.789  1.00  0.00     0.697 A 
HETATM    2  N6  UNL     1      -0.762  -2.537   2.742  1.00  0.00    -0.140 N 
ATOM      3  H6  UNL     1      -0.240  -3.036   3.462  1.00  0.00     0.189 HD
HETATM    4  C7  UNL     1      -2.115  -2.562   2.779  1.00  0.00     0.352 A 
HETATM    5  O2  UNL     1      -2.759  -3.178   3.670  1.00  0.00    -0.246 OA
HETATM    6  N7  UNL     1      -2.805  -1.899   1.820  1.00  0.00    -0.140 N 
ATOM      7  H7  UNL     1      -3.825  -1.908   1.831  1.00  0.00     0.189 HD
HETATM    8  C8  UNL     1      -2.151  -1.228   0.851  1.00  0.00     0.696 A 
HETATM    9  N10 UNL     1      -0.791  -1.227   0.849  1.00  0.00    -0.022 N 
ATOM     10  H10 UNL     1      -0.295  -0.720   0.116  1.00  0.00     0.203 HD
ENDROOT
BRANCH   1  11
HETATM   11  N5  UNL     1       1.182  -1.866   1.772  1.00  0.00    -0.219 N 
ATOM     12  H5  UNL     1       1.641  -2.385   2.520  1.00  0.00     0.178 HD
BRANCH  11  13
HETATM   13  C5  UNL     1       2.045  -1.223   0.843  1.00  0.00     0.118 C 
HETATM   14  C4  UNL     1       2.258   0.245   1.135  1.00  0.00     0.161 C 
HETATM   15  N3  UNL     1       3.208   0.734   0.159  1.00  0.00    -0.286 N 
HETATM   16  C2  UNL     1       4.375   0.068   0.054  1.00  0.00     0.103 A 
HETATM   17  C3  UNL     1       2.991   1.798  -0.633  1.00  0.00     0.342 A 
HETATM   18  N2  UNL     1       5.332   0.432  -0.817  1.00  0.00    -0.180 N 
HETATM   19  C14 UNL     1       4.553  -1.098   0.958  1.00  0.00     0.079 C 
HETATM   20  C1  UNL     1       5.107   1.504  -1.613  1.00  0.00     0.681 A 
ATOM     21  H2  UNL     1       6.208  -0.088  -0.877  1.00  0.00     0.185 HD
HETATM   22  N4  UNL     1       3.947   2.180  -1.521  1.00  0.00    -0.141 N 
ATOM     23  H4  UNL     1       3.783   2.987  -2.123  1.00  0.00     0.189 HD
HETATM   24  C13 UNL     1       3.349  -1.992   0.796  1.00  0.00     0.035 C 
HETATM   25  O1  UNL     1       1.908   2.405  -0.527  1.00  0.00    -0.246 OA
BRANCH  20  26
HETATM   26  N1  UNL     1       6.021   1.881  -2.470  1.00  0.00    -0.234 N 
ATOM     27  H12 UNL     1       6.900   1.369  -2.540  1.00  0.00     0.174 HD
ATOM     28  H11 UNL     1       5.852   2.689  -3.070  1.00  0.00     0.174 HD
ENDBRANCH  20  26
ENDBRANCH  11  13
ENDBRANCH   1  11
BRANCH   8  29
HETATM   29  N8  UNL     1      -2.856  -0.615  -0.036  1.00  0.00    -0.225 N 
ATOM     30  H8  UNL     1      -3.875  -0.647   0.008  1.00  0.00     0.177 HD
BRANCH  29  31
HETATM   31  C9  UNL     1      -2.210   0.104  -1.074  1.00  0.00     0.138 C 
BRANCH  31  32
HETATM   32  C10 UNL     1      -3.041   0.699  -2.134  1.00  0.00     0.022 C 
BRANCH  32  33
HETATM   33  C11 UNL     1      -4.030   1.752  -1.790  1.00  0.00     0.029 C 
BRANCH  33  34
HETATM   34  C12 UNL     1      -5.065   1.265  -0.825  1.00  0.00     0.229 C 
BRANCH  34  35
HETATM   35  N9  UNL     1      -6.064   2.322  -0.564  1.00  0.00    -0.079 N 
ATOM     36  H93 UNL     1      -5.627   3.188  -0.248  1.00  0.00     0.274 HD
ATOM     37  H92 UNL     1      -6.483   2.670  -1.426  1.00  0.00     0.274 HD
ATOM     38  H91 UNL     1      -6.769   1.990   0.094  1.00  0.00     0.274 HD
ENDBRANCH  34  35
ENDBRANCH  33  34
ENDBRANCH  32  33
ENDBRANCH  31  32
ENDBRANCH  29  31
ENDBRANCH   8  29
TORSDOF 9
