REMARK  5 active torsions:
REMARK  status: ('A' for Active; 'I' for Inactive)
REMARK    1  A    between atoms: C2_2  and  N1_3 
REMARK    2  A    between atoms: C2_2  and  C3_7 
REMARK    3  A    between atoms: C3_7  and  N4_13 
REMARK    4  A    between atoms: N2_8  and  N3_10 
REMARK    5  A    between atoms: N4_13  and  C4_15 
ROOT
HETATM    1  N4  UNL     1       0.056   0.513   1.397  1.00  0.00    -0.177 N 
ATOM      2  H4  UNL     1      -0.157   0.559   2.393  1.00  0.00     0.185 HD
ENDROOT
BRANCH   1   3
HETATM    3  C3  UNL     1      -0.920   0.932   0.471  1.00  0.00     0.141 C 
HETATM    4  N2  UNL     1      -0.756   2.057  -0.117  1.00  0.00    -0.293 N 
ATOM      5  H2  UNL     1       0.066   2.628   0.080  1.00  0.00     0.187 HD
BRANCH   3   6
HETATM    6  C2  UNL     1      -2.123   0.127   0.164  1.00  0.00     0.248 C 
HETATM    7  C1  UNL     1      -1.786  -1.253  -0.372  1.00  0.00     0.048 C 
BRANCH   6   8
HETATM    8  N1  UNL     1      -2.982  -0.051   1.309  1.00  0.00    -0.069 N 
ATOM      9  H13 UNL     1      -3.809  -0.610   1.102  1.00  0.00     0.275 HD
ATOM     10  H12 UNL     1      -2.579  -0.665   2.017  1.00  0.00     0.275 HD
ATOM     11  H11 UNL     1      -3.208   0.876   1.669  1.00  0.00     0.275 HD
ENDBRANCH   6   8
ENDBRANCH   3   6
BRANCH   4  12
HETATM   12  N3  UNL     1      -1.714   2.491  -1.029  1.00  0.00    -0.344 N 
ATOM     13  H32 UNL     1      -2.530   1.908  -1.215  1.00  0.00     0.176 HD
ATOM     14  H31 UNL     1      -1.583   3.388  -1.498  1.00  0.00     0.176 HD
ENDBRANCH   4  12
ENDBRANCH   1   3
BRANCH   1  15
HETATM   15  C4  UNL     1       1.201   0.077   1.028  1.00  0.00     0.691 A 
HETATM   16  N5  UNL     1       1.549  -0.010  -0.262  1.00  0.00    -0.141 N 
HETATM   17  C5  UNL     1       2.753  -0.467  -0.662  1.00  0.00     0.342 A 
ATOM     18  H5  UNL     1       0.876   0.281  -0.971  1.00  0.00     0.189 HD
HETATM   19  O1  UNL     1       2.999  -0.517  -1.891  1.00  0.00    -0.246 OA
HETATM   20  N6  UNL     1       3.630  -0.848   0.259  1.00  0.00    -0.260 N 
HETATM   21  C6  UNL     1       3.320  -0.776   1.576  1.00  0.00     0.342 A 
ATOM     22  H6  UNL     1       4.544  -1.198  -0.027  1.00  0.00     0.175 HD
HETATM   23  O2  UNL     1       4.182  -1.147   2.423  1.00  0.00    -0.246 OA
HETATM   24  N7  UNL     1       2.118  -0.319   1.959  1.00  0.00    -0.141 N 
ATOM     25  H7  UNL     1       1.888  -0.267   2.951  1.00  0.00     0.189 HD
ENDBRANCH   1  15
TORSDOF 5
