REMARK  4 active torsions:
REMARK  status: ('A' for Active; 'I' for Inactive)
REMARK    1  A    between atoms: C2_7  and  N3_8 
REMARK    2  A    between atoms: N3_8  and  C3_10 
REMARK    3  A    between atoms: C3_10  and  C4_11 
REMARK    4  A    between atoms: N6_17  and  O3_18 
ROOT
HETATM    1  N3  UNL     1      -0.706  -1.033   0.750  1.00  0.00    -0.219 N 
ATOM      2  H3  UNL     1      -0.748  -1.285   1.737  1.00  0.00     0.178 HD
ENDROOT
BRANCH   1   3
HETATM    3  C2  UNL     1      -1.667  -0.373   0.224  1.00  0.00     0.697 A 
HETATM    4  N2  UNL     1      -2.754   0.020   0.901  1.00  0.00    -0.128 N 
HETATM    5  N1  UNL     1      -3.512   0.667   0.034  1.00  0.00    -0.237 N 
ATOM      6  H2  UNL     1      -2.956  -0.147   1.887  1.00  0.00     0.205 HD
HETATM    7  C1  UNL     1      -2.924   0.688  -1.171  1.00  0.00     0.353 A 
ATOM      8  H1  UNL     1      -4.415   1.090   0.250  1.00  0.00     0.192 HD
HETATM    9  O1  UNL     1      -3.356   1.217  -2.240  1.00  0.00    -0.245 OA
HETATM   10  N7  UNL     1      -1.772   0.036  -1.045  1.00  0.00    -0.139 N 
ATOM     11  H7  UNL     1      -1.089  -0.124  -1.785  1.00  0.00     0.189 HD
ENDBRANCH   1   3
BRANCH   1  12
HETATM   12  C3  UNL     1       0.429  -1.422  -0.033  1.00  0.00     0.205 C 
BRANCH  12  13
HETATM   13  C4  UNL     1       1.570  -0.487   0.167  1.00  0.00     0.143 A 
HETATM   14  C5  UNL     1       2.802  -0.588  -0.446  1.00  0.00     0.286 A 
HETATM   15  O2  UNL     1       3.117  -1.480  -1.248  1.00  0.00    -0.265 OA
HETATM   16  N4  UNL     1       3.552   0.417  -0.022  1.00  0.00    -0.246 N 
HETATM   17  N5  UNL     1       2.829   1.129   0.824  1.00  0.00     0.009 NA
ATOM     18  H4  UNL     1       4.515   0.607  -0.299  1.00  0.00     0.187 HD
HETATM   19  N6  UNL     1       1.612   0.597   0.958  1.00  0.00    -0.144 N 
BRANCH  19  20
HETATM   20  O3  UNL     1       0.594   1.083   1.764  1.00  0.00    -0.269 OA
ATOM     21  H3  UNL     1       0.624   1.850   2.324  1.00  0.00     0.246 HD
ENDBRANCH  19  20
ENDBRANCH  12  13
ENDBRANCH   1  12
TORSDOF 4
