REMARK  3 active torsions:
REMARK  status: ('A' for Active; 'I' for Inactive)
REMARK    1  A    between atoms: N1_1  and  C1_5 
REMARK    2  A    between atoms: C1_5  and  C2_6 
REMARK    3  A    between atoms: C2_6  and  C3_7 
ROOT
HETATM    1  C3  UNL     1      -0.666  -0.888   0.310  1.00  0.00     0.294 C 
HETATM    2  N2  UNL     1      -0.136  -1.596  -0.842  1.00  0.00    -0.328 N 
ATOM      3  H2  UNL     1      -0.665  -2.130  -1.532  1.00  0.00     0.164 HD
HETATM    4  C4  UNL     1       1.261  -1.395  -0.813  1.00  0.00     0.298 C 
HETATM    5  O1  UNL     1       2.147  -2.153  -1.314  1.00  0.00    -0.266 OA
HETATM    6  C5  UNL     1       1.499  -0.128  -0.085  1.00  0.00     0.364 A 
HETATM    7  N3  UNL     1       2.583  -0.372   0.873  1.00  0.00    -0.295 N 
ATOM      8  H3  UNL     1       2.563  -1.066   1.620  1.00  0.00     0.167 HD
HETATM    9  C6  UNL     1       3.673   0.514   0.598  1.00  0.00     0.313 A 
HETATM   10  O2  UNL     1       4.733   0.538   1.253  1.00  0.00    -0.262 OA
HETATM   11  C7  UNL     1       3.287   1.334  -0.550  1.00  0.00     0.313 A 
HETATM   12  O3  UNL     1       4.025   2.230  -1.062  1.00  0.00    -0.262 OA
HETATM   13  N4  UNL     1       1.984   0.921  -0.934  1.00  0.00    -0.295 N 
ATOM     14  H4  UNL     1       1.460   1.319  -1.713  1.00  0.00     0.167 HD
HETATM   15  N5  UNL     1       0.268   0.183   0.567  1.00  0.00     0.001 N 
ATOM     16  H51 UNL     1       0.387   0.369   1.563  1.00  0.00     0.285 HD
ATOM     17  H52 UNL     1      -0.099   1.096   0.298  1.00  0.00     0.285 HD
ENDROOT
BRANCH   1  18
HETATM   18  C2  UNL     1      -2.015  -0.345  -0.088  1.00  0.00     0.082 C 
BRANCH  18  19
HETATM   19  C1  UNL     1      -2.684   0.423   1.030  1.00  0.00     0.233 C 
BRANCH  19  20
HETATM   20  N1  UNL     1      -3.967   0.885   0.506  1.00  0.00    -0.079 N 
ATOM     21  H13 UNL     1      -3.881   1.421  -0.357  1.00  0.00     0.274 HD
ATOM     22  H12 UNL     1      -4.545   0.133   0.131  1.00  0.00     0.274 HD
ATOM     23  H11 UNL     1      -4.418   1.403   1.260  1.00  0.00     0.274 HD
ENDBRANCH  19  20
ENDBRANCH  18  19
ENDBRANCH   1  18
TORSDOF 3
