REMARK  3 active torsions:
REMARK  status: ('A' for Active; 'I' for Inactive)
REMARK    1  A    between atoms: C7_15  and  C8_16 
REMARK    2  A    between atoms: C8_16  and  O3_17 
REMARK    3  A    between atoms: C9_19  and  C10_20 
ROOT
HETATM    1  C1  UNL     1      -0.216  -1.829   1.051  1.00  0.00     0.027 C 
HETATM    2  C2  UNL     1      -0.394  -0.691   0.407  1.00  0.00    -0.003 A 
HETATM    3  C3  UNL     1       0.609   0.163   0.041  1.00  0.00     0.076 A 
HETATM    4  C4  UNL     1       1.929   0.047  -0.085  1.00  0.00     0.133 A 
HETATM    5  N1  UNL     1       2.755   1.160  -0.482  1.00  0.00    -0.302 N 
ATOM      6  H1  UNL     1       2.401   2.107  -0.619  1.00  0.00     0.171 HD
HETATM    7  C5  UNL     1       4.101   0.797  -0.660  1.00  0.00     0.327 A 
HETATM    8  O1  UNL     1       5.071   1.529  -1.002  1.00  0.00    -0.247 OA
HETATM    9  N2  UNL     1       4.190  -0.578  -0.381  1.00  0.00    -0.274 N 
ATOM     10  H2  UNL     1       5.037  -1.145  -0.419  1.00  0.00     0.173 HD
HETATM   11  C6  UNL     1       2.855  -1.049  -0.027  1.00  0.00     0.278 A 
HETATM   12  O2  UNL     1       2.703  -2.247   0.251  1.00  0.00    -0.265 OA
HETATM   13  N3  UNL     1      -0.069   1.260  -0.427  1.00  0.00    -0.351 N 
ATOM     14  H3  UNL     1       0.395   2.097  -0.780  1.00  0.00     0.166 HD
HETATM   15  C7  UNL     1      -1.377   1.127  -0.376  1.00  0.00     0.066 A 
HETATM   16  C9  UNL     1      -1.655  -0.111   0.150  1.00  0.00     0.018 A 
ENDROOT
BRANCH  16  17
HETATM   17  C10 UNL     1      -2.824  -0.629   0.349  1.00  0.00     0.114 C 
HETATM   18  N4  UNL     1      -3.143  -1.892   0.865  1.00  0.00    -0.114 NA
ENDBRANCH  16  17
BRANCH  15  19
HETATM   19  C8  UNL     1      -2.222   2.036  -0.771  1.00  0.00     0.161 C 
BRANCH  19  20
HETATM   20  O3  UNL     1      -3.587   1.990  -0.759  1.00  0.00    -0.370 OA
ATOM     21  H3  UNL     1      -4.203   2.653  -1.047  1.00  0.00     0.216 HD
ENDBRANCH  19  20
ENDBRANCH  15  19
TORSDOF 3
