REMARK  3 active torsions:
REMARK  status: ('A' for Active; 'I' for Inactive)
REMARK    1  A    between atoms: C3_7  and  C4_8 
REMARK    2  A    between atoms: C4_8  and  N2_9 
REMARK    3  A    between atoms: N2_9  and  C5_11 
ROOT
HETATM    1  C4  UNL     1      -0.100  -0.479  -0.264  1.00  0.00     0.129 C 
ENDROOT
BRANCH   1   2
HETATM    2  C3  UNL     1      -1.377  -0.126  -0.216  1.00  0.00     0.116 A 
HETATM    3  C2  UNL     1      -1.730   1.276  -0.111  1.00  0.00     0.266 A 
HETATM    4  N1  UNL     1      -3.103   1.664  -0.059  1.00  0.00    -0.275 N 
HETATM    5  O2  UNL     1      -0.822   2.128  -0.068  1.00  0.00    -0.267 OA
HETATM    6  C1  UNL     1      -4.154   0.708  -0.107  1.00  0.00     0.329 A 
ATOM      7  H1  UNL     1      -3.336   2.654   0.015  1.00  0.00     0.173 HD
HETATM    8  O1  UNL     1      -5.352   1.090  -0.058  1.00  0.00    -0.246 OA
HETATM    9  N6  UNL     1      -3.818  -0.670  -0.210  1.00  0.00    -0.275 N 
HETATM   10  C7  UNL     1      -2.456  -1.100  -0.265  1.00  0.00     0.266 A 
ATOM     11  H6  UNL     1      -4.564  -1.365  -0.245  1.00  0.00     0.173 HD
HETATM   12  O4  UNL     1      -2.163  -2.325  -0.356  1.00  0.00    -0.267 OA
ENDBRANCH   1   2
BRANCH   1  13
HETATM   13  N2  UNL     1       0.926   0.505  -0.214  1.00  0.00    -0.199 N 
ATOM     14  H2  UNL     1       0.698   1.499  -0.225  1.00  0.00     0.183 HD
BRANCH  13  15
HETATM   15  C5  UNL     1       2.157   0.106  -0.154  1.00  0.00     0.700 A 
HETATM   16  N3  UNL     1       2.662  -1.133  -0.129  1.00  0.00    -0.128 N 
HETATM   17  N4  UNL     1       3.983  -1.112  -0.064  1.00  0.00    -0.237 N 
ATOM     18  H3  UNL     1       2.101  -1.984  -0.157  1.00  0.00     0.205 HD
HETATM   19  C6  UNL     1       4.366   0.185  -0.045  1.00  0.00     0.353 A 
ATOM     20  H4  UNL     1       4.599  -1.924  -0.034  1.00  0.00     0.192 HD
HETATM   21  O3  UNL     1       5.572   0.557   0.014  1.00  0.00    -0.245 OA
HETATM   22  N5  UNL     1       3.244   0.925  -0.100  1.00  0.00    -0.139 N 
ATOM     23  H5  UNL     1       3.212   1.945  -0.101  1.00  0.00     0.189 HD
ENDBRANCH  13  15
ENDBRANCH   1  13
TORSDOF 3
