REMARK  2 active torsions:
REMARK  status: ('A' for Active; 'I' for Inactive)
REMARK    1  A    between atoms: N1_1  and  C1_4 
REMARK    2  A    between atoms: C2_9  and  C3_10 
ROOT
HETATM    1  C1  UNL     1       3.709   0.403   0.445  1.00  0.00     0.693 A 
HETATM    2  N2  UNL     1       3.443  -0.136  -0.830  1.00  0.00    -0.132 N 
ATOM      3  H2  UNL     1       4.218  -0.361  -1.454  1.00  0.00     0.205 HD
HETATM    4  N3  UNL     1       2.153  -0.362  -1.242  1.00  0.00    -0.281 N 
ATOM      5  H3  UNL     1       2.020  -0.753  -2.175  1.00  0.00     0.187 HD
HETATM    6  C2  UNL     1       0.965  -0.090  -0.459  1.00  0.00     0.118 A 
HETATM    7  C8  UNL     1       1.230   0.458   0.840  1.00  0.00     0.287 A 
HETATM    8  O3  UNL     1       0.292   0.730   1.610  1.00  0.00    -0.265 OA
HETATM    9  N6  UNL     1       2.589   0.692   1.264  1.00  0.00    -0.153 N 
ATOM     10  H6  UNL     1       2.751   1.082   2.193  1.00  0.00     0.187 HD
ENDROOT
BRANCH   6  11
HETATM   11  C3  UNL     1      -0.184  -0.391  -0.977  1.00  0.00     0.055 C 
HETATM   12  C4  UNL     1      -1.521  -0.256  -0.500  1.00  0.00     0.050 A 
HETATM   13  C5  UNL     1      -2.043   0.958  -0.143  1.00  0.00     0.110 A 
HETATM   14  C7  UNL     1      -2.392  -1.343  -0.345  1.00  0.00     0.261 A 
HETATM   15  N4  UNL     1      -3.322   1.051   0.324  1.00  0.00    -0.318 N 
HETATM   16  C6  UNL     1      -4.109  -0.033   0.451  1.00  0.00     0.327 A 
ATOM     17  H4  UNL     1      -3.691   1.966   0.583  1.00  0.00     0.170 HD
HETATM   18  O1  UNL     1      -5.289   0.069   0.885  1.00  0.00    -0.247 OA
HETATM   19  N5  UNL     1      -3.630  -1.238   0.110  1.00  0.00    -0.275 N 
ATOM     20  H5  UNL     1      -4.216  -2.068   0.201  1.00  0.00     0.173 HD
HETATM   21  O2  UNL     1      -1.906  -2.463  -0.677  1.00  0.00    -0.267 OA
ENDBRANCH   6  11
BRANCH   1  22
HETATM   22  N1  UNL     1       4.915   0.631   0.870  1.00  0.00    -0.233 N 
ATOM     23  H12 UNL     1       5.721   0.423   0.281  1.00  0.00     0.174 HD
ATOM     24  H11 UNL     1       5.107   1.021   1.793  1.00  0.00     0.174 HD
ENDBRANCH   1  22
TORSDOF 2
