REMARK  3 active torsions:
REMARK  status: ('A' for Active; 'I' for Inactive)
REMARK    1  A    between atoms: C3_7  and  C4_8 
REMARK    2  A    between atoms: C4_8  and  C5_9 
REMARK    3  A    between atoms: C7_16  and  O2_17 
ROOT
HETATM    1  C1  UNL     1       4.391   0.103   0.425  1.00  0.00     0.049 C 
HETATM    2  C2  UNL     1       3.132   0.162   0.089  1.00  0.00     0.093 A 
HETATM    3  N1  UNL     1       2.774   0.432  -1.170  1.00  0.00    -0.297 N 
ATOM      4  H1  UNL     1       3.506   0.591  -1.862  1.00  0.00     0.187 HD
HETATM    5  N2  UNL     1       1.513   0.502  -1.557  1.00  0.00    -0.296 N 
ATOM      6  H2  UNL     1       1.317   0.714  -2.535  1.00  0.00     0.187 HD
HETATM    7  C3  UNL     1       0.475   0.308  -0.726  1.00  0.00     0.104 A 
HETATM    8  C8  UNL     1       0.768   0.025   0.589  1.00  0.00     0.252 A 
HETATM    9  O3  UNL     1      -0.137  -0.165   1.411  1.00  0.00    -0.281 OA
HETATM   10  C9  UNL     1       2.094  -0.047   0.993  1.00  0.00     0.251 A 
HETATM   11  O4  UNL     1       2.392  -0.305   2.189  1.00  0.00    -0.281 OA
ENDROOT
BRANCH   7  12
HETATM   12  C4  UNL     1      -0.759   0.396  -1.195  1.00  0.00     0.069 C 
BRANCH  12  13
HETATM   13  C5  UNL     1      -1.956   0.205  -0.384  1.00  0.00     0.090 A 
HETATM   14  N3  UNL     1      -2.647   1.113   0.347  1.00  0.00    -0.305 N 
HETATM   15  C6  UNL     1      -3.695   0.509   0.943  1.00  0.00     0.326 A 
ATOM     16  H3  UNL     1      -2.411   2.102   0.433  1.00  0.00     0.171 HD
HETATM   17  O1  UNL     1      -4.564   1.030   1.702  1.00  0.00    -0.247 OA
HETATM   18  N4  UNL     1      -3.702  -0.795   0.610  1.00  0.00    -0.287 N 
HETATM   19  C7  UNL     1      -2.652  -0.990  -0.194  1.00  0.00     0.171 A 
ATOM     20  H4  UNL     1      -4.377  -1.498   0.912  1.00  0.00     0.172 HD
BRANCH  19  21
HETATM   21  O2  UNL     1      -2.326  -2.229  -0.749  1.00  0.00    -0.344 OA
ATOM     22  H2  UNL     1      -2.800  -3.042  -0.620  1.00  0.00     0.219 HD
ENDBRANCH  19  21
ENDBRANCH  12  13
ENDBRANCH   7  12
TORSDOF 3
