REMARK  3 active torsions:
REMARK  status: ('A' for Active; 'I' for Inactive)
REMARK    1  A    between atoms: C1_2  and  C2_3 
REMARK    2  A    between atoms: C3_6  and  C4_7 
REMARK    3  A    between atoms: C4_7  and  C5_8 
ROOT
HETATM    1  C2  UNL     1      -2.210  -0.171   0.254  1.00  0.00     0.102 C 
HETATM    2  N2  UNL     1      -1.036  -0.612  -0.230  1.00  0.00    -0.338 N 
ATOM      3  H2  UNL     1      -1.102  -1.501  -0.725  1.00  0.00     0.167 HD
HETATM    4  C3  UNL     1       0.205  -0.107  -0.187  1.00  0.00     0.110 C 
HETATM    5  N5  UNL     1       0.566   1.131   0.200  1.00  0.00    -0.306 N 
ATOM      6  H5  UNL     1       1.506   1.424  -0.066  1.00  0.00     0.170 HD
HETATM    7  C7  UNL     1      -0.164   2.041   0.901  1.00  0.00     0.301 C 
HETATM    8  O1  UNL     1       0.465   3.024   1.369  1.00  0.00    -0.264 OA
HETATM    9  C8  UNL     1      -1.512   2.035   1.174  1.00  0.00     0.291 C 
HETATM   10  O2  UNL     1      -1.946   3.048   1.754  1.00  0.00    -0.278 OA
HETATM   11  C9  UNL     1      -2.434   1.034   0.878  1.00  0.00     0.255 C 
HETATM   12  O3  UNL     1      -3.598   1.324   1.251  1.00  0.00    -0.281 OA
ENDROOT
BRANCH   4  13
HETATM   13  C4  UNL     1       1.190  -0.923  -0.571  1.00  0.00     0.081 C 
BRANCH  13  14
HETATM   14  C5  UNL     1       2.570  -0.485  -0.565  1.00  0.00     0.068 A 
HETATM   15  C6  UNL     1       3.524  -0.293   0.407  1.00  0.00     0.138 A 
HETATM   16  N3  UNL     1       4.367   0.088  -0.565  1.00  0.00    -0.309 N 
HETATM   17  N4  UNL     1       3.449  -0.094  -1.526  1.00  0.00    -0.300 N 
ATOM     18  H3  UNL     1       5.339   0.399  -0.571  1.00  0.00     0.186 HD
ATOM     19  H4  UNL     1       3.422   0.014  -2.540  1.00  0.00     0.187 HD
ENDBRANCH  13  14
ENDBRANCH   4  13
BRANCH   1  20
HETATM   20  C1  UNL     1      -3.282  -0.926   0.147  1.00  0.00     0.133 C 
HETATM   21  N1  UNL     1      -3.220  -2.207  -0.475  1.00  0.00    -0.113 NA
ENDBRANCH   1  20
TORSDOF 3
