REMARK  3 active torsions:
REMARK  status: ('A' for Active; 'I' for Inactive)
REMARK    1  A    between atoms: C5_7  and  C6_8 
REMARK    2  A    between atoms: N3_13  and  N4_14 
REMARK    3  A    between atoms: C8_17  and  N5_18 
ROOT
HETATM    1  C6  UNL     1      -0.283  -0.170   0.025  1.00  0.00     0.118 C 
HETATM    2  N2  UNL     1       0.363  -1.283   0.584  1.00  0.00    -0.317 N 
ATOM      3  H2  UNL     1      -0.183  -2.101   0.855  1.00  0.00     0.170 HD
HETATM    4  C7  UNL     1       1.794  -1.282   0.779  1.00  0.00     0.197 C 
HETATM    5  S1  UNL     1       2.454  -2.634   1.432  1.00  0.00    -0.039 SA
HETATM    6  N3  UNL     1       2.581  -0.173   0.420  1.00  0.00    -0.224 N 
HETATM    7  C8  UNL     1       1.911   1.090   0.280  1.00  0.00     0.411 C 
HETATM    8  N6  UNL     1       0.612   0.930  -0.323  1.00  0.00    -0.331 N 
ATOM      9  H6  UNL     1       0.306   1.610  -1.019  1.00  0.00     0.165 HD
ENDROOT
BRANCH   1  10
HETATM   10  C5  UNL     1      -1.565  -0.032  -0.210  1.00  0.00     0.035 A 
HETATM   11  C2  UNL     1      -2.656  -0.818  -0.032  1.00  0.00     0.036 A 
HETATM   12  C1  UNL     1      -2.705  -2.029   0.446  1.00  0.00     0.044 C 
HETATM   13  N1  UNL     1      -3.799  -0.151  -0.444  1.00  0.00    -0.366 N 
HETATM   14  C3  UNL     1      -3.447   1.049  -0.883  1.00  0.00     0.089 A 
ATOM     15  H1  UNL     1      -4.749  -0.521  -0.414  1.00  0.00     0.165 HD
HETATM   16  C4  UNL     1      -2.087   1.162  -0.757  1.00  0.00     0.034 A 
ENDBRANCH   1  10
BRANCH   7  17
HETATM   17  N5  UNL     1       2.705   1.908  -0.613  1.00  0.00    -0.039 N 
ATOM     18  H53 UNL     1       3.674   2.004  -0.309  1.00  0.00     0.279 HD
ATOM     19  H52 UNL     1       2.890   1.455  -1.508  1.00  0.00     0.279 HD
ATOM     20  H51 UNL     1       2.229   2.805  -0.712  1.00  0.00     0.279 HD
ENDBRANCH   7  17
BRANCH   6  21
HETATM   21  N4  UNL     1       3.944  -0.259   0.207  1.00  0.00    -0.337 N 
ATOM     22  H42 UNL     1       4.420  -1.156   0.306  1.00  0.00     0.177 HD
ATOM     23  H41 UNL     1       4.515   0.545  -0.053  1.00  0.00     0.177 HD
ENDBRANCH   6  21
TORSDOF 3
