REMARK  8 active torsions:
REMARK  status: ('A' for Active; 'I' for Inactive)
REMARK    1  A    between atoms: N1_2  and  C4_5 
REMARK    2  A    between atoms: C4_5  and  C5_6 
REMARK    3  A    between atoms: N2_13  and  C12_14 
REMARK    4  A    between atoms: C12_14  and  C13_15 
REMARK    5  A    between atoms: C14_16  and  C15_17 
REMARK    6  A    between atoms: C15_17  and  O1_18 
REMARK    7  A    between atoms: O1_18  and  C16_19 
REMARK    8  A    between atoms: C17_20  and  C18_21 
ROOT
HETATM    1  C13 UNL     1       2.186  -0.465   0.565  1.00  0.00    -0.074 C 
HETATM    2  C14 UNL     1       3.134   0.118   0.081  1.00  0.00    -0.078 C 
ENDROOT
BRANCH   1   3
HETATM    3  C12 UNL     1       1.052  -1.165   1.169  1.00  0.00     0.366 C 
BRANCH   3   4
HETATM    4  N2  UNL     1      -0.145  -0.544   0.692  1.00  0.00     0.108 N 
HETATM    5  C7  UNL     1      -0.404  -0.740  -0.702  1.00  0.00     0.225 C 
HETATM    6  C6  UNL     1      -1.487   0.179  -1.137  1.00  0.00     0.042 C 
HETATM    7  C8  UNL     1      -0.867  -2.171  -0.864  1.00  0.00     0.038 C 
HETATM    8  C5  UNL     1      -2.615   0.371  -0.152  1.00  0.00     0.016 C 
HETATM    9  C11 UNL     1      -2.531  -0.431   1.089  1.00  0.00     0.042 C 
HETATM   10  C10 UNL     1      -1.277  -1.246   1.269  1.00  0.00     0.225 C 
HETATM   11  C9  UNL     1      -1.363  -2.555   0.505  1.00  0.00     0.038 C 
BRANCH   8  12
HETATM   12  C4  UNL     1      -3.924   0.259  -0.887  1.00  0.00     0.240 C 
BRANCH  12  13
HETATM   13  N1  UNL     1      -5.109   0.416  -0.131  1.00  0.00    -0.078 N 
HETATM   14  C1  UNL     1      -5.015   1.122   1.106  1.00  0.00     0.271 C 
HETATM   15  C2  UNL     1      -5.792  -0.852   0.128  1.00  0.00     0.271 C 
HETATM   16  C3  UNL     1      -6.045   1.194  -0.973  1.00  0.00     0.271 C 
ENDBRANCH  12  13
ENDBRANCH   8  12
ENDBRANCH   3   4
ENDBRANCH   1   3
BRANCH   2  17
HETATM   17  C15 UNL     1       4.287   0.841  -0.487  1.00  0.00     0.269 C 
BRANCH  17  18
HETATM   18  O1  UNL     1       5.435   0.683   0.301  1.00  0.00    -0.332 OA
BRANCH  18  19
HETATM   19  C16 UNL     1       6.670   1.209   0.064  1.00  0.00     0.169 A 
HETATM   20  C17 UNL     1       7.690   0.614  -0.629  1.00  0.00     0.102 A 
HETATM   21  N4  UNL     1       8.741   1.488  -0.629  1.00  0.00    -0.294 N 
HETATM   22  N5  UNL     1       8.390   2.574   0.034  1.00  0.00    -0.264 N 
ATOM     23  H4  UNL     1       9.647   1.327  -1.069  1.00  0.00     0.187 HD
HETATM   24  C19 UNL     1       7.133   2.464   0.482  1.00  0.00     0.295 A 
ATOM     25  H5  UNL     1       8.992   3.384   0.184  1.00  0.00     0.190 HD
HETATM   26  O2  UNL     1       6.500   3.316   1.145  1.00  0.00    -0.264 OA
BRANCH  20  27
HETATM   27  C18 UNL     1       7.745  -0.705  -1.268  1.00  0.00     0.114 C 
HETATM   28  N3  UNL     1       6.760  -1.529  -1.244  1.00  0.00    -0.406 N 
ATOM     29  H32 UNL     1       5.912  -1.239  -0.756  1.00  0.00     0.155 HD
ATOM     30  H31 UNL     1       6.798  -2.446  -1.688  1.00  0.00     0.155 HD
ENDBRANCH  20  27
ENDBRANCH  18  19
ENDBRANCH  17  18
ENDBRANCH   2  17
TORSDOF 8
