REMARK  7 active torsions:
REMARK  status: ('A' for Active; 'I' for Inactive)
REMARK    1  A    between atoms: C3_3  and  N1_4 
REMARK    2  A    between atoms: C15_17  and  C16_18 
REMARK    3  A    between atoms: C16_18  and  N2_19 
REMARK    4  A    between atoms: N2_19  and  C17_22 
REMARK    5  A    between atoms: C17_22  and  C18_23 
REMARK    6  A    between atoms: C19_24  and  C20_25 
REMARK    7  A    between atoms: C20_25  and  N3_26 
ROOT
HETATM    1  C1  UNL     1      -5.337  -2.552   2.233  1.00  0.00     0.098 C 
HETATM    2  C2  UNL     1      -5.109  -1.367   2.036  1.00  0.00    -0.168 C 
HETATM    3  C3  UNL     1      -4.858   0.066   1.822  1.00  0.00     0.206 C 
ENDROOT
BRANCH   3   4
HETATM    4  N1  UNL     1      -4.827   0.397   0.418  1.00  0.00    -0.329 N 
HETATM    5  C4  UNL     1      -5.952   0.748  -0.338  1.00  0.00     0.222 C 
HETATM    6  O1  UNL     1      -7.086   1.030   0.104  1.00  0.00    -0.273 OA
HETATM    7  C5  UNL     1      -5.591   0.736  -1.772  1.00  0.00     0.110 C 
HETATM    8  C6  UNL     1      -4.080   0.626  -1.817  1.00  0.00     0.032 A 
HETATM    9  C7  UNL     1      -3.601  -0.766  -2.090  1.00  0.00     0.005 A 
HETATM   10  C13 UNL     1      -3.613   0.430  -0.391  1.00  0.00     0.063 A 
HETATM   11  C8  UNL     1      -2.159  -1.112  -1.776  1.00  0.00     0.003 A 
HETATM   12  C14 UNL     1      -3.043  -0.917  -0.658  1.00  0.00     0.028 A 
HETATM   13  C9  UNL     1      -1.077  -0.206  -2.122  1.00  0.00     0.005 A 
HETATM   14  C10 UNL     1      -0.628   0.910  -1.384  1.00  0.00     0.019 A 
HETATM   15  C15 UNL     1       0.170  -0.334  -1.193  1.00  0.00     0.024 A 
HETATM   16  C11 UNL     1      -1.381   1.564  -0.346  1.00  0.00    -0.023 C 
HETATM   17  C12 UNL     1      -2.604   1.400   0.093  1.00  0.00     0.001 C 
BRANCH  15  18
HETATM   18  C16 UNL     1       1.482  -0.547  -1.862  1.00  0.00     0.239 C 
BRANCH  18  19
HETATM   19  N2  UNL     1       2.560  -0.652  -0.920  1.00  0.00    -0.065 N 
ATOM     20  H22 UNL     1       2.416  -1.400  -0.241  1.00  0.00     0.278 HD
ATOM     21  H21 UNL     1       3.416  -1.011  -1.343  1.00  0.00     0.278 HD
BRANCH  19  22
HETATM   22  C17 UNL     1       2.748   0.638  -0.294  1.00  0.00     0.325 C 
BRANCH  22  23
HETATM   23  C18 UNL     1       3.944   0.601   0.582  1.00  0.00    -0.077 C 
HETATM   24  C19 UNL     1       4.943   0.590   1.281  1.00  0.00    -0.075 C 
BRANCH  24  25
HETATM   25  C20 UNL     1       6.145   0.604   2.087  1.00  0.00     0.364 C 
BRANCH  25  26
HETATM   26  N3  UNL     1       6.847  -0.637   2.131  1.00  0.00     0.090 N 
HETATM   27  C21 UNL     1       6.206  -1.702   2.838  1.00  0.00     0.310 C 
HETATM   28  C22 UNL     1       7.265  -1.087   0.810  1.00  0.00     0.310 C 
ENDBRANCH  25  26
ENDBRANCH  24  25
ENDBRANCH  22  23
ENDBRANCH  19  22
ENDBRANCH  18  19
ENDBRANCH  15  18
ENDBRANCH   3   4
TORSDOF 7
