REMARK  6 active torsions:
REMARK  status: ('A' for Active; 'I' for Inactive)
REMARK    1  A    between atoms: C2_2  and  C3_3 
REMARK    2  A    between atoms: C3_3  and  N1_4 
REMARK    3  A    between atoms: N1_4  and  C4_6 
REMARK    4  A    between atoms: N2_10  and  S1_11 
REMARK    5  A    between atoms: S1_11  and  C8_14 
REMARK    6  A    between atoms: C11_17  and  C12_18 
REMARK       I    between atoms: N3_21  and  C15_22 
ROOT
HETATM    1  C4  UNL     1      -2.318   0.620  -0.268  1.00  0.00     0.095 C 
HETATM    2  C5  UNL     1      -1.144   0.846   0.727  1.00  0.00     0.033 C 
HETATM    3  C6  UNL     1       0.066   0.487  -0.007  1.00  0.00     0.013 C 
HETATM    4  C7  UNL     1       1.277   1.402   0.214  1.00  0.00     0.112 C 
HETATM    5  N2  UNL     1       2.139   0.783  -0.788  1.00  0.00    -0.209 NA
HETATM    6  C10 UNL     1       1.994  -0.634  -0.618  1.00  0.00     0.118 C 
HETATM    7  C11 UNL     1       0.667  -0.844   0.161  1.00  0.00    -0.007 C 
HETATM    8  C14 UNL     1      -0.159  -1.919  -0.426  1.00  0.00     0.138 C 
HETATM    9  N3  UNL     1      -1.513  -1.638  -0.785  1.00  0.00    -0.334 N 
HETATM   10  C15 UNL     1      -1.928  -2.299  -1.981  1.00  0.00     0.330 C 
HETATM   11  N4  UNL     1      -1.008  -3.123  -2.663  1.00  0.00    -0.040 NA
HETATM   12  O3  UNL     1      -3.092  -2.162  -2.434  1.00  0.00    -0.251 OA
HETATM   13  C16 UNL     1      -2.573  -0.862  -0.195  1.00  0.00     0.152 C 
ENDROOT
BRANCH   1  14
HETATM   14  N1  UNL     1      -3.418   1.405   0.145  1.00  0.00    -0.412 N 
ATOM     15  H1  UNL     1      -3.321   2.389   0.394  1.00  0.00     0.153 HD
BRANCH  14  16
HETATM   16  C3  UNL     1      -4.684   0.722   0.191  1.00  0.00     0.141 C 
BRANCH  16  17
HETATM   17  C2  UNL     1      -5.726   1.677   0.641  1.00  0.00    -0.018 C 
HETATM   18  C1  UNL     1      -5.406   2.919   0.911  1.00  0.00     0.008 C 
ENDBRANCH  16  17
ENDBRANCH  14  16
ENDBRANCH   1  14
BRANCH   7  19
HETATM   19  C12 UNL     1       1.122  -1.212   1.549  1.00  0.00     0.008 C 
HETATM   20  C13 UNL     1       1.694  -2.632   1.429  1.00  0.00     0.006 C 
ENDBRANCH   7  19
BRANCH   5  21
HETATM   21  S1  UNL     1       3.693   1.378  -0.903  1.00  0.00     0.211 S 
HETATM   22  O1  UNL     1       4.437   0.773  -2.059  1.00  0.00    -0.211 OA
HETATM   23  O2  UNL     1       3.615   2.873  -1.193  1.00  0.00    -0.211 OA
BRANCH  21  24
HETATM   24  C8  UNL     1       4.703   1.211   0.538  1.00  0.00     0.153 C 
HETATM   25  C9  UNL     1       6.064   1.827   0.190  1.00  0.00     0.022 C 
ENDBRANCH  21  24
ENDBRANCH   5  21
TORSDOF 6
