REMARK  6 active torsions:
REMARK  status: ('A' for Active; 'I' for Inactive)
REMARK    1  A    between atoms: C6_6  and  C7_7 
REMARK       I    between atoms: N1_8  and  C8_10 
REMARK    2  A    between atoms: C8_10  and  C9_12 
REMARK    3  A    between atoms: C9_12  and  N2_13 
REMARK    4  A    between atoms: C11_18  and  C12_19 
REMARK    5  A    between atoms: C12_19  and  C13_20 
REMARK    6  A    between atoms: C13_20  and  N4_21 
ROOT
HETATM    1  N2  UNL     1      -0.452  -0.790   0.728  1.00  0.00    -0.260 N 
HETATM    2  C10 UNL     1      -1.164  -1.027   1.950  1.00  0.00     0.326 C 
HETATM    3  O2  UNL     1      -0.878  -0.627   3.110  1.00  0.00    -0.247 OA
HETATM    4  N3  UNL     1      -2.289  -1.822   1.593  1.00  0.00    -0.329 N 
ATOM      5  H3  UNL     1      -2.844  -2.391   2.232  1.00  0.00     0.165 HD
HETATM    6  C11 UNL     1      -2.512  -1.687   0.175  1.00  0.00     0.180 C 
HETATM    7  C17 UNL     1      -1.142  -1.434  -0.338  1.00  0.00     0.251 C 
HETATM    8  O3  UNL     1      -0.630  -1.699  -1.451  1.00  0.00    -0.271 OA
ENDROOT
BRANCH   1   9
HETATM    9  C9  UNL     1       0.769  -0.020   0.605  1.00  0.00     0.240 C 
BRANCH   9  10
HETATM   10  C8  UNL     1       1.907  -0.954   0.783  1.00  0.00     0.240 C 
HETATM   11  N1  UNL     1       3.261  -0.541   0.725  1.00  0.00    -0.334 N 
HETATM   12  C7  UNL     1       3.823  -0.350  -0.398  1.00  0.00     0.121 C 
ATOM     13  H1  UNL     1       3.786  -0.397   1.588  1.00  0.00     0.168 HD
HETATM   14  O1  UNL     1       1.713  -2.182   0.999  1.00  0.00    -0.271 OA
BRANCH  12  15
HETATM   15  C6  UNL     1       5.214   0.075  -0.492  1.00  0.00     0.054 A 
HETATM   16  C4  UNL     1       5.937   0.316  -1.633  1.00  0.00    -0.032 A 
HETATM   17  C3  UNL     1       7.215   0.699  -1.260  1.00  0.00     0.033 A 
HETATM   18  C5  UNL     1       5.390   0.174  -3.009  1.00  0.00     0.050 C 
HETATM   19  C2  UNL     1       7.248   0.684   0.106  1.00  0.00     0.006 A 
HETATM   20  C1  UNL     1       8.385   1.014   1.015  1.00  0.00     0.068 C 
HETATM   21  N5  UNL     1       6.022   0.303   0.543  1.00  0.00    -0.358 N 
ATOM     22  H5  UNL     1       5.756   0.205   1.523  1.00  0.00     0.166 HD
ENDBRANCH  12  15
ENDBRANCH   9  10
ENDBRANCH   1   9
BRANCH   6  23
HETATM   23  C12 UNL     1      -3.387  -0.531  -0.177  1.00  0.00     0.063 C 
BRANCH  23  24
HETATM   24  C13 UNL     1      -4.757  -0.648   0.458  1.00  0.00     0.238 C 
BRANCH  24  25
HETATM   25  N4  UNL     1      -5.602   0.456   0.126  1.00  0.00    -0.079 N 
HETATM   26  C14 UNL     1      -5.038   1.354  -0.844  1.00  0.00     0.271 C 
HETATM   27  C15 UNL     1      -5.870   1.214   1.344  1.00  0.00     0.271 C 
HETATM   28  C16 UNL     1      -6.908   0.027  -0.380  1.00  0.00     0.271 C 
ENDBRANCH  24  25
ENDBRANCH  23  24
ENDBRANCH   6  23
TORSDOF 6
