REMARK  7 active torsions:
REMARK  status: ('A' for Active; 'I' for Inactive)
REMARK    1  A    between atoms: C5_5  and  O1_6 
REMARK    2  A    between atoms: O1_6  and  C6_7 
REMARK    3  A    between atoms: C6_7  and  C7_9 
REMARK    4  A    between atoms: C7_9  and  N1_10 
REMARK    5  A    between atoms: N2_13  and  C10_14 
REMARK    6  A    between atoms: C10_14  and  C11_15 
REMARK    7  A    between atoms: C11_15  and  C12_16 
ROOT
HETATM    1  N1  UNL     1       0.606   0.590  -0.843  1.00  0.00     0.101 N 
HETATM    2  C8  UNL     1       0.790  -0.722  -0.320  1.00  0.00     0.301 C 
HETATM    3  C9  UNL     1       2.229  -1.073  -0.045  1.00  0.00     0.268 C 
HETATM    4  N2  UNL     1       2.942  -0.049   0.646  1.00  0.00    -0.055 N 
HETATM    5  C14 UNL     1       2.185   0.765   1.542  1.00  0.00     0.273 A 
HETATM    6  C15 UNL     1       2.593   1.302   0.273  1.00  0.00     0.244 A 
HETATM    7  C16 UNL     1       1.808   1.341  -0.990  1.00  0.00     0.308 C 
ENDROOT
BRANCH   1   8
HETATM    8  C7  UNL     1      -0.116   0.568  -2.121  1.00  0.00     0.383 C 
BRANCH   8   9
HETATM    9  C6  UNL     1      -1.510   0.149  -1.905  1.00  0.00     0.287 C 
HETATM   10  O2  UNL     1      -2.288   0.024  -2.872  1.00  0.00    -0.263 OA
BRANCH   9  11
HETATM   11  O1  UNL     1      -2.080  -0.133  -0.690  1.00  0.00    -0.315 OA
BRANCH  11  12
HETATM   12  C5  UNL     1      -3.390  -0.521  -0.509  1.00  0.00     0.136 C 
HETATM   13  C4  UNL     1      -4.096   0.638   0.200  1.00  0.00     0.070 C 
HETATM   14  C2  UNL     1      -5.476   0.333   0.614  1.00  0.00     0.056 C 
HETATM   15  C1  UNL     1      -6.396   1.269  -0.195  1.00  0.00     0.045 C 
HETATM   16  C3  UNL     1      -5.715   0.755   2.072  1.00  0.00     0.045 C 
HETATM   17  O3  UNL     1      -5.957  -0.908   0.455  1.00  0.00    -0.381 OA
HETATM   18  C18 UNL     1      -5.183  -1.966   0.218  1.00  0.00     0.171 C 
HETATM   19  C17 UNL     1      -3.676  -1.749   0.248  1.00  0.00     0.059 C 
ENDBRANCH  11  12
ENDBRANCH   9  11
ENDBRANCH   8   9
ENDBRANCH   1   8
BRANCH   4  20
HETATM   20  C10 UNL     1       4.366  -0.243   0.797  1.00  0.00     0.244 C 
BRANCH  20  21
HETATM   21  C11 UNL     1       4.960   0.026  -0.587  1.00  0.00     0.088 C 
BRANCH  21  22
HETATM   22  C12 UNL     1       6.430  -0.147  -0.533  1.00  0.00     0.044 A 
HETATM   23  C13 UNL     1       7.330  -0.473   0.430  1.00  0.00     0.133 A 
HETATM   24  N3  UNL     1       8.342  -0.376  -0.447  1.00  0.00    -0.310 N 
HETATM   25  N4  UNL     1       7.469  -0.060  -1.381  1.00  0.00    -0.304 N 
ATOM     26  H3  UNL     1       9.354  -0.496  -0.407  1.00  0.00     0.186 HD
ATOM     27  H4  UNL     1       7.551   0.165  -2.372  1.00  0.00     0.186 HD
ENDBRANCH  21  22
ENDBRANCH  20  21
ENDBRANCH   4  20
TORSDOF 7
