REMARK  9 active torsions:
REMARK  status: ('A' for Active; 'I' for Inactive)
REMARK    1  A    between atoms: N1_1  and  C1_5 
REMARK    2  A    between atoms: C1_5  and  C2_6 
REMARK    3  A    between atoms: C1_5  and  C4_10 
REMARK    4  A    between atoms: C2_6  and  C3_7 
REMARK    5  A    between atoms: C3_7  and  O1_8 
REMARK    6  A    between atoms: C4_10  and  N4_21 
REMARK    7  A    between atoms: N2_11  and  C5_13 
REMARK    8  A    between atoms: C5_13  and  C6_14 
REMARK    9  A    between atoms: C6_14  and  N3_15 
ROOT
HETATM    1  C4  UNL     1       0.028   1.318  -0.576  1.00  0.00     0.106 C 
HETATM    2  N2  UNL     1       0.831   0.585  -1.261  1.00  0.00    -0.376 N 
ATOM      3  H2  UNL     1       0.535  -0.373  -1.448  1.00  0.00     0.160 HD
ENDROOT
BRANCH   1   4
HETATM    4  C1  UNL     1       0.338   2.711  -0.239  1.00  0.00     0.252 C 
BRANCH   4   5
HETATM    5  N1  UNL     1       0.350   2.862   1.221  1.00  0.00    -0.068 N 
ATOM      6  H13 UNL     1       0.497   3.826   1.522  1.00  0.00     0.275 HD
ATOM      7  H12 UNL     1      -0.569   2.731   1.644  1.00  0.00     0.275 HD
ATOM      8  H11 UNL     1       1.052   2.218   1.586  1.00  0.00     0.275 HD
ENDBRANCH   4   5
BRANCH   4   9
HETATM    9  C2  UNL     1      -0.708   3.670  -0.782  1.00  0.00     0.067 C 
BRANCH   9  10
HETATM   10  C3  UNL     1      -0.327   5.082  -0.390  1.00  0.00     0.166 C 
BRANCH  10  11
HETATM   11  O1  UNL     1      -1.320   5.925  -0.913  1.00  0.00    -0.401 OA
ATOM     12  H1  UNL     1      -1.081   6.811  -0.667  1.00  0.00     0.209 HD
ENDBRANCH  10  11
ENDBRANCH   9  10
ENDBRANCH   4   9
ENDBRANCH   1   4
BRANCH   1  13
HETATM   13  N4  UNL     1      -1.195   0.705  -0.165  1.00  0.00    -0.366 N 
HETATM   14  C12 UNL     1      -2.269   0.457  -1.135  1.00  0.00     0.152 C 
HETATM   15  C13 UNL     1      -2.757  -0.987  -0.957  1.00  0.00     0.257 C 
HETATM   16  N5  UNL     1      -3.244  -1.216   0.389  1.00  0.00    -0.064 N 
HETATM   17  C14 UNL     1      -2.744  -2.423   0.983  1.00  0.00     0.237 C 
HETATM   18  C17 UNL     1      -4.691  -1.320   0.332  1.00  0.00     0.237 C 
HETATM   19  C18 UNL     1      -2.921  -0.118   1.257  1.00  0.00     0.257 C 
HETATM   20  C15 UNL     1      -3.918  -3.170   1.554  1.00  0.00     0.029 C 
HETATM   21  C16 UNL     1      -5.058  -2.725   0.686  1.00  0.00     0.029 C 
HETATM   22  C19 UNL     1      -1.464   0.289   1.191  1.00  0.00     0.152 C 
ENDBRANCH   1  13
BRANCH   2  23
HETATM   23  C5  UNL     1       2.105   0.986  -1.788  1.00  0.00     0.151 C 
BRANCH  23  24
HETATM   24  C6  UNL     1       3.231   0.859  -0.756  1.00  0.00     0.292 C 
BRANCH  24  25
HETATM   25  N3  UNL     1       3.297  -0.536  -0.374  1.00  0.00     0.090 N 
HETATM   26  C7  UNL     1       3.754  -1.388  -1.419  1.00  0.00     0.272 C 
HETATM   27  C8  UNL     1       4.981  -2.201  -1.068  1.00  0.00     0.030 C 
HETATM   28  C9  UNL     1       4.868  -2.936   0.224  1.00  0.00     0.003 C 
HETATM   29  C10 UNL     1       3.886  -2.269   1.151  1.00  0.00     0.030 C 
HETATM   30  C11 UNL     1       3.860  -0.775   0.913  1.00  0.00     0.272 C 
ENDBRANCH  24  25
ENDBRANCH  23  24
ENDBRANCH   2  23
TORSDOF 9
