REMARK  5 active torsions:
REMARK  status: ('A' for Active; 'I' for Inactive)
REMARK    1  A    between atoms: C5_6  and  N2_7 
REMARK    2  A    between atoms: N2_7  and  C6_9 
REMARK    3  A    between atoms: C6_9  and  C7_10 
REMARK    4  A    between atoms: C11_15  and  C12_16 
REMARK    5  A    between atoms: C12_16  and  C13_17 
ROOT
HETATM    1  C7  UNL     1      -1.413  -0.253  -0.833  1.00  0.00     0.094 C 
HETATM    2  C8  UNL     1      -1.590   1.072  -1.522  1.00  0.00     0.029 C 
HETATM    3  C9  UNL     1      -2.431   2.043  -0.761  1.00  0.00     0.041 C 
HETATM    4  C10 UNL     1      -3.703   1.317  -0.351  1.00  0.00     0.192 C 
HETATM    5  F1  UNL     1      -4.504   2.250   0.286  1.00  0.00    -0.247 F 
HETATM    6  C11 UNL     1      -3.398   0.125   0.516  1.00  0.00     0.113 C 
HETATM    7  N3  UNL     1      -2.050  -0.329   0.458  1.00  0.00    -0.409 N 
ATOM      8  H3  UNL     1      -1.564  -0.687   1.280  1.00  0.00     0.154 HD
ENDROOT
BRANCH   1   9
HETATM    9  C6  UNL     1       0.082  -0.508  -0.556  1.00  0.00     0.139 C 
BRANCH   9  10
HETATM   10  N2  UNL     1       0.547   0.507   0.302  1.00  0.00    -0.413 N 
ATOM     11  H2  UNL     1      -0.104   1.187   0.695  1.00  0.00     0.153 HD
BRANCH  10  12
HETATM   12  C5  UNL     1       1.925   0.574   0.614  1.00  0.00     0.105 C 
HETATM   13  C4  UNL     1       2.673   0.880  -0.685  1.00  0.00     0.028 C 
HETATM   14  C3  UNL     1       4.130   1.139  -0.421  1.00  0.00     0.032 C 
HETATM   15  C2  UNL     1       4.652   0.307   0.729  1.00  0.00     0.272 C 
HETATM   16  N1  UNL     1       3.875  -0.889   0.896  1.00  0.00     0.086 N 
HETATM   17  C1  UNL     1       3.981  -1.814  -0.186  1.00  0.00     0.310 C 
HETATM   18  C14 UNL     1       2.501  -0.626   1.307  1.00  0.00     0.296 C 
ENDBRANCH  10  12
ENDBRANCH   9  10
ENDBRANCH   1   9
BRANCH   6  19
HETATM   19  C12 UNL     1      -4.427  -0.987   0.324  1.00  0.00     0.059 C 
BRANCH  19  20
HETATM   20  C13 UNL     1      -4.086  -2.161   1.216  1.00  0.00     0.224 C 
HETATM   21  F2  UNL     1      -2.832  -2.648   0.892  1.00  0.00    -0.255 F 
ENDBRANCH  19  20
ENDBRANCH   6  19
TORSDOF 5
