REMARK  6 active torsions:
REMARK  status: ('A' for Active; 'I' for Inactive)
REMARK    1  A    between atoms: O1_1  and  C1_3 
REMARK    2  A    between atoms: C1_3  and  C2_4 
REMARK    3  A    between atoms: C1_3  and  C14_20 
REMARK    4  A    between atoms: C2_4  and  C3_5 
REMARK    5  A    between atoms: N1_8  and  C6_9 
REMARK    6  A    between atoms: C6_9  and  C7_10 
ROOT
HETATM    1  C3  UNL     1      -2.270  -0.870  -0.302  1.00  0.00    -0.009 C 
HETATM    2  C4  UNL     1      -1.481  -0.362   0.857  1.00  0.00     0.035 C 
HETATM    3  C5  UNL     1       0.011  -0.211   0.559  1.00  0.00     0.272 C 
HETATM    4  N1  UNL     1       0.261   0.716  -0.475  1.00  0.00     0.088 N 
HETATM    5  C12 UNL     1      -0.811   0.797  -1.452  1.00  0.00     0.272 C 
HETATM    6  C13 UNL     1      -1.509  -0.545  -1.583  1.00  0.00     0.035 C 
ENDROOT
BRANCH   4   7
HETATM    7  C6  UNL     1       1.524   0.634  -1.093  1.00  0.00     0.278 C 
BRANCH   7   8
HETATM    8  C7  UNL     1       2.726   1.060  -0.310  1.00  0.00     0.039 C 
HETATM    9  C8  UNL     1       3.024   0.326   0.941  1.00  0.00     0.010 C 
HETATM   10  C9  UNL     1       4.530   0.232   1.207  1.00  0.00     0.028 C 
HETATM   11  C10 UNL     1       5.248  -0.513   0.122  1.00  0.00     0.232 C 
HETATM   12  N2  UNL     1       4.389  -0.472  -1.071  1.00  0.00    -0.075 N 
HETATM   13  C11 UNL     1       3.983   0.927  -1.195  1.00  0.00     0.238 C 
ATOM     14  H22 UNL     1       4.828  -0.851  -1.910  1.00  0.00     0.277 HD
ATOM     15  H21 UNL     1       3.609  -1.128  -1.041  1.00  0.00     0.277 HD
ENDBRANCH   7   8
ENDBRANCH   4   7
BRANCH   1  16
HETATM   16  C2  UNL     1      -3.636  -0.231  -0.405  1.00  0.00     0.042 C 
BRANCH  16  17
HETATM   17  C1  UNL     1      -4.468  -0.490   0.828  1.00  0.00     0.183 C 
BRANCH  17  18
HETATM   18  O1  UNL     1      -4.675  -1.840   1.050  1.00  0.00    -0.390 OA
ATOM     19  H1  UNL     1      -5.199  -2.003   1.826  1.00  0.00     0.210 HD
ENDBRANCH  17  18
BRANCH  17  20
HETATM   20  C14 UNL     1      -5.832   0.166   0.722  1.00  0.00     0.381 C 
HETATM   21  F1  UNL     1      -6.517  -0.037   1.900  1.00  0.00    -0.212 F 
HETATM   22  F2  UNL     1      -5.736   1.514   0.427  1.00  0.00    -0.212 F 
ENDBRANCH  17  20
ENDBRANCH  16  17
ENDBRANCH   1  16
TORSDOF 6
