REMARK  6 active torsions:
REMARK  status: ('A' for Active; 'I' for Inactive)
REMARK    1  A    between atoms: C2_2  and  C3_3 
REMARK    2  A    between atoms: C5_5  and  C6_6 
REMARK    3  A    between atoms: C6_6  and  O1_8 
REMARK    4  A    between atoms: O1_8  and  C8_9 
REMARK    5  A    between atoms: C8_9  and  C10_11 
REMARK    6  A    between atoms: C10_11  and  N1_12 
ROOT
HETATM    1  C3  UNL     1      -2.496   0.447  -0.264  1.00  0.00     0.060 C 
HETATM    2  C4  UNL     1      -1.290   0.194   0.621  1.00  0.00     0.027 C 
HETATM    3  C5  UNL     1      -0.035   0.034  -0.222  1.00  0.00     0.107 C 
HETATM    4  C11 UNL     1      -0.246  -0.893  -1.347  1.00  0.00     0.224 C 
HETATM    5  O2  UNL     1       0.745  -1.021  -2.103  1.00  0.00    -0.273 OA
HETATM    6  N2  UNL     1      -1.420  -1.624  -1.641  1.00  0.00    -0.355 N 
ATOM      7  H2  UNL     1      -1.513  -1.949  -2.603  1.00  0.00     0.162 HD
HETATM    8  C12 UNL     1      -2.495  -1.965  -0.757  1.00  0.00     0.202 C 
HETATM    9  C13 UNL     1      -3.314  -0.806  -0.281  1.00  0.00     0.262 C 
HETATM   10  F1  UNL     1      -4.474  -0.642  -1.014  1.00  0.00    -0.204 F 
HETATM   11  F2  UNL     1      -3.714  -1.094   1.023  1.00  0.00    -0.204 F 
ENDROOT
BRANCH   3  12
HETATM   12  C6  UNL     1       1.105  -0.418   0.678  1.00  0.00     0.131 C 
HETATM   13  C7  UNL     1       0.748  -1.734   1.317  1.00  0.00     0.040 C 
BRANCH  12  14
HETATM   14  O1  UNL     1       2.228  -0.549  -0.137  1.00  0.00    -0.379 OA
BRANCH  14  15
HETATM   15  C8  UNL     1       3.282   0.256   0.286  1.00  0.00     0.143 C 
HETATM   16  C9  UNL     1       4.489  -0.642   0.565  1.00  0.00     0.041 C 
BRANCH  15  17
HETATM   17  C10 UNL     1       3.682   1.122  -0.905  1.00  0.00     0.261 C 
BRANCH  17  18
HETATM   18  N1  UNL     1       4.764   2.006  -0.610  1.00  0.00    -0.077 N 
ATOM     19  H13 UNL     1       4.553   2.582   0.205  1.00  0.00     0.274 HD
ATOM     20  H12 UNL     1       5.567   1.492  -0.247  1.00  0.00     0.274 HD
ATOM     21  H11 UNL     1       5.031   2.585  -1.406  1.00  0.00     0.274 HD
ENDBRANCH  17  18
ENDBRANCH  15  17
ENDBRANCH  14  15
ENDBRANCH  12  14
ENDBRANCH   3  12
BRANCH   1  22
HETATM   22  C2  UNL     1      -3.272   1.631   0.266  1.00  0.00     0.006 C 
HETATM   23  C1  UNL     1      -4.484   1.967  -0.541  1.00  0.00     0.006 C 
ENDBRANCH   1  22
TORSDOF 6
