REMARK  7 active torsions:
REMARK  status: ('A' for Active; 'I' for Inactive)
REMARK    1  A    between atoms: C2_2  and  C3_3 
REMARK    2  A    between atoms: C3_3  and  O1_4 
REMARK    3  A    between atoms: C3_3  and  N1_6 
REMARK    4  A    between atoms: C3_3  and  S1_12 
REMARK    5  A    between atoms: N1_6  and  O2_7 
REMARK    6  A    between atoms: S1_12  and  N2_14 
REMARK    7  A    between atoms: N2_14  and  C6_16 
ROOT
HETATM    1  C3  UNL     1       2.097  -0.135   0.360  1.00  0.00     0.221 C 
ENDROOT
BRANCH   1   2
HETATM    2  C2  UNL     1       1.964  -1.063   1.525  1.00  0.00     0.072 C 
HETATM    3  C1  UNL     1       2.104  -2.521   1.181  1.00  0.00     0.011 C 
ENDBRANCH   1   2
BRANCH   1   4
HETATM    4  O1  UNL     1       3.414  -0.397  -0.159  1.00  0.00    -0.360 OA
ATOM      5  H1  UNL     1       3.498   0.193  -0.899  1.00  0.00     0.213 HD
ENDBRANCH   1   4
BRANCH   1   6
HETATM    6  N1  UNL     1       2.134   1.256   0.674  1.00  0.00    -0.163 N 
HETATM    7  C4  UNL     1       1.964   1.769   1.789  1.00  0.00     0.369 C 
HETATM    8  F1  UNL     1       2.037   3.158   1.915  1.00  0.00    -0.150 F 
HETATM    9  F2  UNL     1       1.700   1.137   2.935  1.00  0.00    -0.150 F 
BRANCH   6  10
HETATM   10  O2  UNL     1       2.369   2.098  -0.420  1.00  0.00    -0.280 OA
ATOM     11  H2  UNL     1       2.394   3.024  -0.211  1.00  0.00     0.245 HD
ENDBRANCH   6  10
ENDBRANCH   1   6
BRANCH   1  12
HETATM   12  S1  UNL     1       0.955  -0.478  -0.889  1.00  0.00    -0.077 SA
HETATM   13  C5  UNL     1       0.951  -1.975  -1.665  1.00  0.00     0.106 C 
BRANCH  12  14
HETATM   14  N2  UNL     1      -0.144   0.701  -1.305  1.00  0.00    -0.365 N 
ATOM     15  H2  UNL     1      -0.041   1.255  -2.155  1.00  0.00     0.167 HD
BRANCH  14  16
HETATM   16  C6  UNL     1      -1.242   0.896  -0.407  1.00  0.00     0.090 C 
HETATM   17  C7  UNL     1      -2.135   2.010  -0.953  1.00  0.00     0.028 C 
HETATM   18  C8  UNL     1      -3.343   1.862  -0.049  1.00  0.00     0.039 C 
HETATM   19  C9  UNL     1      -3.543   0.365  -0.018  1.00  0.00     0.172 C 
HETATM   20  F3  UNL     1      -4.560   0.038  -0.894  1.00  0.00    -0.249 F 
HETATM   21  C10 UNL     1      -2.223  -0.260  -0.407  1.00  0.00     0.062 C 
ENDBRANCH  14  16
ENDBRANCH  12  14
ENDBRANCH   1  12
TORSDOF 7
