REMARK  5 active torsions:
REMARK  status: ('A' for Active; 'I' for Inactive)
REMARK    1  A    between atoms: C3_8  and  C4_9 
REMARK    2  A    between atoms: C4_9  and  N2_10 
REMARK    3  A    between atoms: N2_10  and  C5_13 
REMARK    4  A    between atoms: C5_13  and  C6_14 
REMARK    5  A    between atoms: C6_14  and  N3_15 
ROOT
HETATM    1  N2  UNL     1       1.061   0.267  -0.785  1.00  0.00    -0.071 N 
ATOM      2  H21 UNL     1       1.225  -0.727  -0.946  1.00  0.00     0.277 HD
ATOM      3  H22 UNL     1       0.398   0.453  -1.537  1.00  0.00     0.277 HD
ENDROOT
BRANCH   1   4
HETATM    4  C4  UNL     1       2.268   1.018  -0.974  1.00  0.00     0.265 C 
BRANCH   4   5
HETATM    5  C3  UNL     1       3.330   0.489  -0.018  1.00  0.00     0.217 C 
HETATM    6  N1  UNL     1       3.622  -0.907  -0.222  1.00  0.00    -0.064 N 
HETATM    7  C2  UNL     1       4.934  -1.099   0.372  1.00  0.00     0.311 C 
ATOM      8  H12 UNL     1       3.559  -1.207  -1.195  1.00  0.00     0.277 HD
ATOM      9  H11 UNL     1       2.906  -1.538   0.139  1.00  0.00     0.277 HD
HETATM   10  C1  UNL     1       5.623   0.237   0.322  1.00  0.00     0.269 C 
HETATM   11  F1  UNL     1       6.842   0.164  -0.325  1.00  0.00    -0.204 F 
HETATM   12  F2  UNL     1       5.780   0.784   1.581  1.00  0.00    -0.204 F 
HETATM   13  C14 UNL     1       4.646   1.118  -0.428  1.00  0.00     0.115 C 
ENDBRANCH   4   5
ENDBRANCH   1   4
BRANCH   1  14
HETATM   14  C5  UNL     1       0.438   0.484   0.519  1.00  0.00     0.262 C 
BRANCH  14  15
HETATM   15  C6  UNL     1      -0.712  -0.500   0.573  1.00  0.00     0.300 C 
BRANCH  15  16
HETATM   16  N3  UNL     1      -1.724  -0.291  -0.432  1.00  0.00     0.095 N 
HETATM   17  C7  UNL     1      -2.547  -1.494  -0.435  1.00  0.00     0.277 C 
HETATM   18  C8  UNL     1      -3.932  -1.227   0.022  1.00  0.00     0.014 C 
HETATM   19  C9  UNL     1      -4.579  -0.283  -0.964  1.00  0.00     0.008 C 
HETATM   20  C13 UNL     1      -3.859  -0.575   1.399  1.00  0.00     0.008 C 
HETATM   21  C10 UNL     1      -3.727   0.976  -0.987  1.00  0.00     0.036 C 
HETATM   22  C11 UNL     1      -2.534   0.865  -0.066  1.00  0.00     0.223 C 
HETATM   23  C12 UNL     1      -3.130   0.727   1.337  1.00  0.00     0.036 C 
ENDBRANCH  15  16
ENDBRANCH  14  15
ENDBRANCH   1  14
TORSDOF 5
