REMARK  6 active torsions:
REMARK  status: ('A' for Active; 'I' for Inactive)
REMARK    1  A    between atoms: C2_2  and  C3_3 
REMARK    2  A    between atoms: C3_3  and  N1_6 
REMARK    3  A    between atoms: N1_6  and  S1_7 
REMARK    4  A    between atoms: S1_7  and  O1_8 
REMARK    5  A    between atoms: S1_7  and  C6_12 
REMARK    6  A    between atoms: C6_12  and  C7_13 
ROOT
HETATM    1  S1  UNL     1      -0.221   0.322   1.288  1.00  0.00     0.149 SA
HETATM    2  F1  UNL     1      -0.303  -0.732   1.363  1.00  0.00    -0.127 F 
HETATM    3  F2  UNL     1      -0.226   2.504   2.139  1.00  0.00    -0.127 F 
ENDROOT
BRANCH   1   4
HETATM    4  N1  UNL     1      -1.931   1.092   0.920  1.00  0.00    -0.125 NA
BRANCH   4   5
HETATM    5  C3  UNL     1      -2.631   0.281  -0.058  1.00  0.00     0.037 C 
HETATM    6  C4  UNL     1      -2.923  -1.097   0.431  1.00  0.00     0.034 C 
HETATM    7  C5  UNL     1      -1.983   0.248  -1.398  1.00  0.00     0.034 C 
BRANCH   5   8
HETATM    8  C2  UNL     1      -3.989   0.984  -0.232  1.00  0.00     0.022 C 
HETATM    9  C1  UNL     1      -4.868   0.279  -1.214  1.00  0.00     0.007 C 
ENDBRANCH   5   8
ENDBRANCH   4   5
ENDBRANCH   1   4
BRANCH   1  10
HETATM   10  O1  UNL     1       0.015   0.468   3.374  1.00  0.00    -0.300 OA
ATOM     11  H1  UNL     1       0.865   0.085   3.557  1.00  0.00     0.231 HD
ENDBRANCH   1  10
BRANCH   1  12
HETATM   12  C6  UNL     1       1.309   1.032   0.476  1.00  0.00     0.153 C 
BRANCH  12  13
HETATM   13  C7  UNL     1       1.993  -0.046  -0.408  1.00  0.00     0.003 C 
HETATM   14  C8  UNL     1       3.230   0.573  -1.048  1.00  0.00     0.033 C 
HETATM   15  C9  UNL     1       4.373   0.394  -0.083  1.00  0.00     0.232 C 
HETATM   16  N2  UNL     1       4.808  -1.005  -0.110  1.00  0.00    -0.075 N 
HETATM   17  C10 UNL     1       3.675  -1.881  -0.202  1.00  0.00     0.232 C 
ATOM     18  H22 UNL     1       5.483  -1.178  -0.855  1.00  0.00     0.277 HD
ATOM     19  H21 UNL     1       5.401  -1.234   0.688  1.00  0.00     0.277 HD
HETATM   20  C11 UNL     1       2.426  -1.217   0.394  1.00  0.00     0.033 C 
ENDBRANCH  12  13
ENDBRANCH   1  12
TORSDOF 6
