REMARK  8 active torsions:
REMARK  status: ('A' for Active; 'I' for Inactive)
REMARK    1  A    between atoms: C2_2  and  N1_4 
REMARK    2  A    between atoms: C6_7  and  C7_8 
REMARK    3  A    between atoms: C7_8  and  O1_9 
REMARK    4  A    between atoms: C7_8  and  C8_11 
REMARK    5  A    between atoms: C8_11  and  N2_12 
REMARK    6  A    between atoms: N2_12  and  C9_14 
REMARK    7  A    between atoms: C9_14  and  C10_15 
REMARK    8  A    between atoms: C10_15  and  C13_18 
ROOT
HETATM    1  C7  UNL     1      -0.052  -0.385  -0.724  1.00  0.00     0.141 C 
ENDROOT
BRANCH   1   2
HETATM    2  C6  UNL     1       1.401  -0.792  -0.390  1.00  0.00     0.038 C 
HETATM    3  C5  UNL     1       1.704  -0.477   1.039  1.00  0.00     0.053 C 
HETATM    4  C4  UNL     1       3.112   0.010   1.021  1.00  0.00     0.059 C 
HETATM    5  N1  UNL     1       3.445   0.318  -0.301  1.00  0.00    -0.389 N 
HETATM    6  C14 UNL     1       2.398  -0.044  -1.181  1.00  0.00     0.130 C 
BRANCH   5   7
HETATM    7  C2  UNL     1       4.772   0.312  -0.737  1.00  0.00     0.075 C 
HETATM    8  C1  UNL     1       5.485  -1.019  -0.636  1.00  0.00     0.032 C 
HETATM    9  C3  UNL     1       5.535   1.364   0.054  1.00  0.00     0.032 C 
ENDBRANCH   5   7
ENDBRANCH   1   2
BRANCH   1  10
HETATM   10  O1  UNL     1      -0.203   0.965  -0.512  1.00  0.00    -0.393 OA
ATOM     11  H1  UNL     1      -1.096   1.215  -0.717  1.00  0.00     0.210 HD
ENDBRANCH   1  10
BRANCH   1  12
HETATM   12  C8  UNL     1      -0.988  -1.264   0.052  1.00  0.00     0.150 C 
BRANCH  12  13
HETATM   13  N2  UNL     1      -2.373  -1.057  -0.117  1.00  0.00    -0.399 N 
ATOM     14  H2  UNL     1      -2.938  -1.752  -0.604  1.00  0.00     0.158 HD
BRANCH  13  15
HETATM   15  C9  UNL     1      -2.966   0.097   0.382  1.00  0.00     0.073 C 
BRANCH  15  16
HETATM   16  C10 UNL     1      -4.435   0.287   0.329  1.00  0.00     0.082 C 
HETATM   17  C11 UNL     1      -4.719   1.673   0.958  1.00  0.00     0.030 C 
HETATM   18  C12 UNL     1      -4.982   0.369  -1.075  1.00  0.00     0.030 C 
BRANCH  16  19
HETATM   19  C13 UNL     1      -5.291  -0.660   1.090  1.00  0.00     0.399 C 
HETATM   20  F1  UNL     1      -5.185  -1.984   0.734  1.00  0.00    -0.170 F 
HETATM   21  F2  UNL     1      -6.617  -0.309   0.779  1.00  0.00    -0.170 F 
HETATM   22  F3  UNL     1      -5.218  -0.472   2.456  1.00  0.00    -0.170 F 
ENDBRANCH  16  19
ENDBRANCH  15  16
ENDBRANCH  13  15
ENDBRANCH  12  13
ENDBRANCH   1  12
TORSDOF 8
