REMARK  7 active torsions:
REMARK  status: ('A' for Active; 'I' for Inactive)
REMARK    1  A    between atoms: C5_5  and  C6_7 
REMARK    2  A    between atoms: C10_11  and  O1_12 
REMARK    3  A    between atoms: O1_12  and  C11_13 
REMARK    4  A    between atoms: C11_13  and  C12_14 
REMARK    5  A    between atoms: C12_14  and  N1_15 
REMARK    6  A    between atoms: C12_14  and  C13_19 
REMARK    7  A    between atoms: C13_19  and  N2_20 
ROOT
HETATM    1  C1  UNL     1       5.077   2.390  -1.291  1.00  0.00     0.012 C 
HETATM    2  C2  UNL     1       4.450   1.727  -0.490  1.00  0.00    -0.110 C 
HETATM    3  C3  UNL     1       3.710   0.922   0.483  1.00  0.00     0.104 C 
HETATM    4  C4  UNL     1       3.422  -0.495   0.052  1.00  0.00     0.067 C 
HETATM    5  C5  UNL     1       1.974  -0.117  -0.241  1.00  0.00     0.142 C 
HETATM    6  F1  UNL     1       1.772  -0.076  -1.594  1.00  0.00    -0.239 F 
HETATM    7  C14 UNL     1       2.218   1.181   0.444  1.00  0.00     0.226 C 
HETATM    8  F2  UNL     1       1.733   1.301   1.727  1.00  0.00    -0.245 F 
ENDROOT
BRANCH   5   9
HETATM    9  C6  UNL     1       1.056  -1.089   0.439  1.00  0.00     0.057 C 
HETATM   10  C7  UNL     1       1.386  -2.475  -0.132  1.00  0.00     0.011 C 
HETATM   11  C8  UNL     1       0.071  -3.221  -0.137  1.00  0.00     0.003 C 
HETATM   12  C9  UNL     1      -0.952  -2.166  -0.398  1.00  0.00     0.032 C 
HETATM   13  C10 UNL     1      -0.397  -0.851   0.106  1.00  0.00     0.128 C 
BRANCH  13  14
HETATM   14  O1  UNL     1      -0.581   0.089  -0.877  1.00  0.00    -0.383 OA
BRANCH  14  15
HETATM   15  C11 UNL     1      -1.384   1.130  -0.484  1.00  0.00     0.202 C 
BRANCH  15  16
HETATM   16  C12 UNL     1      -2.768   0.735  -0.077  1.00  0.00     0.232 C 
BRANCH  16  17
HETATM   17  N1  UNL     1      -3.481   0.082  -1.165  1.00  0.00    -0.071 N 
ATOM     18  H13 UNL     1      -3.491   0.661  -2.005  1.00  0.00     0.274 HD
ATOM     19  H12 UNL     1      -2.958  -0.715  -1.528  1.00  0.00     0.274 HD
ATOM     20  H11 UNL     1      -4.425  -0.187  -0.887  1.00  0.00     0.274 HD
ENDBRANCH  16  17
BRANCH  16  21
HETATM   21  C13 UNL     1      -3.537   2.036   0.195  1.00  0.00     0.264 C 
BRANCH  21  22
HETATM   22  N2  UNL     1      -4.894   1.772   0.597  1.00  0.00    -0.077 N 
ATOM     23  H23 UNL     1      -5.378   1.188  -0.084  1.00  0.00     0.274 HD
ATOM     24  H22 UNL     1      -4.930   1.142   1.399  1.00  0.00     0.274 HD
ATOM     25  H21 UNL     1      -5.405   2.636   0.778  1.00  0.00     0.274 HD
ENDBRANCH  21  22
ENDBRANCH  16  21
ENDBRANCH  15  16
ENDBRANCH  14  15
ENDBRANCH  13  14
ENDBRANCH   5   9
TORSDOF 7
