REMARK  5 active torsions:
REMARK  status: ('A' for Active; 'I' for Inactive)
REMARK       I    between atoms: C2_2  and  N1_4 
REMARK    1  A    between atoms: C6_8  and  N2_9 
REMARK       I    between atoms: N2_9  and  C7_11 
REMARK    2  A    between atoms: C7_11  and  C8_13 
REMARK    3  A    between atoms: C8_13  and  C9_14 
REMARK    4  A    between atoms: C8_13  and  C14_22 
REMARK    5  A    between atoms: C9_14  and  N3_15 
ROOT
HETATM    1  C8  UNL     1      -1.156   0.101   0.604  1.00  0.00     0.110 C 
ENDROOT
BRANCH   1   2
HETATM    2  C7  UNL     1       0.135   0.599   0.026  1.00  0.00     0.224 C 
HETATM    3  N2  UNL     1       1.372   0.014   0.376  1.00  0.00    -0.354 N 
ATOM      4  H2  UNL     1       1.401  -0.760   1.039  1.00  0.00     0.162 HD
HETATM    5  O2  UNL     1       0.063   1.555  -0.782  1.00  0.00    -0.273 OA
BRANCH   3   6
HETATM    6  C6  UNL     1       2.585   0.508  -0.200  1.00  0.00     0.102 C 
HETATM    7  C5  UNL     1       3.240   1.362   0.909  1.00  0.00     0.028 C 
HETATM    8  C4  UNL     1       4.290   2.185   0.148  1.00  0.00     0.022 C 
HETATM    9  C3  UNL     1       5.356   1.237  -0.285  1.00  0.00     0.126 C 
HETATM   10  N1  UNL     1       4.937  -0.163  -0.268  1.00  0.00    -0.350 N 
HETATM   11  C2  UNL     1       5.918  -1.127   0.040  1.00  0.00     0.215 C 
HETATM   12  C20 UNL     1       3.590  -0.569  -0.552  1.00  0.00     0.150 C 
HETATM   13  C1  UNL     1       5.701  -2.591   0.097  1.00  0.00     0.117 C 
HETATM   14  O1  UNL     1       7.121  -0.752   0.300  1.00  0.00    -0.274 OA
ENDBRANCH   3   6
ENDBRANCH   1   2
BRANCH   1  15
HETATM   15  C9  UNL     1      -2.033   1.236   0.992  1.00  0.00     0.287 C 
BRANCH  15  16
HETATM   16  N3  UNL     1      -2.440   2.186   0.046  1.00  0.00     0.095 N 
HETATM   17  C10 UNL     1      -2.944   3.363   0.793  1.00  0.00     0.278 C 
HETATM   18  C11 UNL     1      -4.380   3.061   1.023  1.00  0.00     0.111 C 
HETATM   19  C12 UNL     1      -4.776   2.578  -0.373  1.00  0.00     0.271 C 
HETATM   20  F1  UNL     1      -5.814   1.684  -0.255  1.00  0.00    -0.204 F 
HETATM   21  F2  UNL     1      -5.095   3.694  -1.116  1.00  0.00    -0.204 F 
HETATM   22  C13 UNL     1      -3.494   1.917  -0.865  1.00  0.00     0.351 C 
ENDBRANCH  15  16
ENDBRANCH   1  15
BRANCH   1  23
HETATM   23  C14 UNL     1      -1.815  -0.949  -0.190  1.00  0.00     0.000 C 
HETATM   24  C15 UNL     1      -0.876  -2.184  -0.351  1.00  0.00     0.005 C 
HETATM   25  C16 UNL     1      -1.529  -2.978  -1.464  1.00  0.00     0.000 C 
HETATM   26  C17 UNL     1      -2.949  -3.332  -1.163  1.00  0.00     0.000 C 
HETATM   27  C18 UNL     1      -3.477  -2.836   0.126  1.00  0.00     0.000 C 
HETATM   28  C19 UNL     1      -2.926  -1.565   0.667  1.00  0.00     0.005 C 
ENDBRANCH   1  23
TORSDOF 5
