REMARK  6 active torsions:
REMARK  status: ('A' for Active; 'I' for Inactive)
REMARK    1  A    between atoms: C1_2  and  C2_4 
REMARK    2  A    between atoms: C2_4  and  C19_25 
REMARK    3  A    between atoms: C3_5  and  C4_6 
REMARK       I    between atoms: C4_6  and  N1_8 
REMARK    4  A    between atoms: C6_10  and  C7_11 
REMARK    5  A    between atoms: C7_11  and  C8_12 
REMARK    6  A    between atoms: C8_12  and  C9_13 
REMARK       I    between atoms: C9_13  and  N2_15 
ROOT
HETATM    1  C4  UNL     1      -2.608   0.823  -1.087  1.00  0.00     0.244 C 
HETATM    2  O3  UNL     1      -2.077   1.968  -1.252  1.00  0.00    -0.268 OA
HETATM    3  N1  UNL     1      -1.849  -0.012  -0.204  1.00  0.00    -0.343 N 
HETATM    4  C5  UNL     1      -0.633   0.332   0.442  1.00  0.00     0.131 C 
HETATM    5  C6  UNL     1       0.009  -0.898   0.983  1.00  0.00     0.010 C 
HETATM    6  C14 UNL     1      -0.986  -1.987   0.755  1.00  0.00     0.014 C 
HETATM    7  C15 UNL     1      -1.431  -2.656   2.026  1.00  0.00     0.007 C 
HETATM    8  C16 UNL     1      -2.922  -2.782   1.845  1.00  0.00     0.002 C 
HETATM    9  C17 UNL     1      -3.264  -1.393   1.282  1.00  0.00     0.026 C 
HETATM   10  C18 UNL     1      -2.219  -1.345   0.157  1.00  0.00     0.092 C 
ENDROOT
BRANCH   1  11
HETATM   11  C3  UNL     1      -3.818   0.383  -1.693  1.00  0.00     0.094 C 
HETATM   12  C2  UNL     1      -4.622   0.957  -2.487  1.00  0.00     0.087 C 
BRANCH  12  13
HETATM   13  C1  UNL     1      -4.601   2.266  -3.067  1.00  0.00     0.210 C 
HETATM   14  O1  UNL     1      -3.717   3.121  -2.866  1.00  0.00    -0.644 OA
HETATM   15  O2  UNL     1      -5.656   2.664  -3.949  1.00  0.00    -0.644 OA
ENDBRANCH  12  13
BRANCH  12  16
HETATM   16  C19 UNL     1      -5.848   0.115  -2.920  1.00  0.00     0.393 C 
HETATM   17  F1  UNL     1      -6.943   0.826  -2.522  1.00  0.00    -0.209 F 
HETATM   18  F2  UNL     1      -5.869   0.004  -4.292  1.00  0.00    -0.209 F 
ENDBRANCH  12  16
ENDBRANCH   1  11
BRANCH   5  19
HETATM   19  C7  UNL     1       1.354  -1.204   0.326  1.00  0.00     0.016 C 
BRANCH  19  20
HETATM   20  C8  UNL     1       2.326  -0.072   0.539  1.00  0.00     0.103 C 
BRANCH  20  21
HETATM   21  C9  UNL     1       3.646  -0.383  -0.109  1.00  0.00     0.219 C 
HETATM   22  O4  UNL     1       3.797  -1.466  -0.729  1.00  0.00    -0.273 OA
HETATM   23  N2  UNL     1       4.741   0.506  -0.049  1.00  0.00    -0.352 N 
HETATM   24  C10 UNL     1       4.681   1.786   0.639  1.00  0.00     0.126 A 
HETATM   25  C13 UNL     1       6.025   0.294  -0.631  1.00  0.00     0.126 A 
HETATM   26  C11 UNL     1       6.010   2.443   0.449  1.00  0.00     0.021 A 
HETATM   27  C12 UNL     1       6.867   1.497  -0.357  1.00  0.00     0.021 A 
ENDBRANCH  20  21
ENDBRANCH  19  20
ENDBRANCH   5  19
TORSDOF 6
