REMARK  7 active torsions:
REMARK  status: ('A' for Active; 'I' for Inactive)
REMARK    1  A    between atoms: O1_1  and  C1_3 
REMARK    2  A    between atoms: C1_3  and  C2_4 
REMARK    3  A    between atoms: C1_3  and  N1_11 
REMARK    4  A    between atoms: N1_11  and  C7_12 
REMARK    5  A    between atoms: N1_11  and  C11_19 
REMARK    6  A    between atoms: N3_22  and  C14_23 
REMARK    7  A    between atoms: C14_23  and  C15_24 
ROOT
HETATM    1  N1  UNL     1      -1.687  -0.257   0.306  1.00  0.00    -0.352 N 
ENDROOT
BRANCH   1   2
HETATM    2  C1  UNL     1      -2.519   0.851   0.385  1.00  0.00     0.118 C 
BRANCH   2   3
HETATM    3  O1  UNL     1      -1.810   1.929   0.767  1.00  0.00    -0.349 OA
ATOM      4  H1  UNL     1      -0.898   1.703   0.904  1.00  0.00     0.219 HD
ENDBRANCH   2   3
BRANCH   2   5
HETATM    5  C2  UNL     1      -3.887   1.190   0.179  1.00  0.00     0.066 C 
HETATM    6  C3  UNL     1      -5.008   0.329   0.635  1.00  0.00     0.019 C 
HETATM    7  C4  UNL     1      -6.174   1.317   0.391  1.00  0.00     0.080 C 
HETATM    8  C5  UNL     1      -5.800   1.967  -0.903  1.00  0.00     0.244 C 
HETATM    9  F1  UNL     1      -6.635   1.507  -1.889  1.00  0.00    -0.206 F 
HETATM   10  F2  UNL     1      -5.948   3.339  -0.836  1.00  0.00    -0.206 F 
HETATM   11  C6  UNL     1      -4.338   1.594  -1.200  1.00  0.00     0.091 C 
ENDBRANCH   2   5
ENDBRANCH   1   2
BRANCH   1  12
HETATM   12  C7  UNL     1      -2.036  -1.584   0.013  1.00  0.00     0.113 C 
HETATM   13  C8  UNL     1      -2.675  -1.910  -1.297  1.00  0.00     0.054 C 
HETATM   14  C9  UNL     1      -3.088  -3.377  -1.009  1.00  0.00     0.234 C 
HETATM   15  N2  UNL     1      -3.723  -3.216   0.284  1.00  0.00    -0.073 N 
HETATM   16  C10 UNL     1      -2.828  -2.361   1.037  1.00  0.00     0.257 C 
ATOM     17  H22 UNL     1      -4.681  -2.869   0.234  1.00  0.00     0.277 HD
ATOM     18  H21 UNL     1      -3.942  -4.097   0.749  1.00  0.00     0.277 HD
ENDBRANCH   1  12
BRANCH   1  19
HETATM   19  C11 UNL     1      -0.254  -0.001   0.563  1.00  0.00     0.116 C 
HETATM   20  C12 UNL     1       0.349  -0.852   1.616  1.00  0.00     0.057 C 
HETATM   21  C13 UNL     1       1.844  -0.576   1.393  1.00  0.00     0.274 C 
HETATM   22  N3  UNL     1       1.974  -0.463  -0.005  1.00  0.00     0.090 N 
HETATM   23  C21 UNL     1       0.626  -0.367  -0.603  1.00  0.00     0.297 C 
BRANCH  22  24
HETATM   24  C14 UNL     1       2.834   0.515  -0.560  1.00  0.00     0.277 C 
BRANCH  24  25
HETATM   25  C15 UNL     1       4.289   0.325  -0.408  1.00  0.00     0.014 C 
HETATM   26  C16 UNL     1       4.943   1.516  -1.138  1.00  0.00     0.006 C 
HETATM   27  C17 UNL     1       6.408   1.545  -1.100  1.00  0.00     0.000 C 
HETATM   28  C18 UNL     1       7.065   1.059   0.143  1.00  0.00     0.000 C 
HETATM   29  C19 UNL     1       6.252   0.121   0.965  1.00  0.00     0.000 C 
HETATM   30  C20 UNL     1       4.760   0.480   1.007  1.00  0.00     0.006 C 
ENDBRANCH  24  25
ENDBRANCH  22  24
ENDBRANCH   1  19
TORSDOF 7
