REMARK  6 active torsions:
REMARK  status: ('A' for Active; 'I' for Inactive)
REMARK       I    between atoms: N1_2  and  C2_4 
REMARK    1  A    between atoms: C2_4  and  C3_6 
REMARK    2  A    between atoms: N2_9  and  S1_10 
REMARK    3  A    between atoms: S1_10  and  C6_13 
REMARK    4  A    between atoms: C6_13  and  C7_14 
REMARK    5  A    between atoms: C7_14  and  C8_15 
REMARK    6  A    between atoms: C15_22  and  C16_23 
ROOT
HETATM    1  C3  UNL     1      -3.474  -0.494  -0.807  1.00  0.00     0.090 C 
HETATM    2  C4  UNL     1      -2.955  -1.668   0.025  1.00  0.00     0.030 C 
HETATM    3  C5  UNL     1      -1.489  -1.916  -0.207  1.00  0.00     0.108 C 
HETATM    4  N2  UNL     1      -0.915  -0.968  -1.143  1.00  0.00    -0.210 NA
HETATM    5  C14 UNL     1      -1.145   0.354  -0.581  1.00  0.00     0.118 C 
HETATM    6  C15 UNL     1      -2.632   0.698  -0.721  1.00  0.00     0.085 C 
ENDROOT
BRANCH   4   7
HETATM    7  S1  UNL     1       0.788  -1.265  -1.216  1.00  0.00     0.211 S 
HETATM    8  O2  UNL     1       1.028  -2.678  -1.667  1.00  0.00    -0.211 OA
HETATM    9  O3  UNL     1       1.337  -0.272  -2.219  1.00  0.00    -0.211 OA
BRANCH   7  10
HETATM   10  C6  UNL     1       1.570  -1.027   0.329  1.00  0.00     0.158 C 
BRANCH  10  11
HETATM   11  C7  UNL     1       3.047  -1.280   0.348  1.00  0.00     0.021 C 
BRANCH  11  12
HETATM   12  C8  UNL     1       3.868  -0.434  -0.558  1.00  0.00    -0.014 C 
HETATM   13  C9  UNL     1       5.329  -0.882  -0.348  1.00  0.00     0.005 C 
HETATM   14  C10 UNL     1       6.268   0.175  -0.830  1.00  0.00     0.000 C 
HETATM   15  C11 UNL     1       6.204   1.350   0.138  1.00  0.00     0.000 C 
HETATM   16  C12 UNL     1       4.868   1.309   0.865  1.00  0.00     0.000 C 
HETATM   17  C13 UNL     1       3.797   1.027  -0.180  1.00  0.00     0.005 C 
ENDBRANCH  11  12
ENDBRANCH  10  11
ENDBRANCH   7  10
ENDBRANCH   4   7
BRANCH   6  18
HETATM   18  C16 UNL     1      -2.906   1.764   0.264  1.00  0.00     0.245 C 
HETATM   19  C17 UNL     1      -4.206   2.479   0.179  1.00  0.00     0.090 C 
HETATM   20  F1  UNL     1      -1.906   2.759   0.147  1.00  0.00    -0.206 F 
HETATM   21  F2  UNL     1      -2.726   1.316   1.587  1.00  0.00    -0.206 F 
ENDBRANCH   6  18
BRANCH   1  22
HETATM   22  C2  UNL     1      -4.904  -0.415  -0.561  1.00  0.00     0.222 C 
HETATM   23  N1  UNL     1      -5.546  -0.396   0.708  1.00  0.00    -0.365 N 
HETATM   24  C1  UNL     1      -6.996  -0.313   0.843  1.00  0.00     0.149 C 
ATOM     25  H1  UNL     1      -4.974  -0.442   1.551  1.00  0.00     0.161 HD
HETATM   26  O1  UNL     1      -5.686  -0.356  -1.573  1.00  0.00    -0.273 OA
ENDBRANCH   1  22
TORSDOF 6
