REMARK  5 active torsions:
REMARK  status: ('A' for Active; 'I' for Inactive)
REMARK    1  A    between atoms: C2_2  and  S1_3 
REMARK    2  A    between atoms: S1_3  and  C3_4 
REMARK    3  A    between atoms: N2_10  and  C6_11 
REMARK    4  A    between atoms: C10_18  and  C11_19 
REMARK    5  A    between atoms: C11_19  and  C14_22 
ROOT
HETATM    1  C3  UNL     1       2.628  -0.273  -0.479  1.00  0.00     0.130 C 
HETATM    2  N1  UNL     1       2.124  -0.139   0.669  1.00  0.00    -0.252 N 
ATOM      3  H1  UNL     1       2.706  -0.284   1.494  1.00  0.00     0.195 HD
HETATM    4  O1  UNL     1       0.859   0.185   0.818  1.00  0.00    -0.254 OA
HETATM    5  C4  UNL     1       0.116   0.530  -0.262  1.00  0.00     0.178 C 
HETATM    6  C5  UNL     1       0.019   2.057  -0.469  1.00  0.00     0.325 C 
HETATM    7  N2  UNL     1      -0.545   2.694   0.675  1.00  0.00     0.097 N 
HETATM    8  C8  UNL     1      -1.833   2.024   0.916  1.00  0.00     0.324 C 
HETATM    9  C9  UNL     1      -2.168   1.118  -0.214  1.00  0.00     0.017 C 
HETATM   10  N3  UNL     1      -3.207   1.367  -0.899  1.00  0.00    -0.404 N 
ATOM     11  H31 UNL     1      -3.437   0.745  -1.674  1.00  0.00     0.155 HD
ATOM     12  H32 UNL     1      -3.842   2.145  -0.722  1.00  0.00     0.155 HD
HETATM   13  C10 UNL     1      -1.231  -0.031  -0.476  1.00  0.00     0.090 C 
HETATM   14  S2  UNL     1       1.294   0.067  -1.609  1.00  0.00    -0.060 SA
ENDROOT
BRANCH  13  15
HETATM   15  C11 UNL     1      -1.686  -1.235   0.225  1.00  0.00    -0.032 C 
HETATM   16  C12 UNL     1      -1.746  -1.175   1.733  1.00  0.00     0.016 C 
HETATM   17  C13 UNL     1      -3.169  -1.413  -0.175  1.00  0.00     0.016 C 
BRANCH  15  18
HETATM   18  C14 UNL     1      -1.034  -2.523  -0.212  1.00  0.00    -0.014 C 
HETATM   19  C15 UNL     1      -1.459  -3.749   0.521  1.00  0.00     0.010 C 
HETATM   20  C16 UNL     1      -1.292  -2.830  -1.696  1.00  0.00     0.010 C 
ENDBRANCH  15  18
ENDBRANCH  13  15
BRANCH   7  21
HETATM   21  C6  UNL     1      -0.826   4.080   0.512  1.00  0.00     0.268 C 
HETATM   22  C7  UNL     1       0.367   4.968   0.374  1.00  0.00     0.037 C 
ENDBRANCH   7  21
BRANCH   1  23
HETATM   23  S1  UNL     1       4.281  -0.699  -0.910  1.00  0.00    -0.104 SA
BRANCH  23  24
HETATM   24  C2  UNL     1       5.246  -0.962   0.619  1.00  0.00     0.077 C 
HETATM   25  C1  UNL     1       6.671  -1.347   0.299  1.00  0.00     0.016 C 
ENDBRANCH  23  24
ENDBRANCH   1  23
TORSDOF 5
