REMARK  5 active torsions:
REMARK  status: ('A' for Active; 'I' for Inactive)
REMARK    1  A    between atoms: C2_3  and  C3_4 
REMARK    2  A    between atoms: C3_4  and  C4_5 
REMARK    3  A    between atoms: C5_7  and  O2_8 
REMARK    4  A    between atoms: C13_21  and  S1_22 
REMARK    5  A    between atoms: S1_22  and  C14_23 
ROOT
HETATM    1  C1  UNL     1       1.391   1.853   1.175  1.00  0.00     0.159 C 
HETATM    2  N1  UNL     1       1.308   0.663   0.334  1.00  0.00    -0.319 N 
HETATM    3  C2  UNL     1       0.405  -0.341   0.455  1.00  0.00     0.105 A 
HETATM    4  N2  UNL     1       0.697  -1.201  -0.527  1.00  0.00    -0.286 N 
ATOM      5  H2  UNL     1       0.199  -2.071  -0.713  1.00  0.00     0.188 HD
HETATM    6  N3  UNL     1       1.712  -0.759  -1.208  1.00  0.00    -0.278 N 
ATOM      7  H3  UNL     1       2.130  -1.232  -2.009  1.00  0.00     0.189 HD
HETATM    8  C13 UNL     1       2.135   0.430  -0.692  1.00  0.00     0.162 A 
ENDROOT
BRANCH   3   9
HETATM    9  C3  UNL     1      -0.673  -0.454   1.463  1.00  0.00     0.143 C 
BRANCH   9  10
HETATM   10  C4  UNL     1      -1.923   0.210   1.024  1.00  0.00     0.070 A 
HETATM   11  O1  UNL     1      -2.339   1.384   1.435  1.00  0.00    -0.291 OA
HETATM   12  C5  UNL     1      -3.454   1.741   0.902  1.00  0.00     0.190 A 
HETATM   13  C6  UNL     1      -3.859   0.742   0.047  1.00  0.00     0.009 A 
HETATM   14  C7  UNL     1      -2.875  -0.231   0.132  1.00  0.00    -0.017 A 
HETATM   15  C12 UNL     1      -5.094   0.784  -0.756  1.00  0.00     0.044 C 
HETATM   16  C8  UNL     1      -2.833  -1.531  -0.590  1.00  0.00     0.042 C 
HETATM   17  C9  UNL     1      -4.187  -2.218  -0.367  1.00  0.00     0.005 C 
HETATM   18  C10 UNL     1      -5.250  -1.648  -1.242  1.00  0.00     0.001 C 
HETATM   19  C11 UNL     1      -5.948  -0.458  -0.595  1.00  0.00     0.005 C 
BRANCH  12  20
HETATM   20  O2  UNL     1      -4.123   2.925   1.150  1.00  0.00    -0.340 OA
ATOM     21  H2  UNL     1      -4.946   3.189   0.756  1.00  0.00     0.220 HD
ENDBRANCH  12  20
ENDBRANCH   9  10
ENDBRANCH   3   9
BRANCH   8  22
HETATM   22  S1  UNL     1       3.492   1.335  -1.329  1.00  0.00    -0.087 SA
BRANCH  22  23
HETATM   23  C14 UNL     1       5.095   0.935  -0.686  1.00  0.00     0.055 C 
HETATM   24  C15 UNL     1       5.517  -0.457  -1.091  1.00  0.00     0.015 C 
HETATM   25  C16 UNL     1       5.846  -1.185   0.175  1.00  0.00     0.001 C 
HETATM   26  C17 UNL     1       6.278  -0.108   1.119  1.00  0.00     0.001 C 
HETATM   27  C18 UNL     1       5.244   0.969   0.808  1.00  0.00     0.015 C 
ENDBRANCH  22  23
ENDBRANCH   8  22
TORSDOF 5
