REMARK  6 active torsions:
REMARK  status: ('A' for Active; 'I' for Inactive)
REMARK    1  A    between atoms: C2_2  and  N1_4 
REMARK    2  A    between atoms: N1_4  and  C5_6 
REMARK    3  A    between atoms: C5_6  and  O1_7 
REMARK    4  A    between atoms: C5_6  and  C6_9 
REMARK    5  A    between atoms: C9_16  and  S1_17 
REMARK    6  A    between atoms: S1_17  and  C10_18 
ROOT
HETATM    1  C6  UNL     1       0.206  -0.599   0.468  1.00  0.00     0.102 A 
HETATM    2  N2  UNL     1       1.342  -1.288   0.604  1.00  0.00    -0.355 N 
ATOM      3  H2  UNL     1       1.289  -2.285   0.812  1.00  0.00     0.166 HD
HETATM    4  C7  UNL     1       2.549  -0.719   0.477  1.00  0.00     0.043 A 
HETATM    5  C8  UNL     1       2.573   0.645   0.194  1.00  0.00     0.093 A 
HETATM    6  N3  UNL     1       1.431   1.340   0.057  1.00  0.00    -0.342 N 
ATOM      7  H3  UNL     1       1.471   2.338  -0.151  1.00  0.00     0.167 HD
HETATM    8  C9  UNL     1       0.253   0.745   0.189  1.00  0.00     0.098 A 
HETATM    9  S2  UNL     1       4.142   1.482   0.008  1.00  0.00    -0.110 SA
HETATM   10  C14 UNL     1       5.383   0.238  -0.377  1.00  0.00     0.081 C 
HETATM   11  C15 UNL     1       4.801  -1.136  -0.485  1.00  0.00     0.017 C 
HETATM   12  C16 UNL     1       3.825  -1.472   0.626  1.00  0.00     0.061 C 
ENDROOT
BRANCH   1  13
HETATM   13  C5  UNL     1      -1.081  -1.264   0.616  1.00  0.00     0.410 C 
BRANCH  13  14
HETATM   14  N1  UNL     1      -1.201  -2.519  -0.060  1.00  0.00     0.122 N 
HETATM   15  C4  UNL     1      -0.874  -2.458  -1.464  1.00  0.00     0.314 C 
BRANCH  14  16
HETATM   16  C2  UNL     1      -2.512  -3.106   0.051  1.00  0.00     0.218 C 
HETATM   17  C1  UNL     1      -3.010  -3.334   1.428  1.00  0.00     0.042 C 
HETATM   18  C3  UNL     1      -3.542  -2.348  -0.763  1.00  0.00     0.042 C 
ENDBRANCH  14  16
ENDBRANCH  13  14
BRANCH  13  19
HETATM   19  O1  UNL     1      -1.321  -1.467   1.973  1.00  0.00    -0.363 OA
ATOM     20  H1  UNL     1      -1.241  -0.634   2.422  1.00  0.00     0.212 HD
ENDBRANCH  13  19
ENDBRANCH   1  13
BRANCH   8  21
HETATM   21  S1  UNL     1      -1.301   1.657   0.008  1.00  0.00    -0.101 SA
BRANCH  21  22
HETATM   22  C10 UNL     1      -0.977   3.386  -0.355  1.00  0.00     0.003 C 
HETATM   23  C11 UNL     1      -0.329   3.567  -1.702  1.00  0.00     0.026 C 
HETATM   24  C12 UNL     1      -2.341   4.080  -0.441  1.00  0.00     0.026 C 
HETATM   25  C13 UNL     1      -0.189   4.100   0.693  1.00  0.00     0.026 C 
ENDBRANCH  21  22
ENDBRANCH   8  21
TORSDOF 6
