REMARK  2 active torsions:
REMARK  status: ('A' for Active; 'I' for Inactive)
REMARK    1  A    between atoms: N1_1  and  N2_4 
REMARK    2  A    between atoms: N2_4  and  C1_5 
ROOT
HETATM    1  C1  UNL     1       0.578   0.236   0.295  1.00  0.00     0.359 C 
HETATM    2  N3  UNL     1      -0.339   0.727  -0.715  1.00  0.00    -0.046 N 
ATOM      3  H31 UNL     1      -0.262   0.217  -1.595  1.00  0.00     0.280 HD
ATOM      4  H32 UNL     1      -0.079   1.649  -1.065  1.00  0.00     0.280 HD
HETATM    5  C2  UNL     1      -1.660   0.697  -0.177  1.00  0.00     0.245 C 
HETATM    6  C3  UNL     1      -1.978  -0.751   0.184  1.00  0.00     0.105 C 
HETATM    7  S1  UNL     1      -0.334  -1.270   0.826  1.00  0.00    -0.117 SA
ENDROOT
BRANCH   1   8
HETATM    8  N2  UNL     1       1.840  -0.123  -0.306  1.00  0.00    -0.104 NA
BRANCH   8   9
HETATM    9  N1  UNL     1       2.673  -0.578   0.699  1.00  0.00    -0.346 N 
ATOM     10  H12 UNL     1       2.425  -0.643   1.686  1.00  0.00     0.172 HD
ATOM     11  H11 UNL     1       3.565  -0.832   0.274  1.00  0.00     0.172 HD
ENDBRANCH   8   9
ENDBRANCH   1   8
TORSDOF 2
