REMARK  2 active torsions:
REMARK  status: ('A' for Active; 'I' for Inactive)
REMARK    1  A    between atoms: N1_2  and  C2_4 
REMARK    2  A    between atoms: C3_7  and  N3_8 
ROOT
HETATM    1  C2  UNL     1      -0.120  -0.330   0.086  1.00  0.00     0.693 A 
HETATM    2  N2  UNL     1       1.028  -1.003  -0.058  1.00  0.00    -0.023 N 
ATOM      3  H2  UNL     1       0.989  -2.012  -0.201  1.00  0.00     0.203 HD
HETATM    4  C3  UNL     1       2.231  -0.401  -0.021  1.00  0.00     0.691 A 
HETATM    5  N4  UNL     1       2.267   0.926   0.166  1.00  0.00    -0.187 N 
ATOM      6  H4  UNL     1       3.171   1.398   0.195  1.00  0.00     0.185 HD
HETATM    7  C4  UNL     1       1.153   1.649   0.315  1.00  0.00     0.215 A 
HETATM    8  N5  UNL     1      -0.041   0.991   0.271  1.00  0.00    -0.187 N 
ATOM      9  H5  UNL     1      -0.903   1.525   0.383  1.00  0.00     0.185 HD
ENDROOT
BRANCH   1  10
HETATM   10  N1  UNL     1      -1.356  -1.033   0.036  1.00  0.00    -0.230 N 
HETATM   11  C1  UNL     1      -2.629  -0.380   0.182  1.00  0.00     0.165 C 
ATOM     12  H1  UNL     1      -1.338  -2.042  -0.109  1.00  0.00     0.177 HD
ENDBRANCH   1  10
BRANCH   4  13
HETATM   13  N3  UNL     1       3.268  -1.139  -0.169  1.00  0.00    -0.234 N 
ATOM     14  H32 UNL     1       3.241  -2.149  -0.311  1.00  0.00     0.174 HD
ATOM     15  H31 UNL     1       4.180  -0.683  -0.141  1.00  0.00     0.174 HD
ENDBRANCH   4  13
TORSDOF 2
