REMARK  4 active torsions:
REMARK  status: ('A' for Active; 'I' for Inactive)
REMARK    1  A    between atoms: C1_2  and  C2_3 
REMARK       I    between atoms: C1_2  and  N1_10 
REMARK    2  A    between atoms: C2_3  and  C3_4 
REMARK    3  A    between atoms: N2_17  and  C15_18 
REMARK    4  A    between atoms: C16_21  and  C17_22 
ROOT
HETATM    1  O1  UNL     1      -4.211  -2.136   0.432  1.00  0.00    -0.273 OA
HETATM    2  C1  UNL     1      -3.370  -1.359  -0.111  1.00  0.00     0.220 C 
HETATM    3  N1  UNL     1      -1.990  -1.683  -0.018  1.00  0.00    -0.351 N 
HETATM    4  C9  UNL     1      -1.596  -2.868   0.696  1.00  0.00     0.126 C 
HETATM    5  C10 UNL     1      -0.316  -3.393   0.089  1.00  0.00     0.021 C 
HETATM    6  C11 UNL     1       0.813  -2.401   0.214  1.00  0.00     0.014 C 
HETATM    7  C12 UNL     1       0.381  -0.991  -0.060  1.00  0.00    -0.006 C 
HETATM    8  C13 UNL     1       0.635  -0.091   1.133  1.00  0.00     0.033 C 
HETATM    9  C14 UNL     1       2.144   0.009   1.108  1.00  0.00     0.125 C 
HETATM   10  N2  UNL     1       2.504  -0.027  -0.315  1.00  0.00    -0.365 N 
HETATM   11  C22 UNL     1       1.354  -0.391  -1.065  1.00  0.00     0.135 C 
HETATM   12  C23 UNL     1      -0.998  -0.855  -0.628  1.00  0.00     0.136 C 
ENDROOT
BRANCH  10  13
HETATM   13  C15 UNL     1       3.851   0.274  -0.695  1.00  0.00     0.128 A 
HETATM   14  N3  UNL     1       4.849   0.368   0.216  1.00  0.00    -0.330 N 
HETATM   15  C16 UNL     1       6.127   0.624  -0.087  1.00  0.00     0.086 A 
ATOM     16  H3  UNL     1       4.610   0.235   1.199  1.00  0.00     0.168 HD
HETATM   17  N4  UNL     1       6.462   0.803  -1.369  1.00  0.00    -0.354 N 
HETATM   18  C20 UNL     1       5.558   0.732  -2.332  1.00  0.00     0.117 A 
ATOM     19  H4  UNL     1       7.434   0.998  -1.609  1.00  0.00     0.166 HD
HETATM   20  C21 UNL     1       4.238   0.465  -2.001  1.00  0.00     0.093 A 
HETATM   21 CL1  UNL     1       3.079   0.401  -3.292  1.00  0.00    -0.079 Cl
BRANCH  15  22
HETATM   22  C17 UNL     1       7.177   0.717   0.949  1.00  0.00     0.053 A 
HETATM   23  C18 UNL     1       8.530   0.156   0.712  1.00  0.00     0.013 A 
HETATM   24  C19 UNL     1       8.369   1.621   0.736  1.00  0.00     0.013 A 
ENDBRANCH  15  22
ENDBRANCH  10  13
BRANCH   2  25
HETATM   25  C2  UNL     1      -3.826  -0.156  -0.817  1.00  0.00     0.107 C 
BRANCH  25  26
HETATM   26  C3  UNL     1      -4.062   0.973   0.130  1.00  0.00    -0.006 C 
HETATM   27  C4  UNL     1      -5.100   0.705   1.180  1.00  0.00     0.005 C 
HETATM   28  C5  UNL     1      -6.483   0.571   0.583  1.00  0.00     0.000 C 
HETATM   29  C6  UNL     1      -6.786   1.940  -0.040  1.00  0.00     0.000 C 
HETATM   30  C7  UNL     1      -5.834   2.122  -1.193  1.00  0.00     0.000 C 
HETATM   31  C8  UNL     1      -4.411   2.228  -0.666  1.00  0.00     0.005 C 
ENDBRANCH  25  26
ENDBRANCH   2  25
TORSDOF 4
