REMARK  6 active torsions:
REMARK  status: ('A' for Active; 'I' for Inactive)
REMARK    1  A    between atoms: C2_2  and  C3_3 
REMARK    2  A    between atoms: C3_3  and  O1_4 
REMARK    3  A    between atoms: O1_4  and  C4_5 
REMARK    4  A    between atoms: C4_5  and  C5_7 
REMARK    5  A    between atoms: C17_20  and  C18_21 
REMARK    6  A    between atoms: C22_26  and  C23_27 
ROOT
HETATM    1  C18 UNL     1      -2.879   0.635   1.040  1.00  0.00     0.054 C 
HETATM    2  C19 UNL     1      -3.142   2.125   0.807  1.00  0.00     0.032 C 
HETATM    3  C20 UNL     1      -2.165   0.772   2.395  1.00  0.00     0.032 C 
HETATM    4  C21 UNL     1      -4.101  -0.063   1.489  1.00  0.00     0.069 C 
HETATM    5  N1  UNL     1      -5.085  -0.607   1.891  1.00  0.00    -0.196 NA
ENDROOT
BRANCH   1   6
HETATM    6  C17 UNL     1      -2.222  -0.074  -0.035  1.00  0.00     0.008 C 
HETATM    7  C7  UNL     1      -0.817   0.292  -0.457  1.00  0.00     0.010 C 
HETATM    8  C6  UNL     1       0.085   0.910   0.560  1.00  0.00     0.022 C 
HETATM    9  C8  UNL     1       0.007  -0.909  -0.888  1.00  0.00    -0.029 C 
HETATM   10  C5  UNL     1       1.502   0.827  -0.004  1.00  0.00     0.097 C 
HETATM   11  C22 UNL     1       1.457  -0.379  -0.826  1.00  0.00     0.069 C 
HETATM   12  C9  UNL     1      -0.102  -1.342  -2.297  1.00  0.00     0.016 C 
HETATM   13  C10 UNL     1      -0.024  -2.027   0.136  1.00  0.00     0.014 C 
HETATM   14  C11 UNL     1      -1.381  -2.339   0.694  1.00  0.00     0.036 C 
HETATM   15  C12 UNL     1      -2.395  -1.561  -0.070  1.00  0.00    -0.066 C 
HETATM   16  C13 UNL     1      -3.335  -2.214  -0.724  1.00  0.00     0.053 C 
HETATM   17  C14 UNL     1      -4.384  -1.584  -1.512  1.00  0.00     0.149 C 
HETATM   18  O3  UNL     1      -5.196  -2.215  -2.139  1.00  0.00    -0.293 OA
HETATM   19  C15 UNL     1      -4.373  -0.110  -1.483  1.00  0.00     0.084 C 
HETATM   20  C16 UNL     1      -3.005   0.348  -1.316  1.00  0.00     0.024 C 
BRANCH  10  21
HETATM   21  C4  UNL     1       2.528   0.707   1.066  1.00  0.00     0.263 C 
HETATM   22  O2  UNL     1       2.231   0.679   2.288  1.00  0.00    -0.265 OA
BRANCH  21  23
HETATM   23  O1  UNL     1       3.876   0.619   0.756  1.00  0.00    -0.321 OA
BRANCH  23  24
HETATM   24  C3  UNL     1       4.872   0.504   1.782  1.00  0.00     0.178 C 
BRANCH  24  25
HETATM   25  C2  UNL     1       6.205   0.435   1.041  1.00  0.00     0.022 C 
HETATM   26  C1  UNL     1       6.392   1.702   0.220  1.00  0.00     0.007 C 
ENDBRANCH  24  25
ENDBRANCH  23  24
ENDBRANCH  21  23
ENDBRANCH  10  21
BRANCH  11  27
HETATM   27  C23 UNL     1       1.996  -0.012  -2.169  1.00  0.00     0.237 C 
HETATM   28  O4  UNL     1       1.784   1.108  -2.658  1.00  0.00    -0.306 OA
ENDBRANCH  11  27
ENDBRANCH   1   6
TORSDOF 6
