REMARK  4 active torsions:
REMARK  status: ('A' for Active; 'I' for Inactive)
REMARK    1  A    between atoms: C2_2  and  C3_3 
REMARK    2  A    between atoms: C7_7  and  O1_8 
REMARK    3  A    between atoms: O1_8  and  C8_9 
REMARK    4  A    between atoms: C13_15  and  N1_16 
ROOT
HETATM    1  C3  UNL     1      -1.624   2.107  -0.338  1.00  0.00    -0.020 C 
HETATM    2  C4  UNL     1      -1.020   3.319   0.384  1.00  0.00     0.020 C 
HETATM    3  C5  UNL     1      -0.784   1.714  -1.525  1.00  0.00     0.016 C 
HETATM    4  C6  UNL     1       0.690   1.672  -1.250  1.00  0.00     0.037 C 
HETATM    5  C7  UNL     1       1.111   0.451  -0.486  1.00  0.00     0.145 C 
HETATM    6  C14 UNL     1      -0.077  -0.451  -0.344  1.00  0.00     0.008 C 
HETATM    7  C15 UNL     1      -1.296  -0.252   0.132  1.00  0.00    -0.071 C 
HETATM    8  C16 UNL     1      -1.800   1.033   0.683  1.00  0.00     0.026 C 
HETATM    9  C17 UNL     1      -3.226   0.871   1.156  1.00  0.00     0.011 C 
HETATM   10  C18 UNL     1      -3.296  -0.313   2.067  1.00  0.00     0.018 C 
HETATM   11  C19 UNL     1      -2.932  -1.613   1.408  1.00  0.00     0.024 C 
HETATM   12  C20 UNL     1      -2.113  -2.507   2.305  1.00  0.00     0.024 C 
HETATM   13  C21 UNL     1      -4.167  -2.308   0.996  1.00  0.00     0.136 C 
HETATM   14  O4  UNL     1      -4.787  -3.107   1.649  1.00  0.00    -0.297 OA
HETATM   15  C22 UNL     1      -4.505  -1.843  -0.368  1.00  0.00     0.080 C 
HETATM   16  C23 UNL     1      -3.196  -1.433  -0.997  1.00  0.00     0.018 C 
HETATM   17  C24 UNL     1      -2.198  -1.422   0.105  1.00  0.00     0.030 C 
ENDROOT
BRANCH   5  18
HETATM   18  O1  UNL     1       2.112  -0.271  -1.041  1.00  0.00    -0.374 OA
BRANCH  18  19
HETATM   19  C8  UNL     1       3.232  -0.482  -0.279  1.00  0.00     0.154 C 
HETATM   20  C9  UNL     1       3.568  -1.904  -0.022  1.00  0.00     0.071 C 
HETATM   21  C10 UNL     1       4.985  -2.307  -0.209  1.00  0.00     0.172 C 
HETATM   22  F1  UNL     1       5.246  -3.363   0.680  1.00  0.00    -0.249 F 
HETATM   23  C11 UNL     1       6.007  -1.269   0.054  1.00  0.00     0.039 C 
HETATM   24  C12 UNL     1       5.583   0.147  -0.078  1.00  0.00     0.037 C 
HETATM   25  C13 UNL     1       4.367   0.288  -0.917  1.00  0.00     0.185 C 
BRANCH  25  26
HETATM   26  N1  UNL     1       4.529  -0.021  -2.310  1.00  0.00    -0.148 N 
HETATM   27  O2  UNL     1       3.761  -0.832  -2.848  1.00  0.00    -0.536 OA
HETATM   28  O3  UNL     1       5.499   0.540  -3.101  1.00  0.00    -0.536 OA
ENDBRANCH  25  26
ENDBRANCH  18  19
ENDBRANCH   5  18
BRANCH   1  29
HETATM   29  C2  UNL     1      -2.939   2.569  -0.901  1.00  0.00    -0.027 C 
HETATM   30  C1  UNL     1      -3.326   3.838  -0.847  1.00  0.00     0.007 C 
ENDBRANCH   1  29
TORSDOF 4
