REMARK  4 active torsions:
REMARK  status: ('A' for Active; 'I' for Inactive)
REMARK    1  A    between atoms: N5_15  and  C6_16 
REMARK    2  A    between atoms: C7_17  and  C8_18 
REMARK    3  A    between atoms: C8_18  and  C9_19 
REMARK       I    between atoms: C9_19  and  N6_21 
REMARK    4  A    between atoms: N6_21  and  N7_23 
ROOT
HETATM    1  N1  UNL     1       4.562   0.231  -2.458  1.00  0.00    -0.383 N 
ATOM      2  H11 UNL     1       4.107  -0.381  -3.136  1.00  0.00     0.157 HD
ATOM      3  H12 UNL     1       5.490   0.616  -2.633  1.00  0.00     0.157 HD
HETATM    4  C1  UNL     1       3.985   0.544  -1.351  1.00  0.00     0.131 A 
HETATM    5  N2  UNL     1       4.584   1.349  -0.459  1.00  0.00    -0.337 N 
ATOM      6  H2  UNL     1       5.513   1.720  -0.658  1.00  0.00     0.168 HD
HETATM    7  C2  UNL     1       3.967   1.674   0.705  1.00  0.00     0.183 A 
HETATM    8  N3  UNL     1       2.746   1.159   0.921  1.00  0.00    -0.336 N 
ATOM      9  H3  UNL     1       2.276   1.398   1.794  1.00  0.00     0.168 HD
HETATM   10  C3  UNL     1       2.102   0.350   0.064  1.00  0.00     0.144 A 
HETATM   11  C4  UNL     1       2.716   0.017  -1.111  1.00  0.00     0.122 A 
HETATM   12  N4  UNL     1       1.891  -0.784  -1.786  1.00  0.00    -0.346 N 
ATOM     13  H4  UNL     1       2.084  -1.190  -2.702  1.00  0.00     0.167 HD
HETATM   14  C5  UNL     1       0.748  -0.977  -1.063  1.00  0.00     0.190 A 
HETATM   15  N5  UNL     1       0.876  -0.285   0.064  1.00  0.00    -0.303 N 
ENDROOT
BRANCH  15  16
HETATM   16  C6  UNL     1       0.008  -0.206   1.177  1.00  0.00     0.096 C 
HETATM   17  C7  UNL     1      -1.220  -0.517   1.282  1.00  0.00     0.000 C 
BRANCH  17  18
HETATM   18  C8  UNL     1      -2.160  -1.046   0.308  1.00  0.00     0.133 C 
BRANCH  18  19
HETATM   19  C9  UNL     1      -3.473  -0.251   0.381  1.00  0.00     0.238 C 
HETATM   20  O1  UNL     1      -3.537   0.657   1.197  1.00  0.00    -0.272 OA
HETATM   21  N6  UNL     1      -4.522  -0.609  -0.488  1.00  0.00    -0.276 N 
ATOM     22  H6  UNL     1      -4.420  -1.377  -1.152  1.00  0.00     0.189 HD
BRANCH  21  23
HETATM   23  N7  UNL     1      -5.709   0.126  -0.408  1.00  0.00    -0.343 N 
ATOM     24  H72 UNL     1      -5.796   0.891   0.261  1.00  0.00     0.176 HD
ATOM     25  H71 UNL     1      -6.469  -0.133  -1.037  1.00  0.00     0.176 HD
ENDBRANCH  21  23
ENDBRANCH  18  19
ENDBRANCH  17  18
ENDBRANCH  15  16
TORSDOF 4
