REMARK  3 active torsions:
REMARK  status: ('A' for Active; 'I' for Inactive)
REMARK    1  A    between atoms: N1_1  and  O1_4 
REMARK    2  A    between atoms: O1_4  and  N2_5 
REMARK    3  A    between atoms: C1_7  and  C2_8 
ROOT
HETATM    1  C2  UNL     1      -0.181  -0.699  -0.230  1.00  0.00     0.130 A 
HETATM    2  N3  UNL     1       0.074   0.640  -0.227  1.00  0.00    -0.293 N 
ATOM      3  H3  UNL     1       0.981   0.978  -0.549  1.00  0.00     0.172 HD
HETATM    4  C3  UNL     1      -0.844   1.518   0.190  1.00  0.00     0.329 A 
HETATM    5  O2  UNL     1      -0.631   2.749   0.201  1.00  0.00    -0.246 OA
HETATM    6  N4  UNL     1      -2.038   1.073   0.612  1.00  0.00    -0.260 N 
ATOM      7  H4  UNL     1      -2.744   1.736   0.931  1.00  0.00     0.175 HD
HETATM    8  C4  UNL     1      -2.306  -0.247   0.615  1.00  0.00     0.329 A 
HETATM    9  O3  UNL     1      -3.441  -0.654   1.018  1.00  0.00    -0.246 OA
HETATM   10  N5  UNL     1      -1.383  -1.127   0.197  1.00  0.00    -0.293 N 
ATOM     11  H5  UNL     1      -1.594  -2.125   0.203  1.00  0.00     0.172 HD
ENDROOT
BRANCH   1  12
HETATM   12  C1  UNL     1       0.816  -1.652  -0.682  1.00  0.00     0.165 C 
HETATM   13  N2  UNL     1       1.953  -1.253  -1.087  1.00  0.00    -0.250 N 
ATOM     14  H2  UNL     1       2.619  -1.962  -1.395  1.00  0.00     0.196 HD
BRANCH  13  15
HETATM   15  O1  UNL     1       2.347   0.040  -1.140  1.00  0.00    -0.164 OA
BRANCH  15  16
HETATM   16  N1  UNL     1       3.233   0.621  -0.260  1.00  0.00    -0.286 N 
ATOM     17  H12 UNL     1       3.608   0.022   0.475  1.00  0.00     0.186 HD
ATOM     18  H11 UNL     1       3.530   1.596  -0.300  1.00  0.00     0.186 HD
ENDBRANCH  15  16
ENDBRANCH  13  15
ENDBRANCH   1  12
TORSDOF 3
