REMARK  5 active torsions:
REMARK  status: ('A' for Active; 'I' for Inactive)
REMARK    1  A    between atoms: N1_1  and  C1_4 
REMARK    2  A    between atoms: N3_8  and  C3_9 
REMARK    3  A    between atoms: C4_10  and  N4_11 
REMARK    4  A    between atoms: N4_11  and  N5_12 
REMARK    5  A    between atoms: N4_11  and  N6_15 
ROOT
HETATM    1  C1  UNL     1      -3.549  -0.015  -0.279  1.00  0.00     0.680 A 
HETATM    2  N2  UNL     1      -2.901  -0.982  -0.941  1.00  0.00    -0.187 N 
ATOM      3  H2  UNL     1      -3.430  -1.666  -1.482  1.00  0.00     0.185 HD
HETATM    4  C2  UNL     1      -1.566  -1.059  -0.899  1.00  0.00     0.210 A 
HETATM    5  N3  UNL     1      -0.847  -0.147  -0.177  1.00  0.00    -0.269 N 
HETATM    6  C5  UNL     1      -1.509   0.814   0.479  1.00  0.00     0.345 A 
HETATM    7  O1  UNL     1      -0.947   1.706   1.175  1.00  0.00    -0.246 OA
HETATM    8  N7  UNL     1      -2.875   0.895   0.438  1.00  0.00    -0.141 N 
ATOM      9  H7  UNL     1      -3.369   1.632   0.942  1.00  0.00     0.189 HD
ENDROOT
BRANCH   5  10
HETATM   10  C3  UNL     1       0.552  -0.268  -0.163  1.00  0.00     0.123 C 
HETATM   11  C4  UNL     1       1.451   0.454   0.433  1.00  0.00     0.153 C 
BRANCH  11  12
HETATM   12  N4  UNL     1       2.846   0.135   0.302  1.00  0.00    -0.220 N 
BRANCH  12  13
HETATM   13  N5  UNL     1       3.725   1.184   0.073  1.00  0.00    -0.325 N 
ATOM     14  H52 UNL     1       3.368   2.137   0.005  1.00  0.00     0.178 HD
ATOM     15  H51 UNL     1       4.715   0.958  -0.020  1.00  0.00     0.178 HD
ENDBRANCH  12  13
BRANCH  12  16
HETATM   16  N6  UNL     1       3.332  -1.161   0.395  1.00  0.00    -0.325 N 
ATOM     17  H62 UNL     1       2.686  -1.932   0.563  1.00  0.00     0.178 HD
ATOM     18  H61 UNL     1       4.322  -1.387   0.302  1.00  0.00     0.178 HD
ENDBRANCH  12  16
ENDBRANCH  11  12
ENDBRANCH   5  10
BRANCH   1  19
HETATM   19  N1  UNL     1      -4.840   0.070  -0.312  1.00  0.00    -0.234 N 
ATOM     20  H12 UNL     1      -5.353  -0.623  -0.858  1.00  0.00     0.174 HD
ATOM     21  H11 UNL     1      -5.334   0.807   0.192  1.00  0.00     0.174 HD
ENDBRANCH   1  19
TORSDOF 5
