REMARK  6 active torsions:
REMARK  status: ('A' for Active; 'I' for Inactive)
REMARK    1  A    between atoms: N1_1  and  N2_4 
REMARK    2  A    between atoms: N2_4  and  C1_6 
REMARK    3  A    between atoms: C1_6  and  O1_7 
REMARK    4  A    between atoms: C1_6  and  N3_9 
REMARK    5  A    between atoms: N3_9  and  N4_10 
REMARK    6  A    between atoms: N3_9  and  C2_13 
ROOT
HETATM    1  N3  UNL     1      -0.862   0.959   0.488  1.00  0.00    -0.051 N 
ENDROOT
BRANCH   1   2
HETATM    2  C1  UNL     1      -2.116   0.422   0.180  1.00  0.00     0.273 C 
BRANCH   2   3
HETATM    3  N2  UNL     1      -2.430  -0.701  -0.579  1.00  0.00    -0.270 N 
ATOM      4  H2  UNL     1      -1.686  -1.260  -0.996  1.00  0.00     0.190 HD
BRANCH   3   5
HETATM    5  N1  UNL     1      -3.772  -1.064  -0.770  1.00  0.00    -0.342 N 
ATOM      6  H12 UNL     1      -4.504  -0.495  -0.346  1.00  0.00     0.176 HD
ATOM      7  H11 UNL     1      -4.002  -1.887  -1.326  1.00  0.00     0.176 HD
ENDBRANCH   3   5
ENDBRANCH   2   3
BRANCH   2   8
HETATM    8  O1  UNL     1      -3.166   1.039   0.664  1.00  0.00    -0.330 OA
ATOM      9  H1  UNL     1      -2.952   1.806   1.182  1.00  0.00     0.221 HD
ENDBRANCH   2   8
ENDBRANCH   1   2
BRANCH   1  10
HETATM   10  N4  UNL     1      -0.846   2.092   1.384  1.00  0.00    -0.321 N 
ATOM     11  H42 UNL     1      -1.740   2.397   1.769  1.00  0.00     0.178 HD
ATOM     12  H41 UNL     1       0.069   2.484   1.609  1.00  0.00     0.178 HD
ENDBRANCH   1  10
BRANCH   1  13
HETATM   13  C2  UNL     1       0.350   0.546  -0.034  1.00  0.00     0.714 C 
HETATM   14  N5  UNL     1       1.454   1.096   0.434  1.00  0.00    -0.222 N 
HETATM   15  C3  UNL     1       2.734   0.666  -0.110  1.00  0.00     0.156 C 
ATOM     16  H5  UNL     1       1.412   1.809   1.163  1.00  0.00     0.177 HD
HETATM   17  C4  UNL     1       2.751  -0.847  -0.301  1.00  0.00     0.155 C 
HETATM   18  N6  UNL     1       1.563  -1.350  -0.913  1.00  0.00    -0.125 NA
HETATM   19  N7  UNL     1       0.586  -0.379  -1.081  1.00  0.00    -0.135 N 
ATOM     20  H7  UNL     1       0.046  -0.332  -1.945  1.00  0.00     0.201 HD
ENDBRANCH   1  13
TORSDOF 6
