REMARK  1 active torsions:
REMARK  status: ('A' for Active; 'I' for Inactive)
REMARK    1  A    between atoms: N3_5  and  N4_6 
ROOT
HETATM    1  N1  UNL     1       3.451  -1.100   0.198  1.00  0.00    -0.062 NA
HETATM    2  C1  UNL     1       2.235  -0.338   0.113  1.00  0.00     0.212 A 
HETATM    3  N2  UNL     1       0.994  -0.816   0.186  1.00  0.00    -0.247 N 
ATOM      4  H2  UNL     1       0.778  -1.805   0.314  1.00  0.00     0.192 HD
HETATM    5  N3  UNL     1       0.072   0.123   0.075  1.00  0.00    -0.131 N 
HETATM    6  C4  UNL     1       0.787   1.272  -0.078  1.00  0.00     0.363 A 
HETATM    7  O2  UNL     1       0.270   2.430  -0.221  1.00  0.00    -0.243 OA
HETATM    8  N6  UNL     1       2.104   1.001  -0.056  1.00  0.00    -0.279 N 
ATOM      9  H6  UNL     1       2.863   1.676  -0.149  1.00  0.00     0.173 HD
ENDROOT
BRANCH   5  10
HETATM   10  N4  UNL     1      -1.309   0.007   0.104  1.00  0.00    -0.199 N 
HETATM   11  C2  UNL     1      -2.333   0.046  -0.924  1.00  0.00     0.282 C 
HETATM   12  N5  UNL     1      -3.245  -0.575   0.027  1.00  0.00    -0.323 N 
HETATM   13  C3  UNL     1      -2.340  -0.192   1.051  1.00  0.00     0.341 C 
ATOM     14  H5  UNL     1      -4.137  -1.067  -0.021  1.00  0.00     0.166 HD
HETATM   15  O1  UNL     1      -2.451  -0.086   2.293  1.00  0.00    -0.245 OA
ENDBRANCH   5  10
TORSDOF 1
