REMARK  2 active torsions:
REMARK  status: ('A' for Active; 'I' for Inactive)
REMARK    1  A    between atoms: C2_2  and  C5_17 
REMARK    2  A    between atoms: N1_3  and  N2_5 
ROOT
HETATM    1  N2  UNL     1       0.185  -0.318  -0.811  1.00  0.00    -0.129 N 
ATOM      2  H2  UNL     1      -0.161   0.049  -1.697  1.00  0.00     0.205 HD
HETATM    3  C3  UNL     1       1.456  -0.304  -0.628  1.00  0.00     0.726 A 
HETATM    4  N3  UNL     1       2.295   0.212  -1.650  1.00  0.00    -0.129 N 
ATOM      5  H3  UNL     1       1.903   0.570  -2.521  1.00  0.00     0.205 HD
HETATM    6  N4  UNL     1       3.669   0.215  -1.427  1.00  0.00    -0.281 N 
ATOM      7  H4  UNL     1       4.276   0.585  -2.158  1.00  0.00     0.188 HD
HETATM    8  C4  UNL     1       4.218  -0.228  -0.338  1.00  0.00     0.214 A 
HETATM    9  N5  UNL     1       3.429  -0.758   0.724  1.00  0.00    -0.281 N 
ATOM     10  H5  UNL     1       3.872  -1.103   1.575  1.00  0.00     0.188 HD
HETATM   11  N6  UNL     1       2.033  -0.798   0.581  1.00  0.00    -0.129 N 
ATOM     12  H6  UNL     1       1.444  -1.172   1.325  1.00  0.00     0.205 HD
ENDROOT
BRANCH   1  13
HETATM   13  N1  UNL     1      -0.750  -0.784   0.082  1.00  0.00    -0.286 N 
HETATM   14  C2  UNL     1      -1.867  -0.163   0.229  1.00  0.00     0.087 C 
HETATM   15  C1  UNL     1      -2.841  -0.716   1.212  1.00  0.00     0.075 C 
ATOM     16  H1  UNL     1      -0.558  -1.623   0.629  1.00  0.00     0.187 HD
BRANCH  14  17
HETATM   17  C5  UNL     1      -2.231   1.042  -0.507  1.00  0.00     0.278 C 
HETATM   18  N7  UNL     1      -3.482   1.686  -0.303  1.00  0.00    -0.056 NA
HETATM   19  O1  UNL     1      -1.398   1.510  -1.345  1.00  0.00    -0.270 OA
ENDBRANCH  14  17
ENDBRANCH   1  13
TORSDOF 2
