REMARK  3 active torsions:
REMARK  status: ('A' for Active; 'I' for Inactive)
REMARK    1  A    between atoms: N1_1  and  N2_4 
REMARK    2  A    between atoms: C3_10  and  C4_11 
REMARK       I    between atoms: C4_11  and  N4_13 
REMARK    3  A    between atoms: N4_13  and  N5_15 
ROOT
HETATM    1  N2  UNL     1      -3.330   0.587   0.528  1.00  0.00    -0.290 N 
ATOM      2  H2  UNL     1      -3.880   1.408   0.274  1.00  0.00     0.188 HD
HETATM    3  C1  UNL     1      -2.039   0.546   0.308  1.00  0.00     0.149 A 
HETATM    4  C2  UNL     1      -1.384   1.616  -0.276  1.00  0.00     0.141 A 
HETATM    5  N3  UNL     1      -0.065   1.522  -0.479  1.00  0.00    -0.343 N 
ATOM      6  H3  UNL     1       0.419   2.310  -0.910  1.00  0.00     0.167 HD
HETATM    7  C3  UNL     1       0.649   0.439  -0.141  1.00  0.00     0.191 A 
HETATM    8  N6  UNL     1      -0.019  -0.581   0.424  1.00  0.00    -0.279 N 
ATOM      9  H6  UNL     1       0.495  -1.420   0.693  1.00  0.00     0.189 HD
HETATM   10  N7  UNL     1      -1.315  -0.531   0.641  1.00  0.00    -0.282 N 
ATOM     11  H7  UNL     1      -1.779  -1.330   1.073  1.00  0.00     0.188 HD
ENDROOT
BRANCH   7  12
HETATM   12  C4  UNL     1       2.095   0.373  -0.379  1.00  0.00     0.304 C 
HETATM   13  O1  UNL     1       2.650   1.373  -0.915  1.00  0.00    -0.263 OA
HETATM   14  N4  UNL     1       2.869  -0.752  -0.034  1.00  0.00    -0.270 N 
ATOM     15  H4  UNL     1       2.415  -1.556   0.398  1.00  0.00     0.189 HD
BRANCH  14  16
HETATM   16  N5  UNL     1       4.217  -0.790  -0.266  1.00  0.00    -0.342 N 
ATOM     17  H52 UNL     1       4.656   0.023  -0.699  1.00  0.00     0.176 HD
ATOM     18  H51 UNL     1       4.778  -1.605  -0.016  1.00  0.00     0.176 HD
ENDBRANCH  14  16
ENDBRANCH   7  12
BRANCH   1  19
HETATM   19  N1  UNL     1      -3.929  -0.523   1.119  1.00  0.00    -0.344 N 
ATOM     20  H12 UNL     1      -3.365  -1.336   1.367  1.00  0.00     0.176 HD
ATOM     21  H11 UNL     1      -4.934  -0.491   1.290  1.00  0.00     0.176 HD
ENDBRANCH   1  19
TORSDOF 3
