REMARK  6 active torsions:
REMARK  status: ('A' for Active; 'I' for Inactive)
REMARK    1  A    between atoms: C2_2  and  O1_4 
REMARK    2  A    between atoms: O1_4  and  C4_5 
REMARK    3  A    between atoms: C12_13  and  C13_14 
REMARK    4  A    between atoms: C13_14  and  C14_15 
REMARK    5  A    between atoms: C14_15  and  C15_16 
REMARK    6  A    between atoms: C15_16  and  N1_17 
ROOT
HETATM    1  C4  UNL     1      -4.169   0.615   0.047  1.00  0.00     0.194 C 
HETATM    2  C5  UNL     1      -3.865   0.009  -1.306  1.00  0.00     0.039 C 
HETATM    3  C6  UNL     1      -2.641  -0.879  -1.297  1.00  0.00     0.018 C 
HETATM    4  C7  UNL     1      -1.464  -0.206  -0.637  1.00  0.00     0.026 C 
HETATM    5  C8  UNL     1      -0.944   0.810  -1.666  1.00  0.00     0.054 C 
HETATM    6  C9  UNL     1       0.534   0.744  -1.423  1.00  0.00    -0.046 A 
HETATM    7  C10 UNL     1       1.484   1.698  -1.801  1.00  0.00     0.008 A 
HETATM    8  C11 UNL     1       2.804   1.473  -1.488  1.00  0.00     0.007 A 
HETATM    9  C12 UNL     1       3.188   0.327  -0.813  1.00  0.00    -0.057 A 
HETATM   10  C19 UNL     1       2.210  -0.573  -0.468  1.00  0.00     0.020 A 
HETATM   11  C20 UNL     1       0.861  -0.403  -0.756  1.00  0.00     0.007 A 
HETATM   12  C21 UNL     1      -0.354  -1.185  -0.517  1.00  0.00     0.200 C 
HETATM   13  N2  UNL     1      -0.335  -1.912   0.728  1.00  0.00    -0.325 N 
ATOM     14  H2  UNL     1      -0.516  -1.543   1.661  1.00  0.00     0.165 HD
HETATM   15  C22 UNL     1      -0.038  -3.137   0.411  1.00  0.00     0.212 C 
HETATM   16  N3  UNL     1       0.097  -4.224   1.308  1.00  0.00    -0.062 NA
HETATM   17  N4  UNL     1       0.139  -3.242  -0.999  1.00  0.00    -0.231 N 
HETATM   18  C23 UNL     1       0.829  -4.226  -1.773  1.00  0.00     0.188 C 
HETATM   19  O2  UNL     1      -0.516  -2.156  -1.504  1.00  0.00    -0.237 OA
HETATM   20  C24 UNL     1      -1.811   0.491   0.631  1.00  0.00     0.097 C 
HETATM   21  C25 UNL     1      -3.209   0.171   1.123  1.00  0.00     0.270 C 
HETATM   22  F2  UNL     1      -3.428   0.978   2.220  1.00  0.00    -0.203 F 
HETATM   23  F3  UNL     1      -3.259  -1.154   1.405  1.00  0.00    -0.203 F 
ENDROOT
BRANCH   1  24
HETATM   24  O1  UNL     1      -5.491   0.517   0.396  1.00  0.00    -0.375 OA
BRANCH  24  25
HETATM   25  C2  UNL     1      -6.202   1.659   0.511  1.00  0.00     0.114 C 
HETATM   26  C1  UNL     1      -7.346   1.591  -0.515  1.00  0.00     0.039 C 
HETATM   27  C3  UNL     1      -6.912   1.795   1.865  1.00  0.00     0.039 C 
ENDBRANCH  24  25
ENDBRANCH   1  24
BRANCH   9  28
HETATM   28  C13 UNL     1       4.586   0.031  -0.463  1.00  0.00     0.049 C 
BRANCH  28  29
HETATM   29  C14 UNL     1       5.063   0.548   0.847  1.00  0.00    -0.008 C 
HETATM   30  C16 UNL     1       4.212   0.181   2.041  1.00  0.00     0.049 C 
HETATM   31  C17 UNL     1       4.544   1.570   2.608  1.00  0.00     0.171 C 
HETATM   32  F1  UNL     1       3.453   2.174   3.208  1.00  0.00    -0.249 F 
HETATM   33  C18 UNL     1       4.749   2.001   1.164  1.00  0.00     0.049 C 
BRANCH  29  34
HETATM   34  C15 UNL     1       6.504   0.230   1.179  1.00  0.00     0.239 C 
BRANCH  34  35
HETATM   35  N1  UNL     1       7.445   0.749   0.246  1.00  0.00    -0.079 N 
ATOM     36  H13 UNL     1       7.219   0.438  -0.699  1.00  0.00     0.274 HD
ATOM     37  H12 UNL     1       7.318   1.755   0.133  1.00  0.00     0.274 HD
ATOM     38  H11 UNL     1       8.417   0.535   0.470  1.00  0.00     0.274 HD
ENDBRANCH  34  35
ENDBRANCH  29  34
ENDBRANCH  28  29
ENDBRANCH   9  28
TORSDOF 6
