REMARK  6 active torsions:
REMARK  status: ('A' for Active; 'I' for Inactive)
REMARK    1  A    between atoms: C3_5  and  C4_6 
REMARK       I    between atoms: C4_6  and  N2_8 
REMARK    2  A    between atoms: N2_8  and  C5_10 
REMARK    3  A    between atoms: C7_16  and  C8_17 
REMARK    4  A    between atoms: C8_17  and  N5_18 
REMARK    5  A    between atoms: N6_25  and  C14_26 
REMARK    6  A    between atoms: C18_30  and  C19_31 
ROOT
HETATM    1  C1  UNL     1      -1.508  -2.294   1.586  1.00  0.00     0.089 C 
HETATM    2  C2  UNL     1      -1.239  -0.954   1.066  1.00  0.00     0.080 A 
HETATM    3  N1  UNL     1      -0.019  -0.488   0.730  1.00  0.00    -0.341 N 
ATOM      4  H1  UNL     1       0.851  -1.015   0.801  1.00  0.00     0.167 HD
HETATM    5  C3  UNL     1      -0.123   0.757   0.295  1.00  0.00     0.118 A 
HETATM    6  C13 UNL     1      -1.461   1.065   0.368  1.00  0.00     0.128 A 
HETATM    7  N6  UNL     1      -2.153  -0.010   0.851  1.00  0.00    -0.334 N 
ENDROOT
BRANCH   5   8
HETATM    8  C4  UNL     1       0.949   1.667  -0.177  1.00  0.00     0.274 C 
HETATM    9  O1  UNL     1       0.689   2.818  -0.568  1.00  0.00    -0.266 OA
HETATM   10  N2  UNL     1       2.289   1.198  -0.175  1.00  0.00    -0.319 N 
ATOM     11  H2  UNL     1       2.450   0.246   0.155  1.00  0.00     0.169 HD
BRANCH  10  12
HETATM   12  C5  UNL     1       3.403   1.929  -0.586  1.00  0.00     0.078 A 
HETATM   13  C6  UNL     1       3.488   3.211  -1.077  1.00  0.00     0.138 A 
HETATM   14  N3  UNL     1       4.785   3.499  -1.345  1.00  0.00    -0.309 N 
HETATM   15  N4  UNL     1       5.508   2.454  -1.044  1.00  0.00    -0.301 N 
ATOM     16  H3  UNL     1       5.136   4.381  -1.718  1.00  0.00     0.186 HD
HETATM   17  C7  UNL     1       4.719   1.461  -0.575  1.00  0.00     0.082 A 
ATOM     18  H4  UNL     1       6.521   2.395  -1.148  1.00  0.00     0.186 HD
BRANCH  17  19
HETATM   19  C8  UNL     1       5.138   0.127  -0.103  1.00  0.00     0.333 C 
BRANCH  19  20
HETATM   20  N5  UNL     1       6.548  -0.064  -0.243  1.00  0.00     0.098 N 
HETATM   21  C9  UNL     1       6.947  -1.331   0.387  1.00  0.00     0.299 C 
HETATM   22  C10 UNL     1       8.396  -1.540   0.021  1.00  0.00     0.198 C 
HETATM   23  O2  UNL     1       8.977  -0.477  -0.632  1.00  0.00    -0.388 OA
HETATM   24  C11 UNL     1       8.322  -0.114  -1.814  1.00  0.00     0.198 C 
HETATM   25  C12 UNL     1       6.832  -0.260  -1.676  1.00  0.00     0.299 C 
ENDBRANCH  19  20
ENDBRANCH  17  19
ENDBRANCH  10  12
ENDBRANCH   5   8
BRANCH   7  26
HETATM   26  C14 UNL     1      -3.554   0.071   1.019  1.00  0.00     0.041 C 
HETATM   27  C15 UNL     1      -3.828   1.379   1.764  1.00  0.00     0.039 C 
HETATM   28  C16 UNL     1      -4.185  -0.986   1.859  1.00  0.00     0.032 C 
HETATM   29  C17 UNL     1      -5.654  -0.605   2.141  1.00  0.00     0.016 C 
HETATM   30  C18 UNL     1      -6.403  -0.183   0.933  1.00  0.00     0.094 C 
HETATM   31  C20 UNL     1      -5.622  -0.500  -0.293  1.00  0.00     0.024 C 
HETATM   32  C21 UNL     1      -4.207   0.012  -0.319  1.00  0.00    -0.022 C 
HETATM   33  C22 UNL     1      -3.455  -1.015  -1.182  1.00  0.00     0.017 C 
HETATM   34  C23 UNL     1      -4.162   1.253  -1.140  1.00  0.00     0.017 C 
BRANCH  30  35
HETATM   35  C19 UNL     1      -7.729  -0.954   0.789  1.00  0.00     0.391 C 
HETATM   36  F1  UNL     1      -7.516  -2.295   0.686  1.00  0.00    -0.171 F 
HETATM   37  F2  UNL     1      -8.413  -0.519  -0.329  1.00  0.00    -0.171 F 
HETATM   38  F3  UNL     1      -8.544  -0.736   1.874  1.00  0.00    -0.171 F 
ENDBRANCH  30  35
ENDBRANCH   7  26
TORSDOF 6
