REMARK  7 active torsions:
REMARK  status: ('A' for Active; 'I' for Inactive)
REMARK    1  A    between atoms: N1_9  and  O2_11 
REMARK    2  A    between atoms: C8_13  and  C9_14 
REMARK       I    between atoms: C9_14  and  N2_16 
REMARK    3  A    between atoms: N2_16  and  C10_18 
REMARK    4  A    between atoms: C13_21  and  N3_22 
REMARK    5  A    between atoms: C18_27  and  C19_28 
REMARK    6  A    between atoms: C19_28  and  C20_29 
REMARK    7  A    between atoms: C20_29  and  C21_30 
ROOT
HETATM    1  C10 UNL     1       0.465   0.302   0.635  1.00  0.00     0.035 A 
HETATM    2  C11 UNL     1      -0.367   0.400  -0.433  1.00  0.00     0.032 A 
HETATM    3  C12 UNL     1      -1.732   0.455  -0.261  1.00  0.00     0.031 A 
HETATM    4  C13 UNL     1      -2.337   0.414   0.959  1.00  0.00     0.030 A 
HETATM    5  C22 UNL     1      -1.502   0.313   2.079  1.00  0.00     0.031 A 
HETATM    6  C23 UNL     1      -0.152   0.260   1.896  1.00  0.00     0.032 A 
ENDROOT
BRANCH   1   7
HETATM    7  N2  UNL     1       1.858   0.260   0.606  1.00  0.00    -0.324 N 
HETATM    8  C9  UNL     1       2.631   0.647  -0.503  1.00  0.00     0.266 C 
HETATM    9  O3  UNL     1       2.212   1.079  -1.594  1.00  0.00    -0.269 OA
ATOM     10  H2  UNL     1       2.345  -0.071   1.439  1.00  0.00     0.169 HD
BRANCH   8  11
HETATM   11  C8  UNL     1       4.144   0.557  -0.438  1.00  0.00     0.214 C 
HETATM   12  C5  UNL     1       4.562  -0.395  -1.505  1.00  0.00     0.066 C 
HETATM   13  C4  UNL     1       5.297  -1.484  -0.799  1.00  0.00     0.048 C 
HETATM   14  C6  UNL     1       5.426   0.447  -2.402  1.00  0.00     0.185 C 
HETATM   15  C2  UNL     1       5.390  -0.991   0.616  1.00  0.00     0.056 C 
HETATM   16  C1  UNL     1       4.926  -2.060   1.609  1.00  0.00     0.045 C 
HETATM   17  C3  UNL     1       6.834  -0.650   0.915  1.00  0.00     0.045 C 
HETATM   18  O4  UNL     1       4.546   0.078   0.775  1.00  0.00    -0.351 OA
HETATM   19  O1  UNL     1       5.688   1.661  -1.714  1.00  0.00    -0.335 OA
HETATM   20  C7  UNL     1       4.663   1.875  -0.805  1.00  0.00     0.183 C 
HETATM   21  N1  UNL     1       4.225   2.998  -0.350  1.00  0.00    -0.248 N 
ATOM     22  H1  UNL     1       3.457   3.003   0.321  1.00  0.00     0.196 HD
BRANCH  21  23
HETATM   23  O2  UNL     1       4.774   4.182  -0.752  1.00  0.00    -0.288 OA
ATOM     24  H2  UNL     1       4.451   5.010  -0.417  1.00  0.00     0.244 HD
ENDBRANCH  21  23
ENDBRANCH   8  11
ENDBRANCH   1   7
BRANCH   4  25
HETATM   25  N3  UNL     1      -3.707   0.454   1.196  1.00  0.00    -0.373 N 
HETATM   26  C14 UNL     1      -4.182   1.420   2.205  1.00  0.00     0.123 C 
HETATM   27  C15 UNL     1      -5.038   2.387   1.420  1.00  0.00     0.020 C 
HETATM   28  C16 UNL     1      -5.153   2.049  -0.042  1.00  0.00     0.004 C 
HETATM   29  C17 UNL     1      -5.568   0.598  -0.289  1.00  0.00     0.029 C 
HETATM   30  C18 UNL     1      -4.783  -0.339   0.604  1.00  0.00     0.107 C 
BRANCH  30  31
HETATM   31  C19 UNL     1      -4.329  -1.615   0.063  1.00  0.00     0.003 C 
BRANCH  31  32
HETATM   32  C20 UNL     1      -5.196  -2.638  -0.526  1.00  0.00     0.086 C 
BRANCH  32  33
HETATM   33  C21 UNL     1      -6.044  -2.432  -1.701  1.00  0.00     0.407 C 
HETATM   34  F1  UNL     1      -6.637  -3.731  -1.946  1.00  0.00    -0.167 F 
HETATM   35  F2  UNL     1      -5.434  -2.081  -2.857  1.00  0.00    -0.167 F 
HETATM   36  F3  UNL     1      -7.231  -1.707  -1.460  1.00  0.00    -0.167 F 
ENDBRANCH  32  33
ENDBRANCH  31  32
ENDBRANCH  30  31
ENDBRANCH   4  25
TORSDOF 7
