REMARK  7 active torsions:
REMARK  status: ('A' for Active; 'I' for Inactive)
REMARK    1  A    between atoms: C2_2  and  C3_3 
REMARK    2  A    between atoms: C3_3  and  N1_4 
REMARK    3  A    between atoms: N2_6  and  C5_8 
REMARK    4  A    between atoms: C7_12  and  N4_13 
REMARK    5  A    between atoms: N5_16  and  C10_17 
REMARK    6  A    between atoms: C15_24  and  C16_25 
REMARK    7  A    between atoms: C22_34  and  N9_35 
ROOT
HETATM    1  N1  UNL     1       1.480  -1.954   1.159  1.00  0.00    -0.165 N 
HETATM    2  C4  UNL     1       0.951  -0.998   0.309  1.00  0.00     0.141 A 
HETATM    3  N2  UNL     1      -0.259  -1.028   0.138  1.00  0.00    -0.176 N 
ATOM      4  H2  UNL     1      -0.648  -1.793   0.690  1.00  0.00     0.186 HD
HETATM    5  C14 UNL     1       1.834  -0.085  -0.270  1.00  0.00     0.075 A 
HETATM    6  C15 UNL     1       3.172  -0.147   0.003  1.00  0.00     0.034 A 
HETATM    7  N8  UNL     1       3.617  -1.100   0.836  1.00  0.00    -0.195 N 
ATOM      8  H8  UNL     1       4.614  -1.154   1.046  1.00  0.00     0.184 HD
HETATM    9  C22 UNL     1       2.776  -1.987   1.401  1.00  0.00     0.680 A 
ENDROOT
BRANCH   1  10
HETATM   10  C3  UNL     1       0.542  -2.932   1.732  1.00  0.00     0.176 C 
BRANCH  10  11
HETATM   11  C2  UNL     1       0.499  -4.134   0.867  1.00  0.00    -0.016 C 
HETATM   12  C1  UNL     1      -0.617  -4.519   0.282  1.00  0.00     0.008 C 
ENDBRANCH  10  11
ENDBRANCH   1  10
BRANCH   3  13
HETATM   13  C5  UNL     1      -1.271  -0.410  -0.522  1.00  0.00     0.685 A 
HETATM   14  N3  UNL     1      -1.460  -0.369  -1.862  1.00  0.00    -0.198 N 
HETATM   15  C6  UNL     1      -2.598   0.274  -2.091  1.00  0.00     0.155 A 
ATOM     16  H3  UNL     1      -0.839  -0.762  -2.569  1.00  0.00     0.183 HD
HETATM   17  C7  UNL     1      -3.147   0.654  -0.879  1.00  0.00     0.136 A 
HETATM   18  N6  UNL     1      -2.315   0.226   0.079  1.00  0.00    -0.175 N 
ATOM     19  H6  UNL     1      -2.441   0.354   1.083  1.00  0.00     0.186 HD
BRANCH  17  20
HETATM   20  N4  UNL     1      -4.398   1.321  -0.683  1.00  0.00    -0.338 N 
HETATM   21  C8  UNL     1      -4.863   1.911   0.534  1.00  0.00     0.156 C 
HETATM   22  C9  UNL     1      -6.254   2.419   0.225  1.00  0.00     0.294 C 
HETATM   23  N5  UNL     1      -6.693   1.545  -0.871  1.00  0.00     0.112 N 
HETATM   24  C13 UNL     1      -5.456   1.493  -1.643  1.00  0.00     0.399 C 
BRANCH  23  25
HETATM   25  C10 UNL     1      -7.027   0.282  -0.257  1.00  0.00     0.225 A 
HETATM   26  C11 UNL     1      -8.061  -0.619  -0.776  1.00  0.00     0.038 A 
HETATM   27  C12 UNL     1      -8.444   0.283   0.362  1.00  0.00     0.038 A 
ENDBRANCH  23  25
ENDBRANCH  17  20
ENDBRANCH   3  13
BRANCH   9  28
HETATM   28  N9  UNL     1       3.211  -2.922   2.206  1.00  0.00    -0.234 N 
ATOM     29  H92 UNL     1       2.574  -3.594   2.634  1.00  0.00     0.174 HD
ATOM     30  H91 UNL     1       4.213  -2.948   2.393  1.00  0.00     0.174 HD
ENDBRANCH   9  28
BRANCH   6  31
HETATM   31  C16 UNL     1       4.152   0.803  -0.583  1.00  0.00     0.039 C 
HETATM   32  C17 UNL     1       4.668   1.724   0.477  1.00  0.00     0.030 C 
HETATM   33  C18 UNL     1       6.034   1.436   0.965  1.00  0.00     0.117 C 
HETATM   34  N7  UNL     1       6.923   1.255  -0.117  1.00  0.00    -0.417 N 
HETATM   35  C19 UNL     1       7.729   2.361  -0.502  1.00  0.00     0.143 C 
HETATM   36  C20 UNL     1       6.589   0.313  -1.113  1.00  0.00     0.117 C 
HETATM   37  C21 UNL     1       5.154   0.000  -1.319  1.00  0.00     0.030 C 
ENDBRANCH   6  31
TORSDOF 7
