REMARK  7 active torsions:
REMARK  status: ('A' for Active; 'I' for Inactive)
REMARK    1  A    between atoms: C3_3  and  S1_4 
REMARK    2  A    between atoms: S1_4  and  N1_7 
REMARK    3  A    between atoms: N1_7  and  C4_9 
REMARK    4  A    between atoms: C7_12  and  N2_13 
REMARK    5  A    between atoms: N2_13  and  C8_14 
REMARK    6  A    between atoms: C9_17  and  C10_18 
REMARK    7  A    between atoms: C10_18  and  N4_19 
ROOT
HETATM    1  C1  UNL     1       6.020   3.238   1.077  1.00  0.00     0.013 C 
HETATM    2  C2  UNL     1       6.372   2.330   0.354  1.00  0.00    -0.101 C 
HETATM    3  C3  UNL     1       6.806   1.212  -0.512  1.00  0.00     0.255 C 
ENDROOT
BRANCH   3   4
HETATM    4  S1  UNL     1       6.410  -0.295   0.389  1.00  0.00     0.237 S 
HETATM    5  O1  UNL     1       7.158  -0.240   1.693  1.00  0.00    -0.205 OA
HETATM    6  O2  UNL     1       6.841  -1.505  -0.365  1.00  0.00    -0.205 OA
BRANCH   4   7
HETATM    7  N1  UNL     1       4.685  -0.244   0.616  1.00  0.00    -0.314 N 
ATOM      8  H1  UNL     1       4.202   0.404   1.238  1.00  0.00     0.172 HD
BRANCH   7   9
HETATM    9  C4  UNL     1       4.033  -1.239  -0.192  1.00  0.00     0.093 C 
HETATM   10  C5  UNL     1       3.185  -2.123   0.635  1.00  0.00     0.029 C 
HETATM   11  C6  UNL     1       1.871  -1.426   0.999  1.00  0.00     0.041 C 
HETATM   12  C7  UNL     1       1.152  -1.162  -0.327  1.00  0.00     0.165 C 
HETATM   13  C19 UNL     1       1.987   0.015  -0.930  1.00  0.00     0.041 C 
HETATM   14  C20 UNL     1       3.279  -0.598  -1.353  1.00  0.00     0.029 C 
BRANCH  12  15
HETATM   15  N2  UNL     1      -0.154  -0.900  -0.239  1.00  0.00    -0.424 NA
BRANCH  15  16
HETATM   16  C8  UNL     1      -1.344  -0.863  -0.238  1.00  0.00     0.190 A 
HETATM   17  N3  UNL     1      -2.061   0.230   0.183  1.00  0.00    -0.318 N 
HETATM   18  C9  UNL     1      -3.361   0.356   0.191  1.00  0.00     0.113 A 
ATOM     19  H3  UNL     1      -1.522   1.026   0.525  1.00  0.00     0.170 HD
HETATM   20  N5  UNL     1      -4.094  -0.671  -0.247  1.00  0.00    -0.329 N 
HETATM   21  C15 UNL     1      -3.500  -1.791  -0.680  1.00  0.00     0.124 A 
ATOM     22  H5  UNL     1      -5.112  -0.602  -0.252  1.00  0.00     0.168 HD
HETATM   23  N6  UNL     1      -4.223  -2.838  -1.129  1.00  0.00    -0.338 N 
HETATM   24  C18 UNL     1      -2.118  -1.943  -0.700  1.00  0.00     0.081 A 
HETATM   25  C16 UNL     1      -3.695  -3.982  -1.580  1.00  0.00     0.181 A 
ATOM     26  H6  UNL     1      -5.239  -2.752  -1.124  1.00  0.00     0.168 HD
HETATM   27  N7  UNL     1      -2.358  -4.104  -1.589  1.00  0.00    -0.361 N 
HETATM   28  C17 UNL     1      -1.564  -3.110  -1.158  1.00  0.00     0.109 A 
ATOM     29  H7  UNL     1      -1.937  -4.968  -1.930  1.00  0.00     0.166 HD
BRANCH  18  30
HETATM   30  C10 UNL     1      -4.107   1.559   0.646  1.00  0.00     0.084 C 
HETATM   31  C12 UNL     1      -3.353   2.571   1.459  1.00  0.00     0.039 C 
HETATM   32  C13 UNL     1      -4.202   3.631   0.735  1.00  0.00     0.006 C 
HETATM   33  C14 UNL     1      -4.201   2.645  -0.442  1.00  0.00     0.039 C 
BRANCH  30  34
HETATM   34  N4  UNL     1      -5.409   1.344   1.191  1.00  0.00    -0.411 N 
HETATM   35  C11 UNL     1      -6.347   0.663   0.357  1.00  0.00     0.141 C 
ATOM     36  H4  UNL     1      -5.657   1.661   2.128  1.00  0.00     0.153 HD
ENDBRANCH  30  34
ENDBRANCH  18  30
ENDBRANCH  15  16
ENDBRANCH  12  15
ENDBRANCH   7   9
ENDBRANCH   4   7
ENDBRANCH   3   4
TORSDOF 7
