REMARK  7 active torsions:
REMARK  status: ('A' for Active; 'I' for Inactive)
REMARK    1  A    between atoms: C1_4  and  N2_5 
REMARK    2  A    between atoms: C1_4  and  C16_33 
REMARK       I    between atoms: N2_5  and  C2_7 
REMARK    3  A    between atoms: C2_7  and  C3_9 
REMARK    4  A    between atoms: C3_9  and  N3_10 
REMARK    5  A    between atoms: N3_10  and  C4_12 
REMARK    6  A    between atoms: C5_15  and  N5_16 
REMARK    7  A    between atoms: C11_24  and  N7_25 
ROOT
HETATM    1  C4  UNL     1      -0.803   0.476   1.155  1.00  0.00     0.707 A 
HETATM    2  N4  UNL     1      -1.752   1.306   0.678  1.00  0.00    -0.021 N 
ATOM      3  H4  UNL     1      -1.592   2.313   0.694  1.00  0.00     0.203 HD
HETATM    4  C5  UNL     1      -2.909   0.826   0.180  1.00  0.00     0.709 A 
HETATM    5  N6  UNL     1      -3.082  -0.496   0.175  1.00  0.00    -0.021 N 
ATOM      6  H6  UNL     1      -3.953  -0.874  -0.199  1.00  0.00     0.203 HD
HETATM    7  C11 UNL     1      -2.147  -1.361   0.647  1.00  0.00     0.709 A 
HETATM    8  N8  UNL     1      -1.006  -0.857   1.137  1.00  0.00    -0.021 N 
ATOM      9  H8  UNL     1      -0.288  -1.485   1.498  1.00  0.00     0.203 HD
ENDROOT
BRANCH   1  10
HETATM   10  N3  UNL     1       0.301   0.975   1.622  1.00  0.00    -0.216 N 
ATOM     11  H3  UNL     1       0.428   1.987   1.618  1.00  0.00     0.178 HD
BRANCH  10  12
HETATM   12  C3  UNL     1       1.346   0.143   2.143  1.00  0.00     0.241 C 
BRANCH  12  13
HETATM   13  C2  UNL     1       2.594   0.250   1.262  1.00  0.00     0.241 C 
HETATM   14  N2  UNL     1       2.522   1.090   0.162  1.00  0.00    -0.315 N 
ATOM     15  H2  UNL     1       1.628   1.567   0.043  1.00  0.00     0.170 HD
HETATM   16  O1  UNL     1       3.581  -0.418   1.591  1.00  0.00    -0.271 OA
BRANCH  14  17
HETATM   17  C1  UNL     1       3.468   1.382  -0.796  1.00  0.00     0.081 C 
HETATM   18  N1  UNL     1       3.098   2.261  -1.757  1.00  0.00    -0.389 N 
ATOM     19  H12 UNL     1       2.143   2.587  -1.609  1.00  0.00     0.157 HD
ATOM     20  H11 UNL     1       3.798   2.477  -2.466  1.00  0.00     0.157 HD
BRANCH  17  21
HETATM   21  C16 UNL     1       4.849   0.910  -1.010  1.00  0.00     0.053 C 
HETATM   22  C17 UNL     1       4.845  -0.538  -1.330  1.00  0.00     0.012 C 
HETATM   23  C18 UNL     1       6.007  -1.342  -0.858  1.00  0.00     0.001 C 
HETATM   24  C19 UNL     1       7.199  -0.439  -0.690  1.00  0.00     0.000 C 
HETATM   25  C20 UNL     1       6.872   0.490   0.455  1.00  0.00     0.001 C 
HETATM   26  C21 UNL     1       5.722   1.392   0.087  1.00  0.00     0.012 C 
ENDBRANCH  17  21
ENDBRANCH  14  17
ENDBRANCH  12  13
ENDBRANCH  10  12
ENDBRANCH   1  10
BRANCH   4  27
HETATM   27  N5  UNL     1      -3.862   1.765  -0.300  1.00  0.00    -0.217 N 
HETATM   28  C6  UNL     1      -3.791   2.217  -1.651  1.00  0.00     0.141 C 
HETATM   29  C7  UNL     1      -4.326   3.614  -1.846  1.00  0.00     0.020 C 
HETATM   30  C8  UNL     1      -5.524   3.901  -0.982  1.00  0.00     0.003 C 
HETATM   31  C9  UNL     1      -5.064   3.716   0.470  1.00  0.00     0.020 C 
HETATM   32  C10 UNL     1      -4.881   2.215   0.645  1.00  0.00     0.141 C 
ENDBRANCH   4  27
BRANCH   7  33
HETATM   33  N7  UNL     1      -2.366  -2.757   0.623  1.00  0.00    -0.213 N 
HETATM   34  C12 UNL     1      -3.563  -3.383   0.102  1.00  0.00     0.167 C 
HETATM   35  C13 UNL     1      -3.135  -4.782  -0.354  1.00  0.00     0.188 C 
HETATM   36  O2  UNL     1      -2.669  -5.554   0.680  1.00  0.00    -0.388 OA
HETATM   37  C14 UNL     1      -2.024  -4.883   1.688  1.00  0.00     0.188 C 
HETATM   38  C15 UNL     1      -1.338  -3.628   1.149  1.00  0.00     0.167 C 
ENDBRANCH   7  33
TORSDOF 7
