REMARK  8 active torsions:
REMARK  status: ('A' for Active; 'I' for Inactive)
REMARK    1  A    between atoms: C2_2  and  C3_3 
REMARK    2  A    between atoms: C3_3  and  N1_4 
REMARK    3  A    between atoms: C6_8  and  C7_9 
REMARK    4  A    between atoms: C10_14  and  N3_15 
REMARK    5  A    between atoms: C11_20  and  C12_21 
REMARK    6  A    between atoms: C12_21  and  N5_22 
REMARK       I    between atoms: N6_25  and  C15_26 
REMARK    7  A    between atoms: C15_26  and  O3_28 
REMARK    8  A    between atoms: O3_28  and  C16_29 
ROOT
HETATM    1  C7  UNL     1      -2.663  -0.312   1.326  1.00  0.00     0.017 A 
HETATM    2  C8  UNL     1      -3.140   0.198   2.516  1.00  0.00     0.100 A 
HETATM    3  N2  UNL     1      -2.091   0.385   3.339  1.00  0.00    -0.360 N 
ATOM      4  H2  UNL     1      -2.136   0.752   4.290  1.00  0.00     0.165 HD
HETATM    5  C9  UNL     1      -0.970   0.005   2.693  1.00  0.00     0.104 A 
HETATM    6  C10 UNL     1       0.353  -0.006   3.068  1.00  0.00     0.129 A 
HETATM    7  N4  UNL     1       1.267  -0.442   2.196  1.00  0.00    -0.329 N 
ATOM      8  H4  UNL     1       2.245  -0.445   2.487  1.00  0.00     0.168 HD
HETATM    9  C11 UNL     1       0.976  -0.875   0.964  1.00  0.00     0.112 A 
HETATM   10  N7  UNL     1      -0.321  -0.869   0.587  1.00  0.00    -0.342 N 
ATOM     11  H7  UNL     1      -0.578  -1.193  -0.345  1.00  0.00     0.167 HD
HETATM   12  C20 UNL     1      -1.272  -0.441   1.426  1.00  0.00     0.074 A 
ENDROOT
BRANCH   9  13
HETATM   13  C12 UNL     1       2.026  -1.356   0.007  1.00  0.00     0.348 C 
BRANCH  13  14
HETATM   14  N5  UNL     1       2.396  -0.248  -0.852  1.00  0.00     0.098 N 
HETATM   15  C13 UNL     1       3.361  -0.665  -1.856  1.00  0.00     0.293 C 
HETATM   16  C14 UNL     1       4.627   0.127  -1.821  1.00  0.00     0.158 C 
HETATM   17  N6  UNL     1       5.150   0.277  -0.491  1.00  0.00    -0.325 N 
HETATM   18  C15 UNL     1       6.526   0.091  -0.223  1.00  0.00     0.362 C 
HETATM   19  C18 UNL     1       4.213   0.621   0.559  1.00  0.00     0.158 C 
HETATM   20  O2  UNL     1       6.942   0.233   0.949  1.00  0.00    -0.238 OA
HETATM   21  C19 UNL     1       2.886   0.897  -0.138  1.00  0.00     0.293 C 
BRANCH  18  22
HETATM   22  O3  UNL     1       7.434  -0.244  -1.212  1.00  0.00    -0.304 OA
BRANCH  22  23
HETATM   23  C16 UNL     1       8.807  -0.447  -1.031  1.00  0.00     0.176 C 
HETATM   24  C17 UNL     1       9.531   0.753  -0.488  1.00  0.00     0.034 C 
ENDBRANCH  22  23
ENDBRANCH  18  22
ENDBRANCH  13  14
ENDBRANCH   9  13
BRANCH   6  25
HETATM   25  N3  UNL     1       0.701   0.407   4.265  1.00  0.00    -0.384 N 
ATOM     26  H32 UNL     1       0.003   0.740   4.931  1.00  0.00     0.157 HD
ATOM     27  H31 UNL     1       1.682   0.399   4.543  1.00  0.00     0.157 HD
ENDBRANCH   6  25
BRANCH   1  28
HETATM   28  C6  UNL     1      -3.465  -0.680   0.141  1.00  0.00     0.186 C 
HETATM   29  O1  UNL     1      -2.869  -0.195  -0.995  1.00  0.00    -0.378 OA
HETATM   30  C5  UNL     1      -3.680  -0.326  -2.125  1.00  0.00     0.199 C 
HETATM   31  C4  UNL     1      -4.930  -1.108  -1.835  1.00  0.00     0.298 C 
HETATM   32  N1  UNL     1      -5.733  -0.519  -0.774  1.00  0.00     0.093 N 
HETATM   33  C21 UNL     1      -4.881  -0.178   0.322  1.00  0.00     0.309 C 
BRANCH  32  34
HETATM   34  C3  UNL     1      -6.508   0.588  -1.288  1.00  0.00     0.272 C 
BRANCH  34  35
HETATM   35  C2  UNL     1      -7.370   1.134  -0.179  1.00  0.00     0.026 C 
HETATM   36  C1  UNL     1      -8.297   0.044   0.323  1.00  0.00     0.007 C 
ENDBRANCH  34  35
ENDBRANCH  32  34
ENDBRANCH   1  28
TORSDOF 8
