REMARK  6 active torsions:
REMARK  status: ('A' for Active; 'I' for Inactive)
REMARK    1  A    between atoms: C5_14  and  C6_15 
REMARK    2  A    between atoms: C6_15  and  C7_16 
REMARK    3  A    between atoms: C9_18  and  N5_19 
REMARK    4  A    between atoms: N5_19  and  S1_21 
REMARK    5  A    between atoms: S1_21  and  C10_24 
REMARK    6  A    between atoms: C10_24  and  C11_25 
ROOT
HETATM    1  C7  UNL     1      -1.962   1.070   0.551  1.00  0.00     0.017 A 
HETATM    2  C8  UNL     1      -1.210   0.086   0.044  1.00  0.00     0.055 A 
HETATM    3  C9  UNL     1      -0.236  -0.608   0.769  1.00  0.00     0.045 A 
HETATM    4  C17 UNL     1      -0.058  -0.241   2.078  1.00  0.00     0.047 A 
HETATM    5  C18 UNL     1      -0.843   0.787   2.609  1.00  0.00     0.090 A 
HETATM    6  N6  UNL     1      -1.751   1.403   1.859  1.00  0.00    -0.369 N 
ATOM      7  H6  UNL     1      -2.309   2.149   2.274  1.00  0.00     0.165 HD
ENDROOT
BRANCH   1   8
HETATM    8  C6  UNL     1      -3.030   1.866  -0.147  1.00  0.00     0.118 C 
BRANCH   8   9
HETATM    9  C5  UNL     1      -4.373   1.658   0.356  1.00  0.00     0.060 A 
HETATM   10  N4  UNL     1      -4.836   2.374   1.450  1.00  0.00    -0.302 N 
HETATM   11  N3  UNL     1      -6.023   1.972   1.802  1.00  0.00    -0.293 N 
ATOM     12  H4  UNL     1      -4.316   3.117   1.917  1.00  0.00     0.186 HD
HETATM   13  C4  UNL     1      -6.411   0.986   0.978  1.00  0.00     0.145 A 
ATOM     14  H3  UNL     1      -6.570   2.346   2.578  1.00  0.00     0.187 HD
HETATM   15  C3  UNL     1      -7.568   0.227   0.897  1.00  0.00     0.280 A 
HETATM   16  C19 UNL     1      -5.372   0.788   0.063  1.00  0.00     0.096 A 
HETATM   17  N2  UNL     1      -7.638  -0.685  -0.086  1.00  0.00    -0.273 N 
HETATM   18  O2  UNL     1      -8.494   0.425   1.739  1.00  0.00    -0.265 OA
HETATM   19  C2  UNL     1      -6.629  -0.859  -0.957  1.00  0.00     0.329 A 
ATOM     20  H2  UNL     1      -8.476  -1.259  -0.174  1.00  0.00     0.173 HD
HETATM   21  N1  UNL     1      -5.476  -0.129  -0.906  1.00  0.00    -0.300 N 
HETATM   22  O1  UNL     1      -6.748  -1.731  -1.861  1.00  0.00    -0.246 OA
HETATM   23  C1  UNL     1      -4.443  -0.300  -1.889  1.00  0.00     0.161 C 
ENDBRANCH   8   9
ENDBRANCH   1   8
BRANCH   3  24
HETATM   24  N5  UNL     1       0.524  -1.638   0.139  1.00  0.00    -0.284 N 
ATOM     25  H5  UNL     1       0.050  -2.348  -0.420  1.00  0.00     0.178 HD
BRANCH  24  26
HETATM   26  S1  UNL     1       2.236  -1.691   0.316  1.00  0.00     0.231 S 
HETATM   27  O3  UNL     1       2.720  -2.886  -0.479  1.00  0.00    -0.206 OA
HETATM   28  O4  UNL     1       2.543  -1.860   1.771  1.00  0.00    -0.206 OA
BRANCH  26  29
HETATM   29  C10 UNL     1       2.865  -0.190  -0.370  1.00  0.00     0.168 C 
BRANCH  29  30
HETATM   30  C11 UNL     1       4.342  -0.038  -0.317  1.00  0.00     0.001 C 
HETATM   31  C12 UNL     1       5.070  -1.144  -1.071  1.00  0.00     0.005 C 
HETATM   32  C13 UNL     1       6.416  -0.574  -1.479  1.00  0.00     0.000 C 
HETATM   33  C14 UNL     1       7.063   0.137  -0.317  1.00  0.00     0.000 C 
HETATM   34  C15 UNL     1       6.426  -0.228   1.004  1.00  0.00     0.000 C 
HETATM   35  C16 UNL     1       4.948   0.142   1.026  1.00  0.00     0.005 C 
ENDBRANCH  29  30
ENDBRANCH  26  29
ENDBRANCH  24  26
ENDBRANCH   3  24
TORSDOF 6
