REMARK  8 active torsions:
REMARK  status: ('A' for Active; 'I' for Inactive)
REMARK    1  A    between atoms: C2_2  and  N1_3 
REMARK    2  A    between atoms: N1_3  and  C3_4 
REMARK    3  A    between atoms: N1_3  and  C5_6 
REMARK    4  A    between atoms: C5_6  and  C6_7 
REMARK    5  A    between atoms: C6_7  and  N2_8 
REMARK    6  A    between atoms: C12_21  and  N6_22 
REMARK    7  A    between atoms: N6_22  and  C13_24 
REMARK    8  A    between atoms: C13_24  and  C15_26 
ROOT
HETATM    1  N2  UNL     1      -2.505  -1.633  -0.435  1.00  0.00    -0.308 N 
HETATM    2  C7  UNL     1      -2.804  -2.906  -0.107  1.00  0.00     0.270 A 
HETATM    3  O1  UNL     1      -4.021  -3.237  -0.141  1.00  0.00    -0.266 OA
HETATM    4  C8  UNL     1      -1.865  -3.842   0.257  1.00  0.00     0.075 A 
HETATM    5  C9  UNL     1      -2.277  -5.244   0.609  1.00  0.00     0.074 C 
HETATM    6  N3  UNL     1      -0.580  -3.447   0.280  1.00  0.00    -0.340 N 
ATOM      7  H3  UNL     1       0.139  -4.120   0.546  1.00  0.00     0.167 HD
HETATM    8  C10 UNL     1      -0.212  -2.193  -0.037  1.00  0.00     0.134 A 
HETATM    9  N4  UNL     1       1.101  -1.814  -0.010  1.00  0.00    -0.326 N 
ATOM     10  H4  UNL     1       1.806  -2.500   0.258  1.00  0.00     0.169 HD
HETATM   11  C11 UNL     1       1.494  -0.569  -0.324  1.00  0.00     0.136 A 
HETATM   12  N5  UNL     1       2.809  -0.209  -0.295  1.00  0.00    -0.176 N 
ATOM     13  H5  UNL     1       3.508  -0.902  -0.026  1.00  0.00     0.186 HD
HETATM   14  C12 UNL     1       3.205   1.024  -0.609  1.00  0.00     0.681 A 
HETATM   15  N7  UNL     1       2.262   1.936  -0.965  1.00  0.00    -0.176 N 
ATOM     16  H7  UNL     1       2.559   2.881  -1.207  1.00  0.00     0.186 HD
HETATM   17  C19 UNL     1       0.939   1.634  -1.010  1.00  0.00     0.128 A 
HETATM   18  N8  UNL     1       0.078   2.530  -1.352  1.00  0.00    -0.384 N 
ATOM     19  H81 UNL     1      -0.916   2.303  -1.386  1.00  0.00     0.157 HD
ATOM     20  H82 UNL     1       0.375   3.476  -1.592  1.00  0.00     0.157 HD
HETATM   21  C20 UNL     1       0.537   0.356  -0.685  1.00  0.00     0.055 A 
HETATM   22  C21 UNL     1      -0.810  -0.021  -0.717  1.00  0.00     0.052 A 
HETATM   23  C22 UNL     1      -1.206  -1.295  -0.395  1.00  0.00     0.083 A 
ENDROOT
BRANCH  14  24
HETATM   24  N6  UNL     1       4.450   1.319  -0.580  1.00  0.00    -0.221 N 
ATOM     25  H6  UNL     1       4.715   2.273  -0.826  1.00  0.00     0.178 HD
BRANCH  24  26
HETATM   26  C13 UNL     1       5.498   0.411  -0.228  1.00  0.00     0.099 C 
HETATM   27  C14 UNL     1       5.742  -0.601  -1.351  1.00  0.00     0.033 C 
BRANCH  26  28
HETATM   28  C15 UNL     1       6.822   1.111  -0.015  1.00  0.00     0.008 C 
HETATM   29  C16 UNL     1       6.878   2.143   1.057  1.00  0.00     0.007 C 
HETATM   30  C17 UNL     1       7.716   1.214   1.897  1.00  0.00     0.001 C 
HETATM   31  C18 UNL     1       7.808   0.264   0.743  1.00  0.00     0.007 C 
ENDBRANCH  26  28
ENDBRANCH  24  26
ENDBRANCH  14  24
BRANCH   1  32
HETATM   32  C6  UNL     1      -3.551  -0.682  -0.825  1.00  0.00     0.163 C 
BRANCH  32  33
HETATM   33  C5  UNL     1      -4.070   0.019   0.375  1.00  0.00     0.292 C 
BRANCH  33  34
HETATM   34  N1  UNL     1      -5.064   1.012   0.197  1.00  0.00     0.089 N 
BRANCH  34  35
HETATM   35  C2  UNL     1      -6.357   0.618  -0.222  1.00  0.00     0.268 C 
HETATM   36  C1  UNL     1      -6.510   0.064  -1.589  1.00  0.00     0.037 C 
ENDBRANCH  34  35
BRANCH  34  37
HETATM   37  C3  UNL     1      -5.257   1.620   1.544  1.00  0.00     0.268 C 
HETATM   38  C4  UNL     1      -6.015   2.902   1.347  1.00  0.00     0.037 C 
ENDBRANCH  34  37
ENDBRANCH  33  34
ENDBRANCH  32  33
ENDBRANCH   1  32
TORSDOF 8
