REMARK  1 active torsions:
REMARK  status: ('A' for Active; 'I' for Inactive)
REMARK       I    between atoms: C1_4  and  N3_6 
REMARK    1  A    between atoms: N3_6  and  C2_8 
REMARK       I    between atoms: N7_15  and  C3_16 
ROOT
HETATM    1  C2  UNL     1       0.076   0.519  -0.207  1.00  0.00     0.727 A 
HETATM    2  N4  UNL     1       0.024   1.847  -0.349  1.00  0.00    -0.114 N 
ATOM      3  H4  UNL     1      -0.823   2.414  -0.308  1.00  0.00     0.207 HD
HETATM    4  N5  UNL     1       1.237   2.304  -0.549  1.00  0.00    -0.213 N 
ATOM      5  H5  UNL     1       1.492   3.282  -0.688  1.00  0.00     0.210 HD
HETATM    6  N6  UNL     1       2.071   1.283  -0.539  1.00  0.00    -0.203 N 
ATOM      7  H6  UNL     1       3.081   1.338  -0.671  1.00  0.00     0.211 HD
HETATM    8  N7  UNL     1       1.368   0.160  -0.326  1.00  0.00    -0.017 N 
HETATM    9  C3  UNL     1       1.937  -1.142  -0.251  1.00  0.00     0.370 C 
HETATM   10  N8  UNL     1       3.323  -1.341  -0.400  1.00  0.00    -0.037 NA
HETATM   11  O1  UNL     1       1.157  -2.109  -0.047  1.00  0.00    -0.248 OA
ENDROOT
BRANCH   1  12
HETATM   12  N3  UNL     1      -0.864  -0.324   0.003  1.00  0.00    -0.160 N 
HETATM   13  C1  UNL     1      -2.226  -0.049   0.141  1.00  0.00     0.200 C 
HETATM   14  N1  UNL     1      -2.728   0.801   0.978  1.00  0.00    -0.373 N 
HETATM   15  N2  UNL     1      -3.163  -0.738  -0.688  1.00  0.00    -0.063 NA
ATOM     16  H12 UNL     1      -3.723   1.002   1.079  1.00  0.00     0.158 HD
ATOM     17  H11 UNL     1      -2.059   1.293   1.570  1.00  0.00     0.158 HD
ATOM     18  H3  UNL     1      -0.588  -1.303   0.078  1.00  0.00     0.187 HD
ENDBRANCH   1  12
TORSDOF 1
