REMARK  3 active torsions:
REMARK  status: ('A' for Active; 'I' for Inactive)
REMARK    1  A    between atoms: N2_4  and  N3_6 
REMARK    2  A    between atoms: N3_6  and  C1_8 
REMARK    3  A    between atoms: C4_17  and  N7_18 
ROOT
HETATM    1  C1  UNL     1      -0.616  -0.463  -0.251  1.00  0.00     0.721 C 
HETATM    2  N4  UNL     1       0.284  -1.394  -0.170  1.00  0.00    -0.221 N 
ATOM      3  H4  UNL     1      -0.052  -2.312  -0.460  1.00  0.00     0.177 HD
HETATM    4  C2  UNL     1       1.658  -1.391   0.246  1.00  0.00     0.159 C 
HETATM    5  C3  UNL     1       2.455  -0.259  -0.351  1.00  0.00     0.163 C 
HETATM    6  N5  UNL     1       2.054   1.034   0.112  1.00  0.00    -0.292 N 
ATOM      7  H5  UNL     1       2.806   1.670   0.378  1.00  0.00     0.184 HD
HETATM    8  N6  UNL     1       0.746   1.532   0.244  1.00  0.00    -0.064 N 
HETATM    9  O1  UNL     1       0.068   2.607   0.518  1.00  0.00    -0.160 OA
HETATM   10  C4  UNL     1      -1.101   2.030   0.379  1.00  0.00     0.286 A 
HETATM   11  N8  UNL     1      -0.413   0.910   0.093  1.00  0.00    -0.002 N 
ENDROOT
BRANCH   1  12
HETATM   12  N3  UNL     1      -1.907  -0.821  -0.715  1.00  0.00    -0.116 N 
ATOM     13  H3  UNL     1      -2.313  -0.287  -1.483  1.00  0.00     0.207 HD
BRANCH  12  14
HETATM   14  N2  UNL     1      -2.653  -1.879  -0.164  1.00  0.00    -0.235 N 
HETATM   15  N1  UNL     1      -2.878  -1.972   1.086  1.00  0.00    -0.330 N 
ATOM     16  H12 UNL     1      -2.498  -1.247   1.694  1.00  0.00     0.178 HD
ATOM     17  H11 UNL     1      -3.419  -2.739   1.485  1.00  0.00     0.178 HD
ATOM     18  H2  UNL     1      -3.026  -2.596  -0.787  1.00  0.00     0.208 HD
ENDBRANCH  12  14
ENDBRANCH   1  12
BRANCH  10  19
HETATM   19  N7  UNL     1      -2.366   2.358   0.468  1.00  0.00    -0.361 N 
ATOM     20  H72 UNL     1      -2.888   3.207   0.685  1.00  0.00     0.159 HD
ATOM     21  H71 UNL     1      -3.275   1.909   0.360  1.00  0.00     0.159 HD
ENDBRANCH  10  19
TORSDOF 3
