REMARK  1 active torsions:
REMARK  status: ('A' for Active; 'I' for Inactive)
REMARK       I    between atoms: C1_2  and  N2_4 
REMARK    1  A    between atoms: N2_4  and  N3_5 
ROOT
HETATM    1  N3  UNL     1      -0.977   0.482   0.296  1.00  0.00    -0.059 N 
ATOM      2  H3  UNL     1      -1.003   1.043   1.148  1.00  0.00     0.221 HD
HETATM    3  C2  UNL     1       0.207   0.223   0.220  1.00  0.00     0.721 A 
HETATM    4  N4  UNL     1       1.059   0.695   1.185  1.00  0.00    -0.195 N 
ATOM      5  H4  UNL     1       0.691   1.252   1.956  1.00  0.00     0.183 HD
HETATM    6  C3  UNL     1       2.368   0.431   1.123  1.00  0.00     0.152 A 
HETATM    7  C4  UNL     1       2.855  -0.327   0.068  1.00  0.00     0.147 A 
HETATM    8  N5  UNL     1       4.247  -0.597   0.023  1.00  0.00    -0.080 NA
HETATM    9  N6  UNL     1       2.020  -0.800  -0.894  1.00  0.00    -0.272 N 
ATOM     10  H6  UNL     1       2.374  -1.358  -1.671  1.00  0.00     0.189 HD
HETATM   11  N7  UNL     1       0.731  -0.513  -0.790  1.00  0.00    -0.129 N 
ATOM     12  H7  UNL     1       0.099  -0.865  -1.509  1.00  0.00     0.205 HD
ENDROOT
BRANCH   1  13
HETATM   13  N2  UNL     1      -2.194   0.481  -0.035  1.00  0.00    -0.253 NA
HETATM   14  C1  UNL     1      -3.495   0.481  -0.388  1.00  0.00     0.424 C 
HETATM   15  N1  UNL     1      -4.271   1.622   0.109  1.00  0.00    -0.024 NA
HETATM   16  O1  UNL     1      -4.161  -0.348  -1.087  1.00  0.00    -0.232 OA
ENDBRANCH   1  13
TORSDOF 1
