REMARK  2 active torsions:
REMARK  status: ('A' for Active; 'I' for Inactive)
REMARK    1  A    between atoms: C5_10  and  C6_11 
REMARK       I    between atoms: C6_11  and  N5_13 
REMARK    2  A    between atoms: N5_13  and  N6_15 
ROOT
HETATM    1  C1  UNL     1      -1.178  -1.664   1.369  1.00  0.00     0.178 C 
HETATM    2  N1  UNL     1       0.058  -1.140   0.792  1.00  0.00    -0.289 N 
HETATM    3  N2  UNL     1       1.274  -1.686   1.000  1.00  0.00    -0.287 N 
ATOM      4  H2  UNL     1       1.453  -2.510   1.574  1.00  0.00     0.188 HD
HETATM    5  C2  UNL     1       2.204  -0.996   0.349  1.00  0.00     0.155 A 
HETATM    6  C3  UNL     1       3.639  -1.250   0.309  1.00  0.00     0.121 C 
HETATM    7  N3  UNL     1       4.774  -1.446   0.261  1.00  0.00    -0.190 NA
HETATM    8  C4  UNL     1       1.538   0.018  -0.287  1.00  0.00     0.119 A 
HETATM    9  N4  UNL     1       2.133   1.012  -1.106  1.00  0.00    -0.097 NA
HETATM   10  C5  UNL     1       0.165  -0.073  -0.004  1.00  0.00     0.147 A 
ENDROOT
BRANCH  10  11
HETATM   11  C6  UNL     1      -0.854   0.843  -0.513  1.00  0.00     0.289 C 
HETATM   12  O1  UNL     1      -0.406   1.793  -1.278  1.00  0.00    -0.264 OA
HETATM   13  N5  UNL     1      -2.226   0.805  -0.269  1.00  0.00    -0.271 N 
ATOM     14  H5  UNL     1      -2.634   0.082   0.324  1.00  0.00     0.189 HD
BRANCH  13  15
HETATM   15  N6  UNL     1      -3.037   1.798  -0.867  1.00  0.00    -0.342 N 
ATOM     16  H62 UNL     1      -2.614   2.514  -1.457  1.00  0.00     0.176 HD
ATOM     17  H61 UNL     1      -4.041   1.770  -0.688  1.00  0.00     0.176 HD
ENDBRANCH  13  15
ENDBRANCH  10  11
TORSDOF 2
