REMARK  4 active torsions:
REMARK  status: ('A' for Active; 'I' for Inactive)
REMARK    1  A    between atoms: N1_1  and  C1_4 
REMARK    2  A    between atoms: C3_13  and  N6_14 
REMARK    3  A    between atoms: N6_14  and  O1_16 
REMARK    4  A    between atoms: O1_16  and  C4_17 
ROOT
HETATM    1  C1  UNL     1      -0.323   1.366  -0.707  1.00  0.00     0.149 A 
HETATM    2  N2  UNL     1      -1.555   1.291  -0.190  1.00  0.00    -0.313 N 
ATOM      3  H2  UNL     1      -2.174   2.099  -0.263  1.00  0.00     0.170 HD
HETATM    4  C2  UNL     1      -2.000   0.177   0.424  1.00  0.00     0.208 A 
HETATM    5  N3  UNL     1      -3.312   0.101   0.972  1.00  0.00    -0.062 NA
HETATM    6  N4  UNL     1      -1.139  -0.856   0.489  1.00  0.00    -0.272 N 
ATOM      7  H4  UNL     1      -1.443  -1.716   0.946  1.00  0.00     0.189 HD
HETATM    8  N5  UNL     1       0.084  -0.806  -0.014  1.00  0.00    -0.279 N 
ATOM      9  H5  UNL     1       0.690  -1.622   0.067  1.00  0.00     0.189 HD
HETATM   10  C3  UNL     1       0.547   0.298  -0.631  1.00  0.00     0.185 A 
ENDROOT
BRANCH  10  11
HETATM   11  N6  UNL     1       1.729   0.390  -1.135  1.00  0.00    -0.234 N 
ATOM     12  H6  UNL     1       2.025   1.252  -1.592  1.00  0.00     0.197 HD
BRANCH  11  13
HETATM   13  O1  UNL     1       2.592  -0.681  -1.054  1.00  0.00    -0.171 OA
BRANCH  13  14
HETATM   14  C4  UNL     1       3.341  -0.932   0.107  1.00  0.00     0.355 C 
HETATM   15  O2  UNL     1       3.148  -0.093   1.048  1.00  0.00    -0.622 OA
HETATM   16  O3  UNL     1       4.212  -1.992   0.223  1.00  0.00    -0.622 OA
ENDBRANCH  13  14
ENDBRANCH  11  13
ENDBRANCH  10  11
BRANCH   1  17
HETATM   17  N1  UNL     1       0.080   2.444  -1.290  1.00  0.00    -0.382 N 
ATOM     18  H12 UNL     1      -0.563   3.234  -1.346  1.00  0.00     0.157 HD
ATOM     19  H11 UNL     1       1.019   2.501  -1.684  1.00  0.00     0.157 HD
ENDBRANCH   1  17
TORSDOF 4
