REMARK  8 active torsions:
REMARK  status: ('A' for Active; 'I' for Inactive)
REMARK    1  A    between atoms: C2_2  and  C3_3 
REMARK    2  A    between atoms: C3_3  and  N1_4 
REMARK    3  A    between atoms: C3_3  and  C4_8 
REMARK    4  A    between atoms: C4_8  and  O1_9 
REMARK    5  A    between atoms: C4_8  and  C5_11 
REMARK    6  A    between atoms: C5_11  and  O2_12 
REMARK    7  A    between atoms: C5_11  and  C6_14 
REMARK    8  A    between atoms: C6_14  and  C7_15 
ROOT
HETATM    1  C5  UNL     1      -0.077  -0.672   0.658  1.00  0.00     0.162 C 
ENDROOT
BRANCH   1   2
HETATM    2  C4  UNL     1      -1.346  -1.407   0.533  1.00  0.00     0.178 C 
BRANCH   2   3
HETATM    3  C3  UNL     1      -2.569  -0.552   0.251  1.00  0.00     0.214 C 
BRANCH   3   4
HETATM    4  C2  UNL     1      -2.463   0.795   0.949  1.00  0.00     0.031 C 
HETATM    5  C1  UNL     1      -3.784   1.503   0.729  1.00  0.00     0.007 C 
ENDBRANCH   3   4
BRANCH   3   6
HETATM    6  N1  UNL     1      -2.818  -0.266  -1.118  1.00  0.00    -0.072 N 
ATOM      7  H13 UNL     1      -3.629   0.334  -1.267  1.00  0.00     0.274 HD
ATOM      8  H12 UNL     1      -2.126   0.355  -1.536  1.00  0.00     0.274 HD
ATOM      9  H11 UNL     1      -2.889  -1.169  -1.586  1.00  0.00     0.274 HD
ENDBRANCH   3   6
ENDBRANCH   2   3
BRANCH   2  10
HETATM   10  O1  UNL     1      -1.380  -2.616  -0.067  1.00  0.00    -0.391 OA
ATOM     11  H1  UNL     1      -0.615  -3.151   0.109  1.00  0.00     0.210 HD
ENDBRANCH   2  10
ENDBRANCH   1   2
BRANCH   1  12
HETATM   12  O2  UNL     1       0.763  -1.504   1.489  1.00  0.00    -0.392 OA
ATOM     13  H2  UNL     1       1.582  -1.030   1.570  1.00  0.00     0.210 HD
ENDBRANCH   1  12
BRANCH   1  14
HETATM   14  C6  UNL     1       0.781  -0.441  -0.535  1.00  0.00     0.015 A 
HETATM   15  C13 UNL     1       1.327  -1.783  -1.095  1.00  0.00     0.018 A 
HETATM   16  C14 UNL     1       0.550  -0.767  -1.906  1.00  0.00     0.018 A 
BRANCH  14  17
HETATM   17  C7  UNL     1       1.997   0.393  -0.188  1.00  0.00    -0.047 A 
HETATM   18  C8  UNL     1       2.931   0.685  -1.158  1.00  0.00     0.008 A 
HETATM   19  C9  UNL     1       4.067   1.450  -0.895  1.00  0.00     0.001 A 
HETATM   20  C10 UNL     1       4.270   1.930   0.360  1.00  0.00     0.000 A 
HETATM   21  C11 UNL     1       3.366   1.663   1.356  1.00  0.00     0.001 A 
HETATM   22  C12 UNL     1       2.251   0.900   1.050  1.00  0.00     0.008 A 
ENDBRANCH  14  17
ENDBRANCH   1  14
TORSDOF 8
