REMARK  6 active torsions:
REMARK  status: ('A' for Active; 'I' for Inactive)
REMARK    1  A    between atoms: C4_4  and  N1_5 
REMARK    2  A    between atoms: N1_5  and  C5_7 
REMARK    3  A    between atoms: C5_7  and  C6_8 
REMARK    4  A    between atoms: C6_8  and  O1_9 
REMARK    5  A    between atoms: O1_9  and  C7_10 
REMARK    6  A    between atoms: C13_18  and  N3_19 
ROOT
HETATM    1  C1  UNL     1       5.593   0.616   0.760  1.00  0.00     0.069 C 
HETATM    2  C2  UNL     1       4.289   0.184   0.190  1.00  0.00     0.026 A 
HETATM    3  C3  UNL     1       3.291   1.087  -0.126  1.00  0.00     0.073 A 
HETATM    4  C4  UNL     1       2.081   0.702  -0.653  1.00  0.00     0.118 A 
HETATM    5  N2  UNL     1       1.880  -0.606  -0.861  1.00  0.00    -0.177 N 
ATOM      6  H2  UNL     1       0.991  -0.919  -1.251  1.00  0.00     0.185 HD
HETATM    7  C13 UNL     1       2.841  -1.529  -0.561  1.00  0.00     0.677 A 
HETATM    8  N4  UNL     1       4.013  -1.118  -0.047  1.00  0.00    -0.196 N 
ATOM      9  H4  UNL     1       4.723  -1.817   0.173  1.00  0.00     0.184 HD
ENDROOT
BRANCH   4  10
HETATM   10  N1  UNL     1       1.155   1.527  -0.948  1.00  0.00    -0.374 N 
ATOM     11  H1  UNL     1       1.357   2.511  -0.771  1.00  0.00     0.161 HD
BRANCH  10  12
HETATM   12  C5  UNL     1      -0.126   1.240  -1.494  1.00  0.00     0.148 C 
BRANCH  12  13
HETATM   13  C6  UNL     1      -1.087   0.848  -0.414  1.00  0.00     0.195 C 
BRANCH  13  14
HETATM   14  O1  UNL     1      -2.370   0.556  -0.922  1.00  0.00    -0.350 OA
BRANCH  14  15
HETATM   15  C7  UNL     1      -3.440   0.172  -0.166  1.00  0.00     0.068 A 
HETATM   16  C8  UNL     1      -3.336   0.040   1.196  1.00  0.00     0.037 A 
HETATM   17  C9  UNL     1      -4.434  -0.348   1.928  1.00  0.00     0.003 A 
HETATM   18  C10 UNL     1      -5.644  -0.609   1.324  1.00  0.00     0.000 A 
HETATM   19  C11 UNL     1      -5.762  -0.480  -0.044  1.00  0.00     0.003 A 
HETATM   20  C12 UNL     1      -4.649  -0.090  -0.759  1.00  0.00     0.037 A 
ENDBRANCH  14  15
ENDBRANCH  13  14
ENDBRANCH  12  13
ENDBRANCH  10  12
ENDBRANCH   4  10
BRANCH   7  21
HETATM   21  N3  UNL     1       2.599  -2.758  -0.777  1.00  0.00    -0.234 N 
ATOM     22  H32 UNL     1       1.710  -3.070  -1.167  1.00  0.00     0.174 HD
ATOM     23  H31 UNL     1       3.317  -3.447  -0.553  1.00  0.00     0.174 HD
ENDBRANCH   7  21
TORSDOF 6
