REMARK  4 active torsions:
REMARK  status: ('A' for Active; 'I' for Inactive)
REMARK    1  A    between atoms: O1_2  and  C2_3 
REMARK    2  A    between atoms: C5_6  and  C6_7 
REMARK    3  A    between atoms: C6_7  and  N1_8 
REMARK       I    between atoms: N1_8  and  C9_11 
REMARK    4  A    between atoms: C11_17  and  O2_18 
ROOT
HETATM    1  C2  UNL     1       2.654  -0.330   0.653  1.00  0.00     0.101 A 
HETATM    2  C3  UNL     1       1.795  -1.391   0.843  1.00  0.00     0.040 A 
HETATM    3  C4  UNL     1       0.555  -1.430   0.202  1.00  0.00     0.012 A 
HETATM    4  C5  UNL     1       0.149  -0.414  -0.637  1.00  0.00    -0.029 A 
HETATM    5  C10 UNL     1       1.019   0.641  -0.817  1.00  0.00     0.048 A 
HETATM    6  C11 UNL     1       2.255   0.685  -0.182  1.00  0.00     0.102 A 
ENDROOT
BRANCH   4   7
HETATM    7  C6  UNL     1      -1.175  -0.498  -1.295  1.00  0.00     0.284 C 
BRANCH   7   8
HETATM    8  N1  UNL     1      -2.230   0.089  -0.536  1.00  0.00    -0.013 N 
HETATM    9  C7  UNL     1      -1.771   0.996   0.496  1.00  0.00     0.282 C 
HETATM   10  C8  UNL     1      -3.057   0.882  -1.445  1.00  0.00     0.282 C 
HETATM   11  C9  UNL     1      -3.096  -0.862   0.072  1.00  0.00     0.286 C 
HETATM   12  N2  UNL     1      -4.150  -1.258  -0.548  1.00  0.00    -0.367 N 
HETATM   13  N3  UNL     1      -2.837  -1.402   1.361  1.00  0.00    -0.057 NA
ATOM     14  H22 UNL     1      -4.336  -0.870  -1.473  1.00  0.00     0.158 HD
ATOM     15  H21 UNL     1      -4.771  -1.940  -0.112  1.00  0.00     0.158 HD
ENDBRANCH   7   8
ENDBRANCH   4   7
BRANCH   6  16
HETATM   16  O2  UNL     1       3.099   1.765  -0.391  1.00  0.00    -0.353 OA
HETATM   17  C12 UNL     1       2.703   2.818  -1.248  1.00  0.00     0.210 C 
ENDBRANCH   6  16
BRANCH   1  18
HETATM   18  O1  UNL     1       3.905  -0.292   1.301  1.00  0.00    -0.353 OA
HETATM   19  C1  UNL     1       4.272  -1.369   2.157  1.00  0.00     0.210 C 
ENDBRANCH   1  18
TORSDOF 4
