REMARK  7 active torsions:
REMARK  status: ('A' for Active; 'I' for Inactive)
REMARK    1  A    between atoms: O1_2  and  C2_3 
REMARK    2  A    between atoms: C2_3  and  N1_4 
REMARK    3  A    between atoms: C2_3  and  N2_8 
REMARK    4  A    between atoms: N2_8  and  C3_10 
REMARK    5  A    between atoms: C4_13  and  C5_14 
REMARK    6  A    between atoms: C5_14  and  C6_15 
REMARK    7  A    between atoms: C6_15  and  C7_16 
ROOT
HETATM    1  C3  UNL     1       2.287   0.466  -0.234  1.00  0.00     0.697 A 
HETATM    2  N3  UNL     1       1.072   1.062  -0.177  1.00  0.00    -0.178 N 
ATOM      3  H3  UNL     1       0.876   1.971   0.242  1.00  0.00     0.185 HD
HETATM    4  C4  UNL     1       0.168   0.261  -0.762  1.00  0.00     0.112 A 
HETATM    5  N4  UNL     1       0.853  -0.833  -1.175  1.00  0.00    -0.274 N 
ATOM      6  H4  UNL     1       0.449  -1.635  -1.659  1.00  0.00     0.189 HD
HETATM    7  N5  UNL     1       2.129  -0.696  -0.851  1.00  0.00    -0.131 N 
ATOM      8  H5  UNL     1       2.868  -1.372  -1.044  1.00  0.00     0.205 HD
ENDROOT
BRANCH   1   9
HETATM    9  N2  UNL     1       3.360   0.969   0.234  1.00  0.00    -0.173 N 
ATOM     10  H2  UNL     1       3.308   1.883   0.684  1.00  0.00     0.182 HD
BRANCH   9  11
HETATM   11  C2  UNL     1       4.642   0.318   0.162  1.00  0.00     0.440 C 
BRANCH  11  12
HETATM   12  O1  UNL     1       4.920  -0.182   1.444  1.00  0.00    -0.349 OA
HETATM   13  C1  UNL     1       5.039  -1.565   1.432  1.00  0.00     0.206 C 
ENDBRANCH  11  12
BRANCH  11  14
HETATM   14  N1  UNL     1       5.634   1.303  -0.235  1.00  0.00    -0.034 N 
ATOM     15  H13 UNL     1       5.718   2.052   0.452  1.00  0.00     0.279 HD
ATOM     16  H12 UNL     1       6.581   0.930  -0.173  1.00  0.00     0.279 HD
ATOM     17  H11 UNL     1       5.432   1.666  -1.166  1.00  0.00     0.279 HD
ENDBRANCH  11  14
ENDBRANCH   9  11
ENDBRANCH   1   9
BRANCH   4  18
HETATM   18  C5  UNL     1      -1.303   0.506  -0.932  1.00  0.00     0.083 C 
BRANCH  18  19
HETATM   19  C6  UNL     1      -1.979  -0.063   0.286  1.00  0.00     0.046 C 
BRANCH  19  20
HETATM   20  C7  UNL     1      -3.440   0.104   0.264  1.00  0.00    -0.058 A 
HETATM   21  C8  UNL     1      -3.964   1.264   0.825  1.00  0.00     0.007 A 
HETATM   22  C9  UNL     1      -5.347   1.455   0.821  1.00  0.00     0.001 A 
HETATM   23  C10 UNL     1      -6.181   0.507   0.269  1.00  0.00     0.000 A 
HETATM   24  C11 UNL     1      -5.634  -0.628  -0.277  1.00  0.00     0.001 A 
HETATM   25  C12 UNL     1      -4.254  -0.840  -0.285  1.00  0.00     0.007 A 
ENDBRANCH  19  20
ENDBRANCH  18  19
ENDBRANCH   4  18
TORSDOF 7
