REMARK  12 active torsions:
REMARK  status: ('A' for Active; 'I' for Inactive)
REMARK    1  A    between atoms: C2_2  and  C3_3 
REMARK    2  A    between atoms: C3_3  and  N1_4 
REMARK       I    between atoms: N1_4  and  C4_6 
REMARK    3  A    between atoms: C4_6  and  C5_8 
REMARK    4  A    between atoms: C8_16  and  C9_17 
REMARK    5  A    between atoms: C9_17  and  C10_18 
REMARK    6  A    between atoms: C10_18  and  C11_19 
REMARK    7  A    between atoms: C13_22  and  N3_23 
REMARK       I    between atoms: N3_23  and  C14_25 
REMARK    8  A    between atoms: C14_25  and  C15_27 
REMARK    9  A    between atoms: C15_27  and  C16_28 
REMARK   10  A    between atoms: C18_30  and  O5_31 
REMARK   11  A    between atoms: C20_33  and  O6_34 
REMARK   12  A    between atoms: C22_36  and  O7_37 
ROOT
HETATM    1  C11 UNL     1      -0.960  -0.196  -0.219  1.00  0.00     0.018 A 
HETATM    2  C12 UNL     1      -0.311  -0.858   0.784  1.00  0.00     0.078 A 
HETATM    3  S2  UNL     1       1.329  -0.565   0.419  1.00  0.00    -0.064 SA
HETATM    4  C13 UNL     1       1.106   0.379  -0.980  1.00  0.00     0.151 A 
HETATM    5  N4  UNL     1      -0.219   0.431  -1.111  1.00  0.00    -0.340 N 
ATOM      6  H4  UNL     1      -0.649   0.943  -1.882  1.00  0.00     0.168 HD
ENDROOT
BRANCH   1   7
HETATM    7  C10 UNL     1      -2.484  -0.198  -0.286  1.00  0.00     0.059 C 
BRANCH   7   8
HETATM    8  C9  UNL     1      -2.965  -1.362  -1.085  1.00  0.00     0.033 C 
BRANCH   8   9
HETATM    9  C8  UNL     1      -4.428  -1.503  -1.267  1.00  0.00     0.111 C 
HETATM   10  C5  UNL     1      -5.244  -1.663  -0.059  1.00  0.00     0.072 C 
HETATM   11  C6  UNL     1      -4.652  -2.601   0.973  1.00  0.00     0.029 C 
HETATM   12  C7  UNL     1      -6.590  -2.271  -0.426  1.00  0.00     0.184 C 
HETATM   13  S1  UNL     1      -6.290  -2.945  -2.029  1.00  0.00     0.228 S 
HETATM   14  O2  UNL     1      -6.587  -4.417  -2.086  1.00  0.00    -0.206 OA
HETATM   15  O3  UNL     1      -7.097  -2.209  -3.036  1.00  0.00    -0.206 OA
HETATM   16  N2  UNL     1      -4.617  -2.649  -2.153  1.00  0.00    -0.313 N 
ATOM     17  H2  UNL     1      -3.921  -3.148  -2.707  1.00  0.00     0.172 HD
BRANCH  10  18
HETATM   18  C4  UNL     1      -5.577  -0.370   0.593  1.00  0.00     0.229 C 
HETATM   19  N1  UNL     1      -6.064   0.771  -0.091  1.00  0.00    -0.360 N 
ATOM     20  H1  UNL     1      -6.185   0.679  -1.100  1.00  0.00     0.162 HD
HETATM   21  O1  UNL     1      -5.419  -0.275   1.836  1.00  0.00    -0.273 OA
BRANCH  19  22
HETATM   22  C3  UNL     1      -6.403   2.032   0.477  1.00  0.00     0.122 C 
BRANCH  22  23
HETATM   23  C2  UNL     1      -7.507   1.911   1.472  1.00  0.00     0.015 C 
HETATM   24  C1  UNL     1      -7.873   3.263   2.070  1.00  0.00     0.006 C 
ENDBRANCH  22  23
ENDBRANCH  19  22
ENDBRANCH  10  18
ENDBRANCH   8   9
ENDBRANCH   7   8
ENDBRANCH   1   7
BRANCH   4  25
HETATM   25  N3  UNL     1       2.005   0.939  -1.768  1.00  0.00    -0.307 N 
HETATM   26  C14 UNL     1       3.357   0.742  -1.422  1.00  0.00     0.227 C 
HETATM   27  O4  UNL     1       4.080  -0.023  -2.108  1.00  0.00    -0.273 OA
ATOM     28  H3  UNL     1       1.735   1.486  -2.585  1.00  0.00     0.171 HD
BRANCH  26  29
HETATM   29  C15 UNL     1       3.918   1.440  -0.248  1.00  0.00     0.141 C 
BRANCH  29  30
HETATM   30  C16 UNL     1       5.346   1.096  -0.059  1.00  0.00    -0.044 A 
HETATM   31  C17 UNL     1       6.315   1.865  -0.667  1.00  0.00     0.047 A 
HETATM   32  C18 UNL     1       7.646   1.543  -0.491  1.00  0.00     0.104 A 
HETATM   33  C20 UNL     1       8.022   0.474   0.278  1.00  0.00     0.135 A 
HETATM   34  C22 UNL     1       7.020  -0.281   0.878  1.00  0.00     0.104 A 
HETATM   35  C24 UNL     1       5.693   0.022   0.715  1.00  0.00     0.047 A 
BRANCH  32  36
HETATM   36  O5  UNL     1       8.611   2.347  -1.125  1.00  0.00    -0.353 OA
HETATM   37  C19 UNL     1       8.233   3.453  -1.921  1.00  0.00     0.210 C 
ENDBRANCH  32  36
BRANCH  33  38
HETATM   38  O6  UNL     1       9.367   0.186   0.429  1.00  0.00    -0.351 OA
HETATM   39  C21 UNL     1      10.077  -0.683  -0.449  1.00  0.00     0.210 C 
ENDBRANCH  33  38
BRANCH  34  40
HETATM   40  O7  UNL     1       7.396  -1.361   1.655  1.00  0.00    -0.353 OA
HETATM   41  C23 UNL     1       6.494  -2.205   2.316  1.00  0.00     0.210 C 
ENDBRANCH  34  40
ENDBRANCH  29  30
ENDBRANCH  26  29
ENDBRANCH   4  25
TORSDOF 12
