REMARK  11 active torsions:
REMARK  status: ('A' for Active; 'I' for Inactive)
REMARK    1  A    between atoms: C2_2  and  C3_3 
REMARK    2  A    between atoms: C3_3  and  C4_4 
REMARK    3  A    between atoms: C4_4  and  C5_5 
REMARK    4  A    between atoms: C5_5  and  N1_6 
REMARK    5  A    between atoms: C10_13  and  N3_14 
REMARK       I    between atoms: N3_14  and  C11_16 
REMARK    6  A    between atoms: C11_16  and  C12_18 
REMARK    7  A    between atoms: C12_18  and  S1_19 
REMARK    8  A    between atoms: S1_19  and  C13_20 
REMARK    9  A    between atoms: C13_20  and  C14_21 
REMARK       I    between atoms: C14_21  and  N4_23 
REMARK   10  A    between atoms: N4_23  and  C15_25 
REMARK   11  A    between atoms: C15_25  and  C16_26 
ROOT
HETATM    1  N3  UNL     1       0.162   0.850  -0.476  1.00  0.00    -0.323 N 
ATOM      2  H3  UNL     1       0.399   1.607   0.165  1.00  0.00     0.169 HD
HETATM    3  C11 UNL     1       1.096   0.517  -1.457  1.00  0.00     0.231 C 
HETATM    4  O2  UNL     1       0.919  -0.367  -2.297  1.00  0.00    -0.272 OA
ENDROOT
BRANCH   1   5
HETATM    5  C10 UNL     1      -1.083   0.217  -0.307  1.00  0.00     0.086 C 
HETATM    6  C9  UNL     1      -1.319  -0.915  -1.053  1.00  0.00     0.043 C 
HETATM    7  C8  UNL     1      -2.526  -1.231  -1.698  1.00  0.00    -0.026 C 
HETATM    8  C7  UNL     1      -3.775  -0.793  -1.290  1.00  0.00     0.072 A 
HETATM    9  C26 UNL     1      -2.381  -2.087  -2.876  1.00  0.00     0.042 C 
HETATM   10  N2  UNL     1      -4.906  -1.144  -1.946  1.00  0.00    -0.297 N 
HETATM   11  C25 UNL     1      -4.157   0.015  -0.225  1.00  0.00     0.070 A 
HETATM   12  C6  UNL     1      -5.932  -0.566  -1.297  1.00  0.00     0.330 A 
HETATM   13  C28 UNL     1      -4.819  -1.995  -3.119  1.00  0.00     0.134 C 
HETATM   14  N1  UNL     1      -5.489   0.142  -0.246  1.00  0.00    -0.297 N 
HETATM   15  O1  UNL     1      -7.149  -0.666  -1.616  1.00  0.00    -0.246 OA
HETATM   16  C27 UNL     1      -3.630  -2.944  -3.007  1.00  0.00     0.025 C 
HETATM   17  C24 UNL     1      -3.347   0.617   0.720  1.00  0.00     0.089 C 
HETATM   18  C23 UNL     1      -1.978   0.777   0.630  1.00  0.00     0.200 C 
HETATM   19  O5  UNL     1      -1.445   1.503   1.471  1.00  0.00    -0.286 OA
BRANCH  14  20
HETATM   20  C5  UNL     1      -6.366   0.907   0.675  1.00  0.00     0.134 C 
BRANCH  20  21
HETATM   21  C4  UNL     1      -6.784  -0.013   1.783  1.00  0.00     0.020 C 
BRANCH  21  22
HETATM   22  C3  UNL     1      -7.628   0.492   2.866  1.00  0.00     0.001 C 
BRANCH  22  23
HETATM   23  C2  UNL     1      -8.980   1.039   2.572  1.00  0.00    -0.004 C 
HETATM   24  C1  UNL     1      -8.951   2.274   1.724  1.00  0.00     0.005 C 
ENDBRANCH  22  23
ENDBRANCH  21  22
ENDBRANCH  20  21
ENDBRANCH  14  20
ENDBRANCH   1   5
BRANCH   3  25
HETATM   25  C12 UNL     1       2.407   1.274  -1.512  1.00  0.00     0.177 C 
BRANCH  25  26
HETATM   26  S1  UNL     1       2.521   2.323  -0.081  1.00  0.00    -0.150 SA
BRANCH  26  27
HETATM   27  C13 UNL     1       2.758   1.350   1.412  1.00  0.00     0.177 C 
BRANCH  27  28
HETATM   28  C14 UNL     1       4.092   0.724   1.542  1.00  0.00     0.227 C 
HETATM   29  O3  UNL     1       4.907   1.271   2.362  1.00  0.00    -0.273 OA
HETATM   30  N4  UNL     1       4.523  -0.425   0.834  1.00  0.00    -0.356 N 
ATOM     31  H4  UNL     1       3.856  -0.841   0.184  1.00  0.00     0.162 HD
BRANCH  30  32
HETATM   32  C15 UNL     1       5.787  -1.053   0.939  1.00  0.00     0.167 C 
BRANCH  32  33
HETATM   33  C16 UNL     1       6.991  -0.409   0.415  1.00  0.00     0.033 A 
HETATM   34  C17 UNL     1       8.232  -1.057   0.664  1.00  0.00    -0.047 A 
HETATM   35  C18 UNL     1       8.217  -2.321   1.447  1.00  0.00     0.049 C 
HETATM   36  C19 UNL     1       9.377  -0.506   0.179  1.00  0.00     0.032 A 
HETATM   37  C20 UNL     1       9.423   0.661  -0.552  1.00  0.00     0.009 A 
HETATM   38  C21 UNL     1      10.729   1.206  -1.033  1.00  0.00     0.068 C 
HETATM   39  N5  UNL     1       8.246   1.254  -0.778  1.00  0.00    -0.327 N 
HETATM   40  C22 UNL     1       7.076   0.733  -0.311  1.00  0.00     0.254 A 
ATOM     41  H5  UNL     1       8.223   2.121  -1.315  1.00  0.00     0.169 HD
HETATM   42  O4  UNL     1       6.060   1.417  -0.623  1.00  0.00    -0.268 OA
ENDBRANCH  32  33
ENDBRANCH  30  32
ENDBRANCH  27  28
ENDBRANCH  26  27
ENDBRANCH  25  26
ENDBRANCH   3  25
TORSDOF 11
