REMARK  12 active torsions:
REMARK  status: ('A' for Active; 'I' for Inactive)
REMARK    1  A    between atoms: O1_2  and  C2_3 
REMARK    2  A    between atoms: C2_3  and  C3_4 
REMARK    3  A    between atoms: C3_4  and  O2_5 
REMARK    4  A    between atoms: O2_5  and  C4_6 
REMARK    5  A    between atoms: C4_6  and  C5_7 
REMARK    6  A    between atoms: C9_11  and  C10_12 
REMARK    7  A    between atoms: C19_28  and  C20_29 
REMARK       I    between atoms: C20_29  and  N5_31 
REMARK    8  A    between atoms: N5_31  and  C21_33 
REMARK    9  A    between atoms: C25_39  and  N7_40 
REMARK   10  A    between atoms: N7_40  and  C26_42 
REMARK   11  A    between atoms: C26_42  and  C27_43 
REMARK   12  A    between atoms: C27_43  and  N8_44 
ROOT
HETATM    1  C5  UNL     1      -1.300   2.596   0.091  1.00  0.00    -0.015 A 
HETATM    2  C6  UNL     1      -2.618   2.397  -0.272  1.00  0.00     0.042 A 
HETATM    3  C7  UNL     1      -3.221   1.157  -0.131  1.00  0.00     0.059 A 
HETATM    4  C8  UNL     1      -4.506   0.699  -0.415  1.00  0.00     0.066 A 
HETATM    5  C9  UNL     1      -4.557  -0.630  -0.076  1.00  0.00     0.095 A 
HETATM    6  N3  UNL     1      -3.350  -0.942   0.389  1.00  0.00    -0.290 N 
ATOM      7  H3  UNL     1      -3.081  -1.868   0.722  1.00  0.00     0.187 HD
HETATM    8  N4  UNL     1      -2.537   0.116   0.363  1.00  0.00    -0.266 N 
HETATM    9  C18 UNL     1      -1.254   0.298   0.720  1.00  0.00     0.134 A 
HETATM   10  C19 UNL     1      -0.604   1.533   0.595  1.00  0.00     0.058 A 
ENDROOT
BRANCH  10  11
HETATM   11  C20 UNL     1       0.778   1.686   0.988  1.00  0.00     0.259 C 
HETATM   12  O3  UNL     1       1.350   2.786   0.890  1.00  0.00    -0.267 OA
HETATM   13  N5  UNL     1       1.559   0.608   1.504  1.00  0.00    -0.308 N 
ATOM     14  H5  UNL     1       1.337   0.233   2.426  1.00  0.00     0.170 HD
BRANCH  13  15
HETATM   15  C21 UNL     1       2.537   0.095   0.838  1.00  0.00     0.125 A 
HETATM   16  C22 UNL     1       2.905   0.536  -0.405  1.00  0.00     0.074 A 
HETATM   17  C23 UNL     1       3.960  -0.067  -1.034  1.00  0.00     0.026 A 
HETATM   18  C24 UNL     1       4.376   0.395  -2.382  1.00  0.00     0.069 C 
HETATM   19  N6  UNL     1       4.650  -1.082  -0.467  1.00  0.00    -0.196 N 
HETATM   20  C25 UNL     1       4.272  -1.498   0.754  1.00  0.00     0.679 A 
ATOM     21  H6  UNL     1       5.434  -1.519  -0.951  1.00  0.00     0.184 HD
HETATM   22  N9  UNL     1       3.229  -0.911   1.389  1.00  0.00    -0.177 N 
ATOM     23  H9  UNL     1       2.962  -1.245   2.315  1.00  0.00     0.186 HD
BRANCH  20  24
HETATM   24  N7  UNL     1       4.878  -2.454   1.368  1.00  0.00    -0.224 N 
ATOM     25  H7  UNL     1       4.532  -2.714   2.292  1.00  0.00     0.177 HD
BRANCH  24  26
HETATM   26  C26 UNL     1       6.000  -3.181   0.854  1.00  0.00     0.157 C 
BRANCH  26  27
HETATM   27  C27 UNL     1       7.298  -2.442   1.061  1.00  0.00     0.136 C 
BRANCH  27  28
HETATM   28  N8  UNL     1       8.431  -3.141   0.553  1.00  0.00    -0.419 N 
HETATM   29  C28 UNL     1       8.789  -4.342   1.235  1.00  0.00     0.142 C 
HETATM   30  C29 UNL     1       9.545  -2.324   0.176  1.00  0.00     0.142 C 
ENDBRANCH  27  28
ENDBRANCH  26  27
ENDBRANCH  24  26
ENDBRANCH  20  24
ENDBRANCH  13  15
ENDBRANCH  10  11
BRANCH   1  31
HETATM   31  C4  UNL     1      -0.702   3.963  -0.086  1.00  0.00     0.207 C 
BRANCH  31  32
HETATM   32  O2  UNL     1      -1.684   4.808  -0.621  1.00  0.00    -0.385 OA
BRANCH  32  33
HETATM   33  C3  UNL     1      -1.236   6.076  -0.853  1.00  0.00     0.194 C 
BRANCH  33  34
HETATM   34  C2  UNL     1      -0.725   6.814   0.358  1.00  0.00     0.193 C 
BRANCH  34  35
HETATM   35  O1  UNL     1      -0.328   8.078  -0.097  1.00  0.00    -0.394 OA
HETATM   36  C1  UNL     1       0.168   8.853   0.958  1.00  0.00     0.201 C 
ENDBRANCH  34  35
ENDBRANCH  33  34
ENDBRANCH  32  33
ENDBRANCH  31  32
ENDBRANCH   1  31
BRANCH   5  37
HETATM   37  C10 UNL     1      -5.708  -1.537  -0.195  1.00  0.00     0.135 A 
HETATM   38  N1  UNL     1      -5.734  -2.837   0.152  1.00  0.00    -0.339 N 
HETATM   39  C11 UNL     1      -6.963  -3.345  -0.097  1.00  0.00     0.061 A 
ATOM     40  H1  UNL     1      -4.949  -3.358   0.542  1.00  0.00     0.167 HD
HETATM   41  C12 UNL     1      -7.544  -4.586   0.058  1.00  0.00     0.038 A 
HETATM   42  C17 UNL     1      -7.733  -2.312  -0.623  1.00  0.00     0.060 A 
HETATM   43  C13 UNL     1      -8.859  -4.846  -0.286  1.00  0.00    -0.060 A 
HETATM   44  C14 UNL     1      -9.456  -6.213  -0.101  1.00  0.00     0.048 C 
HETATM   45  C15 UNL     1      -9.594  -3.800  -0.804  1.00  0.00     0.009 A 
HETATM   46  C16 UNL     1      -9.047  -2.543  -0.975  1.00  0.00     0.032 A 
HETATM   47  N2  UNL     1      -6.917  -1.242  -0.657  1.00  0.00    -0.339 N 
ATOM     48  H2  UNL     1      -7.193  -0.320  -0.995  1.00  0.00     0.167 HD
ENDBRANCH   5  37
TORSDOF 12
