REMARK  10 active torsions:
REMARK  status: ('A' for Active; 'I' for Inactive)
REMARK    1  A    between atoms: N1_2  and  O1_3 
REMARK    2  A    between atoms: N1_2  and  N2_5 
REMARK    3  A    between atoms: C3_7  and  C4_8 
REMARK    4  A    between atoms: C5_9  and  C10_19 
REMARK    5  A    between atoms: C6_10  and  O2_11 
REMARK    6  A    between atoms: N3_13  and  C7_14 
REMARK    7  A    between atoms: C9_16  and  O3_17 
REMARK    8  A    between atoms: C11_20  and  C12_21 
REMARK    9  A    between atoms: C13_22  and  C15_24 
REMARK   10  A    between atoms: C17_27  and  C18_28 
ROOT
HETATM    1  N2  UNL     1      -0.692   2.141   1.329  1.00  0.00    -0.247 N 
HETATM    2  C2  UNL     1      -1.360   2.486   0.280  1.00  0.00     0.100 C 
HETATM    3  C3  UNL     1      -1.049   1.730  -0.963  1.00  0.00     0.108 C 
HETATM    4  C10 UNL     1      -0.067  -0.283   1.222  1.00  0.00     0.116 C 
HETATM    5  C11 UNL     1       1.177  -0.346   0.332  1.00  0.00     0.262 C 
HETATM    6  N4  UNL     1       1.080   1.061   0.133  1.00  0.00     0.139 N 
HETATM    7  C17 UNL     1       0.430   1.531  -1.022  1.00  0.00     0.339 C 
HETATM    8  C19 UNL     1       0.307   1.137   1.353  1.00  0.00     0.358 C 
ENDROOT
BRANCH   5   9
HETATM    9  C12 UNL     1       2.376  -0.871   1.030  1.00  0.00     0.012 C 
HETATM   10  C13 UNL     1       3.528  -1.104   0.459  1.00  0.00    -0.086 C 
HETATM   11  C14 UNL     1       4.671  -1.627   1.225  1.00  0.00     0.043 C 
BRANCH  10  12
HETATM   12  C15 UNL     1       3.685  -0.837  -0.984  1.00  0.00     0.029 C 
HETATM   13  C16 UNL     1       4.063  -2.166  -1.654  1.00  0.00     0.010 C 
ENDBRANCH  10  12
ENDBRANCH   5   9
BRANCH   4  14
HETATM   14  C5  UNL     1      -1.206  -0.483   0.310  1.00  0.00     0.015 A 
HETATM   15  C4  UNL     1      -1.656   0.367  -0.663  1.00  0.00     0.016 A 
HETATM   16  C9  UNL     1      -2.721  -0.214  -1.279  1.00  0.00     0.152 A 
HETATM   17  N3  UNL     1      -2.929  -1.402  -0.701  1.00  0.00    -0.308 N 
HETATM   18  C6  UNL     1      -2.003  -1.592   0.287  1.00  0.00     0.151 A 
BRANCH  16  19
HETATM   19  O3  UNL     1      -3.444   0.337  -2.314  1.00  0.00    -0.345 OA
ATOM     20  H3  UNL     1      -4.188  -0.069  -2.744  1.00  0.00     0.219 HD
ENDBRANCH  16  19
BRANCH  17  21
HETATM   21  C7  UNL     1      -3.983  -2.359  -1.062  1.00  0.00     0.129 C 
HETATM   22  C8  UNL     1      -5.179  -1.997  -0.197  1.00  0.00     0.027 C 
ENDBRANCH  17  21
BRANCH  18  23
HETATM   23  O2  UNL     1      -1.944  -2.735   1.087  1.00  0.00    -0.345 OA
ATOM     24  H2  UNL     1      -2.498  -3.506   1.071  1.00  0.00     0.219 HD
ENDBRANCH  18  23
ENDBRANCH   4  14
BRANCH   7  25
HETATM   25  C18 UNL     1       1.034   2.844  -1.404  1.00  0.00     0.208 C 
HETATM   26  O4  UNL     1       1.956   3.356  -0.746  1.00  0.00    -0.646 OA
HETATM   27  O5  UNL     1       0.552   3.505  -2.519  1.00  0.00    -0.646 OA
ENDBRANCH   7  25
BRANCH   1  28
HETATM   28  N1  UNL     1      -1.006   2.867   2.489  1.00  0.00    -0.182 N 
HETATM   29  C1  UNL     1      -0.225   3.740   3.010  1.00  0.00     0.178 C 
BRANCH  28  30
HETATM   30  O1  UNL     1      -2.213   2.617   3.082  1.00  0.00    -0.269 OA
ATOM     31  H1  UNL     1      -2.792   1.970   2.696  1.00  0.00     0.247 HD
ENDBRANCH  28  30
ENDBRANCH   1  28
TORSDOF 10
