REMARK  6 active torsions:
REMARK  status: ('A' for Active; 'I' for Inactive)
REMARK    1  A    between atoms: C2_2  and  C3_3 
REMARK    2  A    between atoms: C2_2  and  C4_6 
REMARK    3  A    between atoms: C3_3  and  O1_4 
REMARK    4  A    between atoms: C5_7  and  C6_8 
REMARK    5  A    between atoms: C15_20  and  C16_21 
REMARK    6  A    between atoms: C20_25  and  O5_26 
ROOT
HETATM    1  C4  UNL     1       2.484  -0.033   0.169  1.00  0.00    -0.051 C 
HETATM    2  C5  UNL     1       3.077  -1.063  -0.341  1.00  0.00    -0.016 C 
HETATM    3  C7  UNL     1       2.054  -2.128  -0.628  1.00  0.00     0.050 C 
HETATM    4  C8  UNL     1       0.969  -1.844   0.368  1.00  0.00     0.042 C 
HETATM    5  C9  UNL     1      -0.312  -2.221  -0.345  1.00  0.00     0.067 C 
HETATM    6  C10 UNL     1      -0.086  -3.602  -0.991  1.00  0.00     0.046 C 
HETATM    7  C11 UNL     1      -1.537  -2.319   0.468  1.00  0.00     0.055 C 
HETATM    8  C12 UNL     1      -2.584  -1.444  -0.231  1.00  0.00     0.118 C 
HETATM    9  C13 UNL     1      -3.972  -1.714   0.141  1.00  0.00     0.266 C 
HETATM   10  O3  UNL     1      -4.752  -2.679   0.331  1.00  0.00    -0.265 OA
HETATM   11  O4  UNL     1      -4.153  -0.318   0.224  1.00  0.00    -0.314 OA
HETATM   12  C14 UNL     1      -2.795  -0.246   0.608  1.00  0.00     0.150 C 
HETATM   13  C15 UNL     1      -2.011   0.950   0.280  1.00  0.00     0.024 C 
HETATM   14  C19 UNL     1      -0.992   0.900  -0.767  1.00  0.00     0.077 C 
HETATM   15  C20 UNL     1       0.131  -0.043  -0.766  1.00  0.00     0.174 C 
HETATM   16  O6  UNL     1      -0.356  -1.268  -1.322  1.00  0.00    -0.343 OA
HETATM   17  C21 UNL     1       0.988  -0.317   0.338  1.00  0.00     0.043 C 
HETATM   18  C22 UNL     1       0.698   0.137   1.713  1.00  0.00     0.026 C 
ENDROOT
BRANCH   1  19
HETATM   19  C2  UNL     1       3.048   1.232   0.603  1.00  0.00     0.036 C 
HETATM   20  C1  UNL     1       2.458   2.444  -0.121  1.00  0.00     0.017 C 
BRANCH  19  21
HETATM   21  C3  UNL     1       4.503   1.468   0.579  1.00  0.00     0.172 C 
BRANCH  21  22
HETATM   22  O1  UNL     1       4.772   2.725   1.243  1.00  0.00    -0.400 OA
ATOM     23  H1  UNL     1       5.710   2.877   1.228  1.00  0.00     0.209 HD
ENDBRANCH  21  22
ENDBRANCH  19  21
ENDBRANCH   1  19
BRANCH   2  24
HETATM   24  C6  UNL     1       4.462  -1.378  -0.682  1.00  0.00     0.265 C 
HETATM   25  O2  UNL     1       4.807  -2.505  -1.179  1.00  0.00    -0.302 OA
ENDBRANCH   2  24
BRANCH  15  26
HETATM   26  O5  UNL     1       0.945   0.384  -1.849  1.00  0.00    -0.364 OA
ATOM     27  H5  UNL     1       1.673  -0.227  -1.848  1.00  0.00     0.213 HD
ENDBRANCH  15  26
BRANCH  13  28
HETATM   28  C16 UNL     1      -2.991   2.063  -0.150  1.00  0.00    -0.016 C 
HETATM   29  C17 UNL     1      -3.810   1.722  -1.336  1.00  0.00     0.010 C 
HETATM   30  C18 UNL     1      -3.808   2.519   1.038  1.00  0.00     0.010 C 
ENDBRANCH  13  28
TORSDOF 6
