REMARK  6 active torsions:
REMARK  status: ('A' for Active; 'I' for Inactive)
REMARK    1  A    between atoms: C2_2  and  C3_3 
REMARK    2  A    between atoms: C3_3  and  C4_4 
REMARK    3  A    between atoms: C5_5  and  C6_6 
REMARK    4  A    between atoms: C10_11  and  C11_12 
REMARK    5  A    between atoms: C15_19  and  O5_20 
REMARK    6  A    between atoms: C16_22  and  O6_24 
ROOT
HETATM    1  C11 UNL     1      -1.418  -0.728  -0.237  1.00  0.00     0.157 C 
HETATM    2  O2  UNL     1      -0.949  -0.403  -1.523  1.00  0.00    -0.314 OA
HETATM    3  C12 UNL     1      -1.664   0.348  -2.429  1.00  0.00     0.261 C 
HETATM    4  O3  UNL     1      -1.622   0.078  -3.631  1.00  0.00    -0.265 OA
HETATM    5  C13 UNL     1      -2.508   1.507  -1.963  1.00  0.00     0.144 C 
HETATM    6  C14 UNL     1      -2.617   1.471  -0.459  1.00  0.00     0.144 C 
HETATM    7  O4  UNL     1      -3.739   2.113   0.043  1.00  0.00    -0.352 OA
HETATM    8  C15 UNL     1      -4.943   1.611  -0.333  1.00  0.00     0.291 C 
HETATM    9  C16 UNL     1      -5.059   0.133  -0.374  1.00  0.00     0.104 C 
HETATM   10  C17 UNL     1      -6.172  -0.337   0.576  1.00  0.00     0.051 C 
HETATM   11  C18 UNL     1      -3.836  -0.649  -0.186  1.00  0.00     0.057 C 
HETATM   12  C19 UNL     1      -2.563   0.115   0.149  1.00  0.00     0.013 C 
HETATM   13  C20 UNL     1      -2.663   0.341   1.672  1.00  0.00     0.020 C 
ENDROOT
BRANCH   1  14
HETATM   14  C10 UNL     1      -0.285  -0.876   0.756  1.00  0.00     0.113 A 
HETATM   15  C9  UNL     1       0.574  -2.030   0.368  1.00  0.00     0.166 A 
HETATM   16  C7  UNL     1       1.954  -1.972  -0.027  1.00  0.00    -0.005 A 
HETATM   17  O1  UNL     1       0.022  -3.182   0.391  1.00  0.00    -0.292 OA
HETATM   18  C6  UNL     1       2.580  -0.795   0.029  1.00  0.00    -0.027 A 
HETATM   19  C8  UNL     1       2.702  -3.203  -0.477  1.00  0.00     0.053 C 
HETATM   20  C22 UNL     1       1.813   0.358   0.447  1.00  0.00     0.009 A 
HETATM   21  C21 UNL     1       0.529   0.355   0.781  1.00  0.00    -0.011 A 
BRANCH  18  22
HETATM   22  C5  UNL     1       3.980  -0.757  -0.353  1.00  0.00     0.008 C 
HETATM   23  C4  UNL     1       4.665   0.358  -0.326  1.00  0.00    -0.026 C 
BRANCH  23  24
HETATM   24  C3  UNL     1       6.108   0.424  -0.715  1.00  0.00     0.027 C 
BRANCH  24  25
HETATM   25  C2  UNL     1       6.906   0.921   0.474  1.00  0.00    -0.001 C 
HETATM   26  C1  UNL     1       8.367   1.019   0.175  1.00  0.00     0.005 C 
ENDBRANCH  24  25
ENDBRANCH  23  24
ENDBRANCH  18  22
ENDBRANCH   1  14
BRANCH   9  27
HETATM   27  O6  UNL     1      -5.603  -0.204  -1.646  1.00  0.00    -0.385 OA
ATOM     28  H6  UNL     1      -5.677  -1.151  -1.672  1.00  0.00     0.210 HD
ENDBRANCH   9  27
BRANCH   8  29
HETATM   29  O5  UNL     1      -5.904   2.135   0.567  1.00  0.00    -0.368 OA
ATOM     30  H5  UNL     1      -6.747   1.784   0.304  1.00  0.00     0.212 HD
ENDBRANCH   8  29
TORSDOF 6
