REMARK  4 active torsions:
REMARK  status: ('A' for Active; 'I' for Inactive)
REMARK    1  A    between atoms: N1_1  and  N2_4 
REMARK    2  A    between atoms: N3_6  and  O1_8 
REMARK    3  A    between atoms: O1_8  and  S1_9 
REMARK    4  A    between atoms: S1_9  and  C1_12 
ROOT
HETATM    1  S1  UNL     1       1.735  -0.803  -0.068  1.00  0.00     0.291 S 
HETATM    2  O2  UNL     1       1.864  -0.259  -1.457  1.00  0.00    -0.196 OA
HETATM    3  O3  UNL     1       1.961  -2.300  -0.177  1.00  0.00    -0.196 OA
ENDROOT
BRANCH   1   4
HETATM    4  O1  UNL     1       2.949  -0.126   0.920  1.00  0.00    -0.134 OA
BRANCH   4   5
HETATM    5  N3  UNL     1       4.260  -0.418   0.631  1.00  0.00    -0.176 N 
HETATM    6  N2  UNL     1       4.943   0.392  -0.015  1.00  0.00    -0.229 N 
ATOM      7  H2  UNL     1       4.379   0.541  -0.852  1.00  0.00     0.209 HD
ATOM      8  H3  UNL     1       4.670  -1.297   0.946  1.00  0.00     0.218 HD
BRANCH   6   9
HETATM    9  N1  UNL     1       5.925   1.122  -0.216  1.00  0.00    -0.329 N 
ATOM     10  H12 UNL     1       6.457   0.944   0.636  1.00  0.00     0.178 HD
ATOM     11  H11 UNL     1       6.486   1.788  -0.747  1.00  0.00     0.178 HD
ENDBRANCH   6   9
ENDBRANCH   4   5
ENDBRANCH   1   4
BRANCH   1  12
HETATM   12  C1  UNL     1       0.139  -0.557   0.561  1.00  0.00     0.143 C 
HETATM   13  C2  UNL     1      -0.270   0.888   0.765  1.00  0.00     0.027 C 
HETATM   14  C3  UNL     1      -1.766   0.905   0.573  1.00  0.00    -0.013 C 
HETATM   15  C4  UNL     1      -1.998   1.078  -0.916  1.00  0.00     0.005 C 
HETATM   16  C7  UNL     1      -2.134  -0.586   0.689  1.00  0.00     0.010 C 
HETATM   17  C5  UNL     1      -1.321  -0.197  -1.443  1.00  0.00     0.006 C 
HETATM   18  C6  UNL     1      -1.000  -1.052  -0.265  1.00  0.00     0.007 C 
ENDBRANCH   1  12
TORSDOF 4
