REMARK  6 active torsions:
REMARK  status: ('A' for Active; 'I' for Inactive)
REMARK    1  A    between atoms: C2_2  and  C3_3 
REMARK    2  A    between atoms: C3_3  and  N1_4 
REMARK    3  A    between atoms: C4_6  and  C5_7 
REMARK    4  A    between atoms: C4_6  and  C7_10 
REMARK    5  A    between atoms: C7_10  and  O2_12 
REMARK    6  A    between atoms: O2_12  and  C8_13 
ROOT
HETATM    1  C5  UNL     1       1.591   2.328   0.090  1.00  0.00     0.187 C 
HETATM    2  C6  UNL     1       1.184   3.129  -1.082  1.00  0.00     0.065 C 
HETATM    3  N2  UNL     1       0.851   3.747  -2.005  1.00  0.00    -0.197 NA
ENDROOT
BRANCH   1   4
HETATM    4  C4  UNL     1       1.001   0.990   0.062  1.00  0.00     0.094 C 
HETATM    5  N1  UNL     1       1.775  -0.048   0.041  1.00  0.00    -0.384 N 
ATOM      6  H1  UNL     1       1.339  -0.970   0.020  1.00  0.00     0.159 HD
BRANCH   5   7
HETATM    7  C3  UNL     1       3.204   0.018   0.045  1.00  0.00     0.146 C 
BRANCH   7   8
HETATM    8  C2  UNL     1       3.715  -1.381   0.216  1.00  0.00    -0.018 C 
HETATM    9  C1  UNL     1       4.467  -1.674   1.257  1.00  0.00     0.008 C 
ENDBRANCH   7   8
ENDBRANCH   5   7
BRANCH   4  10
HETATM   10  C7  UNL     1      -0.442   0.791   0.056  1.00  0.00     0.307 C 
HETATM   11  O1  UNL     1      -1.186   1.780   0.075  1.00  0.00    -0.258 OA
BRANCH  10  12
HETATM   12  O2  UNL     1      -1.038  -0.451   0.029  1.00  0.00    -0.306 OA
BRANCH  12  13
HETATM   13  C8  UNL     1      -2.427  -0.602   0.024  1.00  0.00     0.060 C 
HETATM   14  C9  UNL     1      -2.703  -2.107  -0.007  1.00  0.00     0.046 C 
HETATM   15  C10 UNL     1      -3.089   0.025  -1.169  1.00  0.00     0.046 C 
HETATM   16  C11 UNL     1      -3.100  -0.077   1.267  1.00  0.00     0.046 C 
ENDBRANCH  12  13
ENDBRANCH  10  12
ENDBRANCH   4  10
ENDBRANCH   1   4
TORSDOF 6
