REMARK  5 active torsions:
REMARK  status: ('A' for Active; 'I' for Inactive)
REMARK    1  A    between atoms: C2_2  and  S1_4 
REMARK    2  A    between atoms: S1_4  and  C4_5 
REMARK    3  A    between atoms: C4_5  and  C5_6 
REMARK    4  A    between atoms: C5_6  and  C6_7 
REMARK    5  A    between atoms: C6_7  and  O2_9 
REMARK       I    between atoms: N1_11  and  C8_13 
ROOT
HETATM    1  C4  UNL     1      -0.211   0.481   0.032  1.00  0.00     0.062 C 
HETATM    2  N1  UNL     1       0.261   1.691  -0.197  1.00  0.00    -0.325 N 
ATOM      3  H1  UNL     1       1.270   1.822  -0.270  1.00  0.00     0.169 HD
HETATM    4  C8  UNL     1      -0.588   2.812  -0.345  1.00  0.00     0.218 C 
HETATM    5  C9  UNL     1      -0.696   3.564  -1.637  1.00  0.00     0.117 C 
HETATM    6  O3  UNL     1      -1.260   3.158   0.666  1.00  0.00    -0.274 OA
ENDROOT
BRANCH   1   7
HETATM    7  S1  UNL     1      -1.947   0.340   0.143  1.00  0.00    -0.082 SA
BRANCH   7   8
HETATM    8  C2  UNL     1      -2.553  -1.253   0.538  1.00  0.00    -0.029 C 
HETATM    9  C1  UNL     1      -3.903  -1.361   0.575  1.00  0.00     0.026 C 
HETATM   10  C3  UNL     1      -1.744  -2.483   0.836  1.00  0.00     0.055 C 
ENDBRANCH   7   8
ENDBRANCH   1   7
BRANCH   1  11
HETATM   11  C5  UNL     1       0.689  -0.661   0.179  1.00  0.00     0.176 C 
BRANCH  11  12
HETATM   12  C6  UNL     1       2.128  -0.218   0.104  1.00  0.00     0.264 C 
HETATM   13  O1  UNL     1       2.499   0.939  -0.055  1.00  0.00    -0.265 OA
BRANCH  12  14
HETATM   14  O2  UNL     1       3.085  -1.249   0.232  1.00  0.00    -0.326 OA
HETATM   15  C7  UNL     1       4.457  -0.869   0.166  1.00  0.00     0.213 C 
ENDBRANCH  12  14
ENDBRANCH  11  12
ENDBRANCH   1  11
TORSDOF 5
