REMARK  2 active torsions:
REMARK  status: ('A' for Active; 'I' for Inactive)
REMARK    1  A    between atoms: C2_2  and  C3_6 
REMARK    2  A    between atoms: C6_12  and  C7_13 
ROOT
HETATM    1  C3  UNL     1      -1.457  -0.628  -0.275  1.00  0.00     0.256 C 
HETATM    2  C4  UNL     1      -1.548  -0.979   1.183  1.00  0.00     0.271 C 
HETATM    3  N2  UNL     1      -0.425  -0.416   1.904  1.00  0.00    -0.071 N 
ATOM      4  H21 UNL     1      -0.450  -0.667   2.892  1.00  0.00     0.277 HD
ATOM      5  H22 UNL     1      -0.509   0.596   1.998  1.00  0.00     0.277 HD
HETATM    6  C5  UNL     1       0.850  -0.797   1.281  1.00  0.00     0.265 C 
HETATM    7  C6  UNL     1       0.851  -0.532  -0.176  1.00  0.00     0.215 C 
HETATM    8  N3  UNL     1      -0.318   0.282  -0.492  1.00  0.00    -0.058 N 
ATOM      9  H31 UNL     1      -0.374   1.156   0.031  1.00  0.00     0.278 HD
ATOM     10  H32 UNL     1      -0.293   0.709  -1.418  1.00  0.00     0.278 HD
ENDROOT
BRANCH   1  11
HETATM   11  C2  UNL     1      -2.664   0.079  -0.776  1.00  0.00     0.008 C 
HETATM   12  C1  UNL     1      -3.049   1.374  -0.163  1.00  0.00     0.065 C 
HETATM   13  N1  UNL     1      -3.371  -0.402  -1.715  1.00  0.00    -0.404 N 
ATOM     14  H12 UNL     1      -4.200   0.083  -2.059  1.00  0.00     0.155 HD
ATOM     15  H11 UNL     1      -3.106  -1.292  -2.136  1.00  0.00     0.155 HD
ENDBRANCH   1  11
BRANCH   7  16
HETATM   16  C7  UNL     1       2.053   0.183  -0.703  1.00  0.00     0.010 C 
HETATM   17  C8  UNL     1       2.246   1.538  -0.078  1.00  0.00     0.011 C 
HETATM   18  C9  UNL     1       3.334  -0.585  -0.557  1.00  0.00     0.011 C 
ENDBRANCH   7  16
TORSDOF 2
