REMARK  3 active torsions:
REMARK  status: ('A' for Active; 'I' for Inactive)
REMARK    1  A    between atoms: N1_1  and  C1_5 
REMARK    2  A    between atoms: C1_5  and  C2_6 
REMARK    3  A    between atoms: C9_14  and  N2_15 
ROOT
HETATM    1  C2  UNL     1       1.504  -0.303  -0.309  1.00  0.00     0.044 C 
HETATM    2  C3  UNL     1       1.347   0.959  -1.104  1.00  0.00     0.011 C 
HETATM    3  C4  UNL     1      -0.106   1.049  -1.490  1.00  0.00     0.041 C 
HETATM    4  C5  UNL     1      -0.795   0.293  -0.375  1.00  0.00     0.089 C 
HETATM    5  C6  UNL     1      -2.198  -0.100  -0.731  1.00  0.00     0.042 C 
HETATM    6  C7  UNL     1      -2.933   0.148   0.581  1.00  0.00     0.029 C 
HETATM    7  C8  UNL     1      -1.827   0.471   1.573  1.00  0.00     0.169 C 
HETATM    8  O1  UNL     1      -0.879   1.061   0.763  1.00  0.00    -0.378 OA
HETATM    9  C9  UNL     1       0.110  -0.886  -0.146  1.00  0.00     0.223 C 
ENDROOT
BRANCH   1  10
HETATM   10  C1  UNL     1       2.034  -0.052   1.084  1.00  0.00     0.236 C 
BRANCH  10  11
HETATM   11  N1  UNL     1       3.326   0.580   1.088  1.00  0.00    -0.079 N 
ATOM     12  H13 UNL     1       3.995   0.045   0.535  1.00  0.00     0.274 HD
ATOM     13  H12 UNL     1       3.311   1.442   0.543  1.00  0.00     0.274 HD
ATOM     14  H11 UNL     1       3.684   0.749   2.028  1.00  0.00     0.274 HD
ENDBRANCH  10  11
ENDBRANCH   1  10
BRANCH   9  15
HETATM   15  N2  UNL     1      -0.192  -1.893  -1.119  1.00  0.00    -0.072 N 
ATOM     16  H23 UNL     1      -0.054  -1.538  -2.065  1.00  0.00     0.274 HD
ATOM     17  H22 UNL     1       0.514  -2.629  -1.112  1.00  0.00     0.274 HD
ATOM     18  H21 UNL     1      -1.128  -2.284  -1.010  1.00  0.00     0.274 HD
ENDBRANCH   9  15
TORSDOF 3
