REMARK  4 active torsions:
REMARK  status: ('A' for Active; 'I' for Inactive)
REMARK    1  A    between atoms: S1_2  and  C2_3 
REMARK    2  A    between atoms: C2_3  and  C3_4 
REMARK    3  A    between atoms: N1_7  and  O1_8 
REMARK    4  A    between atoms: C7_11  and  O2_12 
ROOT
HETATM    1  C3  UNL     1       0.004   0.679  -0.258  1.00  0.00     0.027 C 
HETATM    2  C4  UNL     1      -0.498  -0.514  -0.976  1.00  0.00     0.030 C 
HETATM    3  C5  UNL     1      -1.706  -1.191  -0.462  1.00  0.00     0.150 C 
HETATM    4  N1  UNL     1      -2.283  -0.666   0.729  1.00  0.00    -0.294 N 
HETATM    5  C6  UNL     1      -2.261   0.746   0.858  1.00  0.00     0.181 C 
HETATM    6  C7  UNL     1      -0.913   1.364   0.683  1.00  0.00     0.143 C 
ENDROOT
BRANCH   1   7
HETATM    7  C2  UNL     1       1.301   0.402   0.501  1.00  0.00     0.080 C 
BRANCH   7   8
HETATM    8  S1  UNL     1       2.696   0.136  -0.603  1.00  0.00    -0.173 SA
HETATM    9  C1  UNL     1       3.931  -0.855   0.302  1.00  0.00     0.089 C 
ENDBRANCH   7   8
ENDBRANCH   1   7
BRANCH   6  10
HETATM   10  O2  UNL     1      -1.126   2.694   0.276  1.00  0.00    -0.393 OA
ATOM     11  H2  UNL     1      -1.714   3.133   0.879  1.00  0.00     0.210 HD
ENDBRANCH   6  10
BRANCH   4  12
HETATM   12  O1  UNL     1      -2.053  -1.365   1.840  1.00  0.00    -0.292 OA
ATOM     13  H1  UNL     1      -2.438  -1.015   2.635  1.00  0.00     0.244 HD
ENDBRANCH   4  12
TORSDOF 4
