REMARK  4 active torsions:
REMARK  status: ('A' for Active; 'I' for Inactive)
REMARK    1  A    between atoms: C2_2  and  C3_3 
REMARK    2  A    between atoms: C3_3  and  C4_4 
REMARK    3  A    between atoms: C4_4  and  N1_5 
REMARK    4  A    between atoms: C9_14  and  N3_15 
ROOT
HETATM    1  C4  UNL     1       0.374  -1.007  -0.407  1.00  0.00     0.154 C 
HETATM    2  C5  UNL     1      -0.247  -1.473   0.862  1.00  0.00     0.071 C 
HETATM    3  C6  UNL     1      -1.492  -0.775   1.291  1.00  0.00     0.274 C 
HETATM    4  N2  UNL     1      -1.663   0.542   0.725  1.00  0.00     0.086 N 
HETATM    5  C7  UNL     1      -3.014   0.976   1.102  1.00  0.00     0.310 C 
HETATM    6  C8  UNL     1      -1.677   0.431  -0.705  1.00  0.00     0.307 C 
HETATM    7  C9  UNL     1      -0.517  -0.253  -1.326  1.00  0.00     0.247 C 
ENDROOT
BRANCH   1   8
HETATM    8  C3  UNL     1       1.722  -0.332  -0.180  1.00  0.00     0.040 C 
BRANCH   8   9
HETATM    9  C2  UNL     1       1.654   0.958   0.550  1.00  0.00    -0.002 C 
HETATM   10  C1  UNL     1       3.094   1.475   0.682  1.00  0.00     0.005 C 
ENDBRANCH   8   9
ENDBRANCH   1   8
BRANCH   1  11
HETATM   11  N1  UNL     1       0.733  -2.249  -1.138  1.00  0.00    -0.068 N 
ATOM     12  H13 UNL     1       1.280  -2.099  -1.986  1.00  0.00     0.275 HD
ATOM     13  H12 UNL     1       1.425  -2.832  -0.668  1.00  0.00     0.275 HD
ATOM     14  H11 UNL     1      -0.169  -2.701  -1.290  1.00  0.00     0.275 HD
ENDBRANCH   1  11
BRANCH   7  15
HETATM   15  N3  UNL     1       0.214   0.762  -2.104  1.00  0.00    -0.071 N 
ATOM     16  H33 UNL     1       0.732   1.393  -1.492  1.00  0.00     0.274 HD
ATOM     17  H32 UNL     1       0.997   0.346  -2.608  1.00  0.00     0.274 HD
ATOM     18  H31 UNL     1      -0.398   1.280  -2.735  1.00  0.00     0.274 HD
ENDBRANCH   7  15
TORSDOF 4
