REMARK  2 active torsions:
REMARK  status: ('A' for Active; 'I' for Inactive)
REMARK    1  A    between atoms: C2_2  and  C3_3 
REMARK    2  A    between atoms: C7_10  and  C8_11 
ROOT
HETATM    1  C3  UNL     1      -1.061  -0.494   0.765  1.00  0.00     0.201 C 
HETATM    2  C4  UNL     1      -1.494   0.733  -0.008  1.00  0.00     0.128 C 
HETATM    3  N1  UNL     1      -0.431   1.263  -0.793  1.00  0.00    -0.282 NA
HETATM    4  C5  UNL     1      -1.002   2.333  -1.616  1.00  0.00     0.117 C 
HETATM    5  C6  UNL     1       0.654   1.819  -0.064  1.00  0.00     0.147 C 
HETATM    6  N2  UNL     1       1.190   1.124   1.005  1.00  0.00    -0.363 N 
ATOM      7  H2  UNL     1       1.565   1.645   1.798  1.00  0.00     0.161 HD
HETATM    8  C7  UNL     1       1.232  -0.272   1.029  1.00  0.00     0.284 C 
HETATM    9  N3  UNL     1       0.212  -0.922   0.193  1.00  0.00    -0.049 N 
ATOM     10  H31 UNL     1       0.306  -0.727  -0.804  1.00  0.00     0.280 HD
ATOM     11  H32 UNL     1       0.316  -1.934   0.122  1.00  0.00     0.280 HD
ENDROOT
BRANCH   1  12
HETATM   12  C2  UNL     1      -2.089  -1.600   0.712  1.00  0.00     0.030 C 
HETATM   13  C1  UNL     1      -2.374  -2.069  -0.682  1.00  0.00     0.007 C 
ENDBRANCH   1  12
BRANCH   8  14
HETATM   14  C8  UNL     1       2.598  -0.883   0.785  1.00  0.00     0.050 C 
HETATM   15  C9  UNL     1       3.157  -0.498  -0.561  1.00  0.00     0.009 C 
ENDBRANCH   8  14
TORSDOF 2
