REMARK  5 active torsions:
REMARK  status: ('A' for Active; 'I' for Inactive)
REMARK    1  A    between atoms: C2_2  and  C3_3 
REMARK    2  A    between atoms: C2_2  and  N2_8 
REMARK    3  A    between atoms: C3_3  and  N1_4 
REMARK    4  A    between atoms: C8_13  and  C9_14 
REMARK    5  A    between atoms: C9_14  and  N3_15 
ROOT
HETATM    1  N2  UNL     1       0.042   0.123  -0.120  1.00  0.00    -0.381 N 
HETATM    2  C4  UNL     1       0.229   1.402  -0.671  1.00  0.00     0.059 C 
HETATM    3  C5  UNL     1      -0.861   2.405  -0.382  1.00  0.00     0.044 C 
HETATM    4  C6  UNL     1      -2.169   1.680  -0.383  1.00  0.00     0.007 C 
HETATM    5  C7  UNL     1      -2.145   0.750   0.812  1.00  0.00     0.027 C 
HETATM    6  C8  UNL     1      -0.901  -0.068   0.903  1.00  0.00     0.109 C 
ENDROOT
BRANCH   1   7
HETATM    7  C2  UNL     1       1.174  -0.698  -0.145  1.00  0.00     0.105 C 
HETATM    8  C1  UNL     1       1.562  -0.947  -1.614  1.00  0.00     0.034 C 
BRANCH   7   9
HETATM    9  C3  UNL     1       2.431  -0.114   0.493  1.00  0.00     0.254 C 
BRANCH   9  10
HETATM   10  N1  UNL     1       3.512  -1.092   0.371  1.00  0.00    -0.077 N 
ATOM     11  H13 UNL     1       3.262  -2.001   0.760  1.00  0.00     0.274 HD
ATOM     12  H12 UNL     1       3.664  -1.389  -0.593  1.00  0.00     0.274 HD
ATOM     13  H11 UNL     1       4.352  -0.702   0.797  1.00  0.00     0.274 HD
ENDBRANCH   9  10
ENDBRANCH   7   9
ENDBRANCH   1   7
BRANCH   6  14
HETATM   14  C9  UNL     1      -1.354  -1.519   0.971  1.00  0.00     0.254 C 
BRANCH  14  15
HETATM   15  N3  UNL     1      -1.952  -1.967  -0.246  1.00  0.00    -0.077 N 
ATOM     16  H33 UNL     1      -2.721  -1.356  -0.523  1.00  0.00     0.274 HD
ATOM     17  H32 UNL     1      -1.328  -1.815  -1.038  1.00  0.00     0.274 HD
ATOM     18  H31 UNL     1      -2.256  -2.940  -0.200  1.00  0.00     0.274 HD
ENDBRANCH  14  15
ENDBRANCH   6  14
TORSDOF 5
