REMARK  9 active torsions:
REMARK  status: ('A' for Active; 'I' for Inactive)
REMARK    1  A    between atoms: C4_5  and  C5_6 
REMARK       I    between atoms: C5_6  and  N2_8 
REMARK    2  A    between atoms: N2_8  and  N3_10 
REMARK       I    between atoms: N3_10  and  C6_12 
REMARK    3  A    between atoms: C6_12  and  C7_14 
REMARK    4  A    between atoms: C7_14  and  C8_15 
REMARK    5  A    between atoms: C8_15  and  C9_16 
REMARK    6  A    between atoms: C9_16  and  C10_17 
REMARK    7  A    between atoms: C10_17  and  N4_18 
REMARK    8  A    between atoms: N4_18  and  C11_20 
REMARK    9  A    between atoms: C11_20  and  N5_22 
ROOT
HETATM    1  N3  UNL     1       1.908  -1.269   0.000  1.00  0.00    -0.268 N 
ATOM      2  H3  UNL     1       1.519  -2.209   0.071  1.00  0.00     0.190 HD
HETATM    3  C6  UNL     1       1.063  -0.208  -0.400  1.00  0.00     0.236 C 
HETATM    4  O2  UNL     1       1.520   0.943  -0.503  1.00  0.00    -0.272 OA
ENDROOT
BRANCH   3   5
HETATM    5  C7  UNL     1      -0.369  -0.486  -0.689  1.00  0.00     0.105 C 
BRANCH   5   6
HETATM    6  C8  UNL     1      -1.063   0.749  -1.180  1.00  0.00     0.011 C 
BRANCH   6   7
HETATM    7  C9  UNL     1      -2.516   0.601  -1.470  1.00  0.00     0.020 C 
BRANCH   7   8
HETATM    8  C10 UNL     1      -3.297   0.212  -0.242  1.00  0.00     0.122 C 
BRANCH   8   9
HETATM    9  N4  UNL     1      -4.691   0.098  -0.566  1.00  0.00    -0.367 N 
ATOM     10  H4  UNL     1      -5.002   0.224  -1.529  1.00  0.00     0.161 HD
BRANCH   9  11
HETATM   11  C11 UNL     1      -5.638  -0.190   0.454  1.00  0.00     0.169 C 
HETATM   12  S1  UNL     1      -5.089  -0.379   1.982  1.00  0.00    -0.041 SA
BRANCH  11  13
HETATM   13  N5  UNL     1      -7.009  -0.311   0.189  1.00  0.00    -0.357 N 
HETATM   14  C12 UNL     1      -7.656  -0.181  -1.091  1.00  0.00     0.135 C 
HETATM   15  C13 UNL     1      -8.437   1.099  -1.230  1.00  0.00     0.093 C 
HETATM   16  S2  UNL     1      -9.139   1.648   0.333  1.00  0.00    -0.166 SA
HETATM   17  C14 UNL     1      -8.434   0.792   1.750  1.00  0.00     0.093 C 
HETATM   18  C15 UNL     1      -7.911  -0.588   1.324  1.00  0.00     0.135 C 
ENDBRANCH  11  13
ENDBRANCH   9  11
ENDBRANCH   8   9
ENDBRANCH   7   8
ENDBRANCH   6   7
ENDBRANCH   5   6
ENDBRANCH   3   5
BRANCH   1  19
HETATM   19  N2  UNL     1       3.259  -1.073   0.301  1.00  0.00    -0.267 N 
HETATM   20  C5  UNL     1       4.229  -0.541  -0.574  1.00  0.00     0.240 C 
HETATM   21  O1  UNL     1       3.887  -0.206  -1.731  1.00  0.00    -0.271 OA
ATOM     22  H2  UNL     1       3.571  -1.338   1.235  1.00  0.00     0.190 HD
BRANCH  20  23
HETATM   23  C4  UNL     1       5.629  -0.399  -0.084  1.00  0.00     0.082 C 
HETATM   24  C3  UNL     1       5.549   0.476   1.147  1.00  0.00     0.033 C 
HETATM   25  C2  UNL     1       6.809   1.226   1.448  1.00  0.00     0.117 C 
HETATM   26  N1  UNL     1       7.975   0.767   0.790  1.00  0.00    -0.417 N 
HETATM   27  C1  UNL     1       8.699  -0.264   1.487  1.00  0.00     0.143 C 
HETATM   28  C17 UNL     1       7.864   0.570  -0.617  1.00  0.00     0.117 C 
HETATM   29  C16 UNL     1       6.466   0.326  -1.102  1.00  0.00     0.033 C 
ENDBRANCH  20  23
ENDBRANCH   1  19
TORSDOF 9
