REMARK  8 active torsions:
REMARK  status: ('A' for Active; 'I' for Inactive)
REMARK       I    between atoms: N1_2  and  C2_4 
REMARK    1  A    between atoms: C2_4  and  C3_6 
REMARK    2  A    between atoms: C3_6  and  O2_7 
REMARK    3  A    between atoms: C3_6  and  C6_11 
REMARK    4  A    between atoms: O2_7  and  C4_8 
REMARK       I    between atoms: C6_11  and  N2_13 
REMARK    5  A    between atoms: N2_13  and  C7_15 
REMARK    6  A    between atoms: C7_15  and  C8_16 
REMARK    7  A    between atoms: C7_15  and  C11_19 
REMARK    8  A    between atoms: C14_22  and  O5_23 
ROOT
HETATM    1  C7  UNL     1       0.166   0.994  -0.576  1.00  0.00     0.093 C 
ENDROOT
BRANCH   1   2
HETATM    2  N2  UNL     1       1.448   0.411  -1.038  1.00  0.00    -0.353 N 
HETATM    3  C6  UNL     1       2.686   1.023  -0.753  1.00  0.00     0.257 C 
HETATM    4  O4  UNL     1       2.716   2.081  -0.098  1.00  0.00    -0.270 OA
ATOM      5  H2  UNL     1       1.434  -0.455  -1.576  1.00  0.00     0.163 HD
BRANCH   3   6
HETATM    6  C3  UNL     1       3.987   0.474  -1.199  1.00  0.00     0.315 C 
BRANCH   6   7
HETATM    7  C2  UNL     1       4.875   0.414  -0.019  1.00  0.00     0.256 C 
HETATM    8  N1  UNL     1       5.569  -0.728   0.412  1.00  0.00    -0.363 N 
HETATM    9  C1  UNL     1       6.415  -0.657   1.592  1.00  0.00     0.149 C 
ATOM     10  H1  UNL     1       5.480  -1.605  -0.101  1.00  0.00     0.162 HD
HETATM   11  O1  UNL     1       4.989   1.510   0.626  1.00  0.00    -0.270 OA
ENDBRANCH   6   7
BRANCH   6  12
HETATM   12  O2  UNL     1       3.866  -0.722  -1.902  1.00  0.00    -0.297 OA
BRANCH  12  13
HETATM   13  C4  UNL     1       4.288  -0.757  -3.227  1.00  0.00     0.256 C 
HETATM   14  C5  UNL     1       4.190  -1.992  -4.048  1.00  0.00     0.126 C 
HETATM   15  O3  UNL     1       4.771   0.270  -3.779  1.00  0.00    -0.266 OA
ENDBRANCH  12  13
ENDBRANCH   6  12
ENDBRANCH   3   6
ENDBRANCH   1   2
BRANCH   1  16
HETATM   16  C8  UNL     1      -0.546   1.415  -1.809  1.00  0.00     0.001 C 
HETATM   17  C9  UNL     1      -1.878   2.056  -1.647  1.00  0.00     0.011 C 
HETATM   18  C10 UNL     1       0.347   2.476  -2.473  1.00  0.00     0.011 C 
ENDBRANCH   1  16
BRANCH   1  19
HETATM   19  C11 UNL     1      -0.546   0.019   0.320  1.00  0.00     0.026 C 
HETATM   20  C12 UNL     1      -0.901  -1.270  -0.349  1.00  0.00     0.013 C 
HETATM   21  C13 UNL     1      -2.373  -1.613  -0.260  1.00  0.00     0.061 C 
HETATM   22  C14 UNL     1      -2.859  -1.370   1.150  1.00  0.00     0.130 C 
HETATM   23  C15 UNL     1      -4.212  -1.967   1.325  1.00  0.00     0.061 C 
HETATM   24  N3  UNL     1      -2.787   0.018   1.370  1.00  0.00    -0.378 N 
HETATM   25  C16 UNL     1      -5.022  -1.429   2.453  1.00  0.00     0.007 C 
HETATM   26  C17 UNL     1      -4.248  -0.396   3.210  1.00  0.00     0.024 C 
HETATM   27  C18 UNL     1      -3.754   0.634   2.189  1.00  0.00     0.078 C 
HETATM   28  C19 UNL     1      -3.192   1.773   2.986  1.00  0.00     0.032 C 
HETATM   29  C20 UNL     1      -1.519   0.634   1.238  1.00  0.00     0.127 C 
BRANCH  22  30
HETATM   30  O5  UNL     1      -1.989  -2.022   2.052  1.00  0.00    -0.371 OA
ATOM     31  H5  UNL     1      -2.295  -1.869   2.938  1.00  0.00     0.212 HD
ENDBRANCH  22  30
ENDBRANCH   1  19
TORSDOF 8
