REMARK  13 active torsions:
REMARK  status: ('A' for Active; 'I' for Inactive)
REMARK    1  A    between atoms: C2_2  and  N1_3 
REMARK    2  A    between atoms: N1_3  and  C4_5 
REMARK    3  A    between atoms: N2_7  and  C5_9 
REMARK    4  A    between atoms: C5_9  and  N3_10 
REMARK    5  A    between atoms: C5_9  and  C12_23 
REMARK    6  A    between atoms: N3_10  and  C6_11 
REMARK    7  A    between atoms: C6_11  and  O1_12 
REMARK    8  A    between atoms: C6_11  and  O2_14 
REMARK    9  A    between atoms: O2_14  and  C7_15 
REMARK   10  A    between atoms: C7_15  and  C8_16 
REMARK       I    between atoms: C12_23  and  N5_25 
REMARK   11  A    between atoms: N5_25  and  C13_27 
REMARK   12  A    between atoms: C13_27  and  C14_28 
REMARK   13  A    between atoms: C14_28  and  N6_29 
ROOT
HETATM    1  C5  UNL     1      -0.508   0.962  -0.875  1.00  0.00     0.254 C 
ENDROOT
BRANCH   1   2
HETATM    2  N2  UNL     1      -0.984   2.256  -1.094  1.00  0.00    -0.306 N 
HETATM    3  C4  UNL     1      -0.933   3.580  -0.762  1.00  0.00     0.155 C 
HETATM    4  S1  UNL     1      -2.033   4.575  -1.718  1.00  0.00    -0.013 SA
ATOM      5  H2  UNL     1      -1.683   2.178  -1.833  1.00  0.00     0.170 HD
BRANCH   3   6
HETATM    6  N1  UNL     1      -0.236   4.396   0.113  1.00  0.00    -0.366 N 
HETATM    7  C3  UNL     1      -0.567   5.856   0.194  1.00  0.00     0.151 C 
BRANCH   6   8
HETATM    8  C2  UNL     1       0.812   3.959   1.017  1.00  0.00     0.120 C 
HETATM    9  C1  UNL     1       2.135   4.615   0.554  1.00  0.00     0.026 C 
ENDBRANCH   6   8
ENDBRANCH   3   6
ENDBRANCH   1   2
BRANCH   1  10
HETATM   10  N3  UNL     1      -1.274   0.062  -0.668  1.00  0.00    -0.335 NA
BRANCH  10  11
HETATM   11  C6  UNL     1      -2.075  -0.931  -0.441  1.00  0.00     0.343 C 
BRANCH  11  12
HETATM   12  O1  UNL     1      -1.816  -2.198  -0.702  1.00  0.00    -0.315 OA
ATOM     13  H1  UNL     1      -2.403  -2.926  -0.536  1.00  0.00     0.222 HD
ENDBRANCH  11  12
BRANCH  11  14
HETATM   14  O2  UNL     1      -3.386  -0.831   0.128  1.00  0.00    -0.303 OA
BRANCH  14  15
HETATM   15  C7  UNL     1      -4.110  -2.070   0.280  1.00  0.00     0.213 C 
BRANCH  15  16
HETATM   16  C8  UNL     1      -5.470  -1.845   0.797  1.00  0.00     0.210 C 
HETATM   17  C9  UNL     1      -6.224  -3.145   0.981  1.00  0.00     0.037 C 
HETATM   18  C10 UNL     1      -7.648  -2.767   0.664  1.00  0.00     0.029 C 
HETATM   19  C11 UNL     1      -7.378  -1.812  -0.522  1.00  0.00     0.233 C 
HETATM   20  N4  UNL     1      -6.290  -1.014  -0.060  1.00  0.00    -0.069 N 
ATOM     21  H42 UNL     1      -6.594  -0.153   0.395  1.00  0.00     0.277 HD
ATOM     22  H41 UNL     1      -5.762  -0.585  -0.820  1.00  0.00     0.277 HD
ENDBRANCH  15  16
ENDBRANCH  14  15
ENDBRANCH  11  14
ENDBRANCH  10  11
ENDBRANCH   1  10
BRANCH   1  23
HETATM   23  C12 UNL     1       0.956   0.634  -0.993  1.00  0.00     0.303 C 
HETATM   24  O3  UNL     1       1.802   1.484  -1.281  1.00  0.00    -0.263 OA
HETATM   25  N5  UNL     1       1.355  -0.706  -0.766  1.00  0.00    -0.332 N 
ATOM     26  H5  UNL     1       0.590  -1.336  -0.525  1.00  0.00     0.168 HD
BRANCH  25  27
HETATM   27  C13 UNL     1       2.619  -1.322  -0.814  1.00  0.00     0.084 C 
BRANCH  27  28
HETATM   28  C14 UNL     1       3.638  -0.900   0.196  1.00  0.00     0.166 C 
BRANCH  28  29
HETATM   29  N6  UNL     1       4.840  -1.679   0.095  1.00  0.00    -0.389 N 
HETATM   30  C15 UNL     1       5.649  -1.532  -1.035  1.00  0.00     0.058 C 
HETATM   31  C16 UNL     1       6.888  -2.349  -0.700  1.00  0.00     0.046 C 
HETATM   32  C17 UNL     1       7.071  -1.987   0.777  1.00  0.00     0.025 C 
HETATM   33  C18 UNL     1       5.614  -1.897   1.242  1.00  0.00     0.122 C 
ENDBRANCH  28  29
ENDBRANCH  27  28
ENDBRANCH  25  27
ENDBRANCH   1  23
TORSDOF 13
