REMARK  7 active torsions:
REMARK  status: ('A' for Active; 'I' for Inactive)
REMARK    1  A    between atoms: C2_2  and  C5_5 
REMARK       I    between atoms: C5_5  and  N1_7 
REMARK    2  A    between atoms: N1_7  and  C6_9 
REMARK    3  A    between atoms: C6_9  and  C7_10 
REMARK       I    between atoms: C7_10  and  N2_12 
REMARK    4  A    between atoms: N2_12  and  C8_14 
REMARK    5  A    between atoms: C8_14  and  C9_15 
REMARK       I    between atoms: C9_15  and  N3_17 
REMARK    6  A    between atoms: C12_20  and  C13_21 
REMARK    7  A    between atoms: C12_20  and  N4_24 
ROOT
HETATM    1  C9  UNL     1      -0.435   0.272  -0.157  1.00  0.00     0.237 C 
HETATM    2  O3  UNL     1      -1.082   0.465   0.900  1.00  0.00    -0.272 OA
HETATM    3  N3  UNL     1       0.969   0.339  -0.145  1.00  0.00    -0.351 N 
HETATM    4  C10 UNL     1       1.766   0.123  -1.332  1.00  0.00     0.129 C 
HETATM    5  C11 UNL     1       3.233   0.162  -1.085  1.00  0.00     0.062 C 
HETATM    6  C12 UNL     1       3.713  -0.565   0.144  1.00  0.00     0.123 C 
HETATM    7  C19 UNL     1       2.779  -0.369   1.321  1.00  0.00     0.062 C 
HETATM    8  C20 UNL     1       1.679   0.630   1.067  1.00  0.00     0.129 C 
ENDROOT
BRANCH   1   9
HETATM    9  C8  UNL     1      -1.128  -0.027  -1.417  1.00  0.00     0.225 C 
BRANCH   9  10
HETATM   10  N2  UNL     1      -2.563  -0.050  -1.188  1.00  0.00    -0.351 N 
HETATM   11  C7  UNL     1      -3.440  -0.312  -2.239  1.00  0.00     0.235 C 
HETATM   12  O2  UNL     1      -2.929  -0.528  -3.397  1.00  0.00    -0.272 OA
ATOM     13  H2  UNL     1      -2.930   0.127  -0.253  1.00  0.00     0.163 HD
BRANCH  11  14
HETATM   14  C6  UNL     1      -4.888  -0.360  -2.116  1.00  0.00     0.225 C 
BRANCH  14  15
HETATM   15  N1  UNL     1      -5.374  -0.111  -0.793  1.00  0.00    -0.352 N 
HETATM   16  C5  UNL     1      -6.796  -0.137  -0.564  1.00  0.00     0.225 C 
HETATM   17  O1  UNL     1      -7.594  -0.373  -1.511  1.00  0.00    -0.273 OA
ATOM     18  H1  UNL     1      -4.727   0.081  -0.028  1.00  0.00     0.162 HD
BRANCH  16  19
HETATM   19  C2  UNL     1      -7.280   0.121   0.807  1.00  0.00     0.030 C 
HETATM   20  C1  UNL     1      -6.709  -0.906   1.760  1.00  0.00     0.024 C 
HETATM   21  C3  UNL     1      -6.956   1.533   1.259  1.00  0.00     0.024 C 
HETATM   22  C4  UNL     1      -8.805   0.022   0.801  1.00  0.00     0.024 C 
ENDBRANCH  16  19
ENDBRANCH  14  15
ENDBRANCH  11  14
ENDBRANCH   9  10
ENDBRANCH   1   9
BRANCH   6  23
HETATM   23  C13 UNL     1       3.675  -2.019  -0.135  1.00  0.00     0.202 C 
HETATM   24  O4  UNL     1       2.666  -2.593  -0.614  1.00  0.00    -0.646 OA
HETATM   25  O5  UNL     1       4.768  -2.800   0.131  1.00  0.00    -0.646 OA
ENDBRANCH   6  23
BRANCH   6  26
HETATM   26  N4  UNL     1       5.008  -0.188   0.559  1.00  0.00    -0.374 N 
HETATM   27  C14 UNL     1       6.097  -0.387  -0.325  1.00  0.00     0.123 C 
HETATM   28  C15 UNL     1       7.325  -0.676   0.554  1.00  0.00     0.020 C 
HETATM   29  C16 UNL     1       7.668   0.644   1.208  1.00  0.00     0.007 C 
HETATM   30  C17 UNL     1       6.525   1.634   1.181  1.00  0.00     0.044 C 
HETATM   31  C18 UNL     1       5.184   0.935   1.387  1.00  0.00     0.059 C 
ENDBRANCH   6  26
TORSDOF 7
