REMARK  8 active torsions:
REMARK  status: ('A' for Active; 'I' for Inactive)
REMARK    1  A    between atoms: O1_2  and  C2_3 
REMARK    2  A    between atoms: N1_6  and  S1_7 
REMARK    3  A    between atoms: S1_7  and  N2_10 
REMARK    4  A    between atoms: C7_13  and  C8_14 
REMARK    5  A    between atoms: C8_14  and  C9_15 
REMARK    6  A    between atoms: C9_15  and  N3_16 
REMARK       I    between atoms: N3_16  and  C10_18 
REMARK       I    between atoms: C10_18  and  N4_20 
REMARK    7  A    between atoms: N4_20  and  C11_22 
REMARK    8  A    between atoms: C11_22  and  C12_26 
ROOT
HETATM    1  N2  UNL     1      -2.827   1.530  -0.701  1.00  0.00    -0.193 NA
HETATM    2  C5  UNL     1      -2.040   0.686   0.132  1.00  0.00     0.109 C 
HETATM    3  C6  UNL     1      -0.535   1.013  -0.107  1.00  0.00     0.020 C 
HETATM    4  C7  UNL     1      -0.238   2.378   0.379  1.00  0.00    -0.007 C 
HETATM    5  C16 UNL     1      -1.398   3.294   0.073  1.00  0.00     0.020 C 
HETATM    6  C17 UNL     1      -2.203   2.760  -1.051  1.00  0.00     0.109 C 
ENDROOT
BRANCH   4   7
HETATM    7  C8  UNL     1       0.999   2.999  -0.188  1.00  0.00     0.049 C 
BRANCH   7   8
HETATM    8  C9  UNL     1       2.294   2.327   0.084  1.00  0.00     0.066 C 
BRANCH   8   9
HETATM    9  N3  UNL     1       2.518   1.032  -0.406  1.00  0.00    -0.322 N 
HETATM   10  C10 UNL     1       3.790   0.375  -0.101  1.00  0.00     0.325 C 
HETATM   11  O4  UNL     1       4.571   1.062   0.587  1.00  0.00    -0.247 OA
HETATM   12  N4  UNL     1       4.023  -0.916  -0.585  1.00  0.00    -0.298 N 
ATOM     13  H4  UNL     1       3.248  -1.294  -1.129  1.00  0.00     0.172 HD
ATOM     14  H3  UNL     1       1.808   0.557  -0.964  1.00  0.00     0.169 HD
BRANCH  12  15
HETATM   15  C11 UNL     1       5.103  -1.788  -0.472  1.00  0.00     0.086 C 
HETATM   16  N5  UNL     1       4.973  -2.955  -1.070  1.00  0.00    -0.388 N 
ATOM     17  H52 UNL     1       4.099  -3.134  -1.565  1.00  0.00     0.157 HD
ATOM     18  H51 UNL     1       5.764  -3.594  -0.987  1.00  0.00     0.157 HD
BRANCH  15  19
HETATM   19  C12 UNL     1       6.342  -1.534   0.230  1.00  0.00     0.007 C 
HETATM   20  C13 UNL     1       7.126  -0.351  -0.337  1.00  0.00     0.022 C 
HETATM   21  C14 UNL     1       7.282  -2.761   0.180  1.00  0.00     0.022 C 
HETATM   22  C15 UNL     1       6.106  -1.310   1.708  1.00  0.00     0.022 C 
ENDBRANCH  15  19
ENDBRANCH  12  15
ENDBRANCH   8   9
ENDBRANCH   7   8
ENDBRANCH   4   7
BRANCH   1  23
HETATM   23  S1  UNL     1      -4.396   1.781  -0.088  1.00  0.00     0.304 S 
HETATM   24  O2  UNL     1      -5.172   2.760  -0.977  1.00  0.00    -0.188 OA
HETATM   25  O3  UNL     1      -4.297   2.511   1.257  1.00  0.00    -0.188 OA
BRANCH  23  26
HETATM   26  N1  UNL     1      -5.350   0.400   0.059  1.00  0.00    -0.275 N 
HETATM   27  C4  UNL     1      -5.630  -0.301  -1.141  1.00  0.00     0.144 C 
HETATM   28  C3  UNL     1      -5.720  -1.775  -0.790  1.00  0.00     0.058 C 
HETATM   29  C2  UNL     1      -5.725  -1.829   0.718  1.00  0.00     0.161 C 
HETATM   30  C18 UNL     1      -5.094  -0.509   1.105  1.00  0.00     0.109 C 
BRANCH  29  31
HETATM   31  O1  UNL     1      -6.972  -2.015   1.254  1.00  0.00    -0.385 OA
HETATM   32  C1  UNL     1      -7.095  -3.147   2.032  1.00  0.00     0.202 C 
ENDBRANCH  29  31
ENDBRANCH  23  26
ENDBRANCH   1  23
TORSDOF 8
