REMARK  8 active torsions:
REMARK  status: ('A' for Active; 'I' for Inactive)
REMARK    1  A    between atoms: C2_2  and  O1_3 
REMARK    2  A    between atoms: C2_2  and  N1_5 
REMARK    3  A    between atoms: N1_5  and  C3_7 
REMARK    4  A    between atoms: C4_10  and  N3_11 
REMARK    5  A    between atoms: C7_16  and  N5_17 
REMARK    6  A    between atoms: N5_17  and  C8_19 
REMARK    7  A    between atoms: C8_19  and  C9_20 
REMARK    8  A    between atoms: C11_24  and  O2_25 
ROOT
HETATM    1  C3  UNL     1       2.494  -0.712   0.060  1.00  0.00     0.709 A 
HETATM    2  N2  UNL     1       2.838   0.604  -0.050  1.00  0.00    -0.021 N 
ATOM      3  H2  UNL     1       3.816   0.891  -0.017  1.00  0.00     0.203 HD
HETATM    4  C4  UNL     1       1.868   1.509  -0.202  1.00  0.00     0.708 A 
HETATM    5  N4  UNL     1       0.578   1.114  -0.242  1.00  0.00    -0.021 N 
ATOM      6  H4  UNL     1      -0.148   1.821  -0.357  1.00  0.00     0.203 HD
HETATM    7  C7  UNL     1       0.214  -0.171  -0.136  1.00  0.00     0.707 A 
HETATM    8  N8  UNL     1       1.206  -1.085   0.017  1.00  0.00    -0.021 N 
ATOM      9  H8  UNL     1       0.968  -2.073   0.101  1.00  0.00     0.203 HD
ENDROOT
BRANCH   7  10
HETATM   10  N5  UNL     1      -0.994  -0.612  -0.143  1.00  0.00    -0.219 N 
ATOM     11  H5  UNL     1      -1.196  -1.608  -0.058  1.00  0.00     0.178 HD
BRANCH  10  12
HETATM   12  C8  UNL     1      -2.058   0.366  -0.277  1.00  0.00     0.196 C 
BRANCH  12  13
HETATM   13  C9  UNL     1      -3.321  -0.083   0.345  1.00  0.00     0.048 A 
HETATM   14  C10 UNL     1      -3.366  -0.538   1.653  1.00  0.00     0.117 A 
HETATM   15  N6  UNL     1      -4.510  -0.955   2.223  1.00  0.00    -0.341 N 
HETATM   16  C11 UNL     1      -5.673  -0.950   1.544  1.00  0.00     0.210 A 
ATOM     17  H6  UNL     1      -4.497  -1.282   3.189  1.00  0.00     0.167 HD
HETATM   18  C12 UNL     1      -5.639  -0.501   0.248  1.00  0.00     0.298 A 
HETATM   19  O3  UNL     1      -6.724  -0.488  -0.410  1.00  0.00    -0.263 OA
HETATM   20  N7  UNL     1      -4.481  -0.077  -0.333  1.00  0.00    -0.316 N 
HETATM   21  C13 UNL     1      -4.520   0.387  -1.698  1.00  0.00     0.159 C 
BRANCH  16  22
HETATM   22  O2  UNL     1      -6.869  -1.385   2.138  1.00  0.00    -0.342 OA
ATOM     23  H2  UNL     1      -7.689  -1.381   1.659  1.00  0.00     0.219 HD
ENDBRANCH  16  22
ENDBRANCH  12  13
ENDBRANCH  10  12
ENDBRANCH   7  10
BRANCH   4  24
HETATM   24  N3  UNL     1       2.232   2.880  -0.314  1.00  0.00    -0.225 N 
HETATM   25  C5  UNL     1       1.997   3.856   0.706  1.00  0.00     0.168 C 
HETATM   26  C6  UNL     1       2.891   3.263  -1.555  1.00  0.00     0.168 C 
ENDBRANCH   4  24
BRANCH   1  27
HETATM   27  N1  UNL     1       3.436  -1.568   0.205  1.00  0.00    -0.199 N 
ATOM     28  H1  UNL     1       4.404  -1.249   0.235  1.00  0.00     0.180 HD
BRANCH  27  29
HETATM   29  C2  UNL     1       3.151  -2.967   0.326  1.00  0.00     0.230 C 
HETATM   30  C1  UNL     1       4.463  -3.720   0.315  1.00  0.00     0.063 C 
BRANCH  29  31
HETATM   31  O1  UNL     1       2.487  -3.311   1.508  1.00  0.00    -0.377 OA
ATOM     32  H1  UNL     1       1.663  -2.838   1.515  1.00  0.00     0.212 HD
ENDBRANCH  29  31
ENDBRANCH  27  29
ENDBRANCH   1  27
TORSDOF 8
