REMARK  8 active torsions:
REMARK  status: ('A' for Active; 'I' for Inactive)
REMARK    1  A    between atoms: N1_7  and  C6_8 
REMARK    2  A    between atoms: C6_8  and  N2_9 
REMARK    3  A    between atoms: N2_9  and  C7_11 
REMARK    4  A    between atoms: N7_23  and  C11_24 
REMARK    5  A    between atoms: C11_24  and  C12_25 
REMARK    6  A    between atoms: C12_25  and  O2_26 
REMARK    7  A    between atoms: C12_25  and  C13_28 
REMARK    8  A    between atoms: C13_28  and  O3_29 
ROOT
HETATM    1  C1  UNL     1       7.923   2.171  -0.730  1.00  0.00     0.019 C 
HETATM    2  C2  UNL     1       6.974   1.494  -0.424  1.00  0.00    -0.059 C 
HETATM    3  C3  UNL     1       5.831   0.673  -0.076  1.00  0.00     0.092 A 
HETATM    4  C4  UNL     1       5.504   0.428   1.243  1.00  0.00     0.113 A 
HETATM    5  C5  UNL     1       4.412  -0.355   1.547  1.00  0.00     0.252 A 
HETATM    6  O1  UNL     1       4.077  -0.604   2.750  1.00  0.00    -0.268 OA
HETATM    7  N1  UNL     1       3.683  -0.867   0.538  1.00  0.00    -0.294 N 
HETATM    8  C14 UNL     1       4.004  -0.627  -0.750  1.00  0.00     0.188 A 
HETATM    9  N8  UNL     1       5.073   0.140  -1.024  1.00  0.00    -0.345 N 
ATOM     10  H8  UNL     1       5.310   0.319  -2.000  1.00  0.00     0.167 HD
ENDROOT
BRANCH   7  11
HETATM   11  C6  UNL     1       2.535  -1.690   0.839  1.00  0.00     0.257 C 
BRANCH  11  12
HETATM   12  N2  UNL     1       1.324  -0.955   0.967  1.00  0.00    -0.358 N 
ATOM     13  H2  UNL     1       1.189  -0.454   1.845  1.00  0.00     0.162 HD
BRANCH  12  14
HETATM   14  C7  UNL     1       0.388  -0.852   0.106  1.00  0.00     0.136 A 
HETATM   15  N3  UNL     1       0.367  -1.421  -1.088  1.00  0.00    -0.337 N 
HETATM   16  C8  UNL     1      -0.658  -1.258  -1.924  1.00  0.00     0.183 A 
ATOM     17  H3  UNL     1       1.156  -2.000  -1.376  1.00  0.00     0.168 HD
HETATM   18  N4  UNL     1      -1.702  -0.506  -1.574  1.00  0.00    -0.335 N 
HETATM   19  C9  UNL     1      -1.748   0.100  -0.378  1.00  0.00     0.157 A 
ATOM     20  H4  UNL     1      -2.478  -0.390  -2.226  1.00  0.00     0.168 HD
HETATM   21  C10 UNL     1      -0.703  -0.067   0.473  1.00  0.00     0.139 A 
HETATM   22  N7  UNL     1      -2.644   0.893   0.228  1.00  0.00    -0.258 N 
HETATM   23  N5  UNL     1      -0.997   0.632   1.576  1.00  0.00    -0.279 N 
HETATM   24  N6  UNL     1      -2.174   1.210   1.418  1.00  0.00    -0.238 N 
ATOM     25  H5  UNL     1      -0.407   0.706   2.405  1.00  0.00     0.189 HD
ATOM     26  H6  UNL     1      -2.642   1.803   2.103  1.00  0.00     0.208 HD
BRANCH  22  27
HETATM   27  C11 UNL     1      -3.898   1.298  -0.375  1.00  0.00     0.186 C 
BRANCH  27  28
HETATM   28  C12 UNL     1      -4.995   0.301  -0.040  1.00  0.00     0.161 C 
BRANCH  28  29
HETATM   29  O2  UNL     1      -5.129   0.262   1.344  1.00  0.00    -0.392 OA
ATOM     30  H2  UNL     1      -5.815  -0.361   1.553  1.00  0.00     0.210 HD
ENDBRANCH  28  29
BRANCH  28  31
HETATM   31  C13 UNL     1      -6.273   0.811  -0.688  1.00  0.00     0.197 C 
BRANCH  31  32
HETATM   32  O3  UNL     1      -7.303  -0.058  -0.340  1.00  0.00    -0.398 OA
ATOM     33  H3  UNL     1      -8.101   0.261  -0.745  1.00  0.00     0.209 HD
ENDBRANCH  31  32
ENDBRANCH  28  31
ENDBRANCH  27  28
ENDBRANCH  22  27
ENDBRANCH  12  14
ENDBRANCH  11  12
ENDBRANCH   7  11
TORSDOF 8
