REMARK  6 active torsions:
REMARK  status: ('A' for Active; 'I' for Inactive)
REMARK    1  A    between atoms: C11_17  and  N4_18 
REMARK    2  A    between atoms: N4_18  and  N5_20 
REMARK    3  A    between atoms: C12_22  and  C13_23 
REMARK    4  A    between atoms: C12_22  and  C15_27 
REMARK    5  A    between atoms: C13_23  and  C14_24 
REMARK    6  A    between atoms: C14_24  and  O2_25 
ROOT
HETATM    1  N4  UNL     1       0.765  -0.109  -0.330  1.00  0.00    -0.302 N 
ATOM      2  H4  UNL     1       0.596   0.824  -0.706  1.00  0.00     0.186 HD
ENDROOT
BRANCH   1   3
HETATM    3  C11 UNL     1      -0.056  -1.214  -0.730  1.00  0.00     0.058 A 
HETATM    4  C4  UNL     1      -1.380  -1.204  -0.686  1.00  0.00     0.044 A 
HETATM    5  C3  UNL     1      -2.285  -0.226  -0.281  1.00  0.00     0.063 A 
HETATM    6  C5  UNL     1      -1.894  -2.405  -1.132  1.00  0.00     0.043 A 
HETATM    7  N2  UNL     1      -1.860   0.970   0.167  1.00  0.00    -0.351 N 
HETATM    8  C8  UNL     1      -3.650  -0.421  -0.314  1.00  0.00     0.060 A 
HETATM    9  C2  UNL     1      -2.717   1.928   0.562  1.00  0.00     0.186 A 
ATOM     10  H2  UNL     1      -0.858   1.155   0.208  1.00  0.00     0.166 HD
HETATM   11  N1  UNL     1      -4.047   1.757   0.537  1.00  0.00    -0.314 N 
HETATM   12  C1  UNL     1      -4.919   2.830   0.977  1.00  0.00     0.160 C 
HETATM   13  C9  UNL     1      -4.513   0.576   0.096  1.00  0.00     0.260 A 
HETATM   14  O1  UNL     1      -5.744   0.399   0.066  1.00  0.00    -0.267 OA
HETATM   15  C7  UNL     1      -4.100  -1.643  -0.771  1.00  0.00     0.022 A 
HETATM   16  C6  UNL     1      -3.260  -2.651  -1.185  1.00  0.00     0.031 A 
HETATM   17  N3  UNL     1      -0.927  -3.192  -1.465  1.00  0.00    -0.383 N 
HETATM   18  C10 UNL     1       0.341  -2.527  -1.248  1.00  0.00     0.179 A 
ATOM     19  H3  UNL     1      -1.039  -4.139  -1.826  1.00  0.00     0.160 HD
ENDBRANCH   1   3
BRANCH   1  20
HETATM   20  N5  UNL     1       1.796  -0.328   0.580  1.00  0.00    -0.301 N 
HETATM   21  C12 UNL     1       3.051  -0.183   0.254  1.00  0.00     0.074 C 
ATOM     22  H5  UNL     1       1.563  -0.611   1.532  1.00  0.00     0.186 HD
BRANCH  21  23
HETATM   23  C13 UNL     1       3.448   0.225  -1.113  1.00  0.00     0.088 C 
BRANCH  23  24
HETATM   24  C14 UNL     1       4.171   1.543  -1.118  1.00  0.00     0.170 C 
BRANCH  24  25
HETATM   25  O2  UNL     1       3.391   2.573  -0.595  1.00  0.00    -0.400 OA
ATOM     26  H2  UNL     1       3.848   3.406  -0.598  1.00  0.00     0.209 HD
ENDBRANCH  24  25
ENDBRANCH  23  24
ENDBRANCH  21  23
BRANCH  21  27
HETATM   27  C15 UNL     1       4.016  -0.439   1.313  1.00  0.00     0.161 A 
HETATM   28  N6  UNL     1       5.340  -0.365   1.193  1.00  0.00    -0.267 N 
HETATM   29  N7  UNL     1       5.869  -0.662   2.349  1.00  0.00    -0.227 N 
ATOM     30  H6  UNL     1       5.852  -0.119   0.346  1.00  0.00     0.190 HD
HETATM   31  N8  UNL     1       4.928  -0.931   3.233  1.00  0.00    -0.227 N 
ATOM     32  H7  UNL     1       6.870  -0.683   2.542  1.00  0.00     0.210 HD
HETATM   33  N9  UNL     1       3.785  -0.793   2.592  1.00  0.00    -0.267 N 
ATOM     34  H8  UNL     1       5.058  -1.192   4.210  1.00  0.00     0.210 HD
ATOM     35  H9  UNL     1       2.862  -0.933   3.003  1.00  0.00     0.190 HD
ENDBRANCH  21  27
ENDBRANCH   1  20
TORSDOF 6
