REMARK  8 active torsions:
REMARK  status: ('A' for Active; 'I' for Inactive)
REMARK    1  A    between atoms: O1_3  and  N1_4 
REMARK    2  A    between atoms: N1_4  and  C3_6 
REMARK    3  A    between atoms: C5_8  and  N2_9 
REMARK    4  A    between atoms: N2_9  and  C6_11 
REMARK    5  A    between atoms: C7_14  and  N4_15 
REMARK    6  A    between atoms: C10_20  and  N6_21 
REMARK    7  A    between atoms: C11_23  and  C12_24 
REMARK    8  A    between atoms: C12_24  and  O2_25 
ROOT
HETATM    1  C1  UNL     1       7.551   0.960   2.977  1.00  0.00     0.047 C 
HETATM    2  C2  UNL     1       6.450   1.219   2.564  1.00  0.00     0.073 C 
HETATM    3  O1  UNL     1       5.187   1.527   2.059  1.00  0.00    -0.185 OA
ENDROOT
BRANCH   3   4
HETATM    4  N1  UNL     1       5.176   2.052   0.785  1.00  0.00    -0.234 N 
ATOM      5  H1  UNL     1       5.803   2.818   0.541  1.00  0.00     0.197 HD
BRANCH   4   6
HETATM    6  C3  UNL     1       4.364   1.567  -0.102  1.00  0.00     0.145 A 
HETATM    7  C4  UNL     1       3.482   0.542   0.129  1.00  0.00     0.102 A 
HETATM    8  C5  UNL     1       2.645   0.068  -0.861  1.00  0.00     0.142 A 
HETATM    9  N8  UNL     1       2.688   0.624  -2.099  1.00  0.00    -0.266 N 
HETATM   10  C13 UNL     1       1.811   0.138  -3.157  1.00  0.00     0.181 C 
HETATM   11  N9  UNL     1       3.544   1.608  -2.299  1.00  0.00    -0.238 N 
HETATM   12  N10 UNL     1       4.349   2.072  -1.368  1.00  0.00    -0.269 N 
ATOM     13  H9  UNL     1       3.584   2.032  -3.226  1.00  0.00     0.208 HD
ATOM     14  H10 UNL     1       4.984   2.836  -1.601  1.00  0.00     0.190 HD
BRANCH   8  15
HETATM   15  N2  UNL     1       1.727  -0.983  -0.627  1.00  0.00    -0.174 N 
ATOM     16  H2  UNL     1       2.067  -1.944  -0.638  1.00  0.00     0.186 HD
BRANCH  15  17
HETATM   17  C6  UNL     1       0.474  -0.769  -0.400  1.00  0.00     0.713 A 
HETATM   18  N3  UNL     1      -0.343  -1.820  -0.181  1.00  0.00    -0.021 N 
HETATM   19  C7  UNL     1      -1.667  -1.684   0.049  1.00  0.00     0.708 A 
ATOM     20  H3  UNL     1       0.057  -2.758  -0.189  1.00  0.00     0.203 HD
HETATM   21  N5  UNL     1      -2.207  -0.456   0.061  1.00  0.00    -0.021 N 
HETATM   22  C10 UNL     1      -1.412   0.652  -0.160  1.00  0.00     0.711 A 
ATOM     23  H5  UNL     1      -3.206  -0.340   0.233  1.00  0.00     0.203 HD
HETATM   24  N7  UNL     1      -0.078   0.442  -0.385  1.00  0.00    -0.021 N 
ATOM     25  H7  UNL     1       0.521   1.251  -0.549  1.00  0.00     0.203 HD
BRANCH  19  26
HETATM   26  N4  UNL     1      -2.515  -2.791   0.281  1.00  0.00    -0.225 N 
HETATM   27  C8  UNL     1      -2.529  -3.565   1.506  1.00  0.00     0.168 C 
HETATM   28  C9  UNL     1      -3.456  -3.190  -0.763  1.00  0.00     0.168 C 
ENDBRANCH  19  26
BRANCH  22  29
HETATM   29  N6  UNL     1      -1.908   1.773  -0.178  1.00  0.00    -0.202 N 
HETATM   30  C11 UNL     1      -2.921   2.653  -0.096  1.00  0.00     0.105 C 
ATOM     31  H6  UNL     1      -1.102   2.373  -0.353  1.00  0.00     0.183 HD
BRANCH  30  32
HETATM   32  C12 UNL     1      -4.156   2.231   0.730  1.00  0.00     0.209 C 
BRANCH  32  33
HETATM   33  O2  UNL     1      -5.103   3.259   0.697  1.00  0.00    -0.396 OA
ATOM     34  H2  UNL     1      -5.863   2.999   1.205  1.00  0.00     0.209 HD
ENDBRANCH  32  33
ENDBRANCH  30  32
ENDBRANCH  22  29
ENDBRANCH  15  17
ENDBRANCH   8  15
ENDBRANCH   4   6
ENDBRANCH   3   4
TORSDOF 8
