REMARK  13 active torsions:
REMARK  status: ('A' for Active; 'I' for Inactive)
REMARK    1  A    between atoms: N1_2  and  C1_4 
REMARK    2  A    between atoms: C1_4  and  C2_5 
REMARK    3  A    between atoms: C2_5  and  N5_19 
REMARK    4  A    between atoms: N2_6  and  N3_8 
REMARK    5  A    between atoms: N3_8  and  C3_9 
REMARK    6  A    between atoms: C3_9  and  C4_10 
REMARK    7  A    between atoms: C7_13  and  N4_14 
REMARK    8  A    between atoms: N5_19  and  N6_21 
REMARK    9  A    between atoms: C10_23  and  C11_24 
REMARK   10  A    between atoms: C11_24  and  N7_25 
REMARK   11  A    between atoms: N9_28  and  O6_29 
REMARK   12  A    between atoms: C12_31  and  C13_32 
REMARK   13  A    between atoms: N10_33  and  O7_35 
ROOT
HETATM    1  C2  UNL     1       0.122  -0.425   0.466  1.00  0.00     0.146 C 
HETATM    2  N2  UNL     1       0.711   0.720   0.484  1.00  0.00    -0.221 N 
ATOM      3  H2  UNL     1       0.225   1.413   1.053  1.00  0.00     0.203 HD
ENDROOT
BRANCH   1   4
HETATM    4  C1  UNL     1       0.678  -1.551  -0.299  1.00  0.00     0.281 C 
BRANCH   4   5
HETATM    5  N1  UNL     1      -0.198  -2.043  -1.328  1.00  0.00    -0.148 N 
HETATM    6  O1  UNL     1      -0.591  -3.211  -1.301  1.00  0.00    -0.536 OA
HETATM    7  O2  UNL     1      -0.592  -1.216  -2.332  1.00  0.00    -0.536 OA
ENDBRANCH   4   5
ENDBRANCH   1   4
BRANCH   1   8
HETATM    8  N5  UNL     1      -1.077  -0.606   1.194  1.00  0.00    -0.286 N 
ATOM      9  H5  UNL     1      -1.205  -0.085   2.061  1.00  0.00     0.188 HD
BRANCH   8  10
HETATM   10  N6  UNL     1      -2.093  -1.468   0.776  1.00  0.00    -0.313 N 
HETATM   11  C10 UNL     1      -3.189  -1.067   0.223  1.00  0.00     0.101 C 
ATOM     12  H6  UNL     1      -1.962  -2.470   0.915  1.00  0.00     0.185 HD
BRANCH  11  13
HETATM   13  C11 UNL     1      -3.436   0.374  -0.006  1.00  0.00     0.195 C 
BRANCH  13  14
HETATM   14  N7  UNL     1      -4.557   0.532  -0.911  1.00  0.00    -0.243 N 
HETATM   15  N8  UNL     1      -4.493   0.624  -2.253  1.00  0.00     0.054 NA
HETATM   16  O5  UNL     1      -5.687   0.765  -2.739  1.00  0.00    -0.112 OA
HETATM   17  N9  UNL     1      -6.559   0.772  -1.794  1.00  0.00    -0.085 N 
HETATM   18  C12 UNL     1      -5.859   0.625  -0.630  1.00  0.00     0.193 A 
BRANCH  17  19
HETATM   19  O6  UNL     1      -7.913   0.899  -1.896  1.00  0.00    -0.260 OA
ATOM     20  H6  UNL     1      -8.557   0.904  -1.198  1.00  0.00     0.247 HD
ENDBRANCH  17  19
BRANCH  18  21
HETATM   21  C13 UNL     1      -6.484   0.573   0.696  1.00  0.00     0.168 C 
HETATM   22  N10 UNL     1      -5.840   0.418   1.779  1.00  0.00    -0.277 N 
ATOM     23  H10 UNL     1      -4.825   0.321   1.757  1.00  0.00     0.193 HD
BRANCH  22  24
HETATM   24  O7  UNL     1      -6.502   0.381   2.976  1.00  0.00    -0.290 OA
ATOM     25  H7  UNL     1      -6.020   0.265   3.786  1.00  0.00     0.244 HD
ENDBRANCH  22  24
ENDBRANCH  18  21
ENDBRANCH  13  14
ENDBRANCH  11  13
ENDBRANCH   8  10
ENDBRANCH   1   8
BRANCH   2  26
HETATM   26  N3  UNL     1       1.774   1.171  -0.059  1.00  0.00    -0.336 NA
BRANCH  26  27
HETATM   27  C3  UNL     1       2.765   1.591  -0.564  1.00  0.00     0.220 C 
BRANCH  27  28
HETATM   28  C4  UNL     1       4.117   0.995  -0.386  1.00  0.00    -0.005 A 
HETATM   29  C5  UNL     1       5.237   1.521  -0.992  1.00  0.00     0.016 A 
HETATM   30  C6  UNL     1       6.485   0.963  -0.822  1.00  0.00     0.037 A 
HETATM   31  C7  UNL     1       6.645  -0.160  -0.024  1.00  0.00     0.102 A 
HETATM   32  C8  UNL     1       5.527  -0.689   0.584  1.00  0.00     0.037 A 
HETATM   33  C9  UNL     1       4.290  -0.119   0.404  1.00  0.00     0.016 A 
BRANCH  31  34
HETATM   34  N4  UNL     1       7.929  -0.734   0.151  1.00  0.00    -0.116 N 
HETATM   35  O3  UNL     1       8.081  -1.736   0.859  1.00  0.00    -0.532 OA
HETATM   36  O4  UNL     1       9.005  -0.173  -0.472  1.00  0.00    -0.532 OA
ENDBRANCH  31  34
ENDBRANCH  27  28
ENDBRANCH  26  27
ENDBRANCH   2  26
TORSDOF 13
