REMARK  10 active torsions:
REMARK  status: ('A' for Active; 'I' for Inactive)
REMARK    1  A    between atoms: C3_3  and  N1_4 
REMARK    2  A    between atoms: N1_4  and  C4_5 
REMARK    3  A    between atoms: N1_4  and  C5_7 
REMARK    4  A    between atoms: C6_10  and  N3_11 
REMARK    5  A    between atoms: N3_11  and  C7_13 
REMARK    6  A    between atoms: C7_13  and  C8_14 
REMARK    7  A    between atoms: C8_14  and  C9_15 
REMARK    8  A    between atoms: C9_15  and  S1_16 
REMARK    9  A    between atoms: S1_16  and  C10_17 
REMARK   10  A    between atoms: C12_27  and  N9_28 
ROOT
HETATM    1  C1  UNL     1      -3.537   4.797   0.918  1.00  0.00     0.014 C 
HETATM    2  C2  UNL     1      -3.858   3.673   1.214  1.00  0.00    -0.097 C 
HETATM    3  C3  UNL     1      -4.227   2.287   1.574  1.00  0.00     0.242 C 
ENDROOT
BRANCH   3   4
HETATM    4  N1  UNL     1      -3.062   1.547   1.996  1.00  0.00    -0.147 N 
BRANCH   4   5
HETATM    5  C4  UNL     1      -2.703   1.548   3.359  1.00  0.00     0.371 C 
HETATM    6  O1  UNL     1      -3.377   2.179   4.211  1.00  0.00    -0.283 OA
ENDBRANCH   4   5
BRANCH   4   7
HETATM    7  C5  UNL     1      -2.287   0.829   1.057  1.00  0.00     0.716 A 
HETATM    8  N2  UNL     1      -1.033   1.225   0.722  1.00  0.00    -0.021 N 
HETATM    9  C6  UNL     1      -0.319   0.525  -0.174  1.00  0.00     0.707 A 
ATOM     10  H2  UNL     1      -0.631   2.058   1.153  1.00  0.00     0.203 HD
HETATM   11  N8  UNL     1      -0.895  -0.551  -0.701  1.00  0.00    -0.021 N 
HETATM   12  C12 UNL     1      -2.150  -0.987  -0.396  1.00  0.00     0.709 A 
ATOM     13  H8  UNL     1      -0.359  -1.089  -1.382  1.00  0.00     0.203 HD
HETATM   14  N10 UNL     1      -2.842  -0.266   0.504  1.00  0.00    -0.021 N 
ATOM     15  H10 UNL     1      -3.786  -0.548   0.767  1.00  0.00     0.203 HD
BRANCH   9  16
HETATM   16  N3  UNL     1       0.876   0.915  -0.486  1.00  0.00    -0.225 N 
ATOM     17  H3  UNL     1       1.429   0.392  -1.165  1.00  0.00     0.177 HD
BRANCH  16  18
HETATM   18  C7  UNL     1       1.416   2.103   0.142  1.00  0.00     0.139 C 
BRANCH  18  19
HETATM   19  C8  UNL     1       2.884   1.919   0.445  1.00  0.00     0.031 C 
BRANCH  19  20
HETATM   20  C9  UNL     1       3.592   1.660  -0.861  1.00  0.00     0.084 C 
BRANCH  20  21
HETATM   21  S1  UNL     1       5.371   1.426  -0.630  1.00  0.00    -0.091 SA
BRANCH  21  22
HETATM   22  C10 UNL     1       5.742  -0.042   0.287  1.00  0.00     0.175 A 
HETATM   23  N4  UNL     1       4.936  -0.978   0.819  1.00  0.00    -0.266 N 
HETATM   24  N5  UNL     1       5.622  -1.908   1.423  1.00  0.00    -0.224 N 
ATOM     25  H4  UNL     1       3.918  -0.962   0.758  1.00  0.00     0.190 HD
HETATM   26  N6  UNL     1       6.899  -1.572   1.281  1.00  0.00    -0.003 NA
ATOM     27  H5  UNL     1       5.253  -2.727   1.906  1.00  0.00     0.205 HD
HETATM   28  N7  UNL     1       6.992  -0.433   0.589  1.00  0.00    -0.257 N 
HETATM   29  C11 UNL     1       8.222   0.252   0.233  1.00  0.00     0.177 C 
ENDBRANCH  21  22
ENDBRANCH  20  21
ENDBRANCH  19  20
ENDBRANCH  18  19
ENDBRANCH  16  18
ENDBRANCH   9  16
BRANCH  12  30
HETATM   30  N9  UNL     1      -2.658  -2.145  -1.022  1.00  0.00    -0.213 N 
HETATM   31  C13 UNL     1      -3.968  -2.678  -0.774  1.00  0.00     0.167 C 
HETATM   32  C14 UNL     1      -4.511  -3.036  -2.169  1.00  0.00     0.188 C 
HETATM   33  O2  UNL     1      -3.805  -4.086  -2.678  1.00  0.00    -0.388 OA
HETATM   34  C15 UNL     1      -2.460  -4.111  -2.478  1.00  0.00     0.188 C 
HETATM   35  C16 UNL     1      -1.832  -2.853  -1.970  1.00  0.00     0.167 C 
ENDBRANCH  12  30
ENDBRANCH   4   7
ENDBRANCH   3   4
TORSDOF 10
