REMARK  6 active torsions:
REMARK  status: ('A' for Active; 'I' for Inactive)
REMARK    1  A    between atoms: N2_7  and  C5_8 
REMARK    2  A    between atoms: C5_8  and  C6_9 
REMARK    3  A    between atoms: C6_9  and  N3_10 
REMARK    4  A    between atoms: C8_17  and  N7_18 
REMARK    5  A    between atoms: N7_18  and  O1_20 
REMARK    6  A    between atoms: N8_24  and  N9_25 
ROOT
HETATM    1  C5  UNL     1       0.656  -1.062   0.492  1.00  0.00     0.176 C 
ENDROOT
BRANCH   1   2
HETATM    2  N2  UNL     1      -0.766  -1.046   0.237  1.00  0.00    -0.238 N 
HETATM    3  N1  UNL     1      -1.606   0.029   0.535  1.00  0.00    -0.278 N 
HETATM    4  C4  UNL     1      -2.925  -0.328   0.141  1.00  0.00     0.148 A 
ATOM      5  H1  UNL     1      -1.324   0.913   0.959  1.00  0.00     0.189 HD
HETATM    6  C2  UNL     1      -3.976   0.460   0.280  1.00  0.00    -0.040 C 
HETATM    7  N8  UNL     1      -2.929  -1.633  -0.409  1.00  0.00    -0.193 N 
HETATM    8  C1  UNL     1      -3.871   1.813   0.869  1.00  0.00     0.047 C 
HETATM    9  C3  UNL     1      -5.321  -0.004  -0.164  1.00  0.00     0.047 C 
HETATM   10  C10 UNL     1      -1.554  -2.066  -0.339  1.00  0.00     0.363 A 
HETATM   11  O2  UNL     1      -1.188  -3.190  -0.745  1.00  0.00    -0.243 OA
BRANCH   7  12
HETATM   12  N9  UNL     1      -3.992  -2.384  -0.922  1.00  0.00    -0.333 N 
ATOM     13  H92 UNL     1      -4.964  -2.078  -0.971  1.00  0.00     0.177 HD
ATOM     14  H91 UNL     1      -3.995  -3.324  -1.318  1.00  0.00     0.177 HD
ENDBRANCH   7  12
ENDBRANCH   1   2
BRANCH   1  15
HETATM   15  C6  UNL     1       1.440  -0.528  -0.691  1.00  0.00     0.174 C 
BRANCH  15  16
HETATM   16  N3  UNL     1       2.854  -0.574  -0.364  1.00  0.00    -0.260 N 
HETATM   17  N4  UNL     1       3.523  -1.729  -0.593  1.00  0.00    -0.238 N 
HETATM   18  N5  UNL     1       4.745  -1.634  -0.233  1.00  0.00    -0.270 N 
ATOM     19  H4  UNL     1       3.105  -2.566  -1.000  1.00  0.00     0.208 HD
HETATM   20  C7  UNL     1       4.947  -0.417   0.250  1.00  0.00     0.174 A 
ATOM     21  H5  UNL     1       5.447  -2.371  -0.305  1.00  0.00     0.190 HD
HETATM   22  N6  UNL     1       6.175   0.077   0.751  1.00  0.00    -0.078 NA
HETATM   23  C8  UNL     1       3.708   0.265   0.159  1.00  0.00     0.167 A 
BRANCH  23  24
HETATM   24  N7  UNL     1       3.598   1.593   0.571  1.00  0.00    -0.148 NA
HETATM   25  C9  UNL     1       2.376   2.287   0.416  1.00  0.00     0.152 C 
BRANCH  24  26
HETATM   26  O1  UNL     1       4.610   2.329  -0.044  1.00  0.00    -0.307 OA
ATOM     27  H1  UNL     1       4.535   3.234   0.237  1.00  0.00     0.237 HD
ENDBRANCH  24  26
ENDBRANCH  23  24
ENDBRANCH  15  16
ENDBRANCH   1  15
TORSDOF 6
