REMARK  6 active torsions:
REMARK  status: ('A' for Active; 'I' for Inactive)
REMARK    1  A    between atoms: N3_8  and  C5_10 
REMARK    2  A    between atoms: C5_10  and  C6_11 
REMARK    3  A    between atoms: N4_12  and  C7_14 
REMARK    4  A    between atoms: C7_14  and  C9_17 
REMARK    5  A    between atoms: C9_17  and  O1_18 
REMARK    6  A    between atoms: C10_22  and  N7_23 
ROOT
HETATM    1  C7  UNL     1       4.192   0.753  -0.221  1.00  0.00     0.212 C 
HETATM    2  C8  UNL     1       5.323   1.746  -0.258  1.00  0.00     0.086 C 
HETATM    3  N5  UNL     1       6.178   2.518  -0.297  1.00  0.00    -0.195 NA
ENDROOT
BRANCH   1   4
HETATM    4  N4  UNL     1       3.120   1.353   0.449  1.00  0.00    -0.379 N 
HETATM    5  C6  UNL     1       1.791   1.132   0.229  1.00  0.00     0.102 C 
ATOM      6  H4  UNL     1       3.356   2.026   1.178  1.00  0.00     0.160 HD
BRANCH   5   7
HETATM    7  C5  UNL     1       1.152  -0.193   0.630  1.00  0.00     0.123 C 
BRANCH   7   8
HETATM    8  N3  UNL     1      -0.212  -0.206   0.384  1.00  0.00    -0.198 N 
HETATM    9  C4  UNL     1      -1.183  -0.860   0.011  1.00  0.00     0.719 A 
HETATM   10  N2  UNL     1      -2.375  -0.171   0.017  1.00  0.00    -0.065 N 
HETATM   11  N6  UNL     1      -1.177  -2.153  -0.404  1.00  0.00    -0.021 N 
HETATM   12  N1  UNL     1      -2.423   1.097   0.419  1.00  0.00    -0.288 N 
HETATM   13  C11 UNL     1      -3.485  -0.796  -0.385  1.00  0.00     0.211 A 
HETATM   14  C3  UNL     1      -3.546   1.838   0.456  1.00  0.00     0.123 A 
ATOM     15  H1  UNL     1      -1.552   1.536   0.718  1.00  0.00     0.187 HD
HETATM   16  C2  UNL     1      -4.712   1.233   0.049  1.00  0.00     0.025 A 
HETATM   17  C1  UNL     1      -5.836   1.935   0.068  1.00  0.00     0.029 C 
HETATM   18  C12 UNL     1      -4.684  -0.072  -0.367  1.00  0.00     0.229 A 
HETATM   19  O2  UNL     1      -5.726  -0.661  -0.744  1.00  0.00    -0.283 OA
HETATM   20  N8  UNL     1      -3.446  -2.093  -0.793  1.00  0.00    -0.170 N 
HETATM   21  C10 UNL     1      -2.293  -2.782  -0.807  1.00  0.00     0.692 A 
ATOM     22  H8  UNL     1      -4.307  -2.550  -1.093  1.00  0.00     0.186 HD
ATOM     23  H6  UNL     1      -0.294  -2.664  -0.410  1.00  0.00     0.203 HD
ATOM     24  H3  UNL     1      -0.558   0.727   0.609  1.00  0.00     0.183 HD
BRANCH  21  25
HETATM   25  N7  UNL     1      -2.244  -4.024  -1.192  1.00  0.00    -0.234 N 
ATOM     26  H72 UNL     1      -1.368  -4.547  -1.203  1.00  0.00     0.174 HD
ATOM     27  H71 UNL     1      -3.092  -4.502  -1.498  1.00  0.00     0.174 HD
ENDBRANCH  21  25
ENDBRANCH   7   8
ENDBRANCH   5   7
ENDBRANCH   1   4
BRANCH   1  28
HETATM   28  C9  UNL     1       4.758  -0.499   0.405  1.00  0.00     0.204 C 
BRANCH  28  29
HETATM   29  O1  UNL     1       5.860  -0.902  -0.384  1.00  0.00    -0.398 OA
ATOM     30  H1  UNL     1       6.216  -1.690   0.010  1.00  0.00     0.209 HD
ENDBRANCH  28  29
ENDBRANCH   1  28
TORSDOF 6
