REMARK  6 active torsions:
REMARK  status: ('A' for Active; 'I' for Inactive)
REMARK    1  A    between atoms: C2_2  and  C3_3 
REMARK    2  A    between atoms: C2_2  and  C4_6 
REMARK    3  A    between atoms: C2_2  and  N6_22 
REMARK    4  A    between atoms: C3_3  and  O1_4 
REMARK    5  A    between atoms: C4_6  and  N1_7 
REMARK    6  A    between atoms: N6_22  and  C9_24 
ROOT
HETATM    1  C9  UNL     1      -2.765   1.666  -0.307  1.00  0.00     0.294 C 
HETATM    2  C10 UNL     1      -2.899   1.807   1.136  1.00  0.00     0.099 C 
HETATM    3  N7  UNL     1      -3.033   1.945   2.291  1.00  0.00    -0.194 NA
HETATM    4  C11 UNL     1      -4.000   2.179  -0.961  1.00  0.00     0.099 C 
HETATM    5  N8  UNL     1      -4.951   2.596  -1.472  1.00  0.00    -0.194 NA
ENDROOT
BRANCH   1   6
HETATM    6  N6  UNL     1      -2.494   0.357  -0.710  1.00  0.00    -0.383 N 
ATOM      7  H6  UNL     1      -3.187  -0.146  -1.264  1.00  0.00     0.156 HD
BRANCH   6   8
HETATM    8  C2  UNL     1      -1.287  -0.287  -0.371  1.00  0.00     0.063 C 
HETATM    9  C1  UNL     1      -1.075  -0.482   1.086  1.00  0.00     0.042 C 
BRANCH   8  10
HETATM   10  C3  UNL     1      -1.419  -1.716  -0.959  1.00  0.00     0.196 C 
BRANCH  10  11
HETATM   11  O1  UNL     1      -2.554  -2.248  -0.311  1.00  0.00    -0.398 OA
ATOM     12  H1  UNL     1      -2.635  -3.123  -0.671  1.00  0.00     0.209 HD
ENDBRANCH  10  11
ENDBRANCH   8  10
BRANCH   8  13
HETATM   13  C4  UNL     1      -0.158   0.416  -1.087  1.00  0.00     0.184 C 
BRANCH  13  14
HETATM   14  N1  UNL     1       1.111  -0.264  -1.011  1.00  0.00    -0.257 N 
HETATM   15  N2  UNL     1       1.544  -1.197  -1.836  1.00  0.00    -0.238 N 
HETATM   16  N3  UNL     1       2.745  -1.636  -1.505  1.00  0.00    -0.278 N 
ATOM     17  H2  UNL     1       1.013  -1.540  -2.637  1.00  0.00     0.208 HD
HETATM   18  C5  UNL     1       3.120  -0.966  -0.417  1.00  0.00     0.163 A 
ATOM     19  H3  UNL     1       3.284  -2.353  -1.991  1.00  0.00     0.189 HD
HETATM   20  C6  UNL     1       4.294  -1.030   0.341  1.00  0.00     0.281 A 
HETATM   21  C8  UNL     1       2.102  -0.117  -0.117  1.00  0.00     0.161 A 
HETATM   22  O2  UNL     1       5.227  -1.808   0.067  1.00  0.00    -0.265 OA
HETATM   23  N4  UNL     1       4.388  -0.209   1.402  1.00  0.00    -0.273 N 
HETATM   24  C7  UNL     1       3.378   0.637   1.705  1.00  0.00     0.328 A 
ATOM     25  H4  UNL     1       5.227  -0.225   1.982  1.00  0.00     0.173 HD
HETATM   26  O3  UNL     1       3.489   1.401   2.708  1.00  0.00    -0.247 OA
HETATM   27  N5  UNL     1       2.252   0.681   0.955  1.00  0.00    -0.291 N 
ATOM     28  H5  UNL     1       1.506   1.329   1.207  1.00  0.00     0.172 HD
ENDBRANCH  13  14
ENDBRANCH   8  13
ENDBRANCH   6   8
ENDBRANCH   1   6
TORSDOF 6
