REMARK  8 active torsions:
REMARK  status: ('A' for Active; 'I' for Inactive)
REMARK    1  A    between atoms: O1_1  and  N1_3 
REMARK    2  A    between atoms: C2_5  and  O2_6 
REMARK    3  A    between atoms: C3_10  and  N3_11 
REMARK    4  A    between atoms: N7_24  and  C9_25 
REMARK    5  A    between atoms: C9_25  and  O3_26 
REMARK    6  A    between atoms: O3_26  and  C10_27 
REMARK    7  A    between atoms: C10_27  and  C11_28 
REMARK    8  A    between atoms: C11_28  and  O4_29 
ROOT
HETATM    1  N3  UNL     1      -2.396   0.729   0.939  1.00  0.00    -0.315 N 
ATOM      2  H3  UNL     1      -2.297   1.273   1.796  1.00  0.00     0.170 HD
HETATM    3  C4  UNL     1      -1.356   0.238   0.361  1.00  0.00     0.139 A 
HETATM    4  N4  UNL     1      -1.403  -0.489  -0.770  1.00  0.00    -0.337 N 
ATOM      5  H4  UNL     1      -2.308  -0.668  -1.205  1.00  0.00     0.168 HD
HETATM    6  C5  UNL     1      -0.291  -0.988  -1.347  1.00  0.00     0.183 A 
HETATM    7  N5  UNL     1       0.933  -0.786  -0.824  1.00  0.00    -0.336 N 
ATOM      8  H5  UNL     1       1.765  -1.169  -1.272  1.00  0.00     0.168 HD
HETATM    9  C6  UNL     1       1.027  -0.057   0.319  1.00  0.00     0.142 A 
HETATM   10  C7  UNL     1      -0.105   0.454   0.912  1.00  0.00     0.122 A 
HETATM   11  N6  UNL     1       0.268   1.115   1.997  1.00  0.00    -0.346 N 
ATOM     12  H6  UNL     1      -0.354   1.602   2.642  1.00  0.00     0.167 HD
HETATM   13  C8  UNL     1       1.607   1.035   2.105  1.00  0.00     0.187 A 
HETATM   14  N7  UNL     1       2.087   0.314   1.075  1.00  0.00    -0.305 N 
ENDROOT
BRANCH   1  15
HETATM   15  C3  UNL     1      -3.685   0.510   0.377  1.00  0.00     0.183 C 
HETATM   16  N1  UNL     1      -4.510  -0.611   0.664  1.00  0.00    -0.129 NA
HETATM   17  C1  UNL     1      -5.836  -0.082   0.425  1.00  0.00     0.183 C 
HETATM   18  C2  UNL     1      -5.569   0.766  -0.827  1.00  0.00     0.235 C 
HETATM   19  N2  UNL     1      -4.253   1.306  -0.461  1.00  0.00    -0.337 N 
ATOM     20  H2  UNL     1      -3.852   2.175  -0.815  1.00  0.00     0.164 HD
BRANCH  16  21
HETATM   21  O1  UNL     1      -4.354  -1.046   1.935  1.00  0.00    -0.305 OA
ATOM     22  H1  UNL     1      -3.484  -1.393   2.092  1.00  0.00     0.237 HD
ENDBRANCH  16  21
BRANCH  18  23
HETATM   23  O2  UNL     1      -5.471  -0.110  -1.905  1.00  0.00    -0.376 OA
ATOM     24  H2  UNL     1      -5.306   0.415  -2.680  1.00  0.00     0.212 HD
ENDBRANCH  18  23
ENDBRANCH   1  15
BRANCH  14  25
HETATM   25  C9  UNL     1       3.483   0.001   0.834  1.00  0.00     0.301 C 
BRANCH  25  26
HETATM   26  O3  UNL     1       4.027   0.994   0.057  1.00  0.00    -0.369 OA
BRANCH  26  27
HETATM   27  C10 UNL     1       5.355   0.815  -0.245  1.00  0.00     0.196 C 
BRANCH  27  28
HETATM   28  C11 UNL     1       5.639  -0.457  -1.005  1.00  0.00     0.190 C 
BRANCH  28  29
HETATM   29  O4  UNL     1       7.036  -0.476  -1.228  1.00  0.00    -0.399 OA
ATOM     30  H4  UNL     1       7.215  -1.277  -1.707  1.00  0.00     0.209 HD
ENDBRANCH  28  29
ENDBRANCH  27  28
ENDBRANCH  26  27
ENDBRANCH  25  26
ENDBRANCH  14  25
TORSDOF 8
