REMARK  21 active torsions:
REMARK  status: ('A' for Active; 'I' for Inactive)
REMARK    1  A    between atoms: C2_2  and  C3_3 
REMARK    2  A    between atoms: C3_3  and  C5_5 
REMARK    3  A    between atoms: C3_3  and  C15_16 
REMARK    4  A    between atoms: C5_5  and  C6_6 
REMARK    5  A    between atoms: C6_6  and  C7_7 
REMARK    6  A    between atoms: C7_7  and  C8_8 
REMARK    7  A    between atoms: C8_8  and  C9_9 
REMARK    8  A    between atoms: C9_9  and  C10_10 
REMARK    9  A    between atoms: C10_10  and  C11_11 
REMARK   10  A    between atoms: C11_11  and  C12_12 
REMARK   11  A    between atoms: C12_12  and  N1_13 
REMARK   12  A    between atoms: C15_16  and  C16_18 
REMARK   13  A    between atoms: C16_18  and  C17_19 
REMARK   14  A    between atoms: N2_20  and  C18_22 
REMARK   15  A    between atoms: C19_25  and  N4_26 
REMARK   16  A    between atoms: N4_26  and  C20_28 
REMARK   17  A    between atoms: C20_28  and  C21_29 
REMARK   18  A    between atoms: C21_29  and  C22_30 
REMARK   19  A    between atoms: C22_30  and  C23_31 
REMARK   20  A    between atoms: C23_31  and  N5_32 
REMARK   21  A    between atoms: C23_31  and  C24_36 
ROOT
HETATM    1  C18 UNL     1       3.471   0.979   1.395  1.00  0.00     0.131 C 
HETATM    2  N3  UNL     1       4.313  -0.107   1.312  1.00  0.00    -0.176 N 
ATOM      3  H3  UNL     1       4.189  -0.819   2.031  1.00  0.00     0.186 HD
HETATM    4  C19 UNL     1       5.282  -0.354   0.404  1.00  0.00     0.682 C 
HETATM    5  N7  UNL     1       5.362   0.145  -0.864  1.00  0.00    -0.155 N 
ATOM      6  H7  UNL     1       5.691  -0.487  -1.594  1.00  0.00     0.187 HD
HETATM    7  C25 UNL     1       5.040   1.413  -1.237  1.00  0.00     0.270 C 
HETATM    8  O3  UNL     1       5.371   1.749  -2.381  1.00  0.00    -0.267 OA
HETATM    9  C26 UNL     1       4.377   2.365  -0.458  1.00  0.00     0.043 A 
HETATM   10  C27 UNL     1       3.680   2.179   0.710  1.00  0.00     0.021 A 
HETATM   11  C28 UNL     1       3.199   3.309   1.158  1.00  0.00    -0.007 A 
HETATM   12  C29 UNL     1       3.584   4.402   0.218  1.00  0.00     0.056 A 
HETATM   13  C30 UNL     1       4.357   3.658  -0.795  1.00  0.00    -0.005 A 
ENDROOT
BRANCH   1  14
HETATM   14  N2  UNL     1       2.518   0.809   2.131  1.00  0.00    -0.354 N 
HETATM   15  C17 UNL     1       1.374   1.136   2.770  1.00  0.00     0.070 C 
ATOM     16  H2  UNL     1       2.676  -0.143   2.460  1.00  0.00     0.166 HD
BRANCH  15  17
HETATM   17  C16 UNL     1       0.117   1.395   1.959  1.00  0.00     0.123 C 
BRANCH  17  18
HETATM   18  C15 UNL     1      -0.283   0.206   1.163  1.00  0.00     0.139 C 
HETATM   19  O1  UNL     1       0.384  -0.807   1.197  1.00  0.00    -0.297 OA
BRANCH  18  20
HETATM   20  C3  UNL     1      -1.497   0.239   0.323  1.00  0.00     0.017 C 
HETATM   21  C4  UNL     1      -1.308   1.302  -0.755  1.00  0.00     0.023 C 
BRANCH  20  22
HETATM   22  C2  UNL     1      -1.672  -1.078  -0.368  1.00  0.00     0.012 C 
HETATM   23  C1  UNL     1      -1.874  -2.223   0.587  1.00  0.00     0.006 C 
ENDBRANCH  20  22
BRANCH  20  24
HETATM   24  C5  UNL     1      -2.726   0.626   1.122  1.00  0.00     0.017 C 
BRANCH  24  25
HETATM   25  C6  UNL     1      -3.907   0.728   0.182  1.00  0.00     0.001 C 
BRANCH  25  26
HETATM   26  C7  UNL     1      -5.173   1.118   0.958  1.00  0.00     0.000 C 
BRANCH  26  27
HETATM   27  C8  UNL     1      -6.312   1.207  -0.031  1.00  0.00     0.000 C 
BRANCH  27  28
HETATM   28  C9  UNL     1      -7.602   1.576   0.630  1.00  0.00     0.000 C 
BRANCH  28  29
HETATM   29  C10 UNL     1      -8.710   1.667  -0.364  1.00  0.00     0.002 C 
BRANCH  29  30
HETATM   30  C11 UNL     1      -9.000   0.421  -1.127  1.00  0.00     0.019 C 
BRANCH  30  31
HETATM   31  C12 UNL     1      -9.396  -0.746  -0.259  1.00  0.00     0.116 C 
BRANCH  31  32
HETATM   32  N1  UNL     1      -9.675  -1.936  -0.981  1.00  0.00    -0.421 N 
HETATM   33  C13 UNL     1     -10.836  -1.927  -1.799  1.00  0.00     0.142 C 
HETATM   34  C14 UNL     1      -9.389  -3.164  -0.312  1.00  0.00     0.142 C 
ENDBRANCH  31  32
ENDBRANCH  30  31
ENDBRANCH  29  30
ENDBRANCH  28  29
ENDBRANCH  27  28
ENDBRANCH  26  27
ENDBRANCH  25  26
ENDBRANCH  24  25
ENDBRANCH  20  24
ENDBRANCH  18  20
ENDBRANCH  17  18
ENDBRANCH  15  17
ENDBRANCH   1  14
BRANCH   4  35
HETATM   35  N4  UNL     1       6.181  -1.145   0.818  1.00  0.00    -0.226 N 
ATOM     36  H4  UNL     1       6.075  -1.500   1.768  1.00  0.00     0.177 HD
BRANCH  35  37
HETATM   37  C20 UNL     1       7.317  -1.587   0.100  1.00  0.00     0.138 C 
BRANCH  37  38
HETATM   38  C21 UNL     1       8.460  -0.642   0.433  1.00  0.00     0.023 C 
BRANCH  38  39
HETATM   39  C22 UNL     1       9.694  -1.032  -0.303  1.00  0.00     0.043 C 
BRANCH  39  40
HETATM   40  C23 UNL     1      10.122  -2.429   0.061  1.00  0.00     0.271 C 
BRANCH  40  41
HETATM   41  N5  UNL     1      10.374  -2.476   1.497  1.00  0.00    -0.067 N 
ATOM     42  H53 UNL     1      11.044  -1.770   1.800  1.00  0.00     0.275 HD
ATOM     43  H52 UNL     1       9.576  -2.156   2.045  1.00  0.00     0.275 HD
ATOM     44  H51 UNL     1      10.664  -3.422   1.744  1.00  0.00     0.275 HD
ENDBRANCH  40  41
BRANCH  40  45
HETATM   45  C24 UNL     1      11.405  -2.686  -0.678  1.00  0.00     0.261 C 
HETATM   46  N6  UNL     1      11.458  -2.682  -2.087  1.00  0.00    -0.060 NA
HETATM   47  O2  UNL     1      12.437  -2.906  -0.011  1.00  0.00    -0.275 OA
ENDBRANCH  40  45
ENDBRANCH  39  40
ENDBRANCH  38  39
ENDBRANCH  37  38
ENDBRANCH  35  37
ENDBRANCH   4  35
TORSDOF 21
