REMARK  20 active torsions:
REMARK  status: ('A' for Active; 'I' for Inactive)
REMARK    1  A    between atoms: C2_2  and  C3_3 
REMARK    2  A    between atoms: C3_3  and  C4_4 
REMARK    3  A    between atoms: C4_4  and  N1_5 
REMARK       I    between atoms: N1_5  and  C5_7 
REMARK    4  A    between atoms: C5_7  and  C6_9 
REMARK       I    between atoms: N2_12  and  C9_13 
REMARK    5  A    between atoms: C9_13  and  C10_15 
REMARK    6  A    between atoms: C10_15  and  C11_16 
REMARK    7  A    between atoms: C11_16  and  N3_17 
REMARK    8  A    between atoms: C11_16  and  C12_21 
REMARK    9  A    between atoms: C12_21  and  C13_22 
REMARK   10  A    between atoms: C13_22  and  C14_23 
REMARK   11  A    between atoms: C14_23  and  C15_24 
REMARK   12  A    between atoms: C15_24  and  N4_25 
REMARK   13  A    between atoms: N5_33  and  C18_34 
REMARK   14  A    between atoms: C18_34  and  C19_35 
REMARK   15  A    between atoms: C19_35  and  C20_36 
REMARK   16  A    between atoms: C20_36  and  C21_37 
REMARK   17  A    between atoms: C21_37  and  C22_38 
REMARK   18  A    between atoms: C22_38  and  C23_39 
REMARK   19  A    between atoms: C23_39  and  N6_40 
REMARK       I    between atoms: N6_40  and  C24_42 
REMARK   20  A    between atoms: C24_42  and  C25_44 
ROOT
HETATM    1  C6  UNL     1      -1.234   1.107  -0.715  1.00  0.00     0.248 C 
HETATM    2  C7  UNL     1      -2.563   0.608  -0.906  1.00  0.00    -0.128 C 
HETATM    3  C8  UNL     1      -3.798  -0.076  -0.800  1.00  0.00     0.217 C 
HETATM    4  N2  UNL     1      -3.616  -1.139   0.232  1.00  0.00    -0.270 N 
HETATM    5  C9  UNL     1      -4.555  -2.199   0.212  1.00  0.00     0.229 C 
HETATM    6  O2  UNL     1      -4.445  -3.136   1.072  1.00  0.00    -0.273 OA
HETATM    7  C16 UNL     1      -2.581  -1.191   1.241  1.00  0.00     0.319 C 
HETATM    8  O3  UNL     1      -2.916  -1.817   2.277  1.00  0.00    -0.262 OA
HETATM    9  C17 UNL     1      -1.216  -0.620   1.213  1.00  0.00     0.313 C 
HETATM   10  O4  UNL     1      -0.531  -0.821   2.235  1.00  0.00    -0.262 OA
HETATM   11  N5  UNL     1      -0.553   0.140   0.170  1.00  0.00    -0.321 N 
ENDROOT
BRANCH  11  12
HETATM   12  C18 UNL     1       0.832  -0.111  -0.017  1.00  0.00     0.128 C 
BRANCH  12  13
HETATM   13  C19 UNL     1       1.801   0.717   0.751  1.00  0.00     0.020 C 
BRANCH  13  14
HETATM   14  C20 UNL     1       3.193   0.177   0.372  1.00  0.00     0.002 C 
BRANCH  14  15
HETATM   15  C21 UNL     1       4.297   0.907   1.064  1.00  0.00     0.002 C 
BRANCH  15  16
HETATM   16  C22 UNL     1       5.593   0.237   0.579  1.00  0.00     0.020 C 
BRANCH  16  17
HETATM   17  C23 UNL     1       6.807   0.862   1.185  1.00  0.00     0.122 C 
BRANCH  17  18
HETATM   18  N6  UNL     1       7.979   0.180   0.681  1.00  0.00    -0.361 N 
HETATM   19  C24 UNL     1       8.284  -1.177   0.855  1.00  0.00     0.223 C 
HETATM   20  O5  UNL     1       7.571  -2.008   1.490  1.00  0.00    -0.273 OA
ATOM     21  H6  UNL     1       8.646   0.739   0.149  1.00  0.00     0.162 HD
BRANCH  19  22
HETATM   22  C25 UNL     1       9.551  -1.703   0.247  1.00  0.00     0.105 C 
HETATM   23  C26 UNL     1      10.693  -0.922   0.856  1.00  0.00     0.043 C 
HETATM   24  C27 UNL     1      11.732  -1.001  -0.250  1.00  0.00     0.233 C 
HETATM   25  N7  UNL     1      11.029  -1.110  -1.492  1.00  0.00    -0.074 N 
HETATM   26  C28 UNL     1       9.647  -1.358  -1.209  1.00  0.00     0.246 C 
ATOM     27  H72 UNL     1      11.166  -0.297  -2.093  1.00  0.00     0.277 HD
ATOM     28  H71 UNL     1      11.434  -1.811  -2.112  1.00  0.00     0.277 HD
ENDBRANCH  19  22
ENDBRANCH  17  18
ENDBRANCH  16  17
ENDBRANCH  15  16
ENDBRANCH  14  15
ENDBRANCH  13  14
ENDBRANCH  12  13
ENDBRANCH  11  12
BRANCH   1  29
HETATM   29  C5  UNL     1      -1.177   2.471  -0.071  1.00  0.00     0.251 C 
HETATM   30  N1  UNL     1      -1.587   3.606  -0.770  1.00  0.00    -0.358 N 
ATOM     31  H1  UNL     1      -1.923   3.470  -1.723  1.00  0.00     0.162 HD
HETATM   32  O1  UNL     1      -0.751   2.535   1.100  1.00  0.00    -0.270 OA
BRANCH  30  33
HETATM   33  C4  UNL     1      -1.576   4.958  -0.259  1.00  0.00     0.122 C 
BRANCH  33  34
HETATM   34  C3  UNL     1      -0.190   5.404   0.114  1.00  0.00     0.019 C 
BRANCH  34  35
HETATM   35  C2  UNL     1      -0.299   6.842   0.636  1.00  0.00    -0.003 C 
HETATM   36  C1  UNL     1       1.108   7.278   1.007  1.00  0.00     0.005 C 
ENDBRANCH  34  35
ENDBRANCH  33  34
ENDBRANCH  30  33
ENDBRANCH   1  29
BRANCH   5  37
HETATM   37  C10 UNL     1      -5.652  -2.288  -0.743  1.00  0.00     0.136 C 
BRANCH  37  38
HETATM   38  C11 UNL     1      -6.443  -3.559  -0.487  1.00  0.00     0.192 C 
BRANCH  38  39
HETATM   39  N3  UNL     1      -6.997  -3.600   0.828  1.00  0.00    -0.075 N 
ATOM     40  H33 UNL     1      -6.274  -3.468   1.536  1.00  0.00     0.274 HD
ATOM     41  H32 UNL     1      -7.562  -2.772   1.015  1.00  0.00     0.274 HD
ATOM     42  H31 UNL     1      -7.528  -4.454   1.000  1.00  0.00     0.274 HD
ENDBRANCH  38  39
BRANCH  38  43
HETATM   43  C12 UNL     1      -7.380  -3.838  -1.609  1.00  0.00     0.033 C 
BRANCH  43  44
HETATM   44  C13 UNL     1      -8.405  -2.802  -1.890  1.00  0.00     0.004 C 
BRANCH  44  45
HETATM   45  C14 UNL     1      -9.373  -2.511  -0.799  1.00  0.00     0.027 C 
BRANCH  45  46
HETATM   46  C15 UNL     1     -10.231  -3.665  -0.382  1.00  0.00     0.229 C 
BRANCH  46  47
HETATM   47  N4  UNL     1     -10.998  -4.079  -1.549  1.00  0.00    -0.079 N 
ATOM     48  H43 UNL     1     -11.531  -3.316  -1.967  1.00  0.00     0.274 HD
ATOM     49  H42 UNL     1     -10.412  -4.289  -2.357  1.00  0.00     0.274 HD
ATOM     50  H41 UNL     1     -11.583  -4.865  -1.265  1.00  0.00     0.274 HD
ENDBRANCH  46  47
ENDBRANCH  45  46
ENDBRANCH  44  45
ENDBRANCH  43  44
ENDBRANCH  38  43
ENDBRANCH  37  38
ENDBRANCH   5  37
TORSDOF 20
