REMARK  19 active torsions:
REMARK  status: ('A' for Active; 'I' for Inactive)
REMARK    1  A    between atoms: C2_2  and  C3_3 
REMARK    2  A    between atoms: C3_3  and  C4_4 
REMARK    3  A    between atoms: C4_4  and  C5_5 
REMARK    4  A    between atoms: C5_5  and  C6_6 
REMARK    5  A    between atoms: C6_6  and  C7_7 
REMARK       I    between atoms: C7_7  and  N1_9 
REMARK    6  A    between atoms: N1_9  and  C9_11 
REMARK    7  A    between atoms: C9_11  and  C10_12 
REMARK    8  A    between atoms: C10_12  and  C11_13 
REMARK    9  A    between atoms: C11_13  and  C12_14 
REMARK   10  A    between atoms: C12_14  and  C13_15 
REMARK   11  A    between atoms: C16_21  and  C17_22 
REMARK   12  A    between atoms: C17_22  and  C18_23 
REMARK   13  A    between atoms: C18_23  and  C19_24 
REMARK   14  A    between atoms: C19_24  and  N3_25 
REMARK   15  A    between atoms: N6_30  and  S1_31 
REMARK   16  A    between atoms: S1_31  and  N7_34 
REMARK   17  A    between atoms: N7_34  and  C21_36 
REMARK   18  A    between atoms: C21_36  and  C23_38 
REMARK   19  A    between atoms: C23_38  and  N8_39 
ROOT
HETATM    1  C11 UNL     1      -0.202  -1.899  -0.147  1.00  0.00     0.116 C 
HETATM    2  N2  UNL     1      -0.270  -1.786   1.292  1.00  0.00    -0.341 N 
ATOM      3  H2  UNL     1       0.512  -2.120   1.855  1.00  0.00     0.163 HD
HETATM    4  C15 UNL     1      -1.388  -1.227   1.936  1.00  0.00     0.242 C 
HETATM    5  O2  UNL     1      -1.774  -1.628   3.035  1.00  0.00    -0.271 OA
HETATM    6  C16 UNL     1      -2.140  -0.098   1.255  1.00  0.00     0.198 C 
HETATM    7  N6  UNL     1      -2.402  -0.543  -0.110  1.00  0.00    -0.212 N 
HETATM    8  C24 UNL     1      -1.363  -1.217  -0.791  1.00  0.00     0.263 C 
HETATM    9  O5  UNL     1      -1.411  -1.252  -2.051  1.00  0.00    -0.269 OA
ENDROOT
BRANCH   1  10
HETATM   10  C10 UNL     1       1.032  -1.303  -0.756  1.00  0.00     0.061 C 
BRANCH  10  11
HETATM   11  C9  UNL     1       2.325  -1.944  -0.345  1.00  0.00     0.128 C 
BRANCH  11  12
HETATM   12  N1  UNL     1       3.463  -1.272  -0.969  1.00  0.00    -0.356 N 
HETATM   13  C7  UNL     1       4.066  -0.193  -0.268  1.00  0.00     0.219 C 
HETATM   14  O1  UNL     1       3.645   0.139   0.869  1.00  0.00    -0.273 OA
HETATM   15  C8  UNL     1       3.902  -1.716  -2.250  1.00  0.00     0.152 C 
BRANCH  13  16
HETATM   16  C6  UNL     1       5.197   0.587  -0.818  1.00  0.00     0.103 C 
BRANCH  16  17
HETATM   17  C5  UNL     1       5.703   1.544   0.205  1.00  0.00     0.009 C 
BRANCH  17  18
HETATM   18  C4  UNL     1       6.853   2.387  -0.303  1.00  0.00     0.000 C 
BRANCH  18  19
HETATM   19  C3  UNL     1       7.299   3.316   0.821  1.00  0.00    -0.000 C 
BRANCH  19  20
HETATM   20  C2  UNL     1       8.452   4.186   0.341  1.00  0.00    -0.005 C 
HETATM   21  C1  UNL     1       9.593   3.270  -0.067  1.00  0.00     0.005 C 
ENDBRANCH  19  20
ENDBRANCH  18  19
ENDBRANCH  17  18
ENDBRANCH  16  17
ENDBRANCH  13  16
ENDBRANCH  11  12
ENDBRANCH  10  11
ENDBRANCH   1  10
BRANCH   1  22
HETATM   22  C12 UNL     1      -0.263  -3.354  -0.562  1.00  0.00     0.041 C 
BRANCH  22  23
HETATM   23  C13 UNL     1      -1.491  -4.050  -0.003  1.00  0.00    -0.002 C 
HETATM   24  C14 UNL     1      -1.468  -5.483  -0.454  1.00  0.00     0.005 C 
ENDBRANCH  22  23
ENDBRANCH   1  22
BRANCH   7  25
HETATM   25  S1  UNL     1      -3.907  -0.276  -0.890  1.00  0.00     0.324 S 
HETATM   26  O3  UNL     1      -3.770   0.740  -2.009  1.00  0.00    -0.182 OA
HETATM   27  O4  UNL     1      -4.958   0.292   0.044  1.00  0.00    -0.182 OA
BRANCH  25  28
HETATM   28  N7  UNL     1      -4.595  -1.745  -1.479  1.00  0.00    -0.296 N 
ATOM     29  H7  UNL     1      -4.268  -2.213  -2.324  1.00  0.00     0.174 HD
BRANCH  28  30
HETATM   30  C21 UNL     1      -5.665  -2.246  -0.675  1.00  0.00     0.115 C 
HETATM   31  C22 UNL     1      -5.414  -3.602  -0.071  1.00  0.00     0.034 C 
BRANCH  30  32
HETATM   32  C23 UNL     1      -6.998  -2.216  -1.419  1.00  0.00     0.254 C 
BRANCH  32  33
HETATM   33  N8  UNL     1      -8.010  -2.742  -0.524  1.00  0.00    -0.077 N 
ATOM     34  H83 UNL     1      -7.778  -3.667  -0.161  1.00  0.00     0.274 HD
ATOM     35  H82 UNL     1      -8.043  -2.252   0.370  1.00  0.00     0.274 HD
ATOM     36  H81 UNL     1      -8.900  -2.722  -1.021  1.00  0.00     0.274 HD
ENDBRANCH  32  33
ENDBRANCH  30  32
ENDBRANCH  28  30
ENDBRANCH  25  28
ENDBRANCH   7  25
BRANCH   6  37
HETATM   37  C17 UNL     1      -1.223   1.072   1.358  1.00  0.00     0.038 C 
BRANCH  37  38
HETATM   38  C18 UNL     1      -1.665   2.368   0.802  1.00  0.00     0.022 C 
BRANCH  38  39
HETATM   39  C19 UNL     1      -2.852   3.012   1.428  1.00  0.00     0.122 C 
BRANCH  39  40
HETATM   40  N3  UNL     1      -3.132   4.262   0.743  1.00  0.00    -0.367 N 
HETATM   41  C20 UNL     1      -4.055   5.065   1.122  1.00  0.00     0.196 C 
HETATM   42  N4  UNL     1      -4.822   4.687   2.271  1.00  0.00    -0.067 NA
HETATM   43  N5  UNL     1      -4.293   6.272   0.426  1.00  0.00    -0.067 NA
ATOM     44  H3  UNL     1      -2.571   4.510  -0.072  1.00  0.00     0.161 HD
ENDBRANCH  39  40
ENDBRANCH  38  39
ENDBRANCH  37  38
ENDBRANCH   6  37
TORSDOF 19
