REMARK  13 active torsions:
REMARK  status: ('A' for Active; 'I' for Inactive)
REMARK    1  A    between atoms: O1_2  and  N1_3 
REMARK    2  A    between atoms: N1_3  and  N2_5 
REMARK    3  A    between atoms: C2_6  and  N3_7 
REMARK    4  A    between atoms: N3_7  and  C3_9 
REMARK    5  A    between atoms: C3_9  and  O2_10 
REMARK    6  A    between atoms: C3_9  and  C4_12 
REMARK    7  A    between atoms: C6_20  and  O5_21 
REMARK    8  A    between atoms: C8_25  and  O7_26 
REMARK    9  A    between atoms: C9_28  and  C10_29 
REMARK   10  A    between atoms: C10_29  and  O9_37 
REMARK   11  A    between atoms: N6_30  and  N7_32 
REMARK       I    between atoms: N7_32  and  C11_34 
REMARK   12  A    between atoms: O9_37  and  N8_38 
REMARK   13  A    between atoms: N9_40  and  N10_42 
ROOT
HETATM    1  N2  UNL     1      -0.280  -0.324  -0.763  1.00  0.00    -0.210 N 
HETATM    2  C2  UNL     1      -1.571  -0.061  -1.198  1.00  0.00     0.169 A 
HETATM    3  C6  UNL     1      -1.760   0.824  -2.203  1.00  0.00     0.165 A 
HETATM    4  C7  UNL     1      -0.652   1.478  -2.793  1.00  0.00     0.244 A 
HETATM    5  O6  UNL     1      -0.866   2.299  -3.723  1.00  0.00    -0.282 OA
HETATM    6  C8  UNL     1       0.621   1.214  -2.353  1.00  0.00     0.152 A 
HETATM    7  C9  UNL     1       0.771   0.303  -1.333  1.00  0.00     0.152 A 
ENDROOT
BRANCH   7   8
HETATM    8  C10 UNL     1       2.100   0.026  -0.832  1.00  0.00     0.218 C 
HETATM    9  N6  UNL     1       2.250  -0.816   0.128  1.00  0.00    -0.274 N 
ATOM     10  H6  UNL     1       1.406  -1.255   0.495  1.00  0.00     0.189 HD
BRANCH   9  11
HETATM   11  N7  UNL     1       3.450  -1.180   0.707  1.00  0.00    -0.268 N 
HETATM   12  C11 UNL     1       3.682  -0.977   2.092  1.00  0.00     0.232 C 
HETATM   13  C12 UNL     1       4.966  -1.361   2.731  1.00  0.00     0.119 C 
HETATM   14  O8  UNL     1       2.789  -0.461   2.806  1.00  0.00    -0.272 OA
ATOM     15  H7  UNL     1       4.179  -1.600   0.131  1.00  0.00     0.190 HD
ENDBRANCH   9  11
BRANCH   8  16
HETATM   16  O9  UNL     1       3.214   0.631  -1.345  1.00  0.00    -0.199 OA
BRANCH  16  17
HETATM   17  N8  UNL     1       4.350   0.866  -0.611  1.00  0.00    -0.186 N 
HETATM   18  N9  UNL     1       4.570   1.999  -0.101  1.00  0.00    -0.229 N 
ATOM     19  H9  UNL     1       5.427   2.126   0.437  1.00  0.00     0.209 HD
ATOM     20  H8  UNL     1       5.026   0.114  -0.476  1.00  0.00     0.218 HD
BRANCH  18  21
HETATM   21  N10 UNL     1       3.712   3.083  -0.230  1.00  0.00    -0.329 N 
ATOM     22 2H10 UNL     1       2.860   2.938  -0.771  1.00  0.00     0.178 HD
ATOM     23 1H10 UNL     1       3.890   3.999   0.182  1.00  0.00     0.178 HD
ENDBRANCH  18  21
ENDBRANCH  16  17
ENDBRANCH   8  16
ENDBRANCH   7   8
BRANCH   1  24
HETATM   24  N1  UNL     1      -0.141  -1.249   0.274  1.00  0.00    -0.199 N 
ATOM     25  H1  UNL     1      -0.075  -0.910   1.234  1.00  0.00     0.216 HD
BRANCH  24  26
HETATM   26  O1  UNL     1      -0.092  -2.570   0.045  1.00  0.00    -0.269 OA
HETATM   27  C1  UNL     1      -0.277  -3.326   1.214  1.00  0.00     0.239 C 
ENDBRANCH  24  26
ENDBRANCH   1  24
BRANCH   6  28
HETATM   28  O7  UNL     1       1.616   1.897  -2.989  1.00  0.00    -0.355 OA
ATOM     29  H7  UNL     1       2.497   1.714  -2.684  1.00  0.00     0.218 HD
ENDBRANCH   6  28
BRANCH   2  30
HETATM   30  N3  UNL     1      -2.580  -0.840  -0.595  1.00  0.00    -0.317 N 
ATOM     31  H3  UNL     1      -2.270  -1.801  -0.447  1.00  0.00     0.169 HD
BRANCH  30  32
HETATM   32  C3  UNL     1      -3.863  -0.656  -0.154  1.00  0.00     0.176 C 
BRANCH  32  33
HETATM   33  O2  UNL     1      -4.543  -1.743   0.085  1.00  0.00    -0.344 OA
ATOM     34  H2  UNL     1      -5.433  -1.615   0.391  1.00  0.00     0.219 HD
ENDBRANCH  32  33
BRANCH  32  35
HETATM   35  C4  UNL     1      -4.627   0.545   0.123  1.00  0.00     0.177 A 
HETATM   36  N4  UNL     1      -4.217   1.820   0.262  1.00  0.00    -0.232 N 
HETATM   37  O3  UNL     1      -5.231   2.575   0.498  1.00  0.00    -0.153 OA
ATOM     38  H4  UNL     1      -3.251   2.138   0.191  1.00  0.00     0.197 HD
HETATM   39  N5  UNL     1      -6.327   1.894   0.530  1.00  0.00    -0.204 N 
HETATM   40  C5  UNL     1      -6.004   0.614   0.300  1.00  0.00     0.299 A 
ATOM     41  H5  UNL     1      -7.263   2.261   0.699  1.00  0.00     0.200 HD
HETATM   42  O4  UNL     1      -6.828  -0.326   0.260  1.00  0.00    -0.264 OA
ENDBRANCH  32  35
ENDBRANCH  30  32
ENDBRANCH   2  30
BRANCH   3  43
HETATM   43  O5  UNL     1      -2.987   1.127  -2.719  1.00  0.00    -0.354 OA
ATOM     44  H5  UNL     1      -3.120   1.749  -3.425  1.00  0.00     0.218 HD
ENDBRANCH   3  43
TORSDOF 13
