REMARK  11 active torsions:
REMARK  status: ('A' for Active; 'I' for Inactive)
REMARK    1  A    between atoms: O1_2  and  C2_3 
REMARK    2  A    between atoms: C2_3  and  C3_5 
REMARK    3  A    between atoms: C3_5  and  S1_6 
REMARK    4  A    between atoms: S1_6  and  S2_7 
REMARK    5  A    between atoms: S2_7  and  C4_8 
REMARK    6  A    between atoms: C5_10  and  N1_11 
REMARK    7  A    between atoms: C6_18  and  N3_19 
REMARK    8  A    between atoms: C7_23  and  N4_24 
REMARK    9  A    between atoms: N4_24  and  N5_25 
REMARK       I    between atoms: N5_25  and  C8_27 
REMARK   10  A    between atoms: C8_27  and  O5_29 
REMARK   11  A    between atoms: O5_29  and  C9_30 
ROOT
HETATM    1  C4  UNL     1      -0.539   0.120  -0.581  1.00  0.00     0.342 C 
HETATM    2  O3  UNL     1      -1.081   0.881   0.390  1.00  0.00    -0.298 OA
HETATM    3  C5  UNL     1      -0.568   0.808   1.651  1.00  0.00     0.526 C 
HETATM    4  N2  UNL     1       0.722   0.190   1.775  1.00  0.00     0.010 N 
ATOM      5  H21 UNL     1       0.669  -0.806   1.559  1.00  0.00     0.285 HD
ATOM      6  H22 UNL     1       1.005   0.136   2.753  1.00  0.00     0.285 HD
HETATM    7  C6  UNL     1       1.749   0.838   0.975  1.00  0.00     0.431 C 
HETATM    8  C7  UNL     1       1.762   0.091  -0.362  1.00  0.00     0.296 C 
HETATM    9  O7  UNL     1       0.681   0.606  -1.071  1.00  0.00    -0.324 OA
ENDROOT
BRANCH   1  10
HETATM   10  S2  UNL     1      -1.543  -0.335  -1.974  1.00  0.00    -0.033 SA
BRANCH  10  11
HETATM   11  S1  UNL     1      -3.076  -1.624  -1.350  1.00  0.00    -0.024 SA
BRANCH  11  12
HETATM   12  C3  UNL     1      -4.542  -0.718  -0.977  1.00  0.00     0.356 C 
HETATM   13  N6  UNL     1      -5.586  -1.735  -0.656  1.00  0.00    -0.016 N 
HETATM   14  C11 UNL     1      -6.018  -2.221  -1.935  1.00  0.00     0.366 C 
ATOM     15  H62 UNL     1      -5.273  -2.466  -0.017  1.00  0.00     0.282 HD
ATOM     16  H61 UNL     1      -6.341  -1.385  -0.067  1.00  0.00     0.282 HD
HETATM   17  N7  UNL     1      -5.397  -1.340  -2.910  1.00  0.00    -0.117 NA
HETATM   18  N8  UNL     1      -5.091  -0.162  -2.200  1.00  0.00    -0.085 NA
BRANCH  12  19
HETATM   19  C2  UNL     1      -4.550   0.208   0.136  1.00  0.00     0.325 C 
HETATM   20  O2  UNL     1      -4.854  -0.200   1.302  1.00  0.00    -0.260 OA
BRANCH  19  21
HETATM   21  O1  UNL     1      -4.250   1.573   0.067  1.00  0.00    -0.323 OA
HETATM   22  C1  UNL     1      -4.290   2.406   1.212  1.00  0.00     0.213 C 
ENDBRANCH  19  21
ENDBRANCH  12  19
ENDBRANCH  11  12
ENDBRANCH  10  11
ENDBRANCH   1  10
BRANCH   3  23
HETATM   23  N1  UNL     1      -1.495  -0.028   2.431  1.00  0.00    -0.027 N 
ATOM     24  H13 UNL     1      -2.459   0.305   2.406  1.00  0.00     0.279 HD
ATOM     25  H12 UNL     1      -1.666  -0.942   2.011  1.00  0.00     0.279 HD
ATOM     26  H11 UNL     1      -1.111  -0.083   3.374  1.00  0.00     0.279 HD
ENDBRANCH   3  23
BRANCH   8  27
HETATM   27  N4  UNL     1       3.001   0.206  -1.058  1.00  0.00    -0.100 NA
BRANCH  27  28
HETATM   28  N5  UNL     1       4.027  -0.321  -0.269  1.00  0.00    -0.246 N 
HETATM   29  C8  UNL     1       5.369  -0.329  -0.746  1.00  0.00     0.384 C 
HETATM   30  O4  UNL     1       5.640   0.140  -1.883  1.00  0.00    -0.237 OA
ATOM     31  H5  UNL     1       3.814  -0.702   0.653  1.00  0.00     0.188 HD
BRANCH  29  32
HETATM   32  O5  UNL     1       6.385  -0.842   0.015  1.00  0.00    -0.227 OA
BRANCH  32  33
HETATM   33  C9  UNL     1       7.721  -0.866  -0.424  1.00  0.00     0.263 C 
HETATM   34  C10 UNL     1       8.824  -1.421   0.397  1.00  0.00     0.127 C 
HETATM   35  O6  UNL     1       7.959  -0.394  -1.558  1.00  0.00    -0.265 OA
ENDBRANCH  32  33
ENDBRANCH  29  32
ENDBRANCH  27  28
ENDBRANCH   8  27
BRANCH   7  36
HETATM   36  N3  UNL     1       1.327   2.189   0.704  1.00  0.00    -0.046 N 
ATOM     37  H33 UNL     1       0.405   2.233   0.270  1.00  0.00     0.277 HD
ATOM     38  H32 UNL     1       1.105   2.709   1.553  1.00  0.00     0.277 HD
ATOM     39  H31 UNL     1       2.047   2.644   0.143  1.00  0.00     0.277 HD
ENDBRANCH   7  36
TORSDOF 11
