REMARK  5 active torsions:
REMARK  status: ('A' for Active; 'I' for Inactive)
REMARK    1  A    between atoms: C2_3  and  N2_4 
REMARK    2  A    between atoms: C2_3  and  C3_8 
REMARK    3  A    between atoms: C3_8  and  C4_9 
REMARK    4  A    between atoms: C4_9  and  S1_10 
REMARK    5  A    between atoms: S1_10  and  C5_11 
ROOT
HETATM    1  N1  UNL     1       5.385   0.568   0.773  1.00  0.00    -0.195 NA
HETATM    2  C1  UNL     1       4.342   0.494   0.270  1.00  0.00     0.092 C 
HETATM    3  C2  UNL     1       3.017   0.380  -0.357  1.00  0.00     0.289 C 
ENDROOT
BRANCH   3   4
HETATM    4  N2  UNL     1       2.894  -0.944  -0.900  1.00  0.00    -0.063 N 
ATOM      5  H23 UNL     1       3.654  -1.181  -1.538  1.00  0.00     0.275 HD
ATOM      6  H22 UNL     1       3.066  -1.672  -0.207  1.00  0.00     0.275 HD
ATOM      7  H21 UNL     1       1.975  -1.023  -1.335  1.00  0.00     0.275 HD
ENDBRANCH   3   4
BRANCH   3   8
HETATM    8  C3  UNL     1       1.934   0.584   0.709  1.00  0.00     0.058 C 
BRANCH   8   9
HETATM    9  C4  UNL     1       0.613   0.454  -0.004  1.00  0.00     0.080 C 
BRANCH   9  10
HETATM   10  S1  UNL     1      -0.794   0.668   1.112  1.00  0.00    -0.129 SA
BRANCH  10  11
HETATM   11  C5  UNL     1      -2.293   0.477   0.073  1.00  0.00     0.268 C 
HETATM   12  N3  UNL     1      -3.493   0.624   0.830  1.00  0.00    -0.095 NA
HETATM   13  N4  UNL     1      -3.949  -0.693   0.969  1.00  0.00    -0.019 NA
HETATM   14  N5  UNL     1      -3.639  -1.239  -0.283  1.00  0.00    -0.019 NA
HETATM   15  N6  UNL     1      -2.266  -0.918  -0.390  1.00  0.00    -0.095 NA
ENDBRANCH  10  11
ENDBRANCH   9  10
ENDBRANCH   8   9
ENDBRANCH   3   8
TORSDOF 5
