REMARK  5 active torsions:
REMARK  status: ('A' for Active; 'I' for Inactive)
REMARK    1  A    between atoms: N1_1  and  C1_4 
REMARK    2  A    between atoms: C3_10  and  N4_11 
REMARK    3  A    between atoms: N4_11  and  N5_13 
REMARK    4  A    between atoms: C4_15  and  C5_16 
REMARK    5  A    between atoms: C5_16  and  N6_17 
ROOT
HETATM    1  C1  UNL     1      -2.099   0.967   0.127  1.00  0.00     0.131 A 
HETATM    2  C2  UNL     1      -3.261   0.428   0.618  1.00  0.00     0.156 A 
HETATM    3  N2  UNL     1      -3.298  -0.891   0.876  1.00  0.00    -0.294 N 
ATOM      4  H2  UNL     1      -4.159  -1.299   1.241  1.00  0.00     0.186 HD
HETATM    5  N3  UNL     1      -2.264  -1.669   0.673  1.00  0.00    -0.131 N 
ATOM      6  H3  UNL     1      -2.317  -2.667   0.876  1.00  0.00     0.205 HD
HETATM    7  C3  UNL     1      -1.111  -1.118   0.183  1.00  0.00     0.713 A 
HETATM    8  N7  UNL     1      -1.025   0.188  -0.089  1.00  0.00    -0.173 N 
ATOM      9  H7  UNL     1      -0.160   0.586  -0.454  1.00  0.00     0.186 HD
ENDROOT
BRANCH   7  10
HETATM   10  N4  UNL     1      -0.084  -1.864  -0.024  1.00  0.00    -0.131 N 
ATOM     11  H4  UNL     1      -0.126  -2.863   0.175  1.00  0.00     0.205 HD
BRANCH  10  12
HETATM   12  N5  UNL     1       1.081  -1.299  -0.520  1.00  0.00    -0.300 N 
HETATM   13  C4  UNL     1       1.949  -0.858   0.320  1.00  0.00     0.107 C 
ATOM     14  H5  UNL     1       1.245  -1.235  -1.525  1.00  0.00     0.186 HD
BRANCH  13  15
HETATM   15  C5  UNL     1       3.205  -0.248  -0.180  1.00  0.00     0.275 C 
BRANCH  15  16
HETATM   16  N6  UNL     1       2.963   1.148  -0.450  1.00  0.00    -0.075 N 
ATOM     17  H63 UNL     1       2.178   1.293  -1.085  1.00  0.00     0.274 HD
ATOM     18  H62 UNL     1       2.583   1.642   0.357  1.00  0.00     0.274 HD
ATOM     19  H61 UNL     1       3.827   1.568  -0.794  1.00  0.00     0.274 HD
ENDBRANCH  15  16
ENDBRANCH  13  15
ENDBRANCH  10  12
ENDBRANCH   7  10
BRANCH   1  20
HETATM   20  N1  UNL     1      -2.014   2.230  -0.136  1.00  0.00    -0.384 N 
ATOM     21  H12 UNL     1      -2.829   2.821   0.028  1.00  0.00     0.157 HD
ATOM     22  H11 UNL     1      -1.150   2.631  -0.501  1.00  0.00     0.157 HD
ENDBRANCH   1  20
TORSDOF 5
