REMARK  5 active torsions:
REMARK  status: ('A' for Active; 'I' for Inactive)
REMARK    1  A    between atoms: C3_5  and  N2_6 
REMARK    2  A    between atoms: C4_11  and  C5_12 
REMARK    3  A    between atoms: C5_12  and  C6_16 
REMARK    4  A    between atoms: C6_16  and  N5_17 
REMARK    5  A    between atoms: C6_16  and  N6_21 
ROOT
HETATM    1  C1  UNL     1      -2.872  -1.635   0.263  1.00  0.00     0.089 C 
HETATM    2  C2  UNL     1      -2.146  -0.357   0.170  1.00  0.00     0.095 A 
HETATM    3  N1  UNL     1      -2.775   0.828   0.144  1.00  0.00    -0.181 N 
ATOM      4  H1  UNL     1      -3.794   0.855   0.190  1.00  0.00     0.185 HD
HETATM    5  C3  UNL     1      -2.087   1.981   0.059  1.00  0.00     0.678 A 
HETATM    6  N3  UNL     1      -0.752   1.922  -0.002  1.00  0.00    -0.175 N 
ATOM      7  H3  UNL     1      -0.223   2.792  -0.068  1.00  0.00     0.186 HD
HETATM    8  C4  UNL     1      -0.083   0.754   0.021  1.00  0.00     0.148 A 
HETATM    9  N7  UNL     1      -0.806  -0.370   0.108  1.00  0.00    -0.330 N 
ATOM     10  H7  UNL     1      -0.321  -1.267   0.128  1.00  0.00     0.168 HD
ENDROOT
BRANCH   8  11
HETATM   11  C5  UNL     1       1.373   0.710  -0.037  1.00  0.00     0.106 C 
HETATM   12  N4  UNL     1       2.018   1.818  -0.110  1.00  0.00    -0.396 N 
ATOM     13  H42 UNL     1       1.527   2.712  -0.116  1.00  0.00     0.156 HD
ATOM     14  H41 UNL     1       3.037   1.787  -0.151  1.00  0.00     0.156 HD
BRANCH  11  15
HETATM   15  C6  UNL     1       2.083  -0.583  -0.028  1.00  0.00     0.430 C 
BRANCH  15  16
HETATM   16  N5  UNL     1       1.860  -1.376  -1.210  1.00  0.00    -0.045 N 
ATOM     17  H53 UNL     1       0.862  -1.515  -1.367  1.00  0.00     0.277 HD
ATOM     18  H52 UNL     1       2.092  -0.844  -2.049  1.00  0.00     0.277 HD
ATOM     19  H51 UNL     1       2.351  -2.270  -1.204  1.00  0.00     0.277 HD
ENDBRANCH  15  16
BRANCH  15  20
HETATM   20  N6  UNL     1       3.519  -0.317   0.154  1.00  0.00    -0.045 N 
ATOM     21  H63 UNL     1       3.890   0.331  -0.541  1.00  0.00     0.277 HD
ATOM     22  H62 UNL     1       3.713   0.244   0.983  1.00  0.00     0.277 HD
ATOM     23  H61 UNL     1       4.010  -1.211   0.160  1.00  0.00     0.277 HD
ENDBRANCH  15  20
ENDBRANCH  11  15
ENDBRANCH   8  11
BRANCH   5  24
HETATM   24  N2  UNL     1      -2.745   3.115   0.037  1.00  0.00    -0.234 N 
ATOM     25  H22 UNL     1      -3.763   3.160   0.084  1.00  0.00     0.174 HD
ATOM     26  H21 UNL     1      -2.223   3.989  -0.027  1.00  0.00     0.174 HD
ENDBRANCH   5  24
TORSDOF 5
