REMARK  12 active torsions:
REMARK  status: ('A' for Active; 'I' for Inactive)
REMARK    1  A    between atoms: N1_1  and  C1_4 
REMARK    2  A    between atoms: N3_9  and  C3_10 
REMARK    3  A    between atoms: C3_10  and  C4_11 
REMARK    4  A    between atoms: C4_11  and  C5_12 
REMARK    5  A    between atoms: C5_12  and  C6_13 
REMARK    6  A    between atoms: C6_13  and  N4_14 
REMARK    7  A    between atoms: C6_13  and  C7_18 
REMARK    8  A    between atoms: C7_18  and  C8_20 
REMARK    9  A    between atoms: C8_20  and  N5_21 
REMARK       I    between atoms: N6_25  and  C9_27 
REMARK   10  A    between atoms: C9_27  and  C10_29 
REMARK   11  A    between atoms: C10_29  and  N7_30 
REMARK   12  A    between atoms: C10_29  and  C11_34 
ROOT
HETATM    1  C3  UNL     1      -0.517   1.633   0.728  1.00  0.00     0.111 C 
HETATM    2  N6  UNL     1      -1.347   1.256   1.623  1.00  0.00    -0.313 N 
ATOM      3  H6  UNL     1      -2.233   1.759   1.678  1.00  0.00     0.170 HD
HETATM    4  C9  UNL     1      -1.145   0.202   2.545  1.00  0.00     0.254 C 
HETATM    5  O3  UNL     1      -0.285   0.338   3.448  1.00  0.00    -0.271 OA
ENDROOT
BRANCH   1   6
HETATM    6  N3  UNL     1      -0.874   2.729  -0.140  1.00  0.00    -0.178 N 
HETATM    7  C2  UNL     1      -0.046   3.722  -0.534  1.00  0.00     0.361 A 
HETATM    8  N2  UNL     1      -0.789   4.519  -1.329  1.00  0.00    -0.139 N 
HETATM    9  O1  UNL     1       1.171   3.869  -0.219  1.00  0.00    -0.244 OA
HETATM   10  C1  UNL     1      -2.043   4.048  -1.436  1.00  0.00     0.695 A 
ATOM     11  H2  UNL     1      -0.446   5.364  -1.786  1.00  0.00     0.189 HD
HETATM   12  N8  UNL     1      -2.065   2.933  -0.685  1.00  0.00    -0.120 N 
ATOM     13  H8  UNL     1      -2.879   2.332  -0.554  1.00  0.00     0.206 HD
BRANCH  10  14
HETATM   14  N1  UNL     1      -3.018   4.579  -2.130  1.00  0.00    -0.233 N 
ATOM     15  H12 UNL     1      -3.001   5.425  -2.700  1.00  0.00     0.174 HD
ATOM     16  H11 UNL     1      -3.970   4.221  -2.211  1.00  0.00     0.174 HD
ENDBRANCH  10  14
ENDBRANCH   1   6
BRANCH   1  17
HETATM   17  C4  UNL     1       0.807   0.981   0.549  1.00  0.00     0.081 C 
BRANCH  17  18
HETATM   18  C5  UNL     1       0.908   0.423  -0.832  1.00  0.00     0.048 C 
BRANCH  18  19
HETATM   19  C6  UNL     1       2.216  -0.255  -1.152  1.00  0.00     0.254 C 
BRANCH  19  20
HETATM   20  N4  UNL     1       2.057  -0.707  -2.552  1.00  0.00    -0.068 N 
ATOM     21  H43 UNL     1       1.234  -1.288  -2.713  1.00  0.00     0.275 HD
ATOM     22  H42 UNL     1       1.799   0.034  -3.204  1.00  0.00     0.275 HD
ATOM     23  H41 UNL     1       2.942  -1.166  -2.768  1.00  0.00     0.275 HD
ENDBRANCH  19  20
BRANCH  19  24
HETATM   24  C7  UNL     1       2.534  -1.394  -0.278  1.00  0.00     0.182 C 
HETATM   25  O2  UNL     1       2.777  -1.237   0.901  1.00  0.00    -0.294 OA
BRANCH  24  26
HETATM   26  C8  UNL     1       2.566  -2.772  -0.817  1.00  0.00     0.309 C 
BRANCH  26  27
HETATM   27  N5  UNL     1       2.902  -3.728   0.221  1.00  0.00    -0.073 N 
ATOM     28  H53 UNL     1       3.776  -3.486   0.687  1.00  0.00     0.274 HD
ATOM     29  H52 UNL     1       2.274  -3.651   1.021  1.00  0.00     0.274 HD
ATOM     30  H51 UNL     1       2.924  -4.678  -0.150  1.00  0.00     0.274 HD
ENDBRANCH  26  27
ENDBRANCH  24  26
ENDBRANCH  19  24
ENDBRANCH  18  19
ENDBRANCH  17  18
ENDBRANCH   1  17
BRANCH   4  31
HETATM   31  C10 UNL     1      -1.919  -1.056   2.477  1.00  0.00     0.285 C 
BRANCH  31  32
HETATM   32  N7  UNL     1      -1.494  -1.938   3.543  1.00  0.00    -0.066 N 
ATOM     33  H73 UNL     1      -0.487  -2.102   3.530  1.00  0.00     0.275 HD
ATOM     34  H72 UNL     1      -1.557  -1.495   4.459  1.00  0.00     0.275 HD
ATOM     35  H71 UNL     1      -2.028  -2.806   3.496  1.00  0.00     0.275 HD
ENDBRANCH  31  32
BRANCH  31  36
HETATM   36  C11 UNL     1      -1.742  -1.729   1.110  1.00  0.00     0.129 C 
HETATM   37  S1  UNL     1      -2.702  -3.260   1.066  1.00  0.00    -0.095 SA
ENDBRANCH  31  36
ENDBRANCH   4  31
TORSDOF 12
