REMARK  10 active torsions:
REMARK  status: ('A' for Active; 'I' for Inactive)
REMARK    1  A    between atoms: N1_1  and  C1_4 
REMARK    2  A    between atoms: C2_10  and  C3_11 
REMARK    3  A    between atoms: C3_11  and  C4_13 
REMARK    4  A    between atoms: C4_13  and  C5_14 
REMARK    5  A    between atoms: C6_18  and  C7_19 
REMARK    6  A    between atoms: C7_19  and  S1_20 
REMARK    7  A    between atoms: S1_20  and  N5_21 
REMARK    8  A    between atoms: S1_20  and  N6_24 
REMARK    9  A    between atoms: C8_31  and  N8_32 
REMARK   10  A    between atoms: N8_32  and  C9_34 
ROOT
HETATM    1  C5  UNL     1      -0.477  -1.263  -0.288  1.00  0.00     0.245 C 
HETATM    2  N4  UNL     1       0.218  -0.174  -0.936  1.00  0.00    -0.037 N 
ATOM      3  H41 UNL     1      -0.400   0.572  -1.255  1.00  0.00     0.280 HD
ATOM      4  H42 UNL     1       0.597  -0.418  -1.851  1.00  0.00     0.280 HD
HETATM    5  C6  UNL     1       1.216   0.266   0.002  1.00  0.00     0.399 C 
HETATM    6  N7  UNL     1       1.576  -0.890   0.782  1.00  0.00    -0.022 N 
ATOM      7  H71 UNL     1       1.701  -0.676   1.771  1.00  0.00     0.282 HD
ATOM      8  H72 UNL     1       2.524  -1.215   0.593  1.00  0.00     0.282 HD
HETATM    9  C8  UNL     1       0.580  -1.905   0.551  1.00  0.00     0.319 C 
ENDROOT
BRANCH   1  10
HETATM   10  C4  UNL     1      -1.573  -0.638   0.565  1.00  0.00     0.122 C 
BRANCH  10  11
HETATM   11  C3  UNL     1      -2.466   0.119  -0.336  1.00  0.00     0.183 C 
HETATM   12  O2  UNL     1      -2.279   0.183  -1.580  1.00  0.00    -0.291 OA
BRANCH  11  13
HETATM   13  C2  UNL     1      -3.619   0.825   0.254  1.00  0.00     0.147 A 
HETATM   14  C1  UNL     1      -4.563   1.581  -0.411  1.00  0.00     0.153 A 
HETATM   15  N2  UNL     1      -5.423   2.030   0.527  1.00  0.00    -0.224 N 
HETATM   16  O1  UNL     1      -5.050   1.591   1.691  1.00  0.00    -0.155 OA
ATOM     17  H2  UNL     1      -6.236   2.620   0.350  1.00  0.00     0.198 HD
HETATM   18  N3  UNL     1      -3.969   0.866   1.548  1.00  0.00    -0.234 N 
ATOM     19  H3  UNL     1      -3.469   0.402   2.306  1.00  0.00     0.197 HD
BRANCH  14  20
HETATM   20  N1  UNL     1      -4.578   1.788  -1.678  1.00  0.00    -0.382 N 
ATOM     21  H12 UNL     1      -5.276   2.347  -2.169  1.00  0.00     0.157 HD
ATOM     22  H11 UNL     1      -3.928   1.449  -2.387  1.00  0.00     0.157 HD
ENDBRANCH  14  20
ENDBRANCH  11  13
ENDBRANCH  10  11
ENDBRANCH   1  10
BRANCH   9  23
HETATM   23  N8  UNL     1       1.176  -2.983  -0.203  1.00  0.00    -0.339 N 
ATOM     24  H8  UNL     1       1.601  -2.789  -1.110  1.00  0.00     0.164 HD
BRANCH  23  25
HETATM   25  C9  UNL     1       1.178  -4.309   0.303  1.00  0.00     0.350 C 
HETATM   26  O4  UNL     1       0.656  -4.546   1.421  1.00  0.00    -0.284 OA
ENDBRANCH  23  25
ENDBRANCH   9  23
BRANCH   5  27
HETATM   27  C7  UNL     1       2.366   0.866  -0.735  1.00  0.00     0.201 C 
BRANCH  27  28
HETATM   28  S1  UNL     1       3.647   1.436   0.357  1.00  0.00     0.102 S 
HETATM   29  O3  UNL     1       4.187   0.348   1.220  1.00  0.00    -0.229 OA
BRANCH  28  30
HETATM   30  N5  UNL     1       3.077   2.543   1.288  1.00  0.00    -0.345 N 
ATOM     31  H52 UNL     1       2.114   2.879   1.264  1.00  0.00     0.167 HD
ATOM     32  H51 UNL     1       3.812   2.870   1.915  1.00  0.00     0.167 HD
ENDBRANCH  28  30
BRANCH  28  33
HETATM   33  N6  UNL     1       4.957   2.121  -0.521  1.00  0.00    -0.345 N 
ATOM     34  H62 UNL     1       4.981   2.185  -1.539  1.00  0.00     0.167 HD
ATOM     35  H61 UNL     1       5.692   2.448   0.106  1.00  0.00     0.167 HD
ENDBRANCH  28  33
ENDBRANCH  27  28
ENDBRANCH   5  27
TORSDOF 10
