REMARK  12 active torsions:
REMARK  status: ('A' for Active; 'I' for Inactive)
REMARK    1  A    between atoms: N1_1  and  O1_4 
REMARK    2  A    between atoms: O1_4  and  C1_5 
REMARK    3  A    between atoms: C1_5  and  O2_6 
REMARK    4  A    between atoms: C1_5  and  C2_8 
REMARK    5  A    between atoms: C3_9  and  O3_10 
REMARK    6  A    between atoms: N3_18  and  C6_19 
REMARK    7  A    between atoms: C6_19  and  C7_20 
REMARK    8  A    between atoms: C7_20  and  C8_21 
REMARK    9  A    between atoms: C8_21  and  C9_22 
REMARK   10  A    between atoms: C9_22  and  N4_23 
REMARK   11  A    between atoms: N4_23  and  S1_25 
REMARK   12  A    between atoms: S1_25  and  N5_26 
ROOT
HETATM    1  C2  UNL     1      -2.410   0.255  -0.286  1.00  0.00     0.123 A 
HETATM    2  C3  UNL     1      -3.483   1.139  -0.554  1.00  0.00     0.171 A 
HETATM    3  N2  UNL     1      -3.782   1.532  -1.800  1.00  0.00    -0.298 N 
ATOM      4  H2  UNL     1      -4.557   2.170  -1.981  1.00  0.00     0.171 HD
HETATM    5  C4  UNL     1      -3.025   1.056  -2.803  1.00  0.00     0.315 A 
HETATM    6  O4  UNL     1      -3.290   1.416  -4.000  1.00  0.00    -0.262 OA
HETATM    7  C5  UNL     1      -1.981   0.200  -2.575  1.00  0.00     0.316 A 
HETATM    8  O5  UNL     1      -1.303  -0.215  -3.563  1.00  0.00    -0.262 OA
HETATM    9  N3  UNL     1      -1.679  -0.199  -1.301  1.00  0.00    -0.305 N 
ENDROOT
BRANCH   9  10
HETATM   10  C6  UNL     1      -0.603  -1.096  -1.113  1.00  0.00     0.133 C 
BRANCH  10  11
HETATM   11  C7  UNL     1       0.723  -0.448  -0.805  1.00  0.00     0.022 C 
BRANCH  11  12
HETATM   12  C8  UNL     1       1.744  -1.558  -0.639  1.00  0.00     0.022 C 
BRANCH  12  13
HETATM   13  C9  UNL     1       3.105  -0.934  -0.324  1.00  0.00     0.133 C 
BRANCH  13  14
HETATM   14  N4  UNL     1       2.930  -0.184   0.909  1.00  0.00    -0.303 N 
ATOM     15  H4  UNL     1       2.044  -0.130   1.411  1.00  0.00     0.173 HD
BRANCH  14  16
HETATM   16  S1  UNL     1       4.351   0.595   1.432  1.00  0.00     0.312 S 
HETATM   17  O6  UNL     1       5.558  -0.170   0.936  1.00  0.00    -0.183 OA
HETATM   18  O7  UNL     1       4.412   0.737   2.933  1.00  0.00    -0.183 OA
BRANCH  16  19
HETATM   19  N5  UNL     1       4.500   2.204   0.784  1.00  0.00    -0.312 N 
ATOM     20  H52 UNL     1       3.806   2.619   0.162  1.00  0.00     0.170 HD
ATOM     21  H51 UNL     1       5.351   2.671   1.097  1.00  0.00     0.170 HD
ENDBRANCH  16  19
ENDBRANCH  14  16
ENDBRANCH  13  14
ENDBRANCH  12  13
ENDBRANCH  11  12
ENDBRANCH  10  11
ENDBRANCH   9  10
BRANCH   1  22
HETATM   22  C1  UNL     1      -2.211  -0.033   1.131  1.00  0.00     0.341 C 
BRANCH  22  23
HETATM   23  O1  UNL     1      -2.014  -1.344   1.513  1.00  0.00    -0.248 OA
BRANCH  23  24
HETATM   24  N1  UNL     1      -1.048  -1.330   2.491  1.00  0.00    -0.308 N 
ATOM     25  H12 UNL     1      -0.577  -0.501   2.854  1.00  0.00     0.184 HD
ATOM     26  H11 UNL     1      -0.902  -2.299   2.773  1.00  0.00     0.184 HD
ENDBRANCH  23  24
ENDBRANCH  22  23
BRANCH  22  27
HETATM   27  O2  UNL     1      -3.343   0.361   1.897  1.00  0.00    -0.364 OA
ATOM     28  H2  UNL     1      -3.479   1.264   1.634  1.00  0.00     0.213 HD
ENDBRANCH  22  27
ENDBRANCH   1  22
BRANCH   2  29
HETATM   29  O3  UNL     1      -4.268   1.633   0.475  1.00  0.00    -0.344 OA
ATOM     30  H3  UNL     1      -4.988   2.226   0.295  1.00  0.00     0.219 HD
ENDBRANCH   2  29
TORSDOF 12
