REMARK  12 active torsions:
REMARK  status: ('A' for Active; 'I' for Inactive)
REMARK    1  A    between atoms: N1_1  and  C1_5 
REMARK    2  A    between atoms: C1_5  and  C2_6 
REMARK    3  A    between atoms: C2_6  and  C3_7 
REMARK    4  A    between atoms: C3_7  and  N2_8 
REMARK    5  A    between atoms: N2_8  and  N3_9 
REMARK    6  A    between atoms: N2_8  and  C9_26 
REMARK    7  A    between atoms: N3_9  and  C4_11 
REMARK    8  A    between atoms: C4_11  and  C5_12 
REMARK    9  A    between atoms: C7_16  and  N5_17 
REMARK   10  A    between atoms: N5_17  and  N6_19 
REMARK       I    between atoms: N6_19  and  C8_21 
REMARK   11  A    between atoms: C9_26  and  O2_27 
REMARK   12  A    between atoms: C9_26  and  C10_29 
ROOT
HETATM    1  N2  UNL     1      -1.503   0.431  -0.269  1.00  0.00    -0.269 N 
ENDROOT
BRANCH   1   2
HETATM    2  C3  UNL     1      -1.968  -0.535   0.668  1.00  0.00     0.153 C 
BRANCH   2   3
HETATM    3  C2  UNL     1      -2.647  -1.724   0.031  1.00  0.00     0.049 C 
BRANCH   3   4
HETATM    4  C1  UNL     1      -3.097  -2.673   1.135  1.00  0.00     0.231 C 
BRANCH   4   5
HETATM    5  N1  UNL     1      -3.758  -3.835   0.620  1.00  0.00    -0.079 N 
ATOM      6  H13 UNL     1      -4.538  -3.577   0.016  1.00  0.00     0.274 HD
ATOM      7  H12 UNL     1      -3.175  -4.317  -0.064  1.00  0.00     0.274 HD
ATOM      8  H11 UNL     1      -4.059  -4.470   1.359  1.00  0.00     0.274 HD
ENDBRANCH   4   5
ENDBRANCH   3   4
ENDBRANCH   2   3
ENDBRANCH   1   2
BRANCH   1   9
HETATM    9  N3  UNL     1      -0.193   0.284  -0.746  1.00  0.00    -0.309 N 
ATOM     10  H3  UNL     1       0.108   0.709  -1.623  1.00  0.00     0.186 HD
BRANCH   9  11
HETATM   11  C4  UNL     1       0.688  -0.480   0.045  1.00  0.00     0.107 C 
BRANCH  11  12
HETATM   12  C5  UNL     1       2.094  -0.532  -0.538  1.00  0.00     0.142 C 
HETATM   13  C6  UNL     1       3.016  -1.347   0.333  1.00  0.00     0.153 C 
HETATM   14  N4  UNL     1       4.296  -0.721   0.144  1.00  0.00    -0.359 N 
HETATM   15  C7  UNL     1       4.139   0.460  -0.335  1.00  0.00     0.191 C 
ATOM     16  H4  UNL     1       5.196  -1.151   0.359  1.00  0.00     0.162 HD
HETATM   17  N8  UNL     1       2.761   0.743  -0.525  1.00  0.00    -0.350 N 
ATOM     18  H8  UNL     1       2.331   1.662  -0.631  1.00  0.00     0.163 HD
BRANCH  15  19
HETATM   19  N5  UNL     1       5.260   1.305  -0.618  1.00  0.00    -0.268 N 
ATOM     20  H5  UNL     1       5.139   2.038  -1.317  1.00  0.00     0.190 HD
BRANCH  19  21
HETATM   21  N6  UNL     1       6.502   1.192  -0.003  1.00  0.00    -0.251 N 
HETATM   22  C8  UNL     1       7.382   0.086  -0.149  1.00  0.00     0.347 C 
HETATM   23  N7  UNL     1       8.630   0.077   0.528  1.00  0.00    -0.038 NA
HETATM   24  O1  UNL     1       7.123  -0.915  -0.861  1.00  0.00    -0.249 OA
ATOM     25  H6  UNL     1       6.804   1.960   0.597  1.00  0.00     0.191 HD
ENDBRANCH  19  21
ENDBRANCH  15  19
ENDBRANCH  11  12
ENDBRANCH   9  11
ENDBRANCH   1   9
BRANCH   1  26
HETATM   26  C9  UNL     1      -2.235   1.515  -0.775  1.00  0.00     0.202 C 
BRANCH  26  27
HETATM   27  O2  UNL     1      -1.544   2.292  -1.561  1.00  0.00    -0.342 OA
ATOM     28  H2  UNL     1      -2.040   3.026  -1.904  1.00  0.00     0.219 HD
ENDBRANCH  26  27
BRANCH  26  29
HETATM   29  C10 UNL     1      -3.617   1.861  -0.541  1.00  0.00     0.150 C 
HETATM   30  N9  UNL     1      -4.130   2.953  -1.107  1.00  0.00    -0.371 N 
HETATM   31  C11 UNL     1      -5.501   3.108  -0.748  1.00  0.00     0.141 C 
ATOM     32  H9  UNL     1      -3.613   3.590  -1.713  1.00  0.00     0.161 HD
HETATM   33  C12 UNL     1      -5.921   1.674  -0.416  1.00  0.00     0.141 C 
HETATM   34  N10 UNL     1      -4.642   1.237   0.197  1.00  0.00    -0.371 N 
ATOM     35  H10 UNL     1      -4.528   0.610   0.993  1.00  0.00     0.161 HD
ENDBRANCH  26  29
ENDBRANCH   1  26
TORSDOF 12
