REMARK  6 active torsions:
REMARK  status: ('A' for Active; 'I' for Inactive)
REMARK       I    between atoms: N1_1  and  C1_5 
REMARK       I    between atoms: C1_5  and  N2_6 
REMARK       I    between atoms: C1_5  and  N3_10 
REMARK    1  A    between atoms: N3_10  and  N4_11 
REMARK       I    between atoms: N4_11  and  C2_13 
REMARK    2  A    between atoms: C2_13  and  C3_15 
REMARK    3  A    between atoms: C3_15  and  S1_16 
REMARK    4  A    between atoms: S1_16  and  C4_17 
REMARK    5  A    between atoms: C4_17  and  C5_18 
REMARK    6  A    between atoms: C5_18  and  N5_19 
ROOT
HETATM    1  C4  UNL     1      -0.652  -1.692   0.196  1.00  0.00     0.095 C 
ENDROOT
BRANCH   1   2
HETATM    2  S1  UNL     1       0.859  -2.550   0.563  1.00  0.00    -0.158 SA
BRANCH   2   3
HETATM    3  C3  UNL     1       1.976  -2.625  -0.824  1.00  0.00     0.177 C 
BRANCH   3   4
HETATM    4  C2  UNL     1       2.599  -1.327  -1.095  1.00  0.00     0.242 C 
HETATM    5  N4  UNL     1       3.440  -0.717  -0.128  1.00  0.00    -0.270 N 
ATOM      6  H4  UNL     1       3.607  -1.190   0.760  1.00  0.00     0.185 HD
HETATM    7  O1  UNL     1       2.403  -0.733  -2.180  1.00  0.00    -0.271 OA
BRANCH   5   8
HETATM    8  N3  UNL     1       4.030   0.494  -0.365  1.00  0.00    -0.078 NA
HETATM    9  C1  UNL     1       5.006   0.838   0.662  1.00  0.00     0.490 C 
HETATM   10  N1  UNL     1       5.502   2.159   0.364  1.00  0.00    -0.035 N 
HETATM   11  N2  UNL     1       4.444   0.734   1.985  1.00  0.00    -0.035 N 
ATOM     12  H13 UNL     1       4.777   2.862   0.508  1.00  0.00     0.278 HD
ATOM     13  H12 UNL     1       6.172   2.464   1.070  1.00  0.00     0.278 HD
ATOM     14  H11 UNL     1       5.900   2.233  -0.572  1.00  0.00     0.278 HD
ATOM     15  H23 UNL     1       5.114   1.039   2.691  1.00  0.00     0.278 HD
ATOM     16  H22 UNL     1       3.719   1.437   2.129  1.00  0.00     0.278 HD
ATOM     17  H21 UNL     1       4.093  -0.200   2.196  1.00  0.00     0.278 HD
ENDBRANCH   5   8
ENDBRANCH   3   4
ENDBRANCH   2   3
ENDBRANCH   1   2
BRANCH   1  18
HETATM   18  C5  UNL     1      -0.548  -0.217  -0.036  1.00  0.00     0.147 C 
BRANCH  18  19
HETATM   19  N5  UNL     1      -1.908   0.271  -0.307  1.00  0.00    -0.264 N 
HETATM   20  C6  UNL     1      -2.253   0.259  -1.599  1.00  0.00     0.332 C 
HETATM   21  O2  UNL     1      -1.350   0.378  -2.464  1.00  0.00    -0.246 OA
HETATM   22  N6  UNL     1      -3.500   0.129  -2.131  1.00  0.00    -0.273 N 
HETATM   23  C7  UNL     1      -4.695   0.319  -1.558  1.00  0.00     0.278 C 
ATOM     24  H6  UNL     1      -3.528  -0.155  -3.110  1.00  0.00     0.173 HD
HETATM   25  O3  UNL     1      -5.718   0.269  -2.296  1.00  0.00    -0.265 OA
HETATM   26  C8  UNL     1      -4.929   0.566  -0.221  1.00  0.00     0.134 A 
HETATM   27  N7  UNL     1      -6.163   0.705   0.275  1.00  0.00    -0.346 N 
HETATM   28  C10 UNL     1      -4.019   0.716   0.801  1.00  0.00     0.135 A 
HETATM   29  C9  UNL     1      -6.048   0.937   1.587  1.00  0.00     0.181 A 
ATOM     30  H7  UNL     1      -7.034   0.645  -0.252  1.00  0.00     0.167 HD
HETATM   31  N8  UNL     1      -4.751   0.943   1.901  1.00  0.00    -0.346 N 
ATOM     32  H8  UNL     1      -4.374   1.097   2.836  1.00  0.00     0.167 HD
HETATM   33  C11 UNL     1      -2.641   0.648   0.741  1.00  0.00     0.281 C 
HETATM   34  O4  UNL     1      -2.037   0.975   1.777  1.00  0.00    -0.265 OA
ENDBRANCH  18  19
ENDBRANCH   1  18
TORSDOF 6
