REMARK  6 active torsions:
REMARK  status: ('A' for Active; 'I' for Inactive)
REMARK    1  A    between atoms: N2_3  and  C2_5 
REMARK    2  A    between atoms: C2_5  and  C3_6 
REMARK    3  A    between atoms: C5_8  and  N3_9 
REMARK    4  A    between atoms: N3_9  and  C6_11 
REMARK    5  A    between atoms: C7_13  and  N4_14 
REMARK    6  A    between atoms: N4_14  and  C8_16 
ROOT
HETATM    1  C3  UNL     1       0.353  -0.758  -0.355  1.00  0.00     0.030 C 
HETATM    2  C4  UNL     1       0.056   0.645  -0.803  1.00  0.00     0.035 C 
HETATM    3  C5  UNL     1      -1.036   0.715   0.238  1.00  0.00     0.107 C 
HETATM    4  C7  UNL     1      -0.976  -0.810   0.361  1.00  0.00     0.112 C 
ENDROOT
BRANCH   1   5
HETATM    5  C2  UNL     1       1.560  -0.748   0.565  1.00  0.00     0.126 C 
BRANCH   5   6
HETATM    6  N2  UNL     1       2.655  -0.204  -0.213  1.00  0.00    -0.388 N 
HETATM    7  C1  UNL     1       3.689   0.351   0.313  1.00  0.00     0.185 C 
HETATM    8  N1  UNL     1       4.707   0.853  -0.533  1.00  0.00    -0.097 NA
ATOM      9  H2  UNL     1       2.603  -0.264  -1.230  1.00  0.00     0.159 HD
ENDBRANCH   5   6
ENDBRANCH   1   5
BRANCH   4  10
HETATM   10  N4  UNL     1      -1.971  -1.450  -0.474  1.00  0.00    -0.361 N 
ATOM     11  H4  UNL     1      -2.069  -1.190  -1.455  1.00  0.00     0.162 HD
BRANCH  10  12
HETATM   12  C8  UNL     1      -2.804  -2.441   0.092  1.00  0.00     0.348 C 
HETATM   13  O2  UNL     1      -2.689  -2.762   1.289  1.00  0.00    -0.284 OA
ENDBRANCH  10  12
ENDBRANCH   4  10
BRANCH   3  14
HETATM   14  N3  UNL     1      -2.289   1.202  -0.285  1.00  0.00    -0.362 N 
ATOM     15  H3  UNL     1      -2.681   0.812  -1.142  1.00  0.00     0.162 HD
BRANCH  14  16
HETATM   16  C6  UNL     1      -2.963   2.229   0.413  1.00  0.00     0.348 C 
HETATM   17  O1  UNL     1      -2.550   2.752   1.458  1.00  0.00    -0.284 OA
ENDBRANCH  14  16
ENDBRANCH   3  14
TORSDOF 6
