REMARK  5 active torsions:
REMARK  status: ('A' for Active; 'I' for Inactive)
REMARK    1  A    between atoms: N2_4  and  N3_6 
REMARK    2  A    between atoms: C4_14  and  C5_15 
REMARK    3  A    between atoms: C5_15  and  C6_16 
REMARK    4  A    between atoms: C6_16  and  N5_17 
REMARK    5  A    between atoms: N5_17  and  C7_19 
ROOT
HETATM    1  N3  UNL     1      -2.480   0.841   1.877  1.00  0.00    -0.285 N 
ATOM      2  H3  UNL     1      -3.050   1.522   2.378  1.00  0.00     0.188 HD
HETATM    3  C1  UNL     1      -2.107   1.124   0.678  1.00  0.00     0.104 A 
HETATM    4  C2  UNL     1      -2.436   2.350  -0.031  1.00  0.00     0.269 A 
HETATM    5  O1  UNL     1      -3.130   3.287   0.472  1.00  0.00    -0.266 OA
HETATM    6  N4  UNL     1      -1.848   2.257  -1.302  1.00  0.00    -0.335 N 
ATOM      7  H4  UNL     1      -1.922   2.986  -2.012  1.00  0.00     0.168 HD
HETATM    8  C3  UNL     1      -1.214   1.169  -1.475  1.00  0.00     0.075 A 
HETATM    9  C4  UNL     1      -1.296   0.337  -0.261  1.00  0.00     0.083 A 
ENDROOT
BRANCH   9  10
HETATM   10  C5  UNL     1       0.119   0.235   0.277  1.00  0.00     0.036 C 
BRANCH  10  11
HETATM   11  C6  UNL     1       0.931  -0.573  -0.696  1.00  0.00     0.121 C 
BRANCH  11  12
HETATM   12  N5  UNL     1       2.278  -0.678  -0.193  1.00  0.00    -0.386 N 
ATOM     13  H5  UNL     1       2.549  -0.243   0.689  1.00  0.00     0.160 HD
BRANCH  12  14
HETATM   14  C7  UNL     1       3.216  -1.412  -0.975  1.00  0.00     0.168 C 
HETATM   15  N6  UNL     1       3.955  -2.279  -0.418  1.00  0.00    -0.396 N 
ATOM     16  H62 UNL     1       3.866  -2.438   0.586  1.00  0.00     0.156 HD
ATOM     17  H61 UNL     1       4.626  -2.804  -0.978  1.00  0.00     0.156 HD
ENDBRANCH  12  14
ENDBRANCH  11  12
ENDBRANCH  10  11
ENDBRANCH   9  10
BRANCH   1  18
HETATM   18  N2  UNL     1      -2.147  -0.344   2.526  1.00  0.00    -0.249 N 
HETATM   19  N1  UNL     1      -1.728  -0.369   3.737  1.00  0.00    -0.331 N 
ATOM     20  H12 UNL     1      -1.641   0.521   4.228  1.00  0.00     0.178 HD
ATOM     21  H11 UNL     1      -1.484  -1.238   4.213  1.00  0.00     0.178 HD
ATOM     22  H2  UNL     1      -2.240  -1.225   2.020  1.00  0.00     0.207 HD
ENDBRANCH   1  18
TORSDOF 5
