REMARK  5 active torsions:
REMARK  status: ('A' for Active; 'I' for Inactive)
REMARK    1  A    between atoms: C4_5  and  C5_6 
REMARK    2  A    between atoms: C5_6  and  C6_7 
REMARK    3  A    between atoms: C8_10  and  C9_11 
REMARK    4  A    between atoms: C9_11  and  O2_12 
REMARK    5  A    between atoms: O2_12  and  C10_13 
ROOT
HETATM    1  C6  UNL     1      -0.906   0.147  -1.394  1.00  0.00     0.179 C 
HETATM    2  C7  UNL     1       0.512   0.514  -1.217  1.00  0.00     0.182 C 
HETATM    3  O1  UNL     1       1.039   1.058  -2.176  1.00  0.00    -0.293 OA
HETATM    4  C8  UNL     1       1.465   0.360  -0.088  1.00  0.00     0.224 C 
HETATM    5  O3  UNL     1       1.852  -0.966   0.068  1.00  0.00    -0.336 OA
HETATM    6  C16 UNL     1       1.347  -2.230   0.135  1.00  0.00     0.078 A 
HETATM    7  C17 UNL     1       2.424  -3.024   0.412  1.00  0.00     0.037 A 
HETATM    8  C18 UNL     1       2.255  -4.380   0.547  1.00  0.00     0.003 A 
HETATM    9  C19 UNL     1       0.992  -4.901   0.397  1.00  0.00     0.001 A 
HETATM   10  C20 UNL     1      -0.116  -4.065   0.109  1.00  0.00     0.012 A 
HETATM   11  C21 UNL     1       0.038  -2.728  -0.026  1.00  0.00     0.001 A 
HETATM   12  C22 UNL     1      -1.191  -2.032  -0.331  1.00  0.00     0.154 C 
HETATM   13  C23 UNL     1      -2.369  -2.858  -0.601  1.00  0.00     0.119 A 
HETATM   14  C24 UNL     1      -3.127  -2.026  -1.649  1.00  0.00     0.107 A 
HETATM   15  N2  UNL     1      -4.326  -1.989  -1.315  1.00  0.00    -0.344 N 
ATOM     16  H2  UNL     1      -5.045  -1.517  -1.863  1.00  0.00     0.167 HD
HETATM   17  C25 UNL     1      -4.596  -2.665  -0.102  1.00  0.00     0.040 A 
HETATM   18  C26 UNL     1      -5.816  -2.804   0.585  1.00  0.00     0.030 A 
HETATM   19  C27 UNL     1      -5.854  -3.462   1.790  1.00  0.00     0.002 A 
HETATM   20  C28 UNL     1      -4.661  -3.957   2.257  1.00  0.00     0.001 A 
HETATM   21  C29 UNL     1      -3.473  -3.825   1.592  1.00  0.00     0.010 A 
HETATM   22  C30 UNL     1      -3.400  -3.162   0.364  1.00  0.00    -0.018 A 
HETATM   23  N3  UNL     1      -1.998  -1.633  -2.489  1.00  0.00    -0.289 N 
ATOM     24  H3  UNL     1      -1.909  -1.651  -3.505  1.00  0.00     0.188 HD
HETATM   25  N4  UNL     1      -1.077  -1.227  -1.527  1.00  0.00    -0.304 N 
ENDROOT
BRANCH   1  26
HETATM   26  C5  UNL     1      -1.834   0.815  -0.443  1.00  0.00     0.073 C 
BRANCH  26  27
HETATM   27  C4  UNL     1      -1.824   2.307  -0.550  1.00  0.00    -0.056 A 
HETATM   28  C3  UNL     1      -2.685   2.941  -1.456  1.00  0.00     0.009 A 
HETATM   29  C2  UNL     1      -2.735   4.294  -1.601  1.00  0.00     0.027 A 
HETATM   30  C1  UNL     1      -1.930   5.102  -0.850  1.00  0.00     0.046 A 
HETATM   31  N1  UNL     1      -1.958   6.513  -0.973  1.00  0.00    -0.102 NA
HETATM   32  C32 UNL     1      -1.077   4.507   0.046  1.00  0.00     0.027 A 
HETATM   33  C31 UNL     1      -1.028   3.134   0.190  1.00  0.00     0.009 A 
ENDBRANCH  26  27
ENDBRANCH   1  26
BRANCH   4  34
HETATM   34  C9  UNL     1       2.740   1.165  -0.389  1.00  0.00     0.216 C 
BRANCH  34  35
HETATM   35  O2  UNL     1       3.647   1.046   0.674  1.00  0.00    -0.348 OA
BRANCH  35  36
HETATM   36  C10 UNL     1       4.869   1.622   0.754  1.00  0.00     0.068 A 
HETATM   37  C11 UNL     1       5.364   2.417  -0.250  1.00  0.00     0.037 A 
HETATM   38  C12 UNL     1       6.617   3.009  -0.170  1.00  0.00     0.003 A 
HETATM   39  C13 UNL     1       7.377   2.796   0.931  1.00  0.00     0.000 A 
HETATM   40  C14 UNL     1       6.929   2.015   1.949  1.00  0.00     0.003 A 
HETATM   41  C15 UNL     1       5.669   1.429   1.854  1.00  0.00     0.037 A 
ENDBRANCH  35  36
ENDBRANCH  34  35
ENDBRANCH   4  34
TORSDOF 5
