REMARK  6 active torsions:
REMARK  status: ('A' for Active; 'I' for Inactive)
REMARK    1  A    between atoms: N1_2  and  C2_3 
REMARK    2  A    between atoms: N1_2  and  C26_37 
REMARK    3  A    between atoms: C2_3  and  C3_4 
REMARK    4  A    between atoms: C12_15  and  C13_16 
REMARK    5  A    between atoms: C16_23  and  N6_24 
REMARK    6  A    between atoms: C26_37  and  C27_38 
ROOT
HETATM    1  C13 UNL     1      -2.188   1.081   0.014  1.00  0.00     0.070 A 
HETATM    2  N3  UNL     1      -2.284   2.109   0.870  1.00  0.00    -0.328 N 
ATOM      3  H3  UNL     1      -2.109   1.944   1.861  1.00  0.00     0.168 HD
HETATM    4  C14 UNL     1      -2.604   3.352   0.463  1.00  0.00     0.196 A 
HETATM    5  N4  UNL     1      -2.693   4.415   1.412  1.00  0.00    -0.063 NA
HETATM    6  N5  UNL     1      -2.850   3.662  -0.817  1.00  0.00    -0.311 N 
HETATM    7  C15 UNL     1      -3.189   5.017  -1.208  1.00  0.00     0.160 C 
HETATM    8  C16 UNL     1      -2.769   2.668  -1.715  1.00  0.00     0.126 A 
HETATM    9  C17 UNL     1      -2.437   1.362  -1.304  1.00  0.00     0.116 A 
HETATM   10  C18 UNL     1      -2.504   0.368  -2.348  1.00  0.00     0.105 C 
HETATM   11  N7  UNL     1      -2.586  -0.439  -3.181  1.00  0.00    -0.191 NA
ENDROOT
BRANCH   1  12
HETATM   12  C12 UNL     1      -2.001  -0.236   0.504  1.00  0.00     0.004 C 
HETATM   13  C10 UNL     1      -0.948  -1.035  -0.114  1.00  0.00    -0.010 C 
HETATM   14  C9  UNL     1      -0.859  -2.480  -0.279  1.00  0.00     0.010 C 
HETATM   15  C11 UNL     1      -0.071  -0.121  -0.535  1.00  0.00     0.026 C 
HETATM   16  C6  UNL     1      -0.158  -3.231  -1.340  1.00  0.00    -0.027 C 
HETATM   17  C8  UNL     1      -1.421  -3.406   0.524  1.00  0.00     0.051 C 
HETATM   18  C5  UNL     1       0.883  -2.802  -2.031  1.00  0.00     0.011 C 
HETATM   19  C7  UNL     1      -0.856  -4.545  -1.429  1.00  0.00     0.159 C 
HETATM   20  C4  UNL     1       1.545  -1.474  -1.893  1.00  0.00     0.013 C 
HETATM   21  C3  UNL     1       1.188  -0.368  -1.279  1.00  0.00    -0.020 C 
HETATM   22  N2  UNL     1      -1.142  -4.706   0.042  1.00  0.00    -0.384 N 
ATOM     23  H2  UNL     1      -1.136  -5.573   0.579  1.00  0.00     0.160 HD
HETATM   24  C25 UNL     1      -2.153  -3.155   1.782  1.00  0.00     0.001 A 
HETATM   25  C20 UNL     1      -2.689  -1.943   2.233  1.00  0.00    -0.023 A 
HETATM   26  C24 UNL     1      -2.239  -4.282   2.559  1.00  0.00     0.014 A 
HETATM   27  C19 UNL     1      -2.730  -0.682   1.535  1.00  0.00     0.027 C 
HETATM   28  C21 UNL     1      -3.315  -1.861   3.480  1.00  0.00     0.012 A 
HETATM   29  C22 UNL     1      -3.384  -3.007   4.236  1.00  0.00     0.001 A 
HETATM   30  C23 UNL     1      -2.859  -4.202   3.792  1.00  0.00     0.001 A 
BRANCH  21  31
HETATM   31  C2  UNL     1       2.060   0.828  -1.306  1.00  0.00     0.101 C 
BRANCH  31  32
HETATM   32  N1  UNL     1       3.239   0.781  -2.030  1.00  0.00    -0.369 N 
HETATM   33  C1  UNL     1       3.228   0.757  -3.426  1.00  0.00     0.154 C 
BRANCH  32  34
HETATM   34  C26 UNL     1       4.496   0.904  -1.415  1.00  0.00     0.101 C 
BRANCH  34  35
HETATM   35  C27 UNL     1       4.501   0.942   0.058  1.00  0.00    -0.021 A 
HETATM   36  C28 UNL     1       4.479  -0.242   0.776  1.00  0.00     0.013 A 
HETATM   37  C29 UNL     1       4.494  -0.208   2.176  1.00  0.00     0.001 A 
HETATM   38  C30 UNL     1       4.530   0.990   2.842  1.00  0.00     0.000 A 
HETATM   39  C31 UNL     1       4.553   2.180   2.122  1.00  0.00     0.001 A 
HETATM   40  C32 UNL     1       4.538   2.137   0.732  1.00  0.00     0.013 A 
ENDBRANCH  34  35
ENDBRANCH  32  34
ENDBRANCH  31  32
ENDBRANCH  21  31
ENDBRANCH   1  12
BRANCH   8  41
HETATM   41  N6  UNL     1      -2.999   2.940  -2.949  1.00  0.00    -0.384 N 
ATOM     42  H62 UNL     1      -3.239   3.886  -3.247  1.00  0.00     0.157 HD
ATOM     43  H61 UNL     1      -2.937   2.185  -3.632  1.00  0.00     0.157 HD
ENDBRANCH   8  41
TORSDOF 6
