REMARK  6 active torsions:
REMARK  status: ('A' for Active; 'I' for Inactive)
REMARK    1  A    between atoms: O1_2  and  C2_3 
REMARK    2  A    between atoms: C6_7  and  N1_8 
REMARK    3  A    between atoms: N1_8  and  C7_10 
REMARK    4  A    between atoms: C11_18  and  C12_19 
REMARK    5  A    between atoms: C17_24  and  C18_25 
REMARK       I    between atoms: C18_25  and  N4_27 
REMARK    6  A    between atoms: N4_27  and  C19_29 
ROOT
HETATM    1  C7  UNL     1       3.919  -0.043   0.106  1.00  0.00     0.119 A 
HETATM    2  N2  UNL     1       4.340  -0.140   1.382  1.00  0.00    -0.338 N 
ATOM      3  H2  UNL     1       5.278  -0.507   1.543  1.00  0.00     0.168 HD
HETATM    4  C8  UNL     1       3.621   0.208   2.449  1.00  0.00     0.182 A 
HETATM    5  N3  UNL     1       2.375   0.695   2.230  1.00  0.00    -0.352 N 
ATOM      6  H3  UNL     1       1.794   0.972   3.021  1.00  0.00     0.166 HD
HETATM    7  C9  UNL     1       1.900   0.815   0.978  1.00  0.00     0.047 A 
HETATM    8  C10 UNL     1       0.635   1.308   0.738  1.00  0.00     0.042 A 
HETATM    9  C11 UNL     1       0.131   1.437  -0.554  1.00  0.00    -0.023 A 
HETATM   10  C27 UNL     1       0.902   1.067  -1.644  1.00  0.00     0.013 A 
HETATM   11  C28 UNL     1       2.187   0.566  -1.411  1.00  0.00     0.018 A 
HETATM   12  C29 UNL     1       2.640   0.456  -0.132  1.00  0.00     0.035 A 
ENDROOT
BRANCH   9  13
HETATM   13  C12 UNL     1      -1.203   1.967  -0.770  1.00  0.00    -0.013 A 
HETATM   14  C13 UNL     1      -1.362   3.333  -0.818  1.00  0.00    -0.050 A 
HETATM   15  C14 UNL     1      -0.174   4.194  -0.649  1.00  0.00     0.049 C 
HETATM   16  C15 UNL     1      -2.625   3.878  -1.023  1.00  0.00     0.009 A 
HETATM   17  C16 UNL     1      -3.662   3.006  -1.169  1.00  0.00     0.018 A 
HETATM   18  C17 UNL     1      -3.531   1.613  -1.125  1.00  0.00     0.039 A 
HETATM   19  C25 UNL     1      -2.283   1.091  -0.923  1.00  0.00    -0.035 A 
HETATM   20  C26 UNL     1      -2.076  -0.359  -0.865  1.00  0.00     0.050 C 
BRANCH  18  21
HETATM   21  C18 UNL     1      -4.689   0.787  -1.287  1.00  0.00     0.270 C 
HETATM   22  O2  UNL     1      -5.809   1.390  -1.508  1.00  0.00    -0.267 OA
HETATM   23  N4  UNL     1      -4.774  -0.609  -1.237  1.00  0.00    -0.155 N 
ATOM     24  H4  UNL     1      -4.149  -1.124  -1.857  1.00  0.00     0.187 HD
BRANCH  23  25
HETATM   25  C19 UNL     1      -5.554  -1.314  -0.494  1.00  0.00     0.685 A 
HETATM   26  N5  UNL     1      -5.458  -2.652  -0.620  1.00  0.00    -0.196 N 
HETATM   27  C20 UNL     1      -6.210  -3.500   0.098  1.00  0.00     0.024 A 
ATOM     28  H5  UNL     1      -4.788  -3.035  -1.287  1.00  0.00     0.184 HD
HETATM   29  C21 UNL     1      -6.077  -4.978  -0.067  1.00  0.00     0.068 C 
HETATM   30  C22 UNL     1      -7.126  -2.965   1.009  1.00  0.00     0.050 A 
HETATM   31  C23 UNL     1      -7.236  -1.605   1.149  1.00  0.00     0.024 A 
HETATM   32  C24 UNL     1      -8.201  -1.052   2.110  1.00  0.00     0.068 C 
HETATM   33  N6  UNL     1      -6.438  -0.827   0.385  1.00  0.00    -0.196 N 
ATOM     34  H6  UNL     1      -6.513   0.185   0.483  1.00  0.00     0.184 HD
ENDBRANCH  23  25
ENDBRANCH  18  21
ENDBRANCH   9  13
BRANCH   1  35
HETATM   35  N1  UNL     1       4.669  -0.399  -0.891  1.00  0.00    -0.342 N 
ATOM     36  H1  UNL     1       4.340  -0.322  -1.854  1.00  0.00     0.167 HD
BRANCH  35  37
HETATM   37  C6  UNL     1       5.967  -0.901  -0.593  1.00  0.00     0.036 A 
HETATM   38  C5  UNL     1       6.166  -2.255  -0.643  1.00  0.00     0.029 A 
HETATM   39  C4  UNL     1       7.425  -2.778  -0.357  1.00  0.00     0.005 A 
HETATM   40  C3  UNL     1       8.458  -1.935  -0.025  1.00  0.00     0.037 A 
HETATM   41  C2  UNL     1       8.279  -0.550   0.032  1.00  0.00     0.070 A 
HETATM   42  C30 UNL     1       7.028  -0.081  -0.257  1.00  0.00     0.066 A 
BRANCH  41  43
HETATM   43  O1  UNL     1       9.346   0.261   0.369  1.00  0.00    -0.356 OA
HETATM   44  C1  UNL     1       9.147   1.651   0.421  1.00  0.00     0.210 C 
ENDBRANCH  41  43
ENDBRANCH  35  37
ENDBRANCH   1  35
TORSDOF 6
