REMARK  6 active torsions:
REMARK  status: ('A' for Active; 'I' for Inactive)
REMARK    1  A    between atoms: N1_1  and  S1_4 
REMARK    2  A    between atoms: S1_4  and  C1_7 
REMARK    3  A    between atoms: C6_12  and  N2_13 
REMARK    4  A    between atoms: N2_13  and  C7_15 
REMARK    5  A    between atoms: C11_21  and  C12_22 
REMARK    6  A    between atoms: N5_35  and  C23_36 
ROOT
HETATM    1  C7  UNL     1      -2.632   0.656   1.053  1.00  0.00     0.176 A 
HETATM    2  N3  UNL     1      -1.750   1.527   1.624  1.00  0.00    -0.336 N 
ATOM      3  H3  UNL     1      -2.102   2.308   2.177  1.00  0.00     0.168 HD
HETATM    4  C8  UNL     1      -0.438   1.372   1.470  1.00  0.00     0.061 A 
HETATM    5  C9  UNL     1       0.418   2.273   2.062  1.00  0.00     0.033 A 
HETATM    6  C10 UNL     1       1.802   2.146   1.925  1.00  0.00     0.014 A 
HETATM    7  C11 UNL     1       2.312   1.100   1.181  1.00  0.00    -0.024 A 
HETATM    8  C21 UNL     1       1.441   0.185   0.579  1.00  0.00     0.044 A 
HETATM    9  C22 UNL     1       0.079   0.319   0.722  1.00  0.00     0.070 A 
HETATM   10  N5  UNL     1      -0.789  -0.551   0.151  1.00  0.00    -0.274 N 
HETATM   11  C29 UNL     1      -2.129  -0.390   0.310  1.00  0.00     0.297 A 
HETATM   12  O3  UNL     1      -2.831  -1.258  -0.268  1.00  0.00    -0.263 OA
ENDROOT
BRANCH   1  13
HETATM   13  N2  UNL     1      -3.878   0.797   1.196  1.00  0.00    -0.337 N 
ATOM     14  H2  UNL     1      -4.138   1.604   1.764  1.00  0.00     0.167 HD
BRANCH  13  15
HETATM   15  C6  UNL     1      -4.959   0.071   0.733  1.00  0.00     0.057 A 
HETATM   16  C1  UNL     1      -5.665   0.537  -0.378  1.00  0.00     0.105 A 
HETATM   17  C2  UNL     1      -6.765  -0.150  -0.883  1.00  0.00     0.027 A 
HETATM   18  C3  UNL     1      -7.202  -1.319  -0.304  1.00  0.00     0.002 A 
HETATM   19  C4  UNL     1      -6.502  -1.777   0.796  1.00  0.00     0.002 A 
HETATM   20  C5  UNL     1      -5.414  -1.111   1.306  1.00  0.00     0.031 A 
BRANCH  16  21
HETATM   21  S1  UNL     1      -5.143   2.021  -1.129  1.00  0.00     0.259 S 
HETATM   22  O1  UNL     1      -6.188   2.370  -2.185  1.00  0.00    -0.201 OA
HETATM   23  O2  UNL     1      -3.861   1.905  -1.877  1.00  0.00    -0.201 OA
BRANCH  21  24
HETATM   24  N1  UNL     1      -5.177   3.344  -0.020  1.00  0.00    -0.324 N 
ATOM     25  H12 UNL     1      -5.771   4.171  -0.073  1.00  0.00     0.169 HD
ATOM     26  H11 UNL     1      -4.479   3.111   0.686  1.00  0.00     0.169 HD
ENDBRANCH  21  24
ENDBRANCH  16  21
ENDBRANCH  13  15
ENDBRANCH   1  13
BRANCH  10  27
HETATM   27  C23 UNL     1      -0.279  -1.630  -0.615  1.00  0.00     0.043 A 
HETATM   28  C24 UNL     1      -0.263  -1.459  -2.001  1.00  0.00     0.030 A 
HETATM   29  C25 UNL     1       0.218  -2.461  -2.819  1.00  0.00     0.002 A 
HETATM   30  C26 UNL     1       0.685  -3.637  -2.274  1.00  0.00     0.000 A 
HETATM   31  C27 UNL     1       0.668  -3.802  -0.903  1.00  0.00     0.002 A 
HETATM   32  C28 UNL     1       0.189  -2.805  -0.081  1.00  0.00     0.030 A 
ENDBRANCH  10  27
BRANCH   7  33
HETATM   33  C12 UNL     1       3.761   0.946   1.022  1.00  0.00    -0.025 A 
HETATM   34  C13 UNL     1       4.651   1.327   2.002  1.00  0.00     0.013 A 
HETATM   35  C14 UNL     1       6.010   1.171   1.828  1.00  0.00     0.014 A 
HETATM   36  C15 UNL     1       6.545   0.632   0.676  1.00  0.00    -0.011 A 
HETATM   37  C16 UNL     1       7.909   0.489   0.529  1.00  0.00     0.099 A 
HETATM   38  C19 UNL     1       5.657   0.250  -0.308  1.00  0.00    -0.022 A 
HETATM   39  N4  UNL     1       8.391  -0.046  -0.622  1.00  0.00    -0.374 N 
HETATM   40  C17 UNL     1       7.550  -0.435  -1.614  1.00  0.00     0.088 A 
ATOM     41  H4  UNL     1       9.398  -0.157  -0.743  1.00  0.00     0.164 HD
HETATM   42  C18 UNL     1       6.189  -0.288  -1.457  1.00  0.00     0.029 A 
HETATM   43  C20 UNL     1       4.295   0.403  -0.140  1.00  0.00     0.024 A 
ENDBRANCH   7  33
TORSDOF 6
