REMARK  6 active torsions:
REMARK  status: ('A' for Active; 'I' for Inactive)
REMARK    1  A    between atoms: C5_5  and  N1_6 
REMARK    2  A    between atoms: N1_6  and  C6_8 
REMARK    3  A    between atoms: C7_9  and  C8_10 
REMARK    4  A    between atoms: C19_23  and  S1_24 
REMARK    5  A    between atoms: S1_24  and  N2_27 
REMARK    6  A    between atoms: N2_27  and  C20_29 
ROOT
HETATM    1  C6  UNL     1      -0.102   0.762   0.197  1.00  0.00     0.056 A 
HETATM    2  C7  UNL     1      -0.541   1.791   0.989  1.00  0.00     0.002 A 
HETATM    3  C15 UNL     1       0.339   2.370   1.904  1.00  0.00     0.015 A 
HETATM    4  C16 UNL     1       1.631   1.937   2.034  1.00  0.00     0.013 A 
HETATM    5  C17 UNL     1       2.071   0.915   1.248  1.00  0.00    -0.022 A 
HETATM    6  C18 UNL     1       3.380   0.467   1.370  1.00  0.00     0.037 A 
HETATM    7  C19 UNL     1       3.820  -0.569   0.572  1.00  0.00     0.080 A 
HETATM    8  C23 UNL     1       2.947  -1.129  -0.324  1.00  0.00     0.026 A 
HETATM    9  C24 UNL     1       1.647  -0.705  -0.464  1.00  0.00     0.016 A 
HETATM   10  C25 UNL     1       1.194   0.330   0.328  1.00  0.00     0.002 A 
ENDROOT
BRANCH   1  11
HETATM   11  N1  UNL     1      -0.956   0.162  -0.724  1.00  0.00    -0.341 N 
ATOM     12  H1  UNL     1      -0.865   0.458  -1.696  1.00  0.00     0.167 HD
BRANCH  11  13
HETATM   13  C5  UNL     1      -1.846  -0.726  -0.472  1.00  0.00     0.105 A 
HETATM   14  C4  UNL     1      -2.097  -1.231   0.779  1.00  0.00     0.049 A 
HETATM   15  C3  UNL     1      -3.076  -2.187   0.961  1.00  0.00     0.012 A 
HETATM   16  C2  UNL     1      -3.823  -2.655  -0.112  1.00  0.00    -0.040 A 
HETATM   17  C1  UNL     1      -4.878  -3.674   0.033  1.00  0.00     0.050 C 
HETATM   18  C26 UNL     1      -3.539  -2.121  -1.351  1.00  0.00     0.013 A 
HETATM   19  N4  UNL     1      -2.575  -1.185  -1.508  1.00  0.00    -0.346 N 
HETATM   20  C27 UNL     1      -4.327  -2.606  -2.526  1.00  0.00     0.068 C 
ATOM     21  H4  UNL     1      -2.394  -0.815  -2.441  1.00  0.00     0.167 HD
ENDBRANCH  11  13
ENDBRANCH   1  11
BRANCH   2  22
HETATM   22  C8  UNL     1      -1.884   2.333   0.938  1.00  0.00    -0.021 A 
HETATM   23  C9  UNL     1      -2.619   2.582   2.072  1.00  0.00     0.015 A 
HETATM   24  C10 UNL     1      -3.889   3.097   2.042  1.00  0.00     0.040 A 
HETATM   25  C11 UNL     1      -4.473   3.384   0.842  1.00  0.00     0.105 A 
HETATM   26  C12 UNL     1      -3.772   3.151  -0.325  1.00  0.00     0.105 A 
HETATM   27  O2  UNL     1      -5.714   3.902   0.472  1.00  0.00    -0.323 OA
HETATM   28  C13 UNL     1      -2.470   2.622  -0.269  1.00  0.00     0.052 A 
HETATM   29  O1  UNL     1      -4.563   3.517  -1.399  1.00  0.00    -0.323 OA
HETATM   30  C14 UNL     1      -5.808   3.995  -0.929  1.00  0.00     0.352 A 
ENDBRANCH   2  22
BRANCH   7  31
HETATM   31  S1  UNL     1       5.483  -1.141   0.724  1.00  0.00     0.264 S 
HETATM   32  O3  UNL     1       5.454  -2.603   0.348  1.00  0.00    -0.200 OA
HETATM   33  O4  UNL     1       5.904  -0.937   2.139  1.00  0.00    -0.200 OA
BRANCH  31  34
HETATM   34  N2  UNL     1       6.455  -0.230  -0.372  1.00  0.00    -0.264 N 
ATOM     35  H2  UNL     1       6.120   0.672  -0.710  1.00  0.00     0.180 HD
BRANCH  34  36
HETATM   36  C20 UNL     1       7.598  -0.672  -0.770  1.00  0.00     0.137 A 
HETATM   37  C21 UNL     1       8.265  -1.833  -0.471  1.00  0.00     0.077 A 
HETATM   38  C22 UNL     1       9.470  -1.811  -1.178  1.00  0.00     0.171 A 
HETATM   39  O5  UNL     1       9.468  -0.681  -1.842  1.00  0.00    -0.248 OA
HETATM   40  N3  UNL     1       8.399   0.000  -1.627  1.00  0.00    -0.245 N 
ATOM     41  H3  UNL     1       8.188   0.908  -2.040  1.00  0.00     0.196 HD
ENDBRANCH  34  36
ENDBRANCH  31  34
ENDBRANCH   7  31
TORSDOF 6
