REMARK  7 active torsions:
REMARK  status: ('A' for Active; 'I' for Inactive)
REMARK    1  A    between atoms: C4_4  and  C5_5 
REMARK    2  A    between atoms: C6_6  and  C7_7 
REMARK    3  A    between atoms: C12_12  and  C13_13 
REMARK    4  A    between atoms: C16_18  and  C17_19 
REMARK    5  A    between atoms: C22_24  and  S1_25 
REMARK    6  A    between atoms: S1_25  and  N2_26 
REMARK    7  A    between atoms: C26_35  and  C27_36 
ROOT
HETATM    1  C7  UNL     1      -1.149   3.185  -0.824  1.00  0.00     0.029 A 
HETATM    2  C8  UNL     1      -1.153   4.426  -1.472  1.00  0.00     0.021 A 
HETATM    3  C9  UNL     1      -2.310   5.133  -1.690  1.00  0.00     0.002 A 
HETATM    4  C10 UNL     1      -3.532   4.639  -1.272  1.00  0.00     0.001 A 
HETATM    5  C11 UNL     1      -3.547   3.425  -0.636  1.00  0.00     0.014 A 
HETATM    6  C12 UNL     1      -2.376   2.716  -0.418  1.00  0.00    -0.006 A 
ENDROOT
BRANCH   6   7
HETATM    7  C13 UNL     1      -2.474   1.429   0.284  1.00  0.00    -0.008 A 
HETATM    8  C14 UNL     1      -1.688   1.146   1.368  1.00  0.00     0.100 A 
HETATM    9  N1  UNL     1      -1.800  -0.065   1.986  1.00  0.00    -0.374 N 
HETATM   10  C15 UNL     1      -2.667  -0.997   1.559  1.00  0.00     0.100 A 
ATOM     11  H1  UNL     1      -1.210  -0.268   2.793  1.00  0.00     0.164 HD
HETATM   12  C16 UNL     1      -3.496  -0.765   0.459  1.00  0.00    -0.008 A 
HETATM   13  C23 UNL     1      -3.372   0.452  -0.151  1.00  0.00     0.027 A 
BRANCH  12  14
HETATM   14  C17 UNL     1      -4.385  -1.797   0.026  1.00  0.00    -0.001 A 
HETATM   15  C18 UNL     1      -3.811  -2.902  -0.594  1.00  0.00     0.014 A 
HETATM   16  C19 UNL     1      -4.628  -3.912  -1.040  1.00  0.00     0.001 A 
HETATM   17  C20 UNL     1      -5.978  -3.828  -0.877  1.00  0.00     0.002 A 
HETATM   18  C21 UNL     1      -6.522  -2.727  -0.262  1.00  0.00     0.026 A 
HETATM   19  C22 UNL     1      -5.743  -1.673   0.212  1.00  0.00     0.090 A 
BRANCH  19  20
HETATM   20  S1  UNL     1      -6.521  -0.337   0.986  1.00  0.00     0.257 S 
HETATM   21  O1  UNL     1      -6.030  -0.051   2.355  1.00  0.00    -0.201 OA
HETATM   22  O2  UNL     1      -6.454   0.949   0.212  1.00  0.00    -0.201 OA
BRANCH  20  23
HETATM   23  N2  UNL     1      -8.232  -0.692   1.110  1.00  0.00    -0.324 N 
ATOM     24  H22 UNL     1      -8.679  -1.547   0.777  1.00  0.00     0.169 HD
ATOM     25  H21 UNL     1      -8.691   0.096   1.567  1.00  0.00     0.169 HD
ENDBRANCH  20  23
ENDBRANCH  19  20
ENDBRANCH  12  14
ENDBRANCH   6   7
BRANCH   1  26
HETATM   26  C6  UNL     1       0.083   2.473  -0.628  1.00  0.00    -0.061 C 
HETATM   27  C5  UNL     1       1.130   1.901  -0.468  1.00  0.00    -0.061 C 
BRANCH  27  28
HETATM   28  C4  UNL     1       2.412   1.234  -0.253  1.00  0.00     0.020 A 
HETATM   29  C3  UNL     1       2.806   0.271  -1.118  1.00  0.00     0.028 A 
HETATM   30  C2  UNL     1       4.036  -0.344  -0.885  1.00  0.00    -0.048 A 
HETATM   31  C1  UNL     1       4.520  -1.406  -1.800  1.00  0.00     0.049 C 
HETATM   32  C26 UNL     1       4.820   0.016   0.186  1.00  0.00     0.007 A 
HETATM   33  C25 UNL     1       4.418   0.994   1.062  1.00  0.00     0.059 A 
HETATM   34  C24 UNL     1       3.202   1.591   0.818  1.00  0.00     0.048 A 
HETATM   35  N3  UNL     1       5.170   1.414   2.173  1.00  0.00    -0.102 NA
BRANCH  32  36
HETATM   36  C27 UNL     1       6.099  -0.636   0.423  1.00  0.00     0.010 A 
HETATM   37  C28 UNL     1       7.306  -0.362  -0.220  1.00  0.00     0.121 A 
HETATM   38  N4  UNL     1       8.221  -1.185   0.309  1.00  0.00    -0.310 N 
HETATM   39  N5  UNL     1       7.652  -1.947   1.236  1.00  0.00    -0.307 N 
ATOM     40  H4  UNL     1       9.204  -1.221   0.041  1.00  0.00     0.186 HD
HETATM   41  C29 UNL     1       8.373  -2.959   2.013  1.00  0.00     0.177 C 
HETATM   42  C30 UNL     1       6.369  -1.638   1.327  1.00  0.00     0.123 A 
ENDBRANCH  32  36
ENDBRANCH  27  28
ENDBRANCH   1  26
TORSDOF 7
