REMARK  5 active torsions:
REMARK  status: ('A' for Active; 'I' for Inactive)
REMARK    1  A    between atoms: C4_8  and  C5_9 
REMARK    2  A    between atoms: C5_9  and  C6_10 
REMARK    3  A    between atoms: C11_16  and  C12_17 
REMARK    4  A    between atoms: C15_20  and  N3_21 
REMARK    5  A    between atoms: C21_31  and  S1_32 
ROOT
HETATM    1  C12 UNL     1      -0.740   1.633  -0.320  1.00  0.00    -0.035 A 
HETATM    2  C13 UNL     1       0.078   1.424  -1.445  1.00  0.00     0.013 A 
HETATM    3  C14 UNL     1       1.353   0.939  -1.356  1.00  0.00     0.030 A 
HETATM    4  C15 UNL     1       1.908   0.626  -0.135  1.00  0.00     0.032 A 
HETATM    5  C25 UNL     1       1.117   0.827   0.972  1.00  0.00     0.030 A 
HETATM    6  C26 UNL     1      -0.164   1.313   0.899  1.00  0.00     0.013 A 
ENDROOT
BRANCH   1   7
HETATM    7  C11 UNL     1      -2.048   2.217  -0.472  1.00  0.00     0.030 C 
HETATM    8  C10 UNL     1      -3.176   1.690  -0.185  1.00  0.00     0.061 C 
HETATM    9  C9  UNL     1      -4.437   2.435  -0.394  1.00  0.00     0.163 C 
HETATM   10  C27 UNL     1      -3.340   0.331   0.311  1.00  0.00     0.192 C 
HETATM   11  C8  UNL     1      -5.717   2.143   0.234  1.00  0.00     0.089 C 
HETATM   12  O1  UNL     1      -4.372   3.407  -1.193  1.00  0.00    -0.292 OA
HETATM   13  C7  UNL     1      -5.696   0.875   1.053  1.00  0.00     0.050 C 
HETATM   14  C6  UNL     1      -4.749  -0.114   0.542  1.00  0.00    -0.004 C 
HETATM   15  O5  UNL     1      -2.401  -0.468   0.544  1.00  0.00    -0.287 OA
BRANCH  14  16
HETATM   16  C5  UNL     1      -5.048  -1.367   0.262  1.00  0.00     0.042 C 
BRANCH  16  17
HETATM   17  C4  UNL     1      -6.329  -2.014   0.385  1.00  0.00     0.056 A 
HETATM   18  C2  UNL     1      -7.496  -1.751  -0.244  1.00  0.00     0.033 A 
HETATM   19  C1  UNL     1      -7.758  -0.747  -1.322  1.00  0.00     0.070 C 
HETATM   20  N1  UNL     1      -8.448  -2.604   0.237  1.00  0.00    -0.354 N 
HETATM   21  C3  UNL     1      -7.850  -3.379   1.153  1.00  0.00     0.181 A 
ATOM     22  H1  UNL     1      -9.427  -2.644  -0.047  1.00  0.00     0.166 HD
HETATM   23  N2  UNL     1      -6.559  -3.027   1.249  1.00  0.00    -0.351 N 
ATOM     24  H2  UNL     1      -5.869  -3.452   1.869  1.00  0.00     0.166 HD
ENDBRANCH  16  17
ENDBRANCH  14  16
ENDBRANCH   1   7
BRANCH   4  25
HETATM   25  N3  UNL     1       3.231   0.124  -0.049  1.00  0.00    -0.351 N 
HETATM   26  C16 UNL     1       4.252   0.852   0.218  1.00  0.00     0.114 A 
HETATM   27  C17 UNL     1       4.317   2.278   0.483  1.00  0.00     0.273 A 
HETATM   28  C24 UNL     1       5.615   0.329   0.305  1.00  0.00     0.024 A 
HETATM   29  O2  UNL     1       3.350   3.050   0.494  1.00  0.00    -0.266 OA
HETATM   30  N4  UNL     1       5.679   2.604   0.722  1.00  0.00    -0.321 N 
HETATM   31  C18 UNL     1       6.455   1.402   0.609  1.00  0.00     0.048 A 
ATOM     32  H4  UNL     1       6.043   3.532   0.937  1.00  0.00     0.169 HD
HETATM   33  C19 UNL     1       7.810   1.219   0.754  1.00  0.00     0.032 A 
HETATM   34  C20 UNL     1       8.311  -0.052   0.591  1.00  0.00     0.026 A 
HETATM   35  C21 UNL     1       7.517  -1.132   0.292  1.00  0.00     0.059 A 
HETATM   36  C23 UNL     1       6.163  -0.927   0.151  1.00  0.00     0.039 A 
ATOM     37  H3  UNL     1       3.379  -0.873  -0.209  1.00  0.00     0.166 HD
BRANCH  35  38
HETATM   38  S1  UNL     1       8.160  -2.747   0.086  1.00  0.00     0.171 S 
HETATM   39  C22 UNL     1       8.611  -3.061  -1.597  1.00  0.00     0.167 C 
HETATM   40  O3  UNL     1       7.081  -3.730   0.465  1.00  0.00    -0.223 OA
HETATM   41  O4  UNL     1       9.321  -2.973   0.993  1.00  0.00    -0.223 OA
ENDBRANCH  35  38
ENDBRANCH   4  25
TORSDOF 5
