REMARK  8 active torsions:
REMARK  status: ('A' for Active; 'I' for Inactive)
REMARK    1  A    between atoms: N1_1  and  S1_4 
REMARK    2  A    between atoms: S1_4  and  C1_7 
REMARK       I    between atoms: N4_13  and  C3_15 
REMARK    3  A    between atoms: C3_15  and  C4_17 
REMARK    4  A    between atoms: C5_18  and  C6_19 
REMARK    5  A    between atoms: C6_19  and  O4_20 
REMARK    6  A    between atoms: C7_24  and  O5_25 
REMARK    7  A    between atoms: C8_27  and  N6_28 
REMARK    8  A    between atoms: N6_28  and  O6_30 
ROOT
HETATM    1  C1  UNL     1       3.817  -0.780  -0.581  1.00  0.00     0.208 A 
HETATM    2  N2  UNL     1       3.142  -1.006   0.533  1.00  0.00    -0.281 N 
ATOM      3  H2  UNL     1       3.645  -1.184   1.402  1.00  0.00     0.188 HD
HETATM    4  N3  UNL     1       1.874  -1.003   0.529  1.00  0.00    -0.278 N 
ATOM      5  H3  UNL     1       1.351  -1.176   1.388  1.00  0.00     0.189 HD
HETATM    6  C2  UNL     1       1.236  -0.769  -0.621  1.00  0.00     0.169 A 
HETATM    7  N4  UNL     1      -0.058  -0.724  -0.836  1.00  0.00    -0.302 N 
ATOM      8  H4  UNL     1      -0.389  -0.532  -1.781  1.00  0.00     0.171 HD
HETATM    9  C3  UNL     1      -1.001  -0.928   0.175  1.00  0.00     0.262 C 
HETATM   10  O3  UNL     1      -0.974  -1.976   0.870  1.00  0.00    -0.267 OA
HETATM   11  S2  UNL     1       2.546  -0.552  -1.697  1.00  0.00    -0.020 SA
ENDROOT
BRANCH   9  12
HETATM   12  C4  UNL     1      -2.024   0.078   0.429  1.00  0.00     0.089 A 
HETATM   13  C5  UNL     1      -3.258   0.099  -0.185  1.00  0.00     0.053 A 
HETATM   14  N5  UNL     1      -3.978   1.146   0.255  1.00  0.00    -0.336 N 
HETATM   15  C7  UNL     1      -3.235   1.829   1.159  1.00  0.00     0.170 A 
ATOM     16  H5  UNL     1      -4.924   1.386  -0.042  1.00  0.00     0.168 HD
HETATM   17  C8  UNL     1      -2.010   1.163   1.271  1.00  0.00     0.122 A 
BRANCH  13  18
HETATM   18  C6  UNL     1      -3.736  -0.885  -1.186  1.00  0.00     0.222 C 
BRANCH  18  19
HETATM   19  O4  UNL     1      -5.025  -0.581  -1.610  1.00  0.00    -0.395 OA
ATOM     20  H4  UNL     1      -5.331  -1.211  -2.251  1.00  0.00     0.209 HD
ENDBRANCH  18  19
ENDBRANCH  13  18
BRANCH  15  21
HETATM   21  O5  UNL     1      -3.537   2.959   1.876  1.00  0.00    -0.344 OA
ATOM     22  H5  UNL     1      -3.016   3.438   2.510  1.00  0.00     0.219 HD
ENDBRANCH  15  21
BRANCH  17  23
HETATM   23  N6  UNL     1      -0.925   1.531   2.108  1.00  0.00    -0.264 N 
ATOM     24  H6  UNL     1      -0.585   2.493   2.103  1.00  0.00     0.194 HD
BRANCH  23  25
HETATM   25  O6  UNL     1      -0.390   0.696   2.841  1.00  0.00    -0.289 OA
ATOM     26  H6  UNL     1       0.336   0.942   3.401  1.00  0.00     0.244 HD
ENDBRANCH  23  25
ENDBRANCH  17  23
ENDBRANCH   9  12
BRANCH   1  27
HETATM   27  S1  UNL     1       5.556  -0.741  -0.786  1.00  0.00     0.280 S 
HETATM   28  O1  UNL     1       6.195  -1.648   0.222  1.00  0.00    -0.199 OA
HETATM   29  O2  UNL     1       5.912  -1.154  -2.194  1.00  0.00    -0.199 OA
BRANCH  27  30
HETATM   30  N1  UNL     1       6.195   0.844  -0.543  1.00  0.00    -0.323 N 
ATOM     31  H12 UNL     1       6.884   1.102   0.164  1.00  0.00     0.169 HD
ATOM     32  H11 UNL     1       5.760   1.461  -1.229  1.00  0.00     0.169 HD
ENDBRANCH  27  30
ENDBRANCH   1  27
TORSDOF 8
