REMARK  8 active torsions:
REMARK  status: ('A' for Active; 'I' for Inactive)
REMARK    1  A    between atoms: O1_2  and  C2_3 
REMARK    2  A    between atoms: C2_3  and  C3_5 
REMARK    3  A    between atoms: C3_5  and  N1_6 
REMARK    4  A    between atoms: C3_5  and  C4_10 
REMARK    5  A    between atoms: N1_6  and  O3_8 
REMARK    6  A    between atoms: C5_13  and  S1_14 
REMARK    7  A    between atoms: C7_20  and  C8_21 
REMARK    8  A    between atoms: C10_28  and  O7_29 
ROOT
HETATM    1  C4  UNL     1       0.271   0.068   0.128  1.00  0.00     0.099 A 
HETATM    2  N2  UNL     1       0.491   1.236   0.855  1.00  0.00    -0.329 N 
ATOM      3  H2  UNL     1       1.288   1.866   0.761  1.00  0.00     0.168 HD
HETATM    4  C5  UNL     1      -0.536   1.378   1.699  1.00  0.00     0.203 A 
HETATM    5  N3  UNL     1      -1.359   0.371   1.531  1.00  0.00    -0.329 N 
ATOM      6  H3  UNL     1      -2.228   0.238   2.049  1.00  0.00     0.168 HD
HETATM    7  C7  UNL     1      -0.885  -0.485   0.555  1.00  0.00     0.095 A 
ENDROOT
BRANCH   7   8
HETATM    8  C8  UNL     1      -1.591  -1.674   0.153  1.00  0.00     0.117 A 
HETATM    9  N4  UNL     1      -2.849  -1.967   0.644  1.00  0.00    -0.303 N 
HETATM   10  C9  UNL     1      -3.238  -3.174   0.280  1.00  0.00     0.326 A 
ATOM     11  H4  UNL     1      -3.406  -1.331   1.215  1.00  0.00     0.171 HD
HETATM   12  O6  UNL     1      -4.346  -3.702   0.586  1.00  0.00    -0.247 OA
HETATM   13  N5  UNL     1      -2.294  -3.735  -0.445  1.00  0.00    -0.287 N 
HETATM   14  C10 UNL     1      -1.272  -2.816  -0.526  1.00  0.00     0.174 A 
ATOM     15  H5  UNL     1      -2.315  -4.665  -0.863  1.00  0.00     0.172 HD
BRANCH  14  16
HETATM   16  O7  UNL     1      -0.139  -3.141  -1.215  1.00  0.00    -0.344 OA
ATOM     17  H7  UNL     1       0.083  -3.935  -1.687  1.00  0.00     0.219 HD
ENDBRANCH  14  16
ENDBRANCH   7   8
BRANCH   1  18
HETATM   18  C3  UNL     1       1.074  -0.089  -1.068  1.00  0.00     0.158 C 
BRANCH  18  19
HETATM   19  C2  UNL     1       2.462   0.314  -1.060  1.00  0.00     0.314 C 
HETATM   20  O2  UNL     1       3.054   0.840  -0.107  1.00  0.00    -0.257 OA
BRANCH  19  21
HETATM   21  O1  UNL     1       3.238   0.107  -2.212  1.00  0.00    -0.321 OA
HETATM   22  C1  UNL     1       4.597   0.480  -2.258  1.00  0.00     0.213 C 
ENDBRANCH  19  21
ENDBRANCH  18  19
BRANCH  18  23
HETATM   23  N1  UNL     1       0.630  -0.626  -2.108  1.00  0.00    -0.261 N 
ATOM     24  H1  UNL     1      -0.349  -0.913  -2.123  1.00  0.00     0.194 HD
BRANCH  23  25
HETATM   25  O3  UNL     1       1.383  -0.846  -3.217  1.00  0.00    -0.289 OA
ATOM     26  H3  UNL     1       1.046  -1.254  -4.006  1.00  0.00     0.244 HD
ENDBRANCH  23  25
ENDBRANCH  18  23
ENDBRANCH   1  18
BRANCH   4  27
HETATM   27  S1  UNL     1      -0.666   2.735   2.819  1.00  0.00     0.203 S 
HETATM   28  C6  UNL     1      -2.151   3.661   2.499  1.00  0.00     0.170 C 
HETATM   29  O4  UNL     1      -0.757   2.104   4.203  1.00  0.00    -0.220 OA
HETATM   30  O5  UNL     1       0.560   3.562   2.755  1.00  0.00    -0.220 OA
ENDBRANCH   4  27
TORSDOF 8
