REMARK  8 active torsions:
REMARK  status: ('A' for Active; 'I' for Inactive)
REMARK    1  A    between atoms: O1_2  and  C2_3 
REMARK    2  A    between atoms: C2_3  and  C4_5 
REMARK       I    between atoms: C4_5  and  N1_7 
REMARK    3  A    between atoms: C7_10  and  C8_11 
REMARK    4  A    between atoms: C10_16  and  O3_17 
REMARK    5  A    between atoms: O3_17  and  C11_18 
REMARK    6  A    between atoms: C11_18  and  C12_20 
REMARK    7  A    between atoms: C13_23  and  O5_24 
REMARK    8  A    between atoms: C15_27  and  N4_28 
ROOT
HETATM    1  C4  UNL     1       2.844  -0.831   0.989  1.00  0.00     0.257 C 
HETATM    2  O2  UNL     1       2.113  -1.397   1.891  1.00  0.00    -0.270 OA
HETATM    3  N1  UNL     1       2.194   0.003   0.063  1.00  0.00    -0.288 N 
HETATM    4  C5  UNL     1       2.797   0.663  -0.943  1.00  0.00     0.101 A 
HETATM    5  C6  UNL     1       1.849   1.401  -1.665  1.00  0.00     0.033 A 
HETATM    6  C7  UNL     1       0.639   1.173  -1.067  1.00  0.00     0.009 A 
HETATM    7  C9  UNL     1       0.856   0.323  -0.020  1.00  0.00     0.075 A 
HETATM    8  C10 UNL     1      -0.104  -0.080   0.783  1.00  0.00     0.177 C 
ENDROOT
BRANCH   8   9
HETATM    9  O3  UNL     1      -1.461   0.292   0.624  1.00  0.00    -0.283 OA
BRANCH   9  10
HETATM   10  C11 UNL     1      -2.332  -0.570  -0.052  1.00  0.00     0.332 C 
HETATM   11  O4  UNL     1      -1.871  -1.641  -0.492  1.00  0.00    -0.256 OA
BRANCH  10  12
HETATM   12  C12 UNL     1      -3.717  -0.227  -0.233  1.00  0.00     0.186 A 
HETATM   13  N3  UNL     1      -4.566  -1.044  -0.880  1.00  0.00    -0.318 N 
HETATM   14  C13 UNL     1      -5.848  -0.747  -1.058  1.00  0.00     0.145 A 
ATOM     15  H3  UNL     1      -4.212  -1.927  -1.249  1.00  0.00     0.169 HD
HETATM   16  C14 UNL     1      -6.378   0.444  -0.573  1.00  0.00     0.103 A 
HETATM   17  C15 UNL     1      -5.507   1.284   0.092  1.00  0.00     0.104 A 
HETATM   18  N5  UNL     1      -4.238   0.927   0.235  1.00  0.00    -0.324 N 
ATOM     19  H5  UNL     1      -3.616   1.565   0.730  1.00  0.00     0.169 HD
BRANCH  14  20
HETATM   20  O5  UNL     1      -6.703  -1.608  -1.730  1.00  0.00    -0.346 OA
ATOM     21  H5  UNL     1      -7.620  -1.396  -1.857  1.00  0.00     0.219 HD
ENDBRANCH  14  20
BRANCH  17  22
HETATM   22  N4  UNL     1      -5.956   2.417   0.567  1.00  0.00    -0.385 N 
ATOM     23  H42 UNL     1      -6.932   2.692   0.457  1.00  0.00     0.157 HD
ATOM     24  H41 UNL     1      -5.313   3.038   1.058  1.00  0.00     0.157 HD
ENDBRANCH  17  22
ENDBRANCH  10  12
ENDBRANCH   9  10
ENDBRANCH   8   9
BRANCH   6  25
HETATM   25  C8  UNL     1      -0.506   1.704  -1.433  1.00  0.00     0.094 C 
HETATM   26  N2  UNL     1      -1.379   2.640  -1.675  1.00  0.00    -0.407 N 
ATOM     27  H22 UNL     1      -0.806   3.443  -1.417  1.00  0.00     0.155 HD
ATOM     28  H21 UNL     1      -2.268   3.052  -1.959  1.00  0.00     0.155 HD
ENDBRANCH   6  25
BRANCH   1  29
HETATM   29  C2  UNL     1       4.258  -1.152   1.073  1.00  0.00     0.209 C 
HETATM   30  C3  UNL     1       4.502  -2.666   1.016  1.00  0.00     0.050 C 
BRANCH  29  31
HETATM   31  O1  UNL     1       5.066  -0.527   0.165  1.00  0.00    -0.382 OA
HETATM   32  C1  UNL     1       6.092   0.204   0.805  1.00  0.00     0.202 C 
ENDBRANCH  29  31
ENDBRANCH   1  29
TORSDOF 8
