REMARK  7 active torsions:
REMARK  status: ('A' for Active; 'I' for Inactive)
REMARK    1  A    between atoms: C2_2  and  O1_3 
REMARK    2  A    between atoms: O1_3  and  C3_4 
REMARK    3  A    between atoms: C3_4  and  C4_6 
REMARK    4  A    between atoms: C4_6  and  C5_7 
REMARK    5  A    between atoms: C8_13  and  C9_14 
REMARK    6  A    between atoms: C12_23  and  N6_24 
REMARK    7  A    between atoms: C13_29  and  N8_30 
ROOT
HETATM    1  C9  UNL     1      -4.320   2.813   0.132  1.00  0.00     0.201 C 
HETATM    2  C10 UNL     1      -4.463   3.188  -1.274  1.00  0.00     0.066 C 
HETATM    3  N2  UNL     1      -4.590   3.470  -2.386  1.00  0.00    -0.197 NA
ENDROOT
BRANCH   1   4
HETATM    4  C8  UNL     1      -3.078   1.979   0.267  1.00  0.00     0.112 A 
HETATM    5  N1  UNL     1      -1.904   2.577   0.527  1.00  0.00    -0.309 N 
HETATM    6  C7  UNL     1      -0.741   1.918   0.664  1.00  0.00     0.278 A 
ATOM      7  H1  UNL     1      -1.895   3.592   0.626  1.00  0.00     0.170 HD
HETATM    8  C6  UNL     1      -0.783   0.533   0.524  1.00  0.00     0.167 A 
HETATM    9  O3  UNL     1       0.318   2.553   0.907  1.00  0.00    -0.265 OA
HETATM   10  C5  UNL     1       0.223  -0.441   0.602  1.00  0.00     0.097 A 
HETATM   11  N4  UNL     1      -1.962  -0.054   0.265  1.00  0.00    -0.076 N 
HETATM   12  N9  UNL     1      -0.394  -1.609   0.382  1.00  0.00     0.024 N 
HETATM   13  C11 UNL     1      -1.710  -1.369   0.180  1.00  0.00     0.740 A 
HETATM   14  C13 UNL     1       0.099  -2.859   0.341  1.00  0.00     0.712 A 
HETATM   15  N5  UNL     1      -2.503  -2.426  -0.062  1.00  0.00    -0.019 N 
HETATM   16  C12 UNL     1      -2.031  -3.693  -0.108  1.00  0.00     0.705 A 
ATOM     17  H5  UNL     1      -3.499  -2.267  -0.217  1.00  0.00     0.203 HD
HETATM   18  N7  UNL     1      -0.718  -3.899   0.096  1.00  0.00    -0.021 N 
ATOM     19  H7  UNL     1      -0.341  -4.846   0.065  1.00  0.00     0.203 HD
HETATM   20  N3  UNL     1      -3.100   0.649   0.137  1.00  0.00    -0.266 N 
ATOM     21  H3  UNL     1      -3.978   0.169  -0.059  1.00  0.00     0.189 HD
BRANCH  10  22
HETATM   22  C4  UNL     1       1.648  -0.137   0.875  1.00  0.00     0.172 C 
BRANCH  22  23
HETATM   23  C3  UNL     1       2.267   0.393  -0.376  1.00  0.00     0.264 C 
HETATM   24  O2  UNL     1       1.661   0.529  -1.453  1.00  0.00    -0.265 OA
BRANCH  23  25
HETATM   25  O1  UNL     1       3.596   0.750  -0.316  1.00  0.00    -0.322 OA
BRANCH  25  26
HETATM   26  C2  UNL     1       4.219   1.261  -1.497  1.00  0.00     0.174 C 
HETATM   27  C1  UNL     1       5.665   1.563  -1.098  1.00  0.00     0.034 C 
ENDBRANCH  25  26
ENDBRANCH  23  25
ENDBRANCH  22  23
ENDBRANCH  10  22
BRANCH  16  28
HETATM   28  N6  UNL     1      -2.832  -4.685  -0.346  1.00  0.00    -0.234 N 
ATOM     29  H62 UNL     1      -3.828  -4.529  -0.501  1.00  0.00     0.174 HD
ATOM     30  H61 UNL     1      -2.476  -5.640  -0.381  1.00  0.00     0.174 HD
ENDBRANCH  16  28
BRANCH  14  31
HETATM   31  N8  UNL     1       1.345  -3.132   0.520  1.00  0.00    -0.233 N 
ATOM     32  H82 UNL     1       1.719  -4.080   0.489  1.00  0.00     0.174 HD
ATOM     33  H81 UNL     1       1.965  -2.343   0.706  1.00  0.00     0.174 HD
ENDBRANCH  14  31
ENDBRANCH   1   4
TORSDOF 7
