REMARK  2 active torsions:
REMARK  status: ('A' for Active; 'I' for Inactive)
REMARK    1  A    between atoms: C2_2  and  C4_4 
REMARK    2  A    between atoms: C7_9  and  N2_10 
ROOT
HETATM    1  C4  UNL     1      -0.765  -0.106   0.330  1.00  0.00     0.076 C 
HETATM    2  N1  UNL     1      -0.179  -0.379   1.457  1.00  0.00    -0.380 N 
ATOM      3  H1  UNL     1      -0.821  -0.597   2.219  1.00  0.00     0.160 HD
HETATM    4  C5  UNL     1       1.201  -0.429   1.823  1.00  0.00     0.123 C 
HETATM    5  C6  UNL     1       1.994   0.448   0.886  1.00  0.00     0.054 C 
HETATM    6  C7  UNL     1       2.229  -0.286  -0.409  1.00  0.00     0.202 C 
HETATM    7  C8  UNL     1       1.169  -0.062  -1.429  1.00  0.00     0.153 C 
HETATM    8  N3  UNL     1      -0.134   0.232  -0.894  1.00  0.00    -0.378 N 
ATOM      9  H3  UNL     1      -0.717   0.792  -1.516  1.00  0.00     0.160 HD
ENDROOT
BRANCH   6  10
HETATM   10  N2  UNL     1       3.530   0.171  -0.920  1.00  0.00    -0.073 N 
ATOM     11  H23 UNL     1       3.593   1.185  -1.014  1.00  0.00     0.274 HD
ATOM     12  H22 UNL     1       4.289   0.058  -0.249  1.00  0.00     0.274 HD
ATOM     13  H21 UNL     1       3.689  -0.326  -1.797  1.00  0.00     0.274 HD
ENDBRANCH   6  10
BRANCH   1  14
HETATM   14  C2  UNL     1      -2.231  -0.169   0.388  1.00  0.00     0.044 C 
HETATM   15  C1  UNL     1      -2.803  -1.189  -0.571  1.00  0.00     0.017 C 
HETATM   16  C3  UNL     1      -2.832   1.204   0.154  1.00  0.00     0.017 C 
ENDBRANCH   1  14
TORSDOF 2
