REMARK  1 active torsions:
REMARK  status: ('A' for Active; 'I' for Inactive)
REMARK       I    between atoms: C4_6  and  N2_7 
REMARK    1  A    between atoms: N2_7  and  C5_9 
ROOT
HETATM    1  C1  UNL     1      -2.818  -0.373  -0.496  1.00  0.00     0.022 C 
HETATM    2  C2  UNL     1      -2.487   0.698   0.509  1.00  0.00     0.022 C 
HETATM    3  C3  UNL     1      -1.292   1.520   0.108  1.00  0.00     0.138 C 
HETATM    4  N1  UNL     1      -0.246   0.648  -0.361  1.00  0.00    -0.227 N 
ATOM      5  H1  UNL     1       0.402   1.073  -1.024  1.00  0.00     0.177 HD
HETATM    6  C4  UNL     1       0.025  -0.702  -0.048  1.00  0.00     0.670 C 
HETATM    7  N2  UNL     1       1.386  -1.045   0.152  1.00  0.00    -0.222 N 
ATOM      8  H2  UNL     1       1.645  -2.019  -0.007  1.00  0.00     0.178 HD
HETATM    9  N3  UNL     1      -0.854  -1.650   0.070  1.00  0.00    -0.227 N 
ATOM     10  H3  UNL     1      -0.434  -2.551   0.300  1.00  0.00     0.177 HD
HETATM   11  C8  UNL     1      -2.285  -1.719  -0.050  1.00  0.00     0.138 C 
ENDROOT
BRANCH   7  12
HETATM   12  C5  UNL     1       2.439  -0.147   0.559  1.00  0.00     0.099 A 
HETATM   13  C6  UNL     1       2.927   0.972  -0.241  1.00  0.00     0.028 A 
HETATM   14  C7  UNL     1       3.805  -0.271  -0.036  1.00  0.00     0.028 A 
ENDBRANCH   7  12
TORSDOF 1
