REMARK  7 active torsions:
REMARK  status: ('A' for Active; 'I' for Inactive)
REMARK    1  A    between atoms: C2_2  and  C3_3 
REMARK    2  A    between atoms: C3_3  and  C4_4 
REMARK    3  A    between atoms: C4_4  and  C5_5 
REMARK    4  A    between atoms: C5_5  and  N1_6 
REMARK       I    between atoms: N1_6  and  C6_8 
REMARK       I    between atoms: C6_8  and  N2_10 
REMARK    5  A    between atoms: C16_25  and  C17_26 
REMARK    6  A    between atoms: C17_26  and  C18_27 
REMARK    7  A    between atoms: C18_27  and  C19_28 
ROOT
HETATM    1  N1  UNL     1      -5.824  -1.248   0.159  1.00  0.00    -0.343 N 
ATOM      2  H1  UNL     1      -5.289  -1.584   0.960  1.00  0.00     0.164 HD
HETATM    3  C6  UNL     1      -5.155  -0.896  -1.014  1.00  0.00     0.325 C 
HETATM    4  O1  UNL     1      -5.843  -0.483  -1.990  1.00  0.00    -0.247 OA
HETATM    5  N2  UNL     1      -3.732  -0.976  -1.175  1.00  0.00    -0.260 N 
HETATM    6  C7  UNL     1      -3.052  -0.609  -2.395  1.00  0.00     0.195 A 
HETATM    7  C8  UNL     1      -1.617  -0.844  -2.122  1.00  0.00     0.044 A 
HETATM    8  N3  UNL     1      -0.358  -0.780  -2.648  1.00  0.00    -0.360 N 
ATOM      9  H3  UNL     1      -0.137  -0.467  -3.593  1.00  0.00     0.165 HD
HETATM   10  C9  UNL     1       0.547  -1.188  -1.744  1.00  0.00     0.018 A 
HETATM   11  C10 UNL     1      -0.110  -1.537  -0.583  1.00  0.00    -0.016 A 
HETATM   12  C11 UNL     1      -1.456  -1.316  -0.840  1.00  0.00     0.065 A 
HETATM   13  C12 UNL     1      -2.766  -1.398  -0.251  1.00  0.00     0.264 A 
HETATM   14  O2  UNL     1      -2.960  -1.797   0.925  1.00  0.00    -0.267 OA
HETATM   15  C13 UNL     1       0.435  -2.049   0.709  1.00  0.00     0.061 C 
HETATM   16  C14 UNL     1       1.440  -1.074   1.279  1.00  0.00     0.131 C 
HETATM   17  N4  UNL     1       2.573  -0.852   0.429  1.00  0.00    -0.346 N 
HETATM   18  C15 UNL     1       3.896  -1.137   0.856  1.00  0.00     0.224 C 
HETATM   19  O3  UNL     1       4.286  -1.863   1.806  1.00  0.00    -0.273 OA
HETATM   20  C16 UNL     1       4.839  -0.410  -0.036  1.00  0.00     0.083 C 
HETATM   21  C21 UNL     1       4.053  -0.030  -1.244  1.00  0.00     0.018 C 
HETATM   22  C22 UNL     1       4.532  -0.726  -2.499  1.00  0.00     0.013 C 
HETATM   23  C23 UNL     1       2.646  -0.348  -0.897  1.00  0.00     0.097 C 
HETATM   24  C24 UNL     1       2.021  -1.267  -1.926  1.00  0.00     0.083 C 
ENDROOT
BRANCH   1  25
HETATM   25  C5  UNL     1      -7.259  -1.144   0.258  1.00  0.00     0.125 C 
BRANCH  25  26
HETATM   26  C4  UNL     1      -7.806   0.230   0.066  1.00  0.00     0.023 C 
BRANCH  26  27
HETATM   27  C3  UNL     1      -7.277   1.222   1.079  1.00  0.00     0.028 C 
BRANCH  27  28
HETATM   28  C2  UNL     1      -7.886   2.539   0.788  1.00  0.00    -0.037 C 
HETATM   29  C1  UNL     1      -7.172   3.618   0.484  1.00  0.00     0.007 C 
ENDBRANCH  27  28
ENDBRANCH  26  27
ENDBRANCH  25  26
ENDBRANCH   1  25
BRANCH  20  30
HETATM   30  C17 UNL     1       5.398   0.843   0.595  1.00  0.00     0.014 C 
BRANCH  30  31
HETATM   31  C18 UNL     1       6.160   0.554   1.865  1.00  0.00     0.000 C 
BRANCH  31  32
HETATM   32  C19 UNL     1       6.700   1.833   2.456  1.00  0.00    -0.005 C 
HETATM   33  C20 UNL     1       7.639   2.538   1.501  1.00  0.00     0.005 C 
ENDBRANCH  31  32
ENDBRANCH  30  31
ENDBRANCH  20  30
TORSDOF 7
