REMARK  7 active torsions:
REMARK  status: ('A' for Active; 'I' for Inactive)
REMARK    1  A    between atoms: C7_7  and  C8_8 
REMARK    2  A    between atoms: C8_8  and  C9_9 
REMARK    3  A    between atoms: C9_9  and  N1_10 
REMARK       I    between atoms: N1_10  and  C11_12 
REMARK    4  A    between atoms: C11_12  and  C12_14 
REMARK    5  A    between atoms: C12_14  and  C13_15 
REMARK    6  A    between atoms: C13_15  and  C14_16 
REMARK    7  A    between atoms: C16_20  and  C17_21 
ROOT
HETATM    1  C14 UNL     1       1.138   1.135  -1.233  1.00  0.00     0.028 A 
HETATM    2  C15 UNL     1       0.564   0.755  -0.049  1.00  0.00     0.115 A 
HETATM    3  N2  UNL     1       1.545   0.505   0.793  1.00  0.00    -0.350 N 
ATOM      4  H2  UNL     1       1.416   0.200   1.758  1.00  0.00     0.166 HD
HETATM    5  C16 UNL     1       2.772   0.711   0.194  1.00  0.00     0.118 A 
HETATM    6  N4  UNL     1       2.506   1.100  -1.049  1.00  0.00    -0.339 N 
HETATM    7  C24 UNL     1       3.415   1.541  -2.110  1.00  0.00     0.158 C 
ENDROOT
BRANCH   1   8
HETATM    8  C13 UNL     1       0.505   1.522  -2.506  1.00  0.00     0.068 C 
BRANCH   8   9
HETATM    9  C12 UNL     1      -0.979   1.419  -2.483  1.00  0.00     0.109 C 
BRANCH   9  10
HETATM   10  C11 UNL     1      -1.402   0.019  -2.261  1.00  0.00     0.219 C 
HETATM   11  N1  UNL     1      -2.749  -0.328  -1.977  1.00  0.00    -0.356 N 
HETATM   12  C10 UNL     1      -3.726   0.752  -1.908  1.00  0.00     0.152 C 
HETATM   13  O1  UNL     1      -0.544  -0.891  -2.328  1.00  0.00    -0.273 OA
BRANCH  11  14
HETATM   14  C9  UNL     1      -3.147  -1.683  -1.766  1.00  0.00     0.130 C 
BRANCH  14  15
HETATM   15  C8  UNL     1      -3.077  -2.153  -0.344  1.00  0.00     0.059 C 
BRANCH  15  16
HETATM   16  C7  UNL     1      -3.914  -1.404   0.599  1.00  0.00    -0.050 A 
HETATM   17  C5  UNL     1      -5.270  -1.622   0.608  1.00  0.00    -0.056 A 
HETATM   18  C4  UNL     1      -6.080  -0.924   1.495  1.00  0.00     0.008 A 
HETATM   19  C6  UNL     1      -5.872  -2.601  -0.329  1.00  0.00     0.049 C 
HETATM   20  C3  UNL     1      -5.527  -0.010   2.370  1.00  0.00     0.007 A 
HETATM   21  C2  UNL     1      -4.168   0.229   2.382  1.00  0.00    -0.061 A 
HETATM   22  C1  UNL     1      -3.580   1.222   3.335  1.00  0.00     0.048 C 
HETATM   23  C25 UNL     1      -3.392  -0.480   1.490  1.00  0.00     0.014 A 
ENDBRANCH  15  16
ENDBRANCH  14  15
ENDBRANCH  11  14
ENDBRANCH   9  10
ENDBRANCH   8   9
ENDBRANCH   1   8
BRANCH   5  24
HETATM   24  C17 UNL     1       3.999   0.594   0.973  1.00  0.00     0.021 A 
HETATM   25  C18 UNL     1       3.978   1.076   2.301  1.00  0.00     0.090 A 
HETATM   26  C19 UNL     1       5.005   0.974   3.172  1.00  0.00     0.246 A 
HETATM   27  O2  UNL     1       4.927   1.423   4.343  1.00  0.00    -0.268 OA
HETATM   28  N3  UNL     1       6.137   0.377   2.769  1.00  0.00    -0.327 N 
HETATM   29  C20 UNL     1       6.209  -0.100   1.518  1.00  0.00     0.015 A 
ATOM     30  H3  UNL     1       6.930   0.287   3.404  1.00  0.00     0.169 HD
HETATM   31  C21 UNL     1       7.467  -0.757   1.081  1.00  0.00     0.069 C 
HETATM   32  C22 UNL     1       5.160  -0.008   0.601  1.00  0.00    -0.026 A 
HETATM   33  C23 UNL     1       5.388  -0.695  -0.694  1.00  0.00     0.051 C 
ENDBRANCH   5  24
TORSDOF 7
