REMARK  8 active torsions:
REMARK  status: ('A' for Active; 'I' for Inactive)
REMARK    1  A    between atoms: C2_2  and  O1_3 
REMARK    2  A    between atoms: C2_2  and  C3_5 
REMARK    3  A    between atoms: C3_5  and  C4_6 
REMARK    4  A    between atoms: C4_6  and  C5_7 
REMARK    5  A    between atoms: C5_7  and  N1_8 
REMARK    6  A    between atoms: C8_11  and  C9_12 
REMARK    7  A    between atoms: C11_14  and  C12_15 
REMARK    8  A    between atoms: C23_29  and  C24_30 
ROOT
HETATM    1  C9  UNL     1      -0.019   0.518  -0.100  1.00  0.00    -0.052 A 
HETATM    2  C10 UNL     1      -1.295   0.078   0.206  1.00  0.00     0.019 A 
HETATM    3  C11 UNL     1      -2.393   0.894   0.310  1.00  0.00    -0.032 A 
HETATM    4  C22 UNL     1      -2.176   2.244   0.089  1.00  0.00     0.027 A 
HETATM    5  C23 UNL     1      -0.932   2.745  -0.220  1.00  0.00     0.049 A 
HETATM    6  C25 UNL     1       0.156   1.861  -0.314  1.00  0.00     0.023 A 
ENDROOT
BRANCH   1   7
HETATM    7  C8  UNL     1       1.057  -0.468  -0.037  1.00  0.00     0.022 C 
HETATM    8  C7  UNL     1       2.147   0.017   0.957  1.00  0.00     0.039 C 
HETATM    9  C6  UNL     1       2.883  -1.250   1.279  1.00  0.00     0.273 C 
HETATM   10  N1  UNL     1       3.717  -1.560   0.109  1.00  0.00     0.088 N 
HETATM   11  C27 UNL     1       3.235  -0.941  -1.091  1.00  0.00     0.273 C 
HETATM   12  C26 UNL     1       1.721  -0.945  -1.269  1.00  0.00     0.039 C 
BRANCH  10  13
HETATM   13  C5  UNL     1       5.034  -1.017   0.451  1.00  0.00     0.272 C 
BRANCH  13  14
HETATM   14  C4  UNL     1       6.061  -1.583  -0.463  1.00  0.00     0.033 C 
BRANCH  14  15
HETATM   15  C3  UNL     1       7.452  -1.112  -0.071  1.00  0.00     0.033 C 
BRANCH  15  16
HETATM   16  C2  UNL     1       7.644   0.371  -0.121  1.00  0.00     0.114 C 
HETATM   17  C1  UNL     1       9.070   0.625   0.346  1.00  0.00     0.039 C 
BRANCH  16  18
HETATM   18  O1  UNL     1       7.619   0.860  -1.439  1.00  0.00    -0.396 OA
ATOM     19  H1  UNL     1       6.729   0.701  -1.731  1.00  0.00     0.210 HD
ENDBRANCH  16  18
ENDBRANCH  15  16
ENDBRANCH  14  15
ENDBRANCH  13  14
ENDBRANCH  10  13
ENDBRANCH   1   7
BRANCH   3  20
HETATM   20  C12 UNL     1      -3.700   0.386   0.691  1.00  0.00    -0.057 C 
HETATM   21  C13 UNL     1      -3.794  -1.009   1.181  1.00  0.00     0.042 C 
HETATM   22  C14 UNL     1      -3.788  -1.090   2.709  1.00  0.00     0.017 C 
HETATM   23  C15 UNL     1      -5.112  -1.583   0.624  1.00  0.00     0.194 C 
HETATM   24  C16 UNL     1      -6.296  -0.762   1.028  1.00  0.00     0.034 C 
HETATM   25  N2  UNL     1      -4.888  -1.575  -0.834  1.00  0.00    -0.061 N 
HETATM   26  C17 UNL     1      -6.089   0.676   0.721  1.00  0.00     0.013 C 
HETATM   27  C18 UNL     1      -4.866   0.763  -0.219  1.00  0.00     0.051 C 
HETATM   28  C19 UNL     1      -5.080  -0.206  -1.338  1.00  0.00     0.126 C 
HETATM   29  C20 UNL     1      -6.477  -0.190  -1.883  1.00  0.00     0.046 C 
HETATM   30  C21 UNL     1      -4.137   0.100  -2.472  1.00  0.00     0.046 C 
ATOM     31  H22 UNL     1      -3.979  -1.960  -1.090  1.00  0.00     0.278 HD
ATOM     32  H21 UNL     1      -5.472  -2.254  -1.321  1.00  0.00     0.278 HD
ENDBRANCH   3  20
BRANCH   5  33
HETATM   33  C24 UNL     1      -0.670   4.201  -0.458  1.00  0.00     0.417 C 
HETATM   34  F1  UNL     1       0.569   4.349  -1.066  1.00  0.00    -0.166 F 
HETATM   35  F2  UNL     1      -0.594   4.786   0.824  1.00  0.00    -0.166 F 
HETATM   36  F3  UNL     1      -1.631   4.799  -1.199  1.00  0.00    -0.166 F 
ENDBRANCH   5  33
TORSDOF 8
