REMARK  11 active torsions:
REMARK  status: ('A' for Active; 'I' for Inactive)
REMARK    1  A    between atoms: C2_2  and  C3_3 
REMARK    2  A    between atoms: C3_3  and  C4_4 
REMARK    3  A    between atoms: C3_3  and  N1_6 
REMARK    4  A    between atoms: N1_6  and  C7_8 
REMARK    5  A    between atoms: C7_8  and  O1_9 
REMARK    6  A    between atoms: C7_8  and  C8_11 
REMARK    7  A    between atoms: C9_12  and  N2_13 
REMARK    8  A    between atoms: N2_13  and  C10_15 
REMARK    9  A    between atoms: C10_15  and  N3_17 
REMARK   10  A    between atoms: N3_17  and  C11_19 
REMARK   11  A    between atoms: C20_29  and  C21_30 
ROOT
HETATM    1  C8  UNL     1       1.663  -0.346   1.708  1.00  0.00     0.065 A 
HETATM    2  C9  UNL     1       0.268  -0.167   1.497  1.00  0.00     0.092 A 
HETATM    3  S2  UNL     1      -0.457  -0.623   2.936  1.00  0.00    -0.075 SA
HETATM    4  C18 UNL     1       0.908  -1.039   3.834  1.00  0.00    -0.003 A 
HETATM    5  C19 UNL     1       0.890  -1.520   5.273  1.00  0.00     0.057 C 
HETATM    6  C20 UNL     1       1.957  -0.814   2.970  1.00  0.00     0.077 A 
ENDROOT
BRANCH   2   7
HETATM    7  N2  UNL     1      -0.342   0.425   0.326  1.00  0.00    -0.327 N 
ATOM      8  H2  UNL     1       0.276   0.862  -0.358  1.00  0.00     0.169 HD
BRANCH   7   9
HETATM    9  C10 UNL     1      -1.717   0.443   0.061  1.00  0.00     0.172 C 
HETATM   10  S1  UNL     1      -2.098   1.193  -1.386  1.00  0.00    -0.041 SA
BRANCH   9  11
HETATM   11  N3  UNL     1      -2.760  -0.083   0.809  1.00  0.00    -0.362 N 
ATOM     12  H3  UNL     1      -2.562  -0.576   1.680  1.00  0.00     0.162 HD
BRANCH  11  13
HETATM   13  C11 UNL     1      -4.154   0.066   0.352  1.00  0.00     0.083 C 
HETATM   14  C12 UNL     1      -4.576   1.477   0.412  1.00  0.00     0.025 C 
HETATM   15  C13 UNL     1      -5.495   2.009  -0.619  1.00  0.00     0.002 C 
HETATM   16  C14 UNL     1      -6.843   1.326  -0.647  1.00  0.00     0.000 C 
HETATM   17  C15 UNL     1      -6.743   0.096  -1.463  1.00  0.00     0.000 C 
HETATM   18  C16 UNL     1      -5.362  -0.303  -1.877  1.00  0.00     0.002 C 
HETATM   19  C17 UNL     1      -4.452  -0.762  -0.819  1.00  0.00     0.025 C 
ENDBRANCH  11  13
ENDBRANCH   9  11
ENDBRANCH   7   9
ENDBRANCH   2   7
BRANCH   1  20
HETATM   20  C7  UNL     1       2.525  -0.280   0.523  1.00  0.00     0.152 C 
BRANCH  20  21
HETATM   21  N1  UNL     1       3.821   0.063   0.191  1.00  0.00    -0.361 N 
HETATM   22  C6  UNL     1       4.695   0.869   1.015  1.00  0.00     0.152 C 
BRANCH  21  23
HETATM   23  C3  UNL     1       4.338  -0.199  -1.179  1.00  0.00     0.085 C 
BRANCH  23  24
HETATM   24  C2  UNL     1       4.402  -1.638  -1.521  1.00  0.00     0.021 C 
HETATM   25  C1  UNL     1       5.201  -1.878  -2.811  1.00  0.00     0.007 C 
ENDBRANCH  23  24
BRANCH  23  26
HETATM   26  C4  UNL     1       3.689   0.620  -2.229  1.00  0.00     0.021 C 
HETATM   27  C5  UNL     1       3.639   2.101  -1.822  1.00  0.00     0.007 C 
ENDBRANCH  23  26
ENDBRANCH  21  23
ENDBRANCH  20  21
BRANCH  20  28
HETATM   28  O1  UNL     1       1.828  -0.664  -0.591  1.00  0.00    -0.345 OA
ATOM     29  H1  UNL     1       0.937  -0.900  -0.363  1.00  0.00     0.219 HD
ENDBRANCH  20  28
ENDBRANCH   1  20
BRANCH   6  30
HETATM   30  C21 UNL     1       3.343  -1.149   3.507  1.00  0.00     0.419 C 
HETATM   31  F1  UNL     1       3.208  -1.889   4.724  1.00  0.00    -0.166 F 
HETATM   32  F2  UNL     1       3.994  -0.045   4.000  1.00  0.00    -0.166 F 
HETATM   33  F3  UNL     1       4.035  -1.994   2.713  1.00  0.00    -0.166 F 
ENDBRANCH   6  30
TORSDOF 11
