REMARK  7 active torsions:
REMARK  status: ('A' for Active; 'I' for Inactive)
REMARK    1  A    between atoms: C2_2  and  N1_4 
REMARK    2  A    between atoms: C2_2  and  C10_15 
REMARK    3  A    between atoms: N1_4  and  C4_6 
REMARK    4  A    between atoms: C8_10  and  O1_11 
REMARK    5  A    between atoms: C13_18  and  C14_19 
REMARK    6  A    between atoms: C14_19  and  C15_20 
REMARK    7  A    between atoms: C15_20  and  C16_21 
ROOT
HETATM    1  C10 UNL     1      -1.241  -0.733  -0.240  1.00  0.00     0.012 C 
HETATM    2  C11 UNL     1      -0.649   0.003   0.933  1.00  0.00     0.007 C 
HETATM    3  C12 UNL     1       0.808   0.344   0.530  1.00  0.00     0.005 C 
HETATM    4  C13 UNL     1       1.542  -0.944   0.655  1.00  0.00    -0.014 C 
HETATM    5  C25 UNL     1       1.061  -1.766  -0.548  1.00  0.00     0.005 C 
HETATM    6  C26 UNL     1      -0.405  -2.029  -0.348  1.00  0.00     0.007 C 
ENDROOT
BRANCH   4   7
HETATM    7  C14 UNL     1       3.021  -0.914   0.692  1.00  0.00     0.009 C 
BRANCH   7   8
HETATM    8  C15 UNL     1       3.598  -0.360  -0.585  1.00  0.00     0.040 C 
BRANCH   8   9
HETATM    9  C16 UNL     1       5.056  -0.352  -0.604  1.00  0.00    -0.041 A 
HETATM   10  C17 UNL     1       5.796  -1.469  -1.050  1.00  0.00     0.025 A 
HETATM   11  C18 UNL     1       7.154  -1.546  -0.993  1.00  0.00     0.089 A 
HETATM   12  N2  UNL     1       7.837  -0.515  -0.494  1.00  0.00    -0.365 N 
HETATM   13  C19 UNL     1       7.207   0.578  -0.056  1.00  0.00     0.048 A 
ATOM     14  H2  UNL     1       8.855  -0.562  -0.446  1.00  0.00     0.165 HD
HETATM   15  C20 UNL     1       7.992   1.604   0.421  1.00  0.00     0.072 A 
HETATM   16  C24 UNL     1       5.800   0.675  -0.105  1.00  0.00     0.036 A 
HETATM   17  C21 UNL     1       7.429   2.781   0.873  1.00  0.00     0.121 A 
HETATM   18  F1  UNL     1       8.169   3.806   1.354  1.00  0.00    -0.206 F 
HETATM   19  C22 UNL     1       6.049   2.887   0.828  1.00  0.00     0.085 A 
HETATM   20  C23 UNL     1       5.244   1.846   0.343  1.00  0.00     0.132 A 
HETATM   21  F2  UNL     1       3.919   2.008   0.290  1.00  0.00    -0.205 F 
ENDBRANCH   8   9
ENDBRANCH   7   8
ENDBRANCH   4   7
BRANCH   1  22
HETATM   22  C2  UNL     1      -2.634  -1.240  -0.031  1.00  0.00     0.022 C 
HETATM   23  C1  UNL     1      -2.607  -2.251   1.110  1.00  0.00     0.038 C 
HETATM   24  C3  UNL     1      -3.037  -2.023  -1.258  1.00  0.00     0.038 C 
BRANCH  22  25
HETATM   25  N1  UNL     1      -3.601  -0.277   0.372  1.00  0.00    -0.407 N 
ATOM     26  H1  UNL     1      -4.190  -0.459   1.184  1.00  0.00     0.154 HD
BRANCH  25  27
HETATM   27  C4  UNL     1      -3.748   0.926  -0.346  1.00  0.00     0.098 C 
HETATM   28  C5  UNL     1      -4.044   2.045   0.615  1.00  0.00     0.026 C 
HETATM   29  C6  UNL     1      -5.416   2.573   0.618  1.00  0.00     0.004 C 
HETATM   30  C7  UNL     1      -6.511   1.795   0.021  1.00  0.00     0.033 C 
HETATM   31  C8  UNL     1      -6.104   0.557  -0.732  1.00  0.00     0.138 C 
HETATM   32  C9  UNL     1      -4.811   0.868  -1.424  1.00  0.00     0.133 C 
HETATM   33 CL1  UNL     1      -4.905   2.463  -2.206  1.00  0.00    -0.120 Cl
BRANCH  31  34
HETATM   34  O1  UNL     1      -6.054  -0.472   0.174  1.00  0.00    -0.394 OA
ATOM     35  H1  UNL     1      -5.797  -1.253  -0.301  1.00  0.00     0.210 HD
ENDBRANCH  31  34
ENDBRANCH  25  27
ENDBRANCH  22  25
ENDBRANCH   1  22
TORSDOF 7
