REMARK  13 active torsions:
REMARK  status: ('A' for Active; 'I' for Inactive)
REMARK    1  A    between atoms: O1_2  and  C2_3 
REMARK    2  A    between atoms: C2_3  and  C3_4 
REMARK    3  A    between atoms: C4_5  and  O2_6 
REMARK    4  A    between atoms: O2_6  and  C5_7 
REMARK    5  A    between atoms: C5_7  and  C6_8 
REMARK    6  A    between atoms: C6_8  and  C7_9 
REMARK    7  A    between atoms: C7_9  and  C8_10 
REMARK    8  A    between atoms: C11_13  and  N1_15 
REMARK    9  A    between atoms: C16_24  and  C17_25 
REMARK   10  A    between atoms: C17_25  and  O5_27 
REMARK   11  A    between atoms: C19_29  and  O6_30 
REMARK   12  A    between atoms: C19_29  and  N2_32 
REMARK   13  A    between atoms: N2_32  and  N3_34 
ROOT
HETATM    1  C8  UNL     1      -1.551  -0.370   1.365  1.00  0.00     0.006 C 
HETATM    2  C9  UNL     1      -2.014  -1.294   0.320  1.00  0.00     0.024 C 
HETATM    3  C10 UNL     1      -2.078  -0.987  -1.088  1.00  0.00     0.075 C 
HETATM    4  C11 UNL     1      -3.503  -1.386  -1.502  1.00  0.00     0.221 C 
HETATM    5  C12 UNL     1      -3.547  -2.776  -2.094  1.00  0.00     0.078 C 
HETATM    6  O3  UNL     1      -4.245  -1.313  -0.315  1.00  0.00    -0.348 OA
HETATM    7  C13 UNL     1      -3.384  -1.855   0.641  1.00  0.00     0.136 C 
HETATM    8  C14 UNL     1      -3.885  -1.515   2.003  1.00  0.00     0.111 C 
HETATM    9  C15 UNL     1      -3.774  -0.063   2.194  1.00  0.00     0.136 C 
HETATM   10  O4  UNL     1      -4.746   0.584   2.508  1.00  0.00    -0.297 OA
HETATM   11  C16 UNL     1      -2.444   0.613   1.995  1.00  0.00     0.088 C 
ENDROOT
BRANCH   1  12
HETATM   12  C7  UNL     1      -0.083  -0.014   1.322  1.00  0.00     0.013 C 
BRANCH  12  13
HETATM   13  C6  UNL     1       0.408   0.638   0.078  1.00  0.00     0.070 C 
BRANCH  13  14
HETATM   14  C5  UNL     1       1.861   0.898   0.297  1.00  0.00     0.104 C 
HETATM   15  C19 UNL     1       2.360   2.115   0.261  1.00  0.00     0.184 C 
BRANCH  14  16
HETATM   16  O2  UNL     1       2.703  -0.164   0.543  1.00  0.00    -0.323 OA
BRANCH  16  17
HETATM   17  C4  UNL     1       3.628  -0.569  -0.397  1.00  0.00     0.140 C 
HETATM   18  C3  UNL     1       4.433  -1.570  -0.130  1.00  0.00     0.024 C 
BRANCH  18  19
HETATM   19  C2  UNL     1       5.452  -2.038  -1.129  1.00  0.00     0.196 C 
BRANCH  19  20
HETATM   20  O1  UNL     1       6.697  -1.890  -0.517  1.00  0.00    -0.392 OA
HETATM   21  C1  UNL     1       6.917  -0.565  -0.182  1.00  0.00     0.201 C 
ENDBRANCH  19  20
ENDBRANCH  18  19
ENDBRANCH  16  17
ENDBRANCH  14  16
BRANCH  15  22
HETATM   22  O6  UNL     1       1.505   3.207   0.009  1.00  0.00    -0.343 OA
ATOM     23  H6  UNL     1       1.865   4.086  -0.017  1.00  0.00     0.219 HD
ENDBRANCH  15  22
BRANCH  15  24
HETATM   24  N2  UNL     1       3.738   2.376   0.467  1.00  0.00    -0.285 N 
ATOM     25  H2  UNL     1       4.127   2.258   1.402  1.00  0.00     0.188 HD
BRANCH  24  26
HETATM   26  N3  UNL     1       4.579   2.788  -0.564  1.00  0.00    -0.343 N 
ATOM     27  H32 UNL     1       4.174   2.901  -1.493  1.00  0.00     0.176 HD
ATOM     28  H31 UNL     1       5.571   2.976  -0.416  1.00  0.00     0.176 HD
ENDBRANCH  24  26
ENDBRANCH  15  24
ENDBRANCH  13  14
ENDBRANCH  12  13
ENDBRANCH   1  12
BRANCH  11  29
HETATM   29  C17 UNL     1      -2.620   1.986   1.566  1.00  0.00     0.125 C 
HETATM   30  C18 UNL     1      -3.128   2.255   0.176  1.00  0.00     0.040 C 
BRANCH  29  31
HETATM   31  O5  UNL     1      -1.580   2.875   1.824  1.00  0.00    -0.395 OA
ATOM     32  H5  UNL     1      -1.695   3.775   1.543  1.00  0.00     0.210 HD
ENDBRANCH  29  31
ENDBRANCH  11  29
BRANCH   4  33
HETATM   33  N1  UNL     1      -4.081  -0.434  -2.424  1.00  0.00    -0.047 N 
ATOM     34  H13 UNL     1      -4.056   0.513  -2.045  1.00  0.00     0.278 HD
ATOM     35  H12 UNL     1      -3.483  -0.296  -3.238  1.00  0.00     0.278 HD
ATOM     36  H11 UNL     1      -5.027  -0.699  -2.699  1.00  0.00     0.278 HD
ENDBRANCH   4  33
TORSDOF 13
