REMARK  10 active torsions:
REMARK  status: ('A' for Active; 'I' for Inactive)
REMARK    1  A    between atoms: S1_2  and  C2_3 
REMARK    2  A    between atoms: C2_3  and  N1_4 
REMARK    3  A    between atoms: N1_4  and  C3_7 
REMARK    4  A    between atoms: C3_7  and  C4_8 
REMARK    5  A    between atoms: C3_7  and  C6_11 
REMARK    6  A    between atoms: C6_11  and  C7_13 
REMARK    7  A    between atoms: C7_13  and  N2_15 
REMARK       I    between atoms: N2_15  and  C8_17 
REMARK       I    between atoms: C8_17  and  N3_19 
REMARK    8  A    between atoms: N3_19  and  C9_21 
REMARK    9  A    between atoms: C12_24  and  N4_25 
REMARK   10  A    between atoms: C14_29  and  O6_30 
ROOT
HETATM    1  N2  UNL     1       0.367  -1.224   0.079  1.00  0.00    -0.322 N 
ATOM      2  H2  UNL     1       0.490  -1.974  -0.601  1.00  0.00     0.165 HD
HETATM    3  C8  UNL     1       1.444  -0.274   0.354  1.00  0.00     0.322 C 
HETATM    4  O3  UNL     1       1.241   0.628   1.186  1.00  0.00    -0.247 OA
HETATM    5  N3  UNL     1       2.615  -0.503  -0.379  1.00  0.00    -0.306 N 
ATOM      6  H3  UNL     1       2.614  -1.294  -1.023  1.00  0.00     0.171 HD
ENDROOT
BRANCH   1   7
HETATM    7  C7  UNL     1      -0.861  -1.071   0.789  1.00  0.00     0.231 C 
HETATM    8  S2  UNL     1      -1.118  -2.391   1.981  1.00  0.00    -0.061 SA
BRANCH   7   9
HETATM    9  C6  UNL     1      -1.980  -0.834  -0.154  1.00  0.00     0.198 C 
HETATM   10  O2  UNL     1      -1.721  -0.622  -1.337  1.00  0.00    -0.292 OA
BRANCH   9  11
HETATM   11  C3  UNL     1      -3.378  -0.851   0.356  1.00  0.00     0.327 C 
BRANCH  11  12
HETATM   12  N1  UNL     1      -4.138   0.279  -0.109  1.00  0.00    -0.049 N 
ATOM     13  H12 UNL     1      -4.282   0.232  -1.118  1.00  0.00     0.279 HD
ATOM     14  H11 UNL     1      -3.586   1.136  -0.060  1.00  0.00     0.279 HD
BRANCH  12  15
HETATM   15  C2  UNL     1      -5.363   0.428   0.570  1.00  0.00     0.307 C 
BRANCH  15  16
HETATM   16  S1  UNL     1      -6.248   1.951   0.051  1.00  0.00    -0.146 SA
HETATM   17  C1  UNL     1      -5.285   3.367   0.601  1.00  0.00     0.091 C 
ENDBRANCH  15  16
ENDBRANCH  12  15
ENDBRANCH  11  12
BRANCH  11  18
HETATM   18  C4  UNL     1      -3.983  -2.166   0.103  1.00  0.00     0.161 C 
HETATM   19  C5  UNL     1      -3.163  -3.301  -0.441  1.00  0.00     0.093 C 
HETATM   20  O1  UNL     1      -5.142  -2.405   0.305  1.00  0.00    -0.296 OA
ENDBRANCH  11  18
ENDBRANCH   9  11
ENDBRANCH   7   9
ENDBRANCH   1   7
BRANCH   5  21
HETATM   21  C9  UNL     1       3.787   0.258  -0.305  1.00  0.00     0.069 A 
HETATM   22  C10 UNL     1       3.865   1.400   0.437  1.00  0.00     0.035 A 
HETATM   23  C11 UNL     1       5.068   2.141   0.467  1.00  0.00     0.038 A 
HETATM   24  C12 UNL     1       6.168   1.725  -0.244  1.00  0.00     0.105 A 
HETATM   25  C13 UNL     1       6.113   0.580  -0.996  1.00  0.00     0.075 A 
HETATM   26  C14 UNL     1       4.917  -0.140  -1.015  1.00  0.00     0.094 A 
BRANCH  24  27
HETATM   27  N4  UNL     1       7.391   2.458  -0.221  1.00  0.00    -0.116 N 
HETATM   28  O4  UNL     1       7.464   3.493   0.445  1.00  0.00    -0.532 OA
HETATM   29  O5  UNL     1       8.497   2.048  -0.923  1.00  0.00    -0.532 OA
ENDBRANCH  24  27
BRANCH  26  30
HETATM   30  O6  UNL     1       4.898  -1.272  -1.772  1.00  0.00    -0.358 OA
ATOM     31  H6  UNL     1       5.669  -1.544  -2.256  1.00  0.00     0.217 HD
ENDBRANCH  26  30
ENDBRANCH   5  21
TORSDOF 10
