REMARK  13 active torsions:
REMARK  status: ('A' for Active; 'I' for Inactive)
REMARK    1  A    between atoms: C2_2  and  C12_30 
REMARK    2  A    between atoms: N1_3  and  N2_5 
REMARK    3  A    between atoms: N2_5  and  C3_7 
REMARK    4  A    between atoms: C3_7  and  C4_8 
REMARK    5  A    between atoms: C3_7  and  N3_25 
REMARK    6  A    between atoms: C4_8  and  C5_9 
REMARK    7  A    between atoms: C5_9  and  C6_10 
REMARK    8  A    between atoms: C6_10  and  O1_12 
REMARK    9  A    between atoms: O1_12  and  C7_13 
REMARK   10  A    between atoms: C9_16  and  O2_17 
REMARK   11  A    between atoms: C10_19  and  O3_20 
REMARK   12  A    between atoms: C11_22  and  O4_23 
REMARK   13  A    between atoms: N3_25  and  N4_27 
ROOT
HETATM    1  C4  UNL     1       0.268  -0.713   0.036  1.00  0.00     0.057 C 
ENDROOT
BRANCH   1   2
HETATM    2  C3  UNL     1       1.729  -0.815  -0.313  1.00  0.00     0.219 C 
BRANCH   2   3
HETATM    3  N2  UNL     1       2.501  -0.094   0.731  1.00  0.00    -0.312 N 
ATOM      4  H2  UNL     1       2.039   0.364   1.517  1.00  0.00     0.182 HD
BRANCH   3   5
HETATM    5  N1  UNL     1       3.874  -0.074   0.587  1.00  0.00    -0.311 N 
HETATM    6  C2  UNL     1       4.539   0.757  -0.100  1.00  0.00     0.003 C 
HETATM    7  C1  UNL     1       3.791   1.818  -0.829  1.00  0.00     0.065 C 
ATOM      8  H1  UNL     1       4.402  -0.795   1.079  1.00  0.00     0.186 HD
BRANCH   6   9
HETATM    9  C12 UNL     1       6.009   0.658  -0.164  1.00  0.00     0.024 C 
HETATM   10  C13 UNL     1       6.459  -0.514   0.676  1.00  0.00     0.016 C 
HETATM   11  C14 UNL     1       6.635   1.936   0.353  1.00  0.00     0.016 C 
ENDBRANCH   6   9
ENDBRANCH   3   5
ENDBRANCH   2   3
BRANCH   2  12
HETATM   12  N3  UNL     1       2.172  -2.179  -0.218  1.00  0.00    -0.253 N 
ATOM     13  H3  UNL     1       2.668  -2.442   0.633  1.00  0.00     0.189 HD
BRANCH  12  14
HETATM   14  N4  UNL     1       1.991  -3.182  -1.175  1.00  0.00    -0.042 N 
HETATM   15  O5  UNL     1       2.124  -2.954  -2.389  1.00  0.00    -0.517 OA
HETATM   16  O6  UNL     1       1.670  -4.444  -0.737  1.00  0.00    -0.517 OA
ENDBRANCH  12  14
ENDBRANCH   2  12
ENDBRANCH   1   2
BRANCH   1  17
HETATM   17  C5  UNL     1      -0.590  -1.382  -0.961  1.00  0.00     0.081 C 
BRANCH  17  18
HETATM   18  C6  UNL     1      -2.053  -1.235  -0.634  1.00  0.00     0.114 C 
HETATM   19  S1  UNL     1      -2.880  -2.608  -0.382  1.00  0.00    -0.058 SA
BRANCH  18  20
HETATM   20  O1  UNL     1      -2.682  -0.039  -0.544  1.00  0.00    -0.326 OA
BRANCH  20  21
HETATM   21  C7  UNL     1      -3.450   0.515   0.460  1.00  0.00     0.222 C 
HETATM   22  S2  UNL     1      -3.955   2.186  -0.111  1.00  0.00    -0.132 SA
HETATM   23  C8  UNL     1      -5.409   2.011  -1.138  1.00  0.00     0.111 C 
HETATM   24  C9  UNL     1      -6.376   0.974  -0.609  1.00  0.00     0.159 C 
HETATM   25  C10 UNL     1      -5.670  -0.327  -0.291  1.00  0.00     0.179 C 
HETATM   26  C11 UNL     1      -4.701  -0.209   0.832  1.00  0.00     0.188 C 
BRANCH  24  27
HETATM   27  O2  UNL     1      -7.117   1.457   0.457  1.00  0.00    -0.392 OA
ATOM     28  H2  UNL     1      -7.724   0.806   0.789  1.00  0.00     0.210 HD
ENDBRANCH  24  27
BRANCH  25  29
HETATM   29  O3  UNL     1      -6.680  -1.230   0.099  1.00  0.00    -0.390 OA
ATOM     30  H3  UNL     1      -6.237  -2.046   0.299  1.00  0.00     0.210 HD
ENDBRANCH  25  29
BRANCH  26  31
HETATM   31  O4  UNL     1      -5.318   0.513   1.862  1.00  0.00    -0.389 OA
ATOM     32  H4  UNL     1      -6.114   0.052   2.099  1.00  0.00     0.210 HD
ENDBRANCH  26  31
ENDBRANCH  20  21
ENDBRANCH  18  20
ENDBRANCH  17  18
ENDBRANCH   1  17
TORSDOF 13
