REMARK  16 active torsions:
REMARK  status: ('A' for Active; 'I' for Inactive)
REMARK    1  A    between atoms: C2_2  and  C3_3 
REMARK    2  A    between atoms: C3_3  and  C4_4 
REMARK    3  A    between atoms: C4_4  and  C5_5 
REMARK    4  A    between atoms: C5_5  and  C6_6 
REMARK    5  A    between atoms: C6_6  and  O2_8 
REMARK    6  A    between atoms: O2_8  and  C7_9 
REMARK    7  A    between atoms: C9_11  and  C10_12 
REMARK    8  A    between atoms: C10_12  and  O3_13 
REMARK    9  A    between atoms: O3_13  and  C11_14 
REMARK   10  A    between atoms: C12_17  and  O6_18 
REMARK   11  A    between atoms: O6_18  and  C13_19 
REMARK   12  A    between atoms: C15_22  and  O8_23 
REMARK   13  A    between atoms: O8_23  and  C16_24 
REMARK   14  A    between atoms: C16_24  and  C17_26 
REMARK   15  A    between atoms: C19_28  and  O10_29 
REMARK   16  A    between atoms: O10_29  and  C20_30 
ROOT
HETATM    1  C7  UNL     1       0.611   0.253   0.368  1.00  0.00     0.164 C 
HETATM    2  C8  UNL     1       0.271   1.728   0.112  1.00  0.00     0.044 C 
HETATM    3  C9  UNL     1      -1.180   1.992   0.535  1.00  0.00     0.045 C 
HETATM    4  C12 UNL     1      -2.104   1.069  -0.187  1.00  0.00     0.170 C 
HETATM    5  C15 UNL     1      -1.718  -0.381   0.180  1.00  0.00     0.194 C 
HETATM    6  C19 UNL     1      -0.337  -0.560  -0.441  1.00  0.00     0.193 C 
ENDROOT
BRANCH   1   7
HETATM    7  O2  UNL     1       1.962   0.082  -0.005  1.00  0.00    -0.313 OA
BRANCH   7   8
HETATM    8  C6  UNL     1       2.878  -0.222   0.975  1.00  0.00     0.259 C 
HETATM    9  O1  UNL     1       2.570  -0.355   2.182  1.00  0.00    -0.265 OA
BRANCH   8  10
HETATM   10  C5  UNL     1       4.359  -0.424   0.666  1.00  0.00     0.111 C 
BRANCH  10  11
HETATM   11  C4  UNL     1       4.607  -0.244  -0.783  1.00  0.00     0.010 C 
BRANCH  11  12
HETATM   12  C3  UNL     1       6.011  -0.491  -1.184  1.00  0.00     0.000 C 
BRANCH  12  13
HETATM   13  C2  UNL     1       7.087   0.345  -0.600  1.00  0.00    -0.005 C 
HETATM   14  C1  UNL     1       7.325   0.279   0.856  1.00  0.00     0.005 C 
ENDBRANCH  12  13
ENDBRANCH  11  12
ENDBRANCH  10  11
ENDBRANCH   8  10
ENDBRANCH   7   8
ENDBRANCH   1   7
BRANCH   6  15
HETATM   15  O10 UNL     1       0.018  -1.906  -0.580  1.00  0.00    -0.311 OA
BRANCH  15  16
HETATM   16  C20 UNL     1       0.271  -2.524  -1.789  1.00  0.00     0.255 C 
HETATM   17  C21 UNL     1       0.638  -3.960  -1.783  1.00  0.00     0.126 C 
HETATM   18  O11 UNL     1       0.173  -1.822  -2.824  1.00  0.00    -0.266 OA
ENDBRANCH  15  16
ENDBRANCH   6  15
BRANCH   3  19
HETATM   19  C10 UNL     1      -1.459   3.408   0.112  1.00  0.00     0.189 C 
BRANCH  19  20
HETATM   20  O3  UNL     1      -2.727   3.896   0.416  1.00  0.00    -0.295 OA
BRANCH  20  21
HETATM   21  C11 UNL     1      -3.178   4.033   1.697  1.00  0.00     0.332 C 
HETATM   22  O4  UNL     1      -2.487   3.735   2.697  1.00  0.00    -0.624 OA
HETATM   23  O5  UNL     1      -4.469   4.528   1.953  1.00  0.00    -0.624 OA
ENDBRANCH  20  21
ENDBRANCH  19  20
ENDBRANCH   3  19
BRANCH   5  24
HETATM   24  O8  UNL     1      -2.654  -1.289  -0.294  1.00  0.00    -0.311 OA
BRANCH  24  25
HETATM   25  C16 UNL     1      -3.355  -2.089   0.598  1.00  0.00     0.259 C 
HETATM   26  O9  UNL     1      -3.136  -1.984   1.840  1.00  0.00    -0.265 OA
BRANCH  25  27
HETATM   27  C17 UNL     1      -4.375  -3.082   0.106  1.00  0.00     0.106 C 
HETATM   28  C18 UNL     1      -4.970  -3.800   1.271  1.00  0.00     0.015 C 
ENDBRANCH  25  27
ENDBRANCH  24  25
ENDBRANCH   5  24
BRANCH   4  29
HETATM   29  O6  UNL     1      -3.435   1.330   0.068  1.00  0.00    -0.313 OA
BRANCH  29  30
HETATM   30  C13 UNL     1      -4.300   1.569  -1.009  1.00  0.00     0.255 C 
HETATM   31  C14 UNL     1      -5.747   1.856  -0.793  1.00  0.00     0.126 C 
HETATM   32  O7  UNL     1      -3.796   1.530  -2.157  1.00  0.00    -0.266 OA
ENDBRANCH  29  30
ENDBRANCH   4  29
TORSDOF 16
