REMARK  12 active torsions:
REMARK  status: ('A' for Active; 'I' for Inactive)
REMARK    1  A    between atoms: C3_5  and  C4_6 
REMARK    2  A    between atoms: C5_7  and  C7_10 
REMARK       I    between atoms: C7_10  and  N3_12 
REMARK    3  A    between atoms: N3_12  and  C8_14 
REMARK    4  A    between atoms: C8_14  and  C9_15 
REMARK    5  A    between atoms: C12_19  and  S2_20 
REMARK    6  A    between atoms: S2_20  and  C13_21 
REMARK    7  A    between atoms: C13_21  and  C14_22 
REMARK    8  A    between atoms: C14_22  and  O3_24 
REMARK    9  A    between atoms: O3_24  and  C15_25 
REMARK   10  A    between atoms: C15_25  and  C17_27 
REMARK   11  A    between atoms: C17_27  and  O4_28 
REMARK   12  A    between atoms: O4_28  and  S3_29 
ROOT
HETATM    1  C4  UNL     1      -1.902  -0.183   0.124  1.00  0.00     0.065 C 
HETATM    2  C5  UNL     1      -3.110  -0.700   0.111  1.00  0.00     0.114 C 
HETATM    3  C6  UNL     1      -3.467  -1.834   0.912  1.00  0.00     0.105 C 
HETATM    4  N2  UNL     1      -3.774  -2.745   1.548  1.00  0.00    -0.191 NA
ENDROOT
BRANCH   2   5
HETATM    5  C7  UNL     1      -4.122  -0.111  -0.752  1.00  0.00     0.262 C 
HETATM    6  O1  UNL     1      -3.826   0.867  -1.474  1.00  0.00    -0.267 OA
HETATM    7  N3  UNL     1      -5.448  -0.622  -0.793  1.00  0.00    -0.356 N 
ATOM      8  H3  UNL     1      -5.671  -1.419  -0.197  1.00  0.00     0.162 HD
BRANCH   7   9
HETATM    9  C8  UNL     1      -6.489  -0.090  -1.617  1.00  0.00     0.126 C 
BRANCH   9  10
HETATM   10  C9  UNL     1      -6.804   1.365  -1.329  1.00  0.00    -0.005 C 
HETATM   11  C10 UNL     1      -7.243   1.550   0.111  1.00  0.00     0.011 C 
HETATM   12  C11 UNL     1      -7.985   1.730  -2.235  1.00  0.00     0.011 C 
ENDBRANCH   9  10
ENDBRANCH   7   9
ENDBRANCH   2   5
BRANCH   1  13
HETATM   13  C3  UNL     1      -0.901  -0.827   1.012  1.00  0.00     0.077 A 
HETATM   14  N1  UNL     1      -0.712  -2.123   1.219  1.00  0.00    -0.353 N 
HETATM   15  C2  UNL     1       0.208  -2.514   2.045  1.00  0.00     0.030 A 
ATOM     16  H1  UNL     1      -1.288  -2.809   0.731  1.00  0.00     0.166 HD
HETATM   17  C1  UNL     1       0.492  -3.978   2.335  1.00  0.00     0.070 C 
HETATM   18  C12 UNL     1       0.951  -1.542   2.670  1.00  0.00     0.066 A 
HETATM   19  S1  UNL     1       0.273  -0.116   2.025  1.00  0.00    -0.063 SA
BRANCH  18  20
HETATM   20  S2  UNL     1       2.289  -1.788   3.862  1.00  0.00    -0.111 SA
BRANCH  20  21
HETATM   21  C13 UNL     1       3.888  -1.925   3.066  1.00  0.00     0.191 C 
BRANCH  21  22
HETATM   22  C14 UNL     1       4.368  -0.687   2.432  1.00  0.00     0.268 C 
HETATM   23  O2  UNL     1       5.094   0.087   3.091  1.00  0.00    -0.264 OA
BRANCH  22  24
HETATM   24  O3  UNL     1       4.075  -0.294   1.125  1.00  0.00    -0.314 OA
BRANCH  24  25
HETATM   25  C15 UNL     1       4.606   0.921   0.633  1.00  0.00     0.153 C 
HETATM   26  C16 UNL     1       3.441   1.861   0.385  1.00  0.00     0.042 C 
BRANCH  25  27
HETATM   27  C17 UNL     1       5.373   0.784  -0.636  1.00  0.00     0.222 C 
BRANCH  27  28
HETATM   28  O4  UNL     1       5.824   2.075  -0.986  1.00  0.00    -0.273 OA
BRANCH  28  29
HETATM   29  S3  UNL     1       6.701   2.032  -2.414  1.00  0.00     0.261 S 
HETATM   30  C18 UNL     1       7.985   0.789  -2.338  1.00  0.00     0.194 C 
HETATM   31  O5  UNL     1       5.838   1.847  -3.618  1.00  0.00    -0.199 OA
HETATM   32  O6  UNL     1       7.386   3.379  -2.549  1.00  0.00    -0.199 OA
ENDBRANCH  28  29
ENDBRANCH  27  28
ENDBRANCH  25  27
ENDBRANCH  24  25
ENDBRANCH  22  24
ENDBRANCH  21  22
ENDBRANCH  20  21
ENDBRANCH  18  20
ENDBRANCH   1  13
TORSDOF 12
