REMARK  15 active torsions:
REMARK  status: ('A' for Active; 'I' for Inactive)
REMARK    1  A    between atoms: C2_2  and  O1_3 
REMARK    2  A    between atoms: O1_3  and  C3_4 
REMARK    3  A    between atoms: C3_4  and  C4_6 
REMARK    4  A    between atoms: C4_6  and  C5_7 
REMARK    5  A    between atoms: C5_7  and  C6_8 
REMARK    6  A    between atoms: C6_8  and  S1_10 
REMARK    7  A    between atoms: S1_10  and  C7_11 
REMARK    8  A    between atoms: C10_15  and  C11_16 
REMARK    9  A    between atoms: C11_16  and  C12_17 
REMARK   10  A    between atoms: C13_18  and  C14_19 
REMARK   11  A    between atoms: C14_19  and  C15_20 
REMARK   12  A    between atoms: C15_20  and  C16_21 
REMARK   13  A    between atoms: C16_21  and  C17_22 
REMARK   14  A    between atoms: C17_22  and  O6_24 
REMARK   15  A    between atoms: C22_30  and  O8_31 
ROOT
HETATM    1  C4  UNL     1      -2.340   0.131   0.039  1.00  0.00     0.164 C 
HETATM    2  O4  UNL     1      -1.298  -0.754   0.113  1.00  0.00    -0.366 OA
HETATM    3  C9  UNL     1      -0.128  -0.373   0.660  1.00  0.00     0.201 C 
HETATM    4  C10 UNL     1       1.032  -0.438  -0.343  1.00  0.00     0.151 C 
HETATM    5  O7  UNL     1       0.616  -0.308  -1.642  1.00  0.00    -0.353 OA
HETATM    6  C19 UNL     1      -0.042   0.848  -1.963  1.00  0.00     0.264 C 
HETATM    7  C20 UNL     1      -1.485   0.534  -2.242  1.00  0.00     0.074 C 
HETATM    8  C21 UNL     1      -2.180   1.162  -1.045  1.00  0.00     0.090 C 
HETATM    9  C22 UNL     1      -1.248   2.283  -0.758  1.00  0.00     0.267 C 
HETATM   10  O9  UNL     1       0.038   1.783  -0.957  1.00  0.00    -0.331 OA
ENDROOT
BRANCH   1  11
HETATM   11  C3  UNL     1      -2.727   0.736   1.327  1.00  0.00     0.294 C 
HETATM   12  O2  UNL     1      -2.181   0.555   2.434  1.00  0.00    -0.262 OA
BRANCH  11  13
HETATM   13  O1  UNL     1      -3.809   1.595   1.318  1.00  0.00    -0.319 OA
BRANCH  13  14
HETATM   14  C2  UNL     1      -4.296   2.245   2.480  1.00  0.00     0.174 C 
HETATM   15  C1  UNL     1      -5.480   3.087   2.037  1.00  0.00     0.034 C 
ENDBRANCH  13  14
ENDBRANCH  11  13
ENDBRANCH   1  11
BRANCH   1  16
HETATM   16  C5  UNL     1      -3.551  -0.703  -0.392  1.00  0.00     0.140 C 
BRANCH  16  17
HETATM   17  C6  UNL     1      -3.893  -1.761   0.576  1.00  0.00     0.189 C 
HETATM   18  O3  UNL     1      -3.275  -1.955   1.617  1.00  0.00    -0.285 OA
BRANCH  17  19
HETATM   19  S1  UNL     1      -5.276  -2.874   0.295  1.00  0.00    -0.093 SA
BRANCH  19  20
HETATM   20  C7  UNL     1      -6.109  -2.502  -1.271  1.00  0.00     0.077 C 
HETATM   21  C8  UNL     1      -6.781  -1.164  -1.224  1.00  0.00     0.016 C 
ENDBRANCH  19  20
ENDBRANCH  17  19
ENDBRANCH  16  17
ENDBRANCH   1  16
BRANCH   9  22
HETATM   22  O8  UNL     1      -1.433   2.980   0.394  1.00  0.00    -0.371 OA
ATOM     23  H8  UNL     1      -0.837   3.697   0.578  1.00  0.00     0.212 HD
ENDBRANCH   9  22
BRANCH   4  24
HETATM   24  C11 UNL     1       1.695  -1.827  -0.265  1.00  0.00     0.061 C 
BRANCH  24  25
HETATM   25  C12 UNL     1       2.792  -1.800  -1.253  1.00  0.00    -0.028 C 
HETATM   26  C13 UNL     1       4.076  -1.976  -1.028  1.00  0.00    -0.031 C 
BRANCH  26  27
HETATM   27  C14 UNL     1       4.687  -2.238   0.276  1.00  0.00     0.027 C 
BRANCH  27  28
HETATM   28  C15 UNL     1       5.698  -1.180   0.685  1.00  0.00     0.013 C 
BRANCH  28  29
HETATM   29  C16 UNL     1       6.832  -1.092  -0.314  1.00  0.00     0.111 C 
BRANCH  29  30
HETATM   30  C17 UNL     1       7.799  -0.051   0.117  1.00  0.00     0.258 C 
HETATM   31  O5  UNL     1       8.824   0.194  -0.564  1.00  0.00    -0.265 OA
BRANCH  30  32
HETATM   32  O6  UNL     1       7.624   0.691   1.275  1.00  0.00    -0.326 OA
HETATM   33  C18 UNL     1       8.554   1.683   1.681  1.00  0.00     0.213 C 
ENDBRANCH  30  32
ENDBRANCH  29  30
ENDBRANCH  28  29
ENDBRANCH  27  28
ENDBRANCH  26  27
ENDBRANCH  24  25
ENDBRANCH   4  24
TORSDOF 15
