REMARK  14 active torsions:
REMARK  status: ('A' for Active; 'I' for Inactive)
REMARK    1  A    between atoms: S1_2  and  C2_3 
REMARK    2  A    between atoms: C2_3  and  C3_4 
REMARK    3  A    between atoms: C3_4  and  O1_5 
REMARK    4  A    between atoms: C3_4  and  C4_7 
REMARK    5  A    between atoms: C4_7  and  O2_8 
REMARK    6  A    between atoms: O2_8  and  C5_9 
REMARK    7  A    between atoms: C5_9  and  C6_10 
REMARK    8  A    between atoms: C6_10  and  C7_11 
REMARK    9  A    between atoms: C7_11  and  S2_12 
REMARK   10  A    between atoms: S2_12  and  C8_13 
REMARK   11  A    between atoms: C10_17  and  C11_18 
REMARK   12  A    between atoms: C11_18  and  O5_19 
REMARK   13  A    between atoms: O5_19  and  C12_20 
REMARK   14  A    between atoms: C12_20  and  C13_22 
ROOT
HETATM    1  C6  UNL     1       0.125  -0.433  -0.691  1.00  0.00     0.120 C 
HETATM    2  O4  UNL     1      -1.235  -0.018  -0.825  1.00  0.00    -0.364 OA
HETATM    3  C10 UNL     1      -1.660   0.163   0.444  1.00  0.00     0.178 C 
HETATM    4  C17 UNL     1      -0.932  -0.827   1.339  1.00  0.00     0.188 C 
HETATM    5  O7  UNL     1      -1.750  -1.865   1.755  1.00  0.00    -0.345 OA
HETATM    6  C18 UNL     1      -1.295  -3.024   1.130  1.00  0.00     0.158 C 
HETATM    7  C19 UNL     1      -0.174  -3.563   1.964  1.00  0.00     0.078 C 
HETATM    8  C20 UNL     1      -2.368  -4.050   0.940  1.00  0.00     0.078 C 
HETATM    9  O8  UNL     1      -0.857  -2.566  -0.124  1.00  0.00    -0.345 OA
HETATM   10  C21 UNL     1      -0.021  -1.523   0.288  1.00  0.00     0.194 C 
ENDROOT
BRANCH   1  11
HETATM   11  C5  UNL     1       0.888   0.748  -0.119  1.00  0.00     0.209 C 
BRANCH  11  12
HETATM   12  O2  UNL     1       2.250   0.441   0.015  1.00  0.00    -0.386 OA
BRANCH  12  13
HETATM   13  C4  UNL     1       2.830   1.602   0.550  1.00  0.00     0.200 C 
BRANCH  13  14
HETATM   14  C3  UNL     1       4.299   1.466   0.771  1.00  0.00     0.151 C 
BRANCH  14  15
HETATM   15  C2  UNL     1       5.088   1.377  -0.503  1.00  0.00     0.107 C 
BRANCH  15  16
HETATM   16  S1  UNL     1       6.874   1.450  -0.195  1.00  0.00    -0.171 SA
HETATM   17  C1  UNL     1       7.349   3.077   0.454  1.00  0.00     0.089 C 
ENDBRANCH  15  16
ENDBRANCH  14  15
BRANCH  14  18
HETATM   18  O1  UNL     1       4.592   0.436   1.650  1.00  0.00    -0.393 OA
ATOM     19  H1  UNL     1       4.093   0.492   2.456  1.00  0.00     0.210 HD
ENDBRANCH  14  18
ENDBRANCH  13  14
ENDBRANCH  12  13
ENDBRANCH  11  12
ENDBRANCH   1  11
BRANCH   1  20
HETATM   20  C7  UNL     1       0.653  -0.842  -2.019  1.00  0.00     0.125 C 
BRANCH  20  21
HETATM   21  S2  UNL     1       2.357  -1.275  -2.066  1.00  0.00    -0.090 SA
BRANCH  21  22
HETATM   22  C8  UNL     1       2.863  -2.813  -1.394  1.00  0.00     0.182 C 
HETATM   23  C9  UNL     1       4.354  -3.133  -1.232  1.00  0.00     0.104 C 
HETATM   24  O3  UNL     1       2.058  -3.656  -1.048  1.00  0.00    -0.286 OA
ENDBRANCH  21  22
ENDBRANCH  20  21
ENDBRANCH   1  20
BRANCH   3  25
HETATM   25  C11 UNL     1      -3.127  -0.027   0.714  1.00  0.00     0.213 C 
BRANCH  25  26
HETATM   26  O5  UNL     1      -4.016   0.786   0.067  1.00  0.00    -0.316 OA
BRANCH  26  27
HETATM   27  C12 UNL     1      -4.321   0.939  -1.249  1.00  0.00     0.283 C 
HETATM   28  O6  UNL     1      -3.697   0.212  -2.065  1.00  0.00    -0.260 OA
BRANCH  27  29
HETATM   29  C13 UNL     1      -5.312   1.882  -1.764  1.00  0.00     0.084 C 
HETATM   30  C14 UNL     1      -6.007   2.679  -0.993  1.00  0.00    -0.082 C 
HETATM   31  C15 UNL     1      -5.823   2.668   0.471  1.00  0.00     0.043 C 
HETATM   32  C16 UNL     1      -6.998   3.613  -1.581  1.00  0.00     0.043 C 
ENDBRANCH  27  29
ENDBRANCH  26  27
ENDBRANCH  25  26
ENDBRANCH   3  25
TORSDOF 14
