REMARK  6 active torsions:
REMARK  status: ('A' for Active; 'I' for Inactive)
REMARK    1  A    between atoms: C1_2  and  C2_4 
REMARK    2  A    between atoms: C3_5  and  C4_6 
REMARK    3  A    between atoms: N3_15  and  C9_17 
REMARK    4  A    between atoms: C9_17  and  C10_18 
REMARK    5  A    between atoms: C10_18  and  C11_19 
REMARK    6  A    between atoms: C11_19  and  N4_20 
ROOT
HETATM    1  C2  UNL     1      -3.427   0.438   0.383  1.00  0.00     0.064 A 
HETATM    2  C3  UNL     1      -2.414   1.323   0.487  1.00  0.00     0.067 A 
HETATM    3  N2  UNL     1      -1.125   0.854   0.520  1.00  0.00    -0.340 N 
ATOM      4  H2  UNL     1      -0.362   1.527   0.596  1.00  0.00     0.167 HD
HETATM    5  C8  UNL     1      -0.826  -0.452   0.457  1.00  0.00     0.108 A 
HETATM    6  N3  UNL     1       0.370  -0.911   0.491  1.00  0.00    -0.376 N 
ATOM      7  H3  UNL     1       0.465  -1.925   0.435  1.00  0.00     0.161 HD
HETATM    8  C16 UNL     1      -1.852  -1.370   0.355  1.00  0.00    -0.007 A 
HETATM    9  C17 UNL     1      -3.162  -0.955   0.316  1.00  0.00    -0.030 A 
HETATM   10  C18 UNL     1      -4.441  -1.674   0.203  1.00  0.00     0.040 C 
HETATM   11  C19 UNL     1      -4.258  -3.100  -0.262  1.00  0.00     0.005 C 
HETATM   12  C20 UNL     1      -3.211  -3.084  -1.359  1.00  0.00     0.001 C 
HETATM   13  C21 UNL     1      -1.946  -3.618  -0.751  1.00  0.00     0.005 C 
HETATM   14  C22 UNL     1      -1.339  -2.765   0.303  1.00  0.00     0.043 C 
ENDROOT
BRANCH   6  15
HETATM   15  C9  UNL     1       1.570  -0.178   0.597  1.00  0.00     0.123 C 
BRANCH  15  16
HETATM   16  C10 UNL     1       2.319  -0.173  -0.743  1.00  0.00     0.050 C 
BRANCH  16  17
HETATM   17  C11 UNL     1       3.599   0.615  -0.631  1.00  0.00     0.274 C 
BRANCH  17  18
HETATM   18  N4  UNL     1       4.452   0.027   0.373  1.00  0.00     0.092 N 
HETATM   19  C12 UNL     1       4.941  -1.253  -0.079  1.00  0.00     0.298 C 
HETATM   20  C13 UNL     1       6.453  -1.192  -0.244  1.00  0.00     0.198 C 
HETATM   21  O2  UNL     1       6.842  -0.055  -0.934  1.00  0.00    -0.388 OA
HETATM   22  C14 UNL     1       6.444   1.134  -0.379  1.00  0.00     0.198 C 
HETATM   23  C15 UNL     1       5.478   0.941   0.766  1.00  0.00     0.298 C 
ENDBRANCH  17  18
ENDBRANCH  16  17
ENDBRANCH  15  16
ENDBRANCH   6  15
BRANCH   2  24
HETATM   24  C4  UNL     1      -2.601   2.751   0.701  1.00  0.00     0.034 A 
HETATM   25  C5  UNL     1      -1.646   3.746   0.610  1.00  0.00     0.023 A 
HETATM   26  C6  UNL     1      -2.051   5.001   0.842  1.00  0.00     0.028 A 
HETATM   27  C7  UNL     1      -3.359   5.215   1.150  1.00  0.00     0.052 A 
HETATM   28 BR1  UNL     1      -4.231   6.890   1.529  1.00  0.00    -0.043 Br
HETATM   29  S1  UNL     1      -3.999   3.641   1.106  1.00  0.00    -0.081 SA
ENDBRANCH   2  24
BRANCH   1  30
HETATM   30  C1  UNL     1      -4.799   0.882   0.209  1.00  0.00     0.267 C 
HETATM   31  N1  UNL     1      -5.060   1.731  -0.933  1.00  0.00    -0.057 NA
HETATM   32  O1  UNL     1      -5.757   0.574   0.966  1.00  0.00    -0.271 OA
ENDBRANCH   1  30
TORSDOF 6
