REMARK  12 active torsions:
REMARK  status: ('A' for Active; 'I' for Inactive)
REMARK    1  A    between atoms: C2_2  and  C3_4 
REMARK    2  A    between atoms: C3_4  and  N5_18 
REMARK    3  A    between atoms: N1_5  and  N2_7 
REMARK    4  A    between atoms: N2_7  and  C4_9 
REMARK    5  A    between atoms: C6_13  and  O2_14 
REMARK    6  A    between atoms: N5_18  and  N6_20 
REMARK    7  A    between atoms: C7_22  and  C8_23 
REMARK    8  A    between atoms: C9_26  and  O3_27 
REMARK    9  A    between atoms: C10_29  and  C11_30 
REMARK   10  A    between atoms: C12_32  and  O5_33 
REMARK   11  A    between atoms: C13_35  and  O6_36 
REMARK   12  A    between atoms: C15_40  and  O8_41 
ROOT
HETATM    1  N6  UNL     1      -0.164   2.323   2.254  1.00  0.00    -0.306 N 
ATOM      2  H6  UNL     1      -0.494   3.137   1.735  1.00  0.00     0.186 HD
HETATM    3  C7  UNL     1      -0.563   1.228   1.847  1.00  0.00     0.163 C 
ENDROOT
BRANCH   3   4
HETATM    4  C8  UNL     1      -1.466   1.161   0.664  1.00  0.00     0.167 A 
HETATM    5  N7  UNL     1      -1.898   2.256  -0.012  1.00  0.00    -0.314 N 
HETATM    6  C9  UNL     1      -2.682   1.797  -1.003  1.00  0.00     0.179 A 
ATOM      7  H7  UNL     1      -1.673   3.230   0.191  1.00  0.00     0.170 HD
HETATM    8  C10 UNL     1      -2.740   0.407  -0.944  1.00  0.00     0.165 A 
HETATM    9  O9  UNL     1      -1.985   0.112   0.083  1.00  0.00    -0.285 OA
BRANCH   6  10
HETATM   10  O3  UNL     1      -3.361   2.547  -1.967  1.00  0.00    -0.344 OA
ATOM     11  H3  UNL     1      -3.915   2.223  -2.667  1.00  0.00     0.219 HD
ENDBRANCH   6  10
BRANCH   8  12
HETATM   12  C11 UNL     1      -3.491  -0.429  -1.860  1.00  0.00     0.153 A 
HETATM   13  O4  UNL     1      -4.172   0.160  -2.853  1.00  0.00    -0.280 OA
HETATM   14  C12 UNL     1      -4.870  -0.498  -3.722  1.00  0.00     0.222 A 
HETATM   15  C13 UNL     1      -4.943  -1.865  -3.660  1.00  0.00     0.178 A 
HETATM   16  C14 UNL     1      -4.254  -2.567  -2.640  1.00  0.00     0.245 A 
HETATM   17  O7  UNL     1      -4.325  -3.813  -2.590  1.00  0.00    -0.282 OA
HETATM   18  C15 UNL     1      -3.524  -1.785  -1.739  1.00  0.00     0.156 A 
BRANCH  14  19
HETATM   19  O5  UNL     1      -5.571   0.189  -4.759  1.00  0.00    -0.339 OA
ATOM     20  H5  UNL     1      -6.083  -0.294  -5.397  1.00  0.00     0.220 HD
ENDBRANCH  14  19
BRANCH  15  21
HETATM   21  O6  UNL     1      -5.673  -2.596  -4.565  1.00  0.00    -0.353 OA
ATOM     22  H6  UNL     1      -5.724  -3.544  -4.522  1.00  0.00     0.218 HD
ENDBRANCH  15  21
BRANCH  18  23
HETATM   23  O8  UNL     1      -2.862  -2.502  -0.752  1.00  0.00    -0.355 OA
ATOM     24  H8  UNL     1      -2.885  -3.448  -0.668  1.00  0.00     0.218 HD
ENDBRANCH  18  23
ENDBRANCH   8  12
ENDBRANCH   3   4
BRANCH   1  25
HETATM   25  N5  UNL     1       0.658   2.584   3.304  1.00  0.00    -0.282 N 
ATOM     26  H5  UNL     1       0.387   3.199   4.071  1.00  0.00     0.188 HD
BRANCH  25  27
HETATM   27  C3  UNL     1       1.966   1.917   3.254  1.00  0.00     0.181 C 
HETATM   28  N1  UNL     1       2.409   1.778   2.082  1.00  0.00    -0.279 N 
ATOM     29  H1  UNL     1       1.825   2.176   1.346  1.00  0.00     0.189 HD
BRANCH  27  30
HETATM   30  C2  UNL     1       2.562   1.470   4.488  1.00  0.00     0.191 C 
HETATM   31  C1  UNL     1       3.829   0.736   4.565  1.00  0.00     0.100 C 
HETATM   32  O1  UNL     1       1.970   1.710   5.589  1.00  0.00    -0.289 OA
ENDBRANCH  27  30
BRANCH  28  33
HETATM   33  N2  UNL     1       3.548   1.177   1.656  1.00  0.00    -0.270 N 
ATOM     34  H2  UNL     1       4.449   1.499   2.009  1.00  0.00     0.190 HD
BRANCH  33  35
HETATM   35  C4  UNL     1       3.501   0.085   0.708  1.00  0.00     0.192 C 
HETATM   36  N3  UNL     1       3.464  -1.152   1.002  1.00  0.00    -0.357 N 
HETATM   37  C5  UNL     1       3.422  -1.951  -0.208  1.00  0.00     0.176 C 
ATOM     38  H3  UNL     1       3.464  -1.527   1.950  1.00  0.00     0.162 HD
HETATM   39  C6  UNL     1       3.928  -0.974  -1.261  1.00  0.00     0.238 C 
HETATM   40  N4  UNL     1       3.493   0.281  -0.686  1.00  0.00    -0.333 N 
ATOM     41  H4  UNL     1       3.234   1.131  -1.187  1.00  0.00     0.165 HD
BRANCH  39  42
HETATM   42  O2  UNL     1       3.345  -1.202  -2.501  1.00  0.00    -0.375 OA
ATOM     43  H2  UNL     1       3.661  -0.593  -3.158  1.00  0.00     0.212 HD
ENDBRANCH  39  42
ENDBRANCH  33  35
ENDBRANCH  28  33
ENDBRANCH  25  27
ENDBRANCH   1  25
TORSDOF 12
