REMARK  11 active torsions:
REMARK  status: ('A' for Active; 'I' for Inactive)
REMARK    1  A    between atoms: C2_2  and  C4_4 
REMARK    2  A    between atoms: C4_4  and  C5_5 
REMARK    3  A    between atoms: C5_5  and  O1_6 
REMARK    4  A    between atoms: O1_6  and  C6_7 
REMARK    5  A    between atoms: C8_9  and  C9_10 
REMARK    6  A    between atoms: C10_12  and  C11_13 
REMARK    7  A    between atoms: C11_13  and  O3_14 
REMARK    8  A    between atoms: C12_16  and  O4_17 
REMARK    9  A    between atoms: C13_19  and  O5_20 
REMARK   10  A    between atoms: C14_22  and  O6_23 
REMARK   11  A    between atoms: O6_23  and  C15_24 
ROOT
HETATM    1  C9  UNL     1      -1.178  -0.075   0.256  1.00  0.00     0.187 C 
HETATM    2  O2  UNL     1      -0.896  -1.389   0.624  1.00  0.00    -0.368 OA
HETATM    3  C10 UNL     1      -1.384  -2.319  -0.258  1.00  0.00     0.177 C 
HETATM    4  C12 UNL     1      -2.894  -2.442  -0.166  1.00  0.00     0.180 C 
HETATM    5  C13 UNL     1      -3.456  -1.043  -0.113  1.00  0.00     0.181 C 
HETATM    6  C14 UNL     1      -2.409  -0.039  -0.585  1.00  0.00     0.192 C 
ENDROOT
BRANCH   1   7
HETATM    7  C8  UNL     1       0.007   0.417  -0.473  1.00  0.00    -0.022 A 
HETATM    8  C7  UNL     1       1.296   0.142   0.010  1.00  0.00     0.049 A 
HETATM    9  C6  UNL     1       2.427   0.584  -0.636  1.00  0.00     0.106 A 
HETATM   10  C21 UNL     1       2.238   1.318  -1.790  1.00  0.00     0.119 A 
HETATM   11  C20 UNL     1       0.977   1.596  -2.276  1.00  0.00     0.088 A 
HETATM   12  N2  UNL     1       3.103   1.882  -2.637  1.00  0.00    -0.237 N 
HETATM   13  C19 UNL     1      -0.170   1.148  -1.621  1.00  0.00     0.043 A 
HETATM   14  N1  UNL     1       1.143   2.313  -3.390  1.00  0.00    -0.239 N 
HETATM   15  O7  UNL     1       2.420   2.470  -3.582  1.00  0.00    -0.156 OA
ATOM     16  H1  UNL     1       0.399   2.674  -3.986  1.00  0.00     0.197 HD
ATOM     17  H2  UNL     1       4.120   1.858  -2.559  1.00  0.00     0.197 HD
BRANCH   9  18
HETATM   18  O1  UNL     1       3.692   0.304  -0.148  1.00  0.00    -0.320 OA
BRANCH  18  19
HETATM   19  C5  UNL     1       3.880  -0.441   1.024  1.00  0.00     0.143 C 
BRANCH  19  20
HETATM   20  C4  UNL     1       5.256  -0.656   1.415  1.00  0.00     0.026 C 
BRANCH  20  21
HETATM   21  C2  UNL     1       6.336  -0.246   0.818  1.00  0.00    -0.086 C 
HETATM   22  C1  UNL     1       6.277   0.550  -0.428  1.00  0.00     0.043 C 
HETATM   23  C3  UNL     1       7.713  -0.557   1.360  1.00  0.00     0.043 C 
ENDBRANCH  20  21
ENDBRANCH  19  20
ENDBRANCH  18  19
ENDBRANCH   9  18
ENDBRANCH   1   7
BRANCH   6  24
HETATM   24  O6  UNL     1      -3.079   1.212  -0.565  1.00  0.00    -0.352 OA
BRANCH  24  25
HETATM   25  C15 UNL     1      -3.574   1.770   0.604  1.00  0.00     0.137 C 
HETATM   26  C16 UNL     1      -4.563   2.618   0.655  1.00  0.00    -0.066 C 
HETATM   27  C17 UNL     1      -5.240   3.051  -0.579  1.00  0.00     0.045 C 
HETATM   28  C18 UNL     1      -5.015   3.155   1.947  1.00  0.00     0.045 C 
ENDBRANCH  24  25
ENDBRANCH   6  24
BRANCH   3  29
HETATM   29  C11 UNL     1      -0.814  -3.674   0.146  1.00  0.00     0.198 C 
BRANCH  29  30
HETATM   30  O3  UNL     1      -1.238  -3.937   1.446  1.00  0.00    -0.398 OA
ATOM     31  H3  UNL     1      -0.883  -4.781   1.698  1.00  0.00     0.209 HD
ENDBRANCH  29  30
ENDBRANCH   3  29
BRANCH   5  32
HETATM   32  O5  UNL     1      -4.520  -0.978  -1.012  1.00  0.00    -0.390 OA
ATOM     33  H5  UNL     1      -4.874  -0.097  -0.979  1.00  0.00     0.210 HD
ENDBRANCH   5  32
BRANCH   4  34
HETATM   34  O4  UNL     1      -3.316  -3.117  -1.316  1.00  0.00    -0.390 OA
ATOM     35  H4  UNL     1      -4.261  -3.194  -1.258  1.00  0.00     0.210 HD
ENDBRANCH   4  34
TORSDOF 11
