REMARK  9 active torsions:
REMARK  status: ('A' for Active; 'I' for Inactive)
REMARK    1  A    between atoms: C2_3  and  O1_7 
REMARK    2  A    between atoms: O1_7  and  C3_8 
REMARK    3  A    between atoms: C3_8  and  C4_9 
REMARK    4  A    between atoms: C5_11  and  C6_12 
REMARK    5  A    between atoms: C6_12  and  O3_13 
REMARK    6  A    between atoms: C6_12  and  C7_15 
REMARK    7  A    between atoms: N3_18  and  C10_19 
REMARK    8  A    between atoms: C10_19  and  C11_20 
REMARK    9  A    between atoms: C19_29  and  O4_30 
ROOT
HETATM    1  N1  UNL     1       7.463   3.976  -1.798  1.00  0.00    -0.188 NA
HETATM    2  C1  UNL     1       6.865   3.174  -1.209  1.00  0.00     0.144 C 
HETATM    3  C2  UNL     1       6.080   2.146  -0.497  1.00  0.00     0.220 C 
HETATM    4  N2  UNL     1       4.915   2.487   0.005  1.00  0.00    -0.371 N 
ATOM      5  H21 UNL     1       4.373   1.777   0.497  1.00  0.00     0.158 HD
ATOM      6  H22 UNL     1       4.632   3.459  -0.117  1.00  0.00     0.158 HD
ENDROOT
BRANCH   3   7
HETATM    7  O1  UNL     1       6.434   0.932  -0.345  1.00  0.00    -0.321 OA
BRANCH   7   8
HETATM    8  C3  UNL     1       6.575  -0.291   0.006  1.00  0.00     0.244 C 
BRANCH   8   9
HETATM    9  C4  UNL     1       5.317  -1.117  -0.165  1.00  0.00     0.098 A 
HETATM   10  O2  UNL     1       4.280  -1.137   0.587  1.00  0.00    -0.313 OA
HETATM   11  C5  UNL     1       3.354  -2.016   0.140  1.00  0.00     0.084 A 
HETATM   12  C20 UNL     1       3.877  -2.581  -0.992  1.00  0.00     0.060 A 
HETATM   13  C21 UNL     1       5.091  -2.034  -1.190  1.00  0.00     0.079 A 
HETATM   14  C22 UNL     1       5.989  -2.216  -2.305  1.00  0.00     0.102 C 
HETATM   15  N5  UNL     1       6.716  -2.311  -3.193  1.00  0.00    -0.191 NA
BRANCH  11  16
HETATM   16  C6  UNL     1       2.126  -2.184   0.892  1.00  0.00     0.182 C 
BRANCH  16  17
HETATM   17  O3  UNL     1       1.969  -3.628   1.007  1.00  0.00    -0.388 OA
ATOM     18  H3  UNL     1       1.164  -3.738   1.500  1.00  0.00     0.210 HD
ENDBRANCH  16  17
BRANCH  16  19
HETATM   19  C7  UNL     1       0.822  -1.771   0.188  1.00  0.00     0.056 C 
HETATM   20  C8  UNL     1       0.991  -0.342  -0.294  1.00  0.00     0.030 C 
HETATM   21  C9  UNL     1      -0.201   0.474  -0.406  1.00  0.00     0.127 C 
HETATM   22  N3  UNL     1      -1.462  -0.235  -0.208  1.00  0.00    -0.370 N 
HETATM   23  C18 UNL     1      -1.507  -1.116   0.822  1.00  0.00     0.095 C 
HETATM   24  C19 UNL     1      -0.205  -1.624   1.355  1.00  0.00     0.163 C 
BRANCH  22  25
HETATM   25  C10 UNL     1      -2.464   0.693  -0.514  1.00  0.00     0.087 C 
BRANCH  25  26
HETATM   26  C11 UNL     1      -3.907   0.430  -0.501  1.00  0.00     0.081 C 
HETATM   27  C12 UNL     1      -4.279  -0.729  -1.326  1.00  0.00     0.074 C 
HETATM   28  N4  UNL     1      -4.561  -1.652  -1.942  1.00  0.00    -0.196 NA
HETATM   29  C13 UNL     1      -4.595   0.604   0.771  1.00  0.00     0.030 C 
HETATM   30  C14 UNL     1      -5.133   2.026   1.010  1.00  0.00     0.002 C 
HETATM   31  C15 UNL     1      -6.340   2.233   0.123  1.00  0.00     0.000 C 
HETATM   32  C16 UNL     1      -5.978   1.576  -1.201  1.00  0.00     0.002 C 
HETATM   33  C17 UNL     1      -4.502   1.629  -1.407  1.00  0.00     0.030 C 
ENDBRANCH  25  26
ENDBRANCH  22  25
BRANCH  24  34
HETATM   34  O4  UNL     1       0.383  -0.720   2.292  1.00  0.00    -0.390 OA
ATOM     35  H4  UNL     1      -0.242  -0.631   3.002  1.00  0.00     0.210 HD
ENDBRANCH  24  34
ENDBRANCH  16  19
ENDBRANCH  11  16
ENDBRANCH   8   9
ENDBRANCH   7   8
ENDBRANCH   3   7
TORSDOF 9
