REMARK  8 active torsions:
REMARK  status: ('A' for Active; 'I' for Inactive)
REMARK    1  A    between atoms: O1_2  and  C2_3 
REMARK    2  A    between atoms: C8_11  and  O2_12 
REMARK    3  A    between atoms: C10_14  and  O3_15 
REMARK    4  A    between atoms: C12_17  and  O4_18 
REMARK    5  A    between atoms: C14_20  and  O5_21 
REMARK    6  A    between atoms: C17_24  and  O6_25 
REMARK    7  A    between atoms: C18_27  and  O7_28 
REMARK    8  A    between atoms: C21_32  and  O8_33 
ROOT
HETATM    1  C2  UNL     1       3.088   0.177  -1.412  1.00  0.00     0.102 A 
HETATM    2  C3  UNL     1       2.173  -0.231  -0.444  1.00  0.00     0.051 A 
HETATM    3  C4  UNL     1       2.273   0.111   0.873  1.00  0.00    -0.024 A 
HETATM    4  C5  UNL     1       1.348  -0.273   1.901  1.00  0.00    -0.008 C 
HETATM    5  C6  UNL     1       0.071  -0.392   1.825  1.00  0.00    -0.016 C 
HETATM    6  C7  UNL     1      -0.890  -0.204   0.775  1.00  0.00     0.078 A 
HETATM    7  N1  UNL     1      -1.413  -1.334   0.171  1.00  0.00    -0.332 N 
ATOM      8  H1  UNL     1      -1.031  -2.243   0.432  1.00  0.00     0.168 HD
HETATM    9  C8  UNL     1      -2.386  -1.295  -0.730  1.00  0.00     0.179 A 
HETATM   10  C10 UNL     1      -2.951  -0.112  -1.132  1.00  0.00     0.156 A 
HETATM   11  C12 UNL     1      -2.467   1.039  -0.564  1.00  0.00     0.141 A 
HETATM   12  C14 UNL     1      -1.424   0.975   0.399  1.00  0.00     0.132 A 
HETATM   13  C16 UNL     1      -0.433  -0.826   3.213  1.00  0.00     0.076 C 
HETATM   14  C17 UNL     1       0.756  -1.586   3.706  1.00  0.00     0.155 C 
HETATM   15  C18 UNL     1       1.867  -0.615   3.284  1.00  0.00     0.181 C 
HETATM   16  C19 UNL     1       3.361   0.910   1.228  1.00  0.00     0.015 A 
HETATM   17  C20 UNL     1       4.282   1.328   0.296  1.00  0.00     0.040 A 
HETATM   18  C21 UNL     1       4.160   0.972  -1.015  1.00  0.00     0.099 A 
ENDROOT
BRANCH  15  19
HETATM   19  O7  UNL     1       3.076  -1.257   3.250  1.00  0.00    -0.388 OA
ATOM     20  H7  UNL     1       3.401  -1.471   4.117  1.00  0.00     0.210 HD
ENDBRANCH  15  19
BRANCH  12  21
HETATM   21  O5  UNL     1      -1.030   2.183   0.889  1.00  0.00    -0.351 OA
HETATM   22  C15 UNL     1      -0.138   3.010   0.193  1.00  0.00     0.210 C 
ENDBRANCH  12  21
BRANCH  14  23
HETATM   23  O6  UNL     1       0.799  -1.713   5.082  1.00  0.00    -0.392 OA
ATOM     24  H6  UNL     1       1.555  -2.196   5.395  1.00  0.00     0.210 HD
ENDBRANCH  14  23
BRANCH   9  25
HETATM   25  O2  UNL     1      -2.851  -2.468  -1.285  1.00  0.00    -0.339 OA
HETATM   26  C9  UNL     1      -2.274  -3.691  -0.875  1.00  0.00     0.211 C 
ENDBRANCH   9  25
BRANCH  11  27
HETATM   27  O4  UNL     1      -2.975   2.279  -0.911  1.00  0.00    -0.350 OA
HETATM   28  C13 UNL     1      -4.032   2.895  -0.207  1.00  0.00     0.210 C 
ENDBRANCH  11  27
BRANCH   1  29
HETATM   29  O1  UNL     1       2.955  -0.185  -2.722  1.00  0.00    -0.353 OA
HETATM   30  C1  UNL     1       1.975  -0.962  -3.321  1.00  0.00     0.210 C 
ENDBRANCH   1  29
BRANCH  10  31
HETATM   31  O3  UNL     1      -3.970  -0.042  -2.070  1.00  0.00    -0.349 OA
HETATM   32  C11 UNL     1      -3.817   0.072  -3.449  1.00  0.00     0.210 C 
ENDBRANCH  10  31
BRANCH  18  33
HETATM   33  O8  UNL     1       5.089   1.394  -1.954  1.00  0.00    -0.358 OA
ATOM     34  H8  UNL     1       5.820   1.936  -1.683  1.00  0.00     0.217 HD
ENDBRANCH  18  33
TORSDOF 8
