REMARK  11 active torsions:
REMARK  status: ('A' for Active; 'I' for Inactive)
REMARK    1  A    between atoms: C2_2  and  C3_3 
REMARK    2  A    between atoms: C3_3  and  C4_4 
REMARK    3  A    between atoms: C4_4  and  C5_5 
REMARK    4  A    between atoms: C5_5  and  C6_6 
REMARK    5  A    between atoms: C6_6  and  C7_7 
REMARK    6  A    between atoms: C8_8  and  N1_10 
REMARK    7  A    between atoms: N2_13  and  C11_14 
REMARK    8  A    between atoms: C12_16  and  C13_17 
REMARK    9  A    between atoms: C13_17  and  O3_18 
REMARK   10  A    between atoms: C14_20  and  O4_21 
REMARK   11  A    between atoms: C16_25  and  O6_26 
ROOT
HETATM    1  N1  UNL     1       0.223  -1.113   0.773  1.00  0.00    -0.266 N 
HETATM    2  C10 UNL     1       1.176  -0.185   0.605  1.00  0.00     0.337 A 
HETATM    3  O1  UNL     1       1.014   1.026   0.342  1.00  0.00    -0.246 OA
HETATM    4  N2  UNL     1       2.410  -0.684   0.752  1.00  0.00    -0.260 N 
HETATM    5  C17 UNL     1       2.202  -1.987   1.024  1.00  0.00     0.110 A 
HETATM    6  S1  UNL     1       2.975  -3.485   1.361  1.00  0.00    -0.082 SA
HETATM    7  C18 UNL     1       1.609  -4.472   1.523  1.00  0.00     0.054 A 
HETATM    8  C19 UNL     1       0.569  -3.603   1.309  1.00  0.00     0.040 A 
HETATM    9  C20 UNL     1       0.868  -2.313   1.051  1.00  0.00     0.078 A 
ENDROOT
BRANCH   4  10
HETATM   10  C11 UNL     1       3.689  -0.037   0.652  1.00  0.00     0.270 C 
HETATM   11  O2  UNL     1       4.178  -0.165  -0.602  1.00  0.00    -0.353 OA
HETATM   12  C12 UNL     1       4.782   0.836  -1.249  1.00  0.00     0.184 C 
HETATM   13  C14 UNL     1       4.367   2.234  -0.988  1.00  0.00     0.221 C 
HETATM   14  C15 UNL     1       3.764   2.449   0.348  1.00  0.00     0.190 C 
HETATM   15  O5  UNL     1       3.295   3.514   0.696  1.00  0.00    -0.292 OA
HETATM   16  C16 UNL     1       3.743   1.313   1.281  1.00  0.00     0.239 C 
BRANCH  12  17
HETATM   17  C13 UNL     1       6.318   0.779  -1.164  1.00  0.00     0.199 C 
BRANCH  17  18
HETATM   18  O3  UNL     1       6.768  -0.435  -1.735  1.00  0.00    -0.398 OA
ATOM     19  H3  UNL     1       7.716  -0.470  -1.683  1.00  0.00     0.209 HD
ENDBRANCH  17  18
ENDBRANCH  12  17
BRANCH  13  20
HETATM   20  O4  UNL     1       5.429   3.098  -1.231  1.00  0.00    -0.385 OA
ATOM     21  H4  UNL     1       5.163   3.994  -1.064  1.00  0.00     0.210 HD
ENDBRANCH  13  20
BRANCH  16  22
HETATM   22  O6  UNL     1       4.908   1.414   2.045  1.00  0.00    -0.383 OA
ATOM     23  H6  UNL     1       4.942   2.275   2.446  1.00  0.00     0.210 HD
ENDBRANCH  16  22
ENDBRANCH   4  10
BRANCH   1  24
HETATM   24  C8  UNL     1      -1.205  -0.934   0.637  1.00  0.00     0.014 C 
HETATM   25  C7  UNL     1      -1.707   0.123   0.105  1.00  0.00    -0.002 C 
HETATM   26  C9  UNL     1      -2.068  -1.994   1.192  1.00  0.00     0.068 C 
BRANCH  25  27
HETATM   27  C6  UNL     1      -3.168   0.471  -0.049  1.00  0.00     0.029 C 
BRANCH  27  28
HETATM   28  C5  UNL     1      -3.516   0.647  -1.479  1.00  0.00     0.004 C 
BRANCH  28  29
HETATM   29  C4  UNL     1      -4.907   1.023  -1.781  1.00  0.00     0.000 C 
BRANCH  29  30
HETATM   30  C3  UNL     1      -6.031   0.144  -1.466  1.00  0.00    -0.000 C 
BRANCH  30  31
HETATM   31  C2  UNL     1      -6.335  -0.243  -0.067  1.00  0.00    -0.005 C 
HETATM   32  C1  UNL     1      -6.589   0.930   0.839  1.00  0.00     0.005 C 
ENDBRANCH  30  31
ENDBRANCH  29  30
ENDBRANCH  28  29
ENDBRANCH  27  28
ENDBRANCH  25  27
ENDBRANCH   1  24
TORSDOF 11
