REMARK  13 active torsions:
REMARK  status: ('A' for Active; 'I' for Inactive)
REMARK    1  A    between atoms: C2_2  and  S1_3 
REMARK    2  A    between atoms: S1_3  and  N1_6 
REMARK    3  A    between atoms: N1_6  and  C3_8 
REMARK    4  A    between atoms: C3_8  and  C4_9 
REMARK    5  A    between atoms: C3_8  and  C19_40 
REMARK       I    between atoms: C4_9  and  N2_11 
REMARK    6  A    between atoms: N2_11  and  C5_13 
REMARK    7  A    between atoms: C6_18  and  C7_19 
REMARK    8  A    between atoms: C7_19  and  C8_20 
REMARK    9  A    between atoms: C8_20  and  C9_21 
REMARK   10  A    between atoms: C9_21  and  C10_22 
REMARK   11  A    between atoms: C10_22  and  C11_23 
REMARK       I    between atoms: N7_29  and  C13_31 
REMARK   12  A    between atoms: C13_31  and  C14_33 
REMARK   13  A    between atoms: C14_33  and  C15_34 
ROOT
HETATM    1  C5  UNL     1       3.166  -1.537   1.273  1.00  0.00     0.167 A 
HETATM    2  N3  UNL     1       2.635  -2.097   2.360  1.00  0.00    -0.279 N 
ATOM      3  H3  UNL     1       3.231  -2.510   3.077  1.00  0.00     0.189 HD
HETATM    4  N4  UNL     1       1.370  -2.105   2.483  1.00  0.00    -0.296 N 
ATOM      5  H4  UNL     1       0.943  -2.528   3.307  1.00  0.00     0.187 HD
HETATM    6  C6  UNL     1       0.603  -1.566   1.544  1.00  0.00     0.069 A 
HETATM    7  S3  UNL     1       1.777  -1.020   0.427  1.00  0.00    -0.038 SA
ENDROOT
BRANCH   6   8
HETATM    8  C7  UNL     1      -0.905  -1.483   1.513  1.00  0.00     0.066 C 
BRANCH   8   9
HETATM    9  C8  UNL     1      -1.318  -0.193   2.186  1.00  0.00     0.007 C 
BRANCH   9  10
HETATM   10  C9  UNL     1      -0.778   1.025   1.499  1.00  0.00     0.007 C 
BRANCH  10  11
HETATM   11  C10 UNL     1      -1.288   1.102   0.080  1.00  0.00     0.066 C 
BRANCH  11  12
HETATM   12  C11 UNL     1      -2.792   1.187   0.084  1.00  0.00     0.069 A 
HETATM   13  N5  UNL     1      -3.686   0.213   0.043  1.00  0.00    -0.296 N 
HETATM   14  N6  UNL     1      -4.926   0.475   0.054  1.00  0.00    -0.279 N 
ATOM     15  H5  UNL     1      -3.375  -0.757   0.002  1.00  0.00     0.187 HD
HETATM   16  C12 UNL     1      -5.317   1.751   0.107  1.00  0.00     0.167 A 
ATOM     17  H6  UNL     1      -5.615  -0.277   0.023  1.00  0.00     0.189 HD
HETATM   18  N7  UNL     1      -6.532   2.245   0.127  1.00  0.00    -0.306 N 
HETATM   19  S2  UNL     1      -3.806   2.568   0.141  1.00  0.00    -0.038 SA
HETATM   20  C13 UNL     1      -7.600   1.311   0.088  1.00  0.00     0.224 C 
ATOM     21  H7  UNL     1      -6.701   3.250   0.169  1.00  0.00     0.171 HD
HETATM   22  O4  UNL     1      -8.004   0.860   1.190  1.00  0.00    -0.273 OA
BRANCH  20  23
HETATM   23  C14 UNL     1      -8.150   0.942  -1.224  1.00  0.00     0.111 C 
BRANCH  23  24
HETATM   24  C15 UNL     1      -9.270  -0.047  -1.151  1.00  0.00    -0.043 C 
HETATM   25  C16 UNL     1      -8.801  -1.317  -0.504  1.00  0.00     0.015 C 
HETATM   26  C17 UNL     1      -9.649  -0.392  -2.598  1.00  0.00     0.015 C 
HETATM   27  C18 UNL     1     -10.496   0.528  -0.490  1.00  0.00     0.015 C 
ENDBRANCH  23  24
ENDBRANCH  20  23
ENDBRANCH  11  12
ENDBRANCH  10  11
ENDBRANCH   9  10
ENDBRANCH   8   9
ENDBRANCH   6   8
BRANCH   1  28
HETATM   28  N2  UNL     1       4.447  -1.451   1.003  1.00  0.00    -0.304 N 
HETATM   29  C4  UNL     1       4.908  -0.849  -0.159  1.00  0.00     0.247 C 
HETATM   30  O3  UNL     1       4.178  -0.616  -1.131  1.00  0.00    -0.271 OA
ATOM     31  H2  UNL     1       5.121  -1.837   1.664  1.00  0.00     0.171 HD
BRANCH  29  32
HETATM   32  C3  UNL     1       6.367  -0.449  -0.262  1.00  0.00     0.188 C 
BRANCH  32  33
HETATM   33  N1  UNL     1       6.590   0.147  -1.536  1.00  0.00    -0.305 N 
ATOM     34  H1  UNL     1       6.228   1.074  -1.761  1.00  0.00     0.173 HD
BRANCH  33  35
HETATM   35  S1  UNL     1       7.481  -0.750  -2.658  1.00  0.00     0.227 S 
HETATM   36  O1  UNL     1       7.540   0.072  -3.943  1.00  0.00    -0.206 OA
HETATM   37  O2  UNL     1       6.795  -2.032  -3.063  1.00  0.00    -0.206 OA
BRANCH  35  38
HETATM   38  C2  UNL     1       9.127  -1.138  -2.217  1.00  0.00     0.158 C 
HETATM   39  C1  UNL     1      10.027   0.035  -2.004  1.00  0.00     0.023 C 
ENDBRANCH  35  38
ENDBRANCH  33  35
ENDBRANCH  32  33
BRANCH  32  40
HETATM   40  C19 UNL     1       6.617   0.462   0.910  1.00  0.00     0.010 C 
HETATM   41  C20 UNL     1       5.704   1.678   0.822  1.00  0.00     0.012 C 
HETATM   42  C21 UNL     1       8.038   0.803   1.172  1.00  0.00     0.012 C 
ENDBRANCH  32  40
ENDBRANCH  29  32
ENDBRANCH   1  28
TORSDOF 13
