REMARK  13 active torsions:
REMARK  status: ('A' for Active; 'I' for Inactive)
REMARK    1  A    between atoms: C2_2  and  N1_3 
REMARK    2  A    between atoms: N1_3  and  C3_4 
REMARK    3  A    between atoms: C3_4  and  C4_5 
REMARK    4  A    between atoms: C4_5  and  N2_6 
REMARK    5  A    between atoms: N2_6  and  C5_8 
REMARK    6  A    between atoms: N4_12  and  C7_14 
REMARK    7  A    between atoms: C7_14  and  C8_15 
REMARK    8  A    between atoms: C8_15  and  C9_16 
REMARK    9  A    between atoms: C9_16  and  C10_17 
REMARK   10  A    between atoms: C10_17  and  N5_18 
REMARK   11  A    between atoms: N9_31  and  C17_32 
REMARK   12  A    between atoms: C20_35  and  O1_36 
REMARK   13  A    between atoms: C23_39  and  O2_40 
ROOT
HETATM    1  C5  UNL     1       0.522  -0.391  -0.957  1.00  0.00     0.151 A 
HETATM    2  N3  UNL     1      -0.301  -1.216  -0.308  1.00  0.00    -0.174 N 
ATOM      3  H3  UNL     1      -0.120  -2.220  -0.305  1.00  0.00     0.186 HD
HETATM    4  C6  UNL     1      -1.389  -0.714   0.354  1.00  0.00     0.681 A 
HETATM    5  N4  UNL     1      -2.177  -1.532   0.978  1.00  0.00    -0.226 N 
ATOM      6  H4  UNL     1      -2.984  -1.145   1.467  1.00  0.00     0.177 HD
HETATM    7  N7  UNL     1      -1.669   0.597   0.378  1.00  0.00    -0.174 N 
ATOM      8  H7  UNL     1      -2.487   0.943   0.880  1.00  0.00     0.186 HD
HETATM    9  C14 UNL     1      -0.867   1.436  -0.260  1.00  0.00     0.155 A 
HETATM   10  C15 UNL     1       0.233   0.964  -0.933  1.00  0.00     0.123 A 
HETATM   11  N8  UNL     1       0.832   2.015  -1.461  1.00  0.00    -0.346 N 
ATOM     12  H8  UNL     1       1.682   1.991  -2.024  1.00  0.00     0.167 HD
HETATM   13  C16 UNL     1       0.152   3.105  -1.143  1.00  0.00     0.185 A 
HETATM   14  N9  UNL     1      -0.943   2.791  -0.377  1.00  0.00    -0.319 N 
ENDROOT
BRANCH   1  15
HETATM   15  N2  UNL     1       1.528  -0.810  -1.577  1.00  0.00    -0.352 N 
ATOM     16  H2  UNL     1       2.061  -0.063  -2.024  1.00  0.00     0.166 HD
BRANCH  15  17
HETATM   17  C4  UNL     1       2.082  -2.084  -1.791  1.00  0.00     0.090 C 
BRANCH  17  18
HETATM   18  C3  UNL     1       3.219  -2.484  -0.933  1.00  0.00     0.281 C 
BRANCH  18  19
HETATM   19  N1  UNL     1       4.405  -1.682  -0.954  1.00  0.00    -0.063 N 
HETATM   20  C24 UNL     1       4.297  -0.771   0.187  1.00  0.00     0.238 C 
HETATM   21  C25 UNL     1       5.533   0.042   0.428  1.00  0.00     0.028 C 
HETATM   22  C26 UNL     1       6.710  -0.709   0.937  1.00  0.00     0.002 C 
HETATM   23  C27 UNL     1       6.390  -2.027   1.582  1.00  0.00     0.002 C 
HETATM   24  C28 UNL     1       5.654  -2.979   0.710  1.00  0.00     0.028 C 
HETATM   25  C29 UNL     1       5.575  -2.531  -0.735  1.00  0.00     0.238 C 
BRANCH  19  26
HETATM   26  C2  UNL     1       4.502  -0.901  -2.127  1.00  0.00     0.233 C 
HETATM   27  C1  UNL     1       5.828  -1.043  -2.851  1.00  0.00     0.035 C 
ENDBRANCH  19  26
ENDBRANCH  18  19
ENDBRANCH  17  18
ENDBRANCH  15  17
ENDBRANCH   1  15
BRANCH   5  28
HETATM   28  C7  UNL     1      -1.977  -2.956   1.019  1.00  0.00     0.138 C 
BRANCH  28  29
HETATM   29  C8  UNL     1      -2.938  -3.538   2.030  1.00  0.00     0.022 C 
BRANCH  29  30
HETATM   30  C9  UNL     1      -4.339  -3.221   1.632  1.00  0.00     0.022 C 
BRANCH  30  31
HETATM   31  C10 UNL     1      -4.648  -3.806   0.287  1.00  0.00     0.129 C 
BRANCH  31  32
HETATM   32  N5  UNL     1      -6.018  -3.505  -0.096  1.00  0.00    -0.352 N 
HETATM   33  C11 UNL     1      -6.401  -2.412  -0.784  1.00  0.00     0.108 A 
HETATM   34  C12 UNL     1      -7.754  -2.498  -0.941  1.00  0.00     0.106 A 
HETATM   35  N6  UNL     1      -8.160  -3.620  -0.357  1.00  0.00    -0.361 N 
HETATM   36  C13 UNL     1      -7.087  -4.271   0.182  1.00  0.00     0.182 A 
ATOM     37  H6  UNL     1      -9.126  -3.946  -0.317  1.00  0.00     0.166 HD
ENDBRANCH  31  32
ENDBRANCH  30  31
ENDBRANCH  29  30
ENDBRANCH  28  29
ENDBRANCH   5  28
BRANCH  14  38
HETATM   38  C17 UNL     1      -1.828   3.770   0.091  1.00  0.00     0.125 C 
HETATM   39  C18 UNL     1      -1.300   4.560   1.302  1.00  0.00     0.035 C 
HETATM   40  C19 UNL     1      -2.169   5.766   1.471  1.00  0.00     0.066 C 
HETATM   41  C20 UNL     1      -3.403   5.797   0.674  1.00  0.00     0.044 C 
HETATM   42  C22 UNL     1      -4.001   4.763   0.112  1.00  0.00     0.038 C 
HETATM   43  C23 UNL     1      -3.229   3.477   0.398  1.00  0.00     0.166 C 
BRANCH  41  44
HETATM   44  O1  UNL     1      -4.020   7.055   0.483  1.00  0.00    -0.360 OA
HETATM   45  C21 UNL     1      -3.326   8.038  -0.281  1.00  0.00     0.209 C 
ENDBRANCH  41  44
BRANCH  43  46
HETATM   46  O2  UNL     1      -3.444   3.425   1.809  1.00  0.00    -0.390 OA
ATOM     47  H2  UNL     1      -4.353   3.235   2.008  1.00  0.00     0.210 HD
ENDBRANCH  43  46
ENDBRANCH  14  38
TORSDOF 13
