REMARK  15 active torsions:
REMARK  status: ('A' for Active; 'I' for Inactive)
REMARK    1  A    between atoms: O1_2  and  C2_3 
REMARK    2  A    between atoms: C2_3  and  C3_4 
REMARK    3  A    between atoms: C3_4  and  C4_5 
REMARK    4  A    between atoms: C4_5  and  O2_6 
REMARK    5  A    between atoms: O2_6  and  C5_7 
REMARK       I    between atoms: C5_7  and  N1_9 
REMARK    6  A    between atoms: N2_12  and  C8_13 
REMARK    7  A    between atoms: C8_13  and  C9_14 
REMARK    8  A    between atoms: C9_14  and  C10_15 
REMARK    9  A    between atoms: C10_15  and  N3_16 
REMARK   10  A    between atoms: C14_23  and  N5_24 
REMARK   11  A    between atoms: N5_24  and  C15_26 
REMARK   12  A    between atoms: C15_26  and  C16_27 
REMARK   13  A    between atoms: C19_30  and  N6_31 
REMARK       I    between atoms: N6_31  and  C20_33 
REMARK   14  A    between atoms: C20_33  and  O5_35 
REMARK   15  A    between atoms: O5_35  and  C21_36 
ROOT
HETATM    1  N3  UNL     1       1.776  -0.409   1.564  1.00  0.00    -0.226 N 
ATOM      2  H3  UNL     1       2.577   0.153   1.851  1.00  0.00     0.177 HD
HETATM    3  C11 UNL     1       0.842   0.332   1.204  1.00  0.00     0.679 A 
HETATM    4  N4  UNL     1       1.097   1.682   1.276  1.00  0.00    -0.202 N 
ATOM      5  H4  UNL     1       2.002   2.017   1.606  1.00  0.00     0.183 HD
HETATM    6  C12 UNL     1       0.154   2.547   0.912  1.00  0.00     0.110 A 
HETATM    7  C13 UNL     1      -1.070   2.098   0.464  1.00  0.00     0.066 A 
HETATM    8  C14 UNL     1      -1.336   0.740   0.387  1.00  0.00     0.118 A 
HETATM    9  N7  UNL     1      -0.366  -0.108   0.762  1.00  0.00    -0.177 N 
ATOM     10  H7  UNL     1      -0.540  -1.112   0.714  1.00  0.00     0.185 HD
ENDROOT
BRANCH   1  11
HETATM   11  C10 UNL     1       2.071  -1.762   1.698  1.00  0.00     0.140 C 
BRANCH  11  12
HETATM   12  C9  UNL     1       3.540  -1.949   2.163  1.00  0.00     0.050 C 
BRANCH  12  13
HETATM   13  C8  UNL     1       4.450  -1.328   1.150  1.00  0.00     0.276 C 
BRANCH  13  14
HETATM   14  N2  UNL     1       5.833  -1.345   1.417  1.00  0.00     0.107 N 
HETATM   15  C7  UNL     1       6.530  -2.571   1.402  1.00  0.00     0.294 C 
HETATM   16  C6  UNL     1       7.610  -2.474   0.337  1.00  0.00     0.160 C 
HETATM   17  N1  UNL     1       7.747  -1.056   0.149  1.00  0.00    -0.300 N 
HETATM   18  C5  UNL     1       8.927  -0.371  -0.249  1.00  0.00     0.364 C 
HETATM   19  C27 UNL     1       6.472  -0.455   0.447  1.00  0.00     0.402 C 
HETATM   20  O3  UNL     1       8.829   0.885  -0.389  1.00  0.00    -0.238 OA
BRANCH  18  21
HETATM   21  O2  UNL     1      10.131  -0.959  -0.485  1.00  0.00    -0.304 OA
BRANCH  21  22
HETATM   22  C4  UNL     1      11.302  -0.296  -0.877  1.00  0.00     0.182 C 
BRANCH  22  23
HETATM   23  C3  UNL     1      11.801   0.737   0.099  1.00  0.00     0.053 C 
BRANCH  23  24
HETATM   24  C2  UNL     1      13.070   1.385  -0.431  1.00  0.00     0.169 C 
BRANCH  24  25
HETATM   25  O1  UNL     1      13.588   2.360   0.370  1.00  0.00    -0.396 OA
HETATM   26  C1  UNL     1      13.959   1.991   1.637  1.00  0.00     0.201 C 
ENDBRANCH  24  25
ENDBRANCH  23  24
ENDBRANCH  22  23
ENDBRANCH  21  22
ENDBRANCH  18  21
ENDBRANCH  13  14
ENDBRANCH  12  13
ENDBRANCH  11  12
ENDBRANCH   1  11
BRANCH   8  27
HETATM   27  N5  UNL     1      -2.506   0.306  -0.033  1.00  0.00    -0.376 N 
ATOM     28  H5  UNL     1      -2.717  -0.690  -0.096  1.00  0.00     0.161 HD
BRANCH  27  29
HETATM   29  C15 UNL     1      -3.471   1.306  -0.398  1.00  0.00     0.126 C 
BRANCH  29  30
HETATM   30  C16 UNL     1      -4.803   0.781  -0.808  1.00  0.00     0.003 C 
HETATM   31  C17 UNL     1      -4.789  -0.120  -1.999  1.00  0.00     0.008 C 
HETATM   32  C18 UNL     1      -6.163  -0.759  -2.240  1.00  0.00     0.026 C 
HETATM   33  C19 UNL     1      -7.191   0.201  -1.761  1.00  0.00     0.086 C 
HETATM   34  C25 UNL     1      -6.725   1.614  -2.070  1.00  0.00     0.026 C 
HETATM   35  C26 UNL     1      -5.720   1.975  -0.996  1.00  0.00     0.008 C 
BRANCH  33  36
HETATM   36  N6  UNL     1      -8.534  -0.028  -2.174  1.00  0.00    -0.332 N 
HETATM   37  C20 UNL     1      -9.545  -0.227  -1.177  1.00  0.00     0.361 C 
HETATM   38  O4  UNL     1      -9.229  -0.204   0.062  1.00  0.00    -0.238 OA
ATOM     39  H6  UNL     1      -8.774  -0.050  -3.165  1.00  0.00     0.165 HD
BRANCH  37  40
HETATM   40  O5  UNL     1     -10.878  -0.447  -1.447  1.00  0.00    -0.294 OA
BRANCH  40  41
HETATM   41  C21 UNL     1     -11.838  -0.636  -0.407  1.00  0.00     0.061 C 
HETATM   42  C22 UNL     1     -11.569  -1.825   0.449  1.00  0.00     0.046 C 
HETATM   43  C23 UNL     1     -11.691   0.614   0.475  1.00  0.00     0.046 C 
HETATM   44  C24 UNL     1     -13.246  -0.627  -0.912  1.00  0.00     0.046 C 
ENDBRANCH  40  41
ENDBRANCH  37  40
ENDBRANCH  33  36
ENDBRANCH  29  30
ENDBRANCH  27  29
ENDBRANCH   8  27
TORSDOF 15
