REMARK  18 active torsions:
REMARK  status: ('A' for Active; 'I' for Inactive)
REMARK    1  A    between atoms: C2_2  and  C3_3 
REMARK    2  A    between atoms: C10_10  and  C11_11 
REMARK    3  A    between atoms: C11_11  and  N1_12 
REMARK    4  A    between atoms: C14_15  and  C15_16 
REMARK    5  A    between atoms: C15_16  and  N2_17 
REMARK       I    between atoms: N2_17  and  C16_19 
REMARK    6  A    between atoms: C16_19  and  C17_21 
REMARK    7  A    between atoms: C17_21  and  C18_22 
REMARK    8  A    between atoms: C17_21  and  N4_29 
REMARK    9  A    between atoms: C18_22  and  N3_23 
REMARK   10  A    between atoms: N3_23  and  C19_25 
REMARK   11  A    between atoms: N4_29  and  C23_31 
REMARK   12  A    between atoms: C23_31  and  C24_32 
REMARK   13  A    between atoms: C24_32  and  C26_34 
REMARK   14  A    between atoms: C28_38  and  C29_39 
REMARK   15  A    between atoms: C29_39  and  C30_40 
REMARK   16  A    between atoms: C30_40  and  C31_41 
REMARK   17  A    between atoms: C31_41  and  C32_42 
REMARK   18  A    between atoms: C32_42  and  N6_43 
ROOT
HETATM    1  N1  UNL     1       2.689  -0.189   0.305  1.00  0.00    -0.325 N 
HETATM    2  C12 UNL     1       1.984  -0.207   1.566  1.00  0.00     0.133 C 
HETATM    3  C13 UNL     1       0.489  -0.251   1.270  1.00  0.00     0.046 C 
HETATM    4  C14 UNL     1       0.038   1.147   0.824  1.00  0.00     0.096 C 
HETATM    5  N5  UNL     1       0.278   1.329  -0.546  1.00  0.00    -0.403 N 
ATOM      6  H5  UNL     1      -0.423   1.086  -1.247  1.00  0.00     0.154 HD
HETATM    7  C28 UNL     1       1.567   1.878  -0.922  1.00  0.00     0.170 C 
HETATM    8  C33 UNL     1       2.560   0.803  -0.741  1.00  0.00     0.246 C 
HETATM    9  O2  UNL     1       3.459   0.718  -1.646  1.00  0.00    -0.271 OA
ENDROOT
BRANCH   4  10
HETATM   10  C15 UNL     1      -1.417   1.261   1.169  1.00  0.00     0.147 C 
BRANCH  10  11
HETATM   11  N2  UNL     1      -2.258   0.247   0.535  1.00  0.00    -0.357 N 
HETATM   12  C16 UNL     1      -3.640   0.301   0.852  1.00  0.00     0.245 C 
HETATM   13  O1  UNL     1      -4.033   1.222   1.646  1.00  0.00    -0.271 OA
ATOM     14  H2  UNL     1      -1.875  -0.456  -0.097  1.00  0.00     0.162 HD
BRANCH  12  15
HETATM   15  C17 UNL     1      -4.614  -0.654   0.312  1.00  0.00     0.208 C 
BRANCH  15  16
HETATM   16  C18 UNL     1      -4.059  -1.819  -0.442  1.00  0.00     0.090 C 
BRANCH  16  17
HETATM   17  N3  UNL     1      -3.317  -1.683  -1.598  1.00  0.00    -0.392 N 
ATOM     18  H3  UNL     1      -2.320  -1.889  -1.541  1.00  0.00     0.159 HD
BRANCH  17  19
HETATM   19  C19 UNL     1      -3.818  -1.288  -2.837  1.00  0.00     0.018 C 
HETATM   20  C20 UNL     1      -4.351   0.084  -2.926  1.00  0.00     0.037 C 
HETATM   21  C21 UNL     1      -2.684  -1.386  -3.892  1.00  0.00     0.037 C 
HETATM   22  C22 UNL     1      -4.892  -2.232  -3.383  1.00  0.00     0.037 C 
ENDBRANCH  17  19
ENDBRANCH  16  17
ENDBRANCH  15  16
BRANCH  15  23
HETATM   23  N4  UNL     1      -5.532  -1.075   1.331  1.00  0.00    -0.405 N 
ATOM     24  H4  UNL     1      -5.525  -2.034   1.679  1.00  0.00     0.154 HD
BRANCH  23  25
HETATM   25  C23 UNL     1      -6.422  -0.149   1.826  1.00  0.00     0.119 C 
BRANCH  25  26
HETATM   26  C24 UNL     1      -7.298  -0.766   2.972  1.00  0.00    -0.002 C 
HETATM   27  C25 UNL     1      -6.273  -1.190   4.006  1.00  0.00     0.011 C 
BRANCH  26  28
HETATM   28  C26 UNL     1      -8.135   0.372   3.446  1.00  0.00     0.001 C 
HETATM   29  C27 UNL     1      -9.062   0.021   4.561  1.00  0.00     0.005 C 
ENDBRANCH  26  28
ENDBRANCH  25  26
ENDBRANCH  23  25
ENDBRANCH  15  23
ENDBRANCH  12  15
ENDBRANCH  10  11
ENDBRANCH   4  10
BRANCH   7  30
HETATM   30  C29 UNL     1       1.934   3.133  -0.214  1.00  0.00     0.034 C 
BRANCH  30  31
HETATM   31  C30 UNL     1       3.249   3.709  -0.661  1.00  0.00     0.004 C 
BRANCH  31  32
HETATM   32  C31 UNL     1       3.191   4.103  -2.112  1.00  0.00     0.027 C 
BRANCH  32  33
HETATM   33  C32 UNL     1       4.520   4.695  -2.573  1.00  0.00     0.229 C 
BRANCH  33  34
HETATM   34  N6  UNL     1       4.811   5.870  -1.762  1.00  0.00    -0.079 N 
ATOM     35  H63 UNL     1       4.053   6.552  -1.776  1.00  0.00     0.274 HD
ATOM     36  H62 UNL     1       4.799   5.668  -0.762  1.00  0.00     0.274 HD
ATOM     37  H61 UNL     1       5.699   6.266  -2.070  1.00  0.00     0.274 HD
ENDBRANCH  33  34
ENDBRANCH  32  33
ENDBRANCH  31  32
ENDBRANCH  30  31
ENDBRANCH   7  30
BRANCH   1  38
HETATM   38  C11 UNL     1       3.572  -1.224  -0.054  1.00  0.00     0.106 C 
BRANCH  38  39
HETATM   39  C10 UNL     1       4.980  -1.308   0.212  1.00  0.00    -0.008 A 
HETATM   40  C3  UNL     1       5.603  -2.452  -0.379  1.00  0.00    -0.046 A 
HETATM   41  C4  UNL     1       6.935  -2.686  -0.143  1.00  0.00     0.014 A 
HETATM   42  C5  UNL     1       7.675  -1.844   0.645  1.00  0.00    -0.061 A 
HETATM   43  C6  UNL     1       9.117  -2.133   0.874  1.00  0.00     0.048 C 
HETATM   44  C7  UNL     1       7.054  -0.760   1.195  1.00  0.00     0.014 A 
HETATM   45  C8  UNL     1       5.692  -0.449   1.004  1.00  0.00    -0.049 A 
HETATM   46  C9  UNL     1       5.161   0.737   1.713  1.00  0.00     0.049 C 
BRANCH  40  47
HETATM   47  C2  UNL     1       4.831  -3.364  -1.277  1.00  0.00     0.035 C 
HETATM   48  C1  UNL     1       4.742  -2.846  -2.702  1.00  0.00     0.010 C 
ENDBRANCH  40  47
ENDBRANCH  38  39
ENDBRANCH   1  38
TORSDOF 18
