REMARK  16 active torsions:
REMARK  status: ('A' for Active; 'I' for Inactive)
REMARK    1  A    between atoms: N1_2  and  C2_4 
REMARK    2  A    between atoms: C2_4  and  C3_5 
REMARK    3  A    between atoms: C2_4  and  C12_15 
REMARK    4  A    between atoms: C3_5  and  S1_6 
REMARK    5  A    between atoms: S1_6  and  C4_7 
REMARK    6  A    between atoms: C4_7  and  C5_8 
REMARK       I    between atoms: C12_15  and  N2_17 
REMARK    7  A    between atoms: N2_17  and  C13_19 
REMARK    8  A    between atoms: C13_19  and  C14_20 
REMARK    9  A    between atoms: C13_19  and  C22_31 
REMARK   10  A    between atoms: C14_20  and  C15_21 
REMARK   11  A    between atoms: C15_21  and  C16_22 
REMARK   12  A    between atoms: C16_22  and  C17_23 
REMARK       I    between atoms: C22_31  and  N4_33 
REMARK   13  A    between atoms: N4_33  and  C23_35 
REMARK   14  A    between atoms: C23_35  and  C24_36 
REMARK   15  A    between atoms: C24_36  and  N5_39 
REMARK       I    between atoms: N5_39  and  C27_41 
REMARK   16  A    between atoms: C27_41  and  C28_43 
ROOT
HETATM    1  C13 UNL     1       0.826  -0.584   0.038  1.00  0.00     0.176 C 
ENDROOT
BRANCH   1   2
HETATM    2  N2  UNL     1      -0.606  -0.548   0.187  1.00  0.00    -0.346 N 
HETATM    3  C12 UNL     1      -1.528  -0.463  -0.885  1.00  0.00     0.241 C 
HETATM    4  O1  UNL     1      -1.028  -0.423  -2.038  1.00  0.00    -0.271 OA
ATOM      5  H2  UNL     1      -0.984  -0.587   1.134  1.00  0.00     0.163 HD
BRANCH   3   6
HETATM    6  C2  UNL     1      -3.003  -0.423  -0.681  1.00  0.00     0.178 C 
BRANCH   6   7
HETATM    7  N1  UNL     1      -3.733  -0.402  -1.890  1.00  0.00    -0.413 N 
HETATM    8  C1  UNL     1      -3.525   0.696  -2.772  1.00  0.00     0.140 C 
ATOM      9  H1  UNL     1      -4.387  -1.149  -2.123  1.00  0.00     0.153 HD
ENDBRANCH   6   7
BRANCH   6  10
HETATM   10  C3  UNL     1      -3.313   0.711   0.218  1.00  0.00     0.108 C 
BRANCH  10  11
HETATM   11  S1  UNL     1      -4.897   0.939   0.913  1.00  0.00    -0.166 SA
BRANCH  11  12
HETATM   12  C4  UNL     1      -6.290   1.201  -0.108  1.00  0.00     0.079 C 
BRANCH  12  13
HETATM   13  C5  UNL     1      -6.991   0.033  -0.717  1.00  0.00    -0.001 C 
HETATM   14  C6  UNL     1      -8.154   0.604  -1.550  1.00  0.00     0.010 C 
HETATM   15  C7  UNL     1      -9.420   0.118  -0.928  1.00  0.00    -0.014 C 
HETATM   16  C8  UNL     1      -9.557  -1.349  -1.192  1.00  0.00     0.005 C 
HETATM   17  C11 UNL     1      -8.984   0.082   0.549  1.00  0.00     0.009 C 
HETATM   18  C9  UNL     1      -8.374  -1.932  -0.404  1.00  0.00     0.005 C 
HETATM   19  C10 UNL     1      -7.753  -0.758   0.336  1.00  0.00    -0.009 C 
ENDBRANCH  12  13
ENDBRANCH  11  12
ENDBRANCH  10  11
ENDBRANCH   6  10
ENDBRANCH   3   6
ENDBRANCH   1   2
BRANCH   1  20
HETATM   20  C14 UNL     1       1.602   0.378   0.854  1.00  0.00     0.035 C 
BRANCH  20  21
HETATM   21  C15 UNL     1       1.240   1.818   0.572  1.00  0.00     0.003 C 
BRANCH  21  22
HETATM   22  C16 UNL     1       2.094   2.761   1.405  1.00  0.00     0.006 C 
BRANCH  22  23
HETATM   23  C17 UNL     1       1.681   4.203   1.085  1.00  0.00     0.011 C 
HETATM   24  C18 UNL     1       1.870   4.513  -0.352  1.00  0.00     0.008 C 
HETATM   25  C19 UNL     1       2.489   5.830  -0.681  1.00  0.00     0.028 C 
HETATM   26  C20 UNL     1       3.363   6.389   0.401  1.00  0.00     0.232 C 
HETATM   27  N3  UNL     1       2.511   6.488   1.584  1.00  0.00    -0.075 N 
HETATM   28  C21 UNL     1       2.287   5.164   2.064  1.00  0.00     0.237 C 
ATOM     29  H32 UNL     1       2.892   7.110   2.297  1.00  0.00     0.277 HD
ATOM     30  H31 UNL     1       1.646   6.999   1.409  1.00  0.00     0.277 HD
ENDBRANCH  22  23
ENDBRANCH  21  22
ENDBRANCH  20  21
ENDBRANCH   1  20
BRANCH   1  31
HETATM   31  C22 UNL     1       1.278  -1.995   0.274  1.00  0.00     0.240 C 
HETATM   32  O2  UNL     1       0.379  -2.914   0.238  1.00  0.00    -0.271 OA
HETATM   33  N4  UNL     1       2.623  -2.325   0.527  1.00  0.00    -0.357 N 
ATOM     34  H4  UNL     1       3.333  -1.593   0.567  1.00  0.00     0.162 HD
BRANCH  33  35
HETATM   35  C23 UNL     1       2.992  -3.710   0.730  1.00  0.00     0.152 C 
BRANCH  35  36
HETATM   36  C24 UNL     1       4.458  -3.839   1.078  1.00  0.00     0.041 C 
HETATM   37  C25 UNL     1       4.763  -5.313   1.252  1.00  0.00     0.039 C 
HETATM   38  C26 UNL     1       4.595  -3.200   2.480  1.00  0.00     0.039 C 
BRANCH  36  39
HETATM   39  N5  UNL     1       5.335  -3.165   0.164  1.00  0.00    -0.351 N 
HETATM   40  C27 UNL     1       6.739  -3.112   0.346  1.00  0.00     0.221 C 
HETATM   41  O3  UNL     1       7.257  -3.674   1.341  1.00  0.00    -0.273 OA
ATOM     42  H5  UNL     1       4.930  -2.705  -0.651  1.00  0.00     0.163 HD
BRANCH  40  43
HETATM   43  C28 UNL     1       7.588  -2.393  -0.641  1.00  0.00     0.070 C 
HETATM   44  C29 UNL     1       9.017  -2.414  -0.157  1.00  0.00     0.019 C 
HETATM   45  C30 UNL     1       7.471  -3.059  -2.013  1.00  0.00     0.019 C 
ENDBRANCH  40  43
ENDBRANCH  36  39
ENDBRANCH  35  36
ENDBRANCH  33  35
ENDBRANCH   1  31
TORSDOF 16
