REMARK  15 active torsions:
REMARK  status: ('A' for Active; 'I' for Inactive)
REMARK    1  A    between atoms: C2_2  and  C3_3 
REMARK    2  A    between atoms: C3_3  and  N1_6 
REMARK       I    between atoms: N1_6  and  C6_8 
REMARK    3  A    between atoms: C6_8  and  C7_10 
REMARK    4  A    between atoms: C7_10  and  C8_11 
REMARK    5  A    between atoms: C7_10  and  C15_18 
REMARK    6  A    between atoms: C8_11  and  C9_12 
REMARK    7  A    between atoms: C15_18  and  C16_19 
REMARK    8  A    between atoms: C15_18  and  N6_44 
REMARK    9  A    between atoms: C16_19  and  N2_20 
REMARK       I    between atoms: N2_20  and  C17_22 
REMARK   10  A    between atoms: C17_22  and  C18_24 
REMARK       I    between atoms: C18_24  and  N3_26 
REMARK   11  A    between atoms: N3_26  and  C19_28 
REMARK   12  A    between atoms: C19_28  and  C20_29 
REMARK   13  A    between atoms: C19_28  and  C27_41 
REMARK   14  A    between atoms: C20_29  and  C21_31 
REMARK   15  A    between atoms: C22_34  and  C23_35 
ROOT
HETATM    1  N2  UNL     1      -0.056  -1.347   1.073  1.00  0.00    -0.351 N 
ATOM      2  H2  UNL     1      -0.142  -1.712   0.124  1.00  0.00     0.162 HD
HETATM    3  C17 UNL     1       1.207  -0.938   1.562  1.00  0.00     0.309 C 
HETATM    4  O2  UNL     1       1.308  -0.490   2.728  1.00  0.00    -0.262 OA
ENDROOT
BRANCH   1   5
HETATM    5  C16 UNL     1      -1.198  -1.250   1.898  1.00  0.00     0.152 C 
BRANCH   5   6
HETATM    6  C15 UNL     1      -2.509  -1.720   1.208  1.00  0.00     0.132 C 
BRANCH   6   7
HETATM    7  C7  UNL     1      -2.786  -0.873   0.034  1.00  0.00     0.030 C 
BRANCH   7   8
HETATM    8  C6  UNL     1      -3.018   0.546   0.185  1.00  0.00     0.250 C 
HETATM    9  N1  UNL     1      -4.211   1.265   0.364  1.00  0.00    -0.349 N 
ATOM     10  H1  UNL     1      -5.081   0.734   0.404  1.00  0.00     0.163 HD
HETATM   11  O1  UNL     1      -1.992   1.322   0.157  1.00  0.00    -0.268 OA
BRANCH   9  12
HETATM   12  C3  UNL     1      -4.297   2.704   0.496  1.00  0.00     0.025 C 
HETATM   13  C4  UNL     1      -3.462   3.224   1.653  1.00  0.00     0.038 C 
HETATM   14  C5  UNL     1      -3.783   3.405  -0.748  1.00  0.00     0.038 C 
BRANCH  12  15
HETATM   15  C2  UNL     1      -5.718   3.134   0.683  1.00  0.00     0.026 C 
HETATM   16  C1  UNL     1      -6.581   2.626  -0.460  1.00  0.00     0.007 C 
ENDBRANCH  12  15
ENDBRANCH   9  12
ENDBRANCH   7   8
BRANCH   7  17
HETATM   17  C8  UNL     1      -3.474  -1.556  -1.107  1.00  0.00    -0.007 C 
BRANCH  17  18
HETATM   18  C9  UNL     1      -4.923  -1.574  -1.247  1.00  0.00     0.009 C 
HETATM   19  C10 UNL     1      -5.761  -2.211  -0.203  1.00  0.00     0.008 C 
HETATM   20  C11 UNL     1      -7.117  -2.633  -0.762  1.00  0.00     0.001 C 
HETATM   21  C12 UNL     1      -7.548  -1.836  -1.947  1.00  0.00     0.000 C 
HETATM   22  C13 UNL     1      -6.564  -2.039  -3.077  1.00  0.00     0.001 C 
HETATM   23  C14 UNL     1      -5.199  -2.396  -2.541  1.00  0.00     0.008 C 
ENDBRANCH  17  18
ENDBRANCH   7  17
ENDBRANCH   6   7
BRANCH   6  24
HETATM   24  N6  UNL     1      -3.501  -1.943   2.184  1.00  0.00    -0.416 N 
HETATM   25  C30 UNL     1      -3.981  -0.871   2.959  1.00  0.00     0.140 C 
ATOM     26  H6  UNL     1      -3.871  -2.882   2.329  1.00  0.00     0.153 HD
ENDBRANCH   6  24
ENDBRANCH   5   6
ENDBRANCH   1   5
BRANCH   3  27
HETATM   27  C18 UNL     1       2.421  -1.022   0.737  1.00  0.00     0.310 C 
HETATM   28  O3  UNL     1       2.309  -1.462  -0.458  1.00  0.00    -0.262 OA
HETATM   29  N3  UNL     1       3.669  -0.632   1.245  1.00  0.00    -0.341 N 
ATOM     30  H3  UNL     1       3.748  -0.281   2.199  1.00  0.00     0.163 HD
BRANCH  29  31
HETATM   31  C19 UNL     1       4.846  -0.732   0.404  1.00  0.00     0.166 C 
BRANCH  31  32
HETATM   32  C20 UNL     1       5.546   0.561   0.372  1.00  0.00     0.215 C 
HETATM   33  O4  UNL     1       5.125   1.466   1.167  1.00  0.00    -0.287 OA
BRANCH  32  34
HETATM   34  C21 UNL     1       6.669   0.840  -0.508  1.00  0.00     0.154 A 
HETATM   35  N4  UNL     1       7.372   2.004  -0.506  1.00  0.00    -0.341 N 
HETATM   36  C22 UNL     1       8.350   1.910  -1.429  1.00  0.00     0.029 A 
ATOM     37  H4  UNL     1       7.190   2.810   0.092  1.00  0.00     0.167 HD
HETATM   38  C26 UNL     1       8.246   0.671  -2.005  1.00  0.00     0.115 A 
HETATM   39  N5  UNL     1       7.194   0.032  -1.412  1.00  0.00    -0.347 N 
ATOM     40  H5  UNL     1       6.869  -0.910  -1.630  1.00  0.00     0.167 HD
BRANCH  36  41
HETATM   41  C23 UNL     1       9.329   2.996  -1.713  1.00  0.00     0.029 C 
HETATM   42  C24 UNL     1      10.691   2.475  -1.290  1.00  0.00     0.016 C 
HETATM   43  C25 UNL     1       9.345   3.331  -3.191  1.00  0.00     0.016 C 
ENDBRANCH  36  41
ENDBRANCH  32  34
ENDBRANCH  31  32
BRANCH  31  44
HETATM   44  C27 UNL     1       5.778  -1.794   0.992  1.00  0.00     0.008 C 
HETATM   45  C28 UNL     1       6.191  -1.415   2.402  1.00  0.00     0.012 C 
HETATM   46  C29 UNL     1       5.044  -3.096   1.013  1.00  0.00     0.012 C 
ENDBRANCH  31  44
ENDBRANCH  29  31
ENDBRANCH   3  27
TORSDOF 15
