REMARK  18 active torsions:
REMARK  status: ('A' for Active; 'I' for Inactive)
REMARK    1  A    between atoms: C2_2  and  C3_3 
REMARK    2  A    between atoms: C3_3  and  N1_4 
REMARK    3  A    between atoms: C3_3  and  C28_41 
REMARK       I    between atoms: N1_4  and  C4_6 
REMARK    4  A    between atoms: C4_6  and  C5_8 
REMARK       I    between atoms: N2_11  and  C8_12 
REMARK    5  A    between atoms: C8_12  and  C9_14 
REMARK    6  A    between atoms: C9_14  and  O3_15 
REMARK    7  A    between atoms: C9_14  and  C10_17 
REMARK    8  A    between atoms: C11_18  and  C12_19 
REMARK    9  A    between atoms: C12_19  and  C13_20 
REMARK   10  A    between atoms: C12_19  and  N4_25 
REMARK   11  A    between atoms: C13_20  and  C14_21 
REMARK   12  A    between atoms: C14_21  and  C15_22 
REMARK   13  A    between atoms: N4_25  and  C16_27 
REMARK   14  A    between atoms: C16_27  and  C17_28 
REMARK   15  A    between atoms: C16_27  and  C24_35 
REMARK   16  A    between atoms: C17_28  and  C18_29 
REMARK   17  A    between atoms: C24_35  and  O5_36 
REMARK   18  A    between atoms: C24_35  and  C25_38 
ROOT
HETATM    1  C10 UNL     1       0.290  -0.876   1.211  1.00  0.00     0.012 C 
HETATM    2  C11 UNL     1      -0.815  -0.637   0.490  1.00  0.00    -0.003 C 
ENDROOT
BRANCH   2   3
HETATM    3  C12 UNL     1      -1.101   0.487  -0.373  1.00  0.00     0.100 C 
BRANCH   3   4
HETATM    4  C13 UNL     1      -0.116   1.632  -0.026  1.00  0.00     0.037 C 
BRANCH   4   5
HETATM    5  C14 UNL     1      -0.236   2.146   1.351  1.00  0.00     0.102 C 
BRANCH   5   6
HETATM    6  C15 UNL     1       0.777   3.252   1.596  1.00  0.00     0.231 C 
HETATM    7  N3  UNL     1       0.969   3.697   2.912  1.00  0.00    -0.062 NA
HETATM    8  O4  UNL     1       1.404   3.735   0.644  1.00  0.00    -0.277 OA
ENDBRANCH   5   6
ENDBRANCH   4   5
ENDBRANCH   3   4
BRANCH   3   9
HETATM    9  N4  UNL     1      -2.370   1.064  -0.327  1.00  0.00    -0.404 N 
ATOM     10  H4  UNL     1      -2.438   2.059  -0.111  1.00  0.00     0.154 HD
BRANCH   9  11
HETATM   11  C16 UNL     1      -3.577   0.346  -0.564  1.00  0.00     0.129 C 
BRANCH  11  12
HETATM   12  C17 UNL     1      -3.993  -0.402   0.625  1.00  0.00     0.003 C 
BRANCH  12  13
HETATM   13  C18 UNL     1      -5.140  -1.316   0.657  1.00  0.00    -0.082 C 
HETATM   14  C19 UNL     1      -6.518  -0.812   0.383  1.00  0.00     0.034 C 
HETATM   15  C20 UNL     1      -7.465  -1.705   1.226  1.00  0.00     0.004 C 
HETATM   16  C21 UNL     1      -7.081  -3.158   1.030  1.00  0.00     0.001 C 
HETATM   17  C22 UNL     1      -6.232  -3.354  -0.196  1.00  0.00     0.004 C 
HETATM   18  C23 UNL     1      -4.886  -2.639  -0.051  1.00  0.00     0.034 C 
ENDBRANCH  12  13
ENDBRANCH  11  12
BRANCH  11  19
HETATM   19  C24 UNL     1      -4.574   1.391  -1.043  1.00  0.00     0.147 C 
BRANCH  19  20
HETATM   20  O5  UNL     1      -4.728   2.375  -0.043  1.00  0.00    -0.393 OA
ATOM     21  H5  UNL     1      -5.350   3.027  -0.342  1.00  0.00     0.210 HD
ENDBRANCH  19  20
BRANCH  19  22
HETATM   22  C25 UNL     1      -4.234   2.047  -2.332  1.00  0.00     0.008 C 
HETATM   23  C26 UNL     1      -5.394   3.036  -2.603  1.00  0.00     0.012 C 
HETATM   24  C27 UNL     1      -2.997   2.869  -2.391  1.00  0.00     0.012 C 
ENDBRANCH  19  22
ENDBRANCH  11  19
ENDBRANCH   9  11
ENDBRANCH   3   9
ENDBRANCH   2   3
BRANCH   1  25
HETATM   25  C9  UNL     1       0.402  -2.098   2.052  1.00  0.00     0.232 C 
BRANCH  25  26
HETATM   26  C8  UNL     1       1.540  -2.122   2.974  1.00  0.00     0.253 C 
HETATM   27  N2  UNL     1       2.887  -2.187   2.458  1.00  0.00    -0.336 N 
HETATM   28  C5  UNL     1       3.585  -2.180   1.205  1.00  0.00     0.180 C 
HETATM   29  C7  UNL     1       4.177  -2.399   3.136  1.00  0.00     0.129 C 
HETATM   30  C6  UNL     1       4.570  -3.159   1.869  1.00  0.00     0.055 C 
HETATM   31  O2  UNL     1       1.423  -2.099   4.221  1.00  0.00    -0.270 OA
BRANCH  28  32
HETATM   32  C4  UNL     1       4.334  -0.928   0.888  1.00  0.00     0.241 C 
HETATM   33  N1  UNL     1       5.150  -0.895  -0.278  1.00  0.00    -0.354 N 
ATOM     34  H1  UNL     1       5.174  -1.732  -0.861  1.00  0.00     0.162 HD
HETATM   35  O1  UNL     1       4.260   0.073   1.622  1.00  0.00    -0.271 OA
BRANCH  33  36
HETATM   36  C3  UNL     1       5.937   0.221  -0.693  1.00  0.00     0.091 C 
BRANCH  36  37
HETATM   37  C2  UNL     1       7.387  -0.154  -0.718  1.00  0.00     0.021 C 
HETATM   38  C1  UNL     1       7.740  -1.291  -1.617  1.00  0.00     0.007 C 
ENDBRANCH  36  37
BRANCH  36  39
HETATM   39  C28 UNL     1       5.434   0.978  -1.874  1.00  0.00    -0.031 C 
HETATM   40  C29 UNL     1       3.940   1.302  -1.724  1.00  0.00     0.016 C 
HETATM   41  C30 UNL     1       6.115   2.331  -2.017  1.00  0.00     0.016 C 
HETATM   42  C31 UNL     1       5.641   0.263  -3.187  1.00  0.00     0.016 C 
ENDBRANCH  36  39
ENDBRANCH  33  36
ENDBRANCH  28  32
ENDBRANCH  25  26
BRANCH  25  43
HETATM   43  O3  UNL     1      -0.780  -2.268   2.806  1.00  0.00    -0.382 OA
ATOM     44  H3  UNL     1      -1.518  -2.252   2.208  1.00  0.00     0.211 HD
ENDBRANCH  25  43
ENDBRANCH   1  25
TORSDOF 18
