REMARK  17 active torsions:
REMARK  status: ('A' for Active; 'I' for Inactive)
REMARK    1  A    between atoms: O1_2  and  C2_3 
REMARK    2  A    between atoms: C2_3  and  C5_6 
REMARK    3  A    between atoms: C5_6  and  N1_7 
REMARK    4  A    between atoms: C5_6  and  C28_43 
REMARK       I    between atoms: N1_7  and  C6_9 
REMARK    5  A    between atoms: C6_9  and  C7_11 
REMARK    6  A    between atoms: C7_11  and  C8_12 
REMARK    7  A    between atoms: C7_11  and  N2_16 
REMARK    8  A    between atoms: C8_12  and  C9_13 
REMARK       I    between atoms: N2_16  and  C12_18 
REMARK    9  A    between atoms: C12_18  and  C13_20 
REMARK   10  A    between atoms: C13_20  and  C14_21 
REMARK   11  A    between atoms: C13_20  and  C21_36 
REMARK   12  A    between atoms: C14_21  and  N3_22 
REMARK       I    between atoms: N3_22  and  C15_24 
REMARK   13  A    between atoms: C15_24  and  C16_26 
REMARK   14  A    between atoms: C16_26  and  N4_27 
REMARK   15  A    between atoms: C16_26  and  C19_32 
REMARK       I    between atoms: N4_27  and  C17_29 
REMARK   16  A    between atoms: C19_32  and  O6_34 
REMARK   17  A    between atoms: C21_36  and  C22_37 
ROOT
HETATM    1  C13 UNL     1      -2.311   0.948   0.179  1.00  0.00     0.119 C 
ENDROOT
BRANCH   1   2
HETATM    2  C12 UNL     1      -1.192   0.059  -0.396  1.00  0.00     0.231 C 
HETATM    3  N2  UNL     1       0.173   0.492  -0.337  1.00  0.00    -0.325 N 
ATOM      4  H2  UNL     1       0.394   1.358   0.155  1.00  0.00     0.168 HD
HETATM    5  O3  UNL     1      -1.470  -1.005  -0.913  1.00  0.00    -0.272 OA
BRANCH   3   6
HETATM    6  C7  UNL     1       1.227  -0.242  -0.939  1.00  0.00     0.081 C 
BRANCH   6   7
HETATM    7  C6  UNL     1       2.263  -0.747  -0.035  1.00  0.00     0.268 C 
HETATM    8  N1  UNL     1       3.624  -0.521  -0.217  1.00  0.00    -0.323 N 
ATOM      9  H1  UNL     1       3.789   0.075  -1.028  1.00  0.00     0.169 HD
HETATM   10  O2  UNL     1       1.843  -1.413   0.948  1.00  0.00    -0.266 OA
BRANCH   8  11
HETATM   11  C5  UNL     1       4.844  -0.881   0.401  1.00  0.00     0.048 C 
BRANCH  11  12
HETATM   12  C2  UNL     1       4.954  -0.709   1.839  1.00  0.00     0.095 C 
HETATM   13  C3  UNL     1       6.334  -0.794   2.440  1.00  0.00     0.052 C 
HETATM   14  C4  UNL     1       4.424   0.675   2.311  1.00  0.00     0.052 C 
BRANCH  12  15
HETATM   15  O1  UNL     1       4.128  -1.599   2.543  1.00  0.00    -0.379 OA
HETATM   16  C1  UNL     1       4.597  -2.910   2.545  1.00  0.00     0.203 C 
ENDBRANCH  12  15
ENDBRANCH  11  12
BRANCH  11  17
HETATM   17  C28 UNL     1       6.010  -0.485  -0.452  1.00  0.00    -0.062 C 
HETATM   18  C29 UNL     1       6.442   0.930  -0.382  1.00  0.00     0.045 C 
HETATM   19  C30 UNL     1       7.147  -1.480  -0.452  1.00  0.00     0.045 C 
ENDBRANCH  11  17
ENDBRANCH   8  11
ENDBRANCH   6   7
BRANCH   6  20
HETATM   20  C8  UNL     1       1.634   0.375  -2.224  1.00  0.00     0.067 C 
BRANCH  20  21
HETATM   21  C9  UNL     1       2.316  -0.497  -3.208  1.00  0.00    -0.017 C 
HETATM   22  C10 UNL     1       2.660   0.310  -4.450  1.00  0.00     0.010 C 
HETATM   23  C11 UNL     1       1.397  -1.614  -3.703  1.00  0.00     0.010 C 
ENDBRANCH  20  21
ENDBRANCH   6  20
ENDBRANCH   3   6
ENDBRANCH   1   2
BRANCH   1  24
HETATM   24  C14 UNL     1      -3.515   0.750  -0.686  1.00  0.00     0.140 C 
BRANCH  24  25
HETATM   25  N3  UNL     1      -3.881  -0.685  -0.582  1.00  0.00    -0.358 N 
HETATM   26  C15 UNL     1      -4.464  -1.166   0.626  1.00  0.00     0.243 C 
HETATM   27  O4  UNL     1      -4.719  -0.364   1.548  1.00  0.00    -0.271 OA
ATOM     28  H3  UNL     1      -3.717  -1.318  -1.365  1.00  0.00     0.162 HD
BRANCH  26  29
HETATM   29  C16 UNL     1      -4.779  -2.592   0.792  1.00  0.00     0.205 C 
BRANCH  29  30
HETATM   30  N4  UNL     1      -5.847  -2.966  -0.164  1.00  0.00    -0.346 N 
HETATM   31  C17 UNL     1      -5.513  -3.914  -1.169  1.00  0.00     0.214 C 
HETATM   32  C18 UNL     1      -6.514  -4.337  -2.180  1.00  0.00     0.117 C 
HETATM   33  O5  UNL     1      -4.365  -4.398  -1.198  1.00  0.00    -0.274 OA
ATOM     34  H4  UNL     1      -6.781  -2.561  -0.104  1.00  0.00     0.163 HD
ENDBRANCH  29  30
BRANCH  29  35
HETATM   35  C19 UNL     1      -5.493  -2.706   2.169  1.00  0.00     0.146 C 
HETATM   36  C20 UNL     1      -6.199  -4.038   2.280  1.00  0.00     0.042 C 
BRANCH  35  37
HETATM   37  O6  UNL     1      -4.655  -2.432   3.206  1.00  0.00    -0.393 OA
ATOM     38  H6  UNL     1      -5.091  -2.502   4.047  1.00  0.00     0.210 HD
ENDBRANCH  35  37
ENDBRANCH  29  35
ENDBRANCH  26  29
ENDBRANCH  24  25
ENDBRANCH   1  24
BRANCH   1  39
HETATM   39  C21 UNL     1      -1.792   2.255   0.521  1.00  0.00    -0.008 C 
BRANCH  39  40
HETATM   40  C22 UNL     1      -2.634   3.371   1.016  1.00  0.00    -0.083 C 
HETATM   41  C23 UNL     1      -3.650   3.945   0.113  1.00  0.00     0.034 C 
HETATM   42  C24 UNL     1      -3.289   5.317  -0.465  1.00  0.00     0.004 C 
HETATM   43  C25 UNL     1      -2.583   6.214   0.482  1.00  0.00     0.001 C 
HETATM   44  C26 UNL     1      -1.300   5.460   0.894  1.00  0.00     0.004 C 
HETATM   45  C27 UNL     1      -1.805   4.358   1.811  1.00  0.00     0.034 C 
ENDBRANCH  39  40
ENDBRANCH   1  39
TORSDOF 17
