REMARK  8 active torsions:
REMARK  status: ('A' for Active; 'I' for Inactive)
REMARK    1  A    between atoms: C2_2  and  C3_3 
REMARK    2  A    between atoms: C3_3  and  N1_4 
REMARK    3  A    between atoms: N1_4  and  C4_7 
REMARK    4  A    between atoms: C8_11  and  C9_12 
REMARK    5  A    between atoms: C10_13  and  C11_14 
REMARK    6  A    between atoms: C13_16  and  C14_17 
REMARK    7  A    between atoms: C14_17  and  S1_18 
REMARK    8  A    between atoms: C15_22  and  S2_23 
ROOT
HETATM    1  C4  UNL     1       2.428  -0.385   0.402  1.00  0.00     0.207 C 
HETATM    2  C5  UNL     1       2.531  -0.954  -0.970  1.00  0.00     0.034 C 
HETATM    3  C6  UNL     1       1.511  -1.995  -1.306  1.00  0.00     0.003 C 
HETATM    4  C7  UNL     1       0.123  -1.695  -0.850  1.00  0.00     0.010 C 
HETATM    5  C8  UNL     1       0.024  -0.346  -0.224  1.00  0.00     0.031 C 
HETATM    6  C15 UNL     1       1.028  -0.234   0.896  1.00  0.00     0.168 C 
ENDROOT
BRANCH   5   7
HETATM    7  C9  UNL     1      -1.321   0.014   0.222  1.00  0.00    -0.024 C 
HETATM    8  C10 UNL     1      -2.327  -0.844   0.155  1.00  0.00    -0.025 C 
BRANCH   8   9
HETATM    9  C11 UNL     1      -3.698  -0.542   0.586  1.00  0.00     0.013 A 
HETATM   10  C12 UNL     1      -4.637  -1.749   0.632  1.00  0.00     0.015 A 
HETATM   11  C13 UNL     1      -4.830  -0.612  -0.365  1.00  0.00     0.010 A 
BRANCH  11  12
HETATM   12  C14 UNL     1      -6.076   0.171  -0.163  1.00  0.00     0.170 C 
BRANCH  12  13
HETATM   13  S1  UNL     1      -5.823   1.919  -0.117  1.00  0.00     0.102 S 
HETATM   14  O1  UNL     1      -5.365   2.390  -1.475  1.00  0.00    -0.595 OA
HETATM   15  O2  UNL     1      -7.178   2.560   0.106  1.00  0.00    -0.595 OA
HETATM   16  O3  UNL     1      -4.806   2.395   1.106  1.00  0.00    -0.595 OA
ENDBRANCH  12  13
ENDBRANCH  11  12
ENDBRANCH   8   9
ENDBRANCH   5   7
BRANCH   6  17
HETATM   17  S2  UNL     1       0.751  -1.357   2.223  1.00  0.00     0.108 S 
HETATM   18  O4  UNL     1       1.153  -2.776   1.838  1.00  0.00    -0.595 OA
HETATM   19  O5  UNL     1      -0.623  -1.312   2.786  1.00  0.00    -0.595 OA
HETATM   20  O6  UNL     1       1.852  -0.941   3.457  1.00  0.00    -0.595 OA
ENDBRANCH   6  17
BRANCH   1  21
HETATM   21  N1  UNL     1       3.022   0.959   0.353  1.00  0.00    -0.070 N 
ATOM     22  H12 UNL     1       2.874   1.466   1.225  1.00  0.00     0.277 HD
ATOM     23  H11 UNL     1       2.505   1.574  -0.276  1.00  0.00     0.277 HD
BRANCH  21  24
HETATM   24  C3  UNL     1       4.432   0.900   0.003  1.00  0.00     0.232 C 
BRANCH  24  25
HETATM   25  C2  UNL     1       4.911   2.349  -0.011  1.00  0.00     0.023 C 
HETATM   26  C1  UNL     1       6.369   2.349  -0.371  1.00  0.00     0.007 C 
ENDBRANCH  24  25
ENDBRANCH  21  24
ENDBRANCH   1  21
TORSDOF 8
