REMARK  13 active torsions:
REMARK  status: ('A' for Active; 'I' for Inactive)
REMARK    1  A    between atoms: C2_2  and  C3_3 
REMARK    2  A    between atoms: C4_4  and  C5_5 
REMARK    3  A    between atoms: C6_6  and  C7_7 
REMARK    4  A    between atoms: C6_6  and  C22_27 
REMARK    5  A    between atoms: C8_8  and  C9_9 
REMARK    6  A    between atoms: C9_9  and  C10_10 
REMARK    7  A    between atoms: C10_10  and  C12_12 
REMARK    8  A    between atoms: C12_12  and  C13_13 
REMARK    9  A    between atoms: C13_13  and  C14_14 
REMARK   10  A    between atoms: C13_13  and  C16_16 
REMARK   11  A    between atoms: C16_16  and  N1_17 
REMARK   12  A    between atoms: C19_20  and  O1_21 
REMARK   13  A    between atoms: C20_23  and  O2_24 
ROOT
HETATM    1  C12 UNL     1      -0.940  -1.607   1.388  1.00  0.00    -0.014 C 
ENDROOT
BRANCH   1   2
HETATM    2  C10 UNL     1      -0.016  -0.524   1.609  1.00  0.00     0.008 C 
HETATM    3  C11 UNL     1       0.157   0.575   0.621  1.00  0.00     0.014 C 
BRANCH   2   4
HETATM    4  C9  UNL     1       1.436  -1.123   1.699  1.00  0.00     0.035 C 
BRANCH   4   5
HETATM    5  C8  UNL     1       1.937  -1.602   0.439  1.00  0.00    -0.025 C 
HETATM    6  C7  UNL     1       2.890  -1.362  -0.351  1.00  0.00     0.015 C 
BRANCH   6   7
HETATM    7  C6  UNL     1       4.020  -0.477  -0.451  1.00  0.00     0.048 C 
HETATM    8  C5  UNL     1       4.757  -0.671  -1.583  1.00  0.00     0.082 C 
BRANCH   8   9
HETATM    9  C4  UNL     1       5.898   0.001  -1.992  1.00  0.00    -0.077 C 
HETATM   10  C3  UNL     1       6.890   0.561  -2.380  1.00  0.00    -0.102 C 
BRANCH  10  11
HETATM   11  C2  UNL     1       8.073   1.251  -2.828  1.00  0.00     0.090 C 
HETATM   12  C1  UNL     1       8.749   1.969  -1.675  1.00  0.00     0.018 C 
ENDBRANCH  10  11
ENDBRANCH   8   9
BRANCH   7  13
HETATM   13  C22 UNL     1       4.472   0.549   0.424  1.00  0.00     0.209 C 
HETATM   14  O3  UNL     1       3.965   0.903   1.503  1.00  0.00    -0.644 OA
HETATM   15  O4  UNL     1       5.629   1.298   0.097  1.00  0.00    -0.644 OA
ENDBRANCH   7  13
ENDBRANCH   6   7
ENDBRANCH   4   5
ENDBRANCH   2   4
ENDBRANCH   1   2
BRANCH   1  16
HETATM   16  C13 UNL     1      -2.401  -1.488   1.299  1.00  0.00    -0.051 C 
BRANCH  16  17
HETATM   17  C14 UNL     1      -3.040  -0.896   2.549  1.00  0.00     0.035 C 
HETATM   18  C15 UNL     1      -2.715  -1.821   3.737  1.00  0.00     0.010 C 
ENDBRANCH  16  17
BRANCH  16  19
HETATM   19  C16 UNL     1      -3.051  -1.127   0.030  1.00  0.00     0.066 C 
BRANCH  19  20
HETATM   20  N1  UNL     1      -2.846   0.109  -0.616  1.00  0.00    -0.290 NA
HETATM   21  C17 UNL     1      -3.442  -0.003  -1.948  1.00  0.00     0.097 C 
HETATM   22  C18 UNL     1      -4.350   1.119  -2.326  1.00  0.00     0.049 C 
HETATM   23  C19 UNL     1      -5.493   1.309  -1.373  1.00  0.00     0.149 C 
HETATM   24  C20 UNL     1      -4.997   1.136   0.070  1.00  0.00     0.160 C 
HETATM   25  C21 UNL     1      -3.502   1.252  -0.006  1.00  0.00     0.129 C 
BRANCH  23  26
HETATM   26  O1  UNL     1      -6.483   0.375  -1.658  1.00  0.00    -0.393 OA
ATOM     27  H1  UNL     1      -7.207   0.495  -1.055  1.00  0.00     0.210 HD
ENDBRANCH  23  26
BRANCH  24  28
HETATM   28  O2  UNL     1      -5.422   2.254   0.836  1.00  0.00    -0.392 OA
ATOM     29  H2  UNL     1      -5.115   2.147   1.729  1.00  0.00     0.210 HD
ENDBRANCH  24  28
ENDBRANCH  19  20
ENDBRANCH  16  19
ENDBRANCH   1  16
TORSDOF 13
