REMARK  13 active torsions:
REMARK  status: ('A' for Active; 'I' for Inactive)
REMARK    1  A    between atoms: C2_2  and  O1_3 
REMARK    2  A    between atoms: O1_3  and  C3_4 
REMARK    3  A    between atoms: C3_4  and  C4_6 
REMARK    4  A    between atoms: C4_6  and  C5_7 
REMARK    5  A    between atoms: C5_7  and  C6_8 
REMARK    6  A    between atoms: C6_8  and  C7_9 
REMARK    7  A    between atoms: C7_9  and  C8_10 
REMARK    8  A    between atoms: C8_10  and  C9_11 
REMARK    9  A    between atoms: C9_11  and  N1_12 
REMARK   10  A    between atoms: N1_12  and  C10_14 
REMARK   11  A    between atoms: C10_14  and  N2_16 
REMARK   12  A    between atoms: N2_16  and  C11_18 
REMARK   13  A    between atoms: C19_26  and  O3_27 
ROOT
HETATM    1  C10 UNL     1      -1.638  -0.655   1.148  1.00  0.00     0.168 C 
HETATM    2  S1  UNL     1      -2.206  -1.933   1.953  1.00  0.00    -0.041 SA
ENDROOT
BRANCH   1   3
HETATM    3  N1  UNL     1      -0.228  -0.406   1.226  1.00  0.00    -0.367 N 
ATOM      4  H1  UNL     1       0.381  -1.021   1.765  1.00  0.00     0.161 HD
BRANCH   3   5
HETATM    5  C9  UNL     1       0.311   0.738   0.523  1.00  0.00     0.122 C 
BRANCH   5   6
HETATM    6  C8  UNL     1       1.830   0.758   0.743  1.00  0.00     0.020 C 
BRANCH   6   7
HETATM    7  C7  UNL     1       2.444  -0.498   0.186  1.00  0.00     0.002 C 
BRANCH   7   8
HETATM    8  C6  UNL     1       3.930  -0.483   0.431  1.00  0.00     0.001 C 
BRANCH   8   9
HETATM    9  C5  UNL     1       4.549   0.690  -0.239  1.00  0.00     0.010 C 
BRANCH   9  10
HETATM   10  C4  UNL     1       6.050   0.783  -0.080  1.00  0.00     0.111 C 
BRANCH  10  11
HETATM   11  C3  UNL     1       6.797  -0.344  -0.631  1.00  0.00     0.258 C 
HETATM   12  O2  UNL     1       6.352  -1.340  -1.226  1.00  0.00    -0.265 OA
BRANCH  11  13
HETATM   13  O1  UNL     1       8.200  -0.318  -0.479  1.00  0.00    -0.322 OA
BRANCH  13  14
HETATM   14  C2  UNL     1       9.002  -1.369  -0.983  1.00  0.00     0.174 C 
HETATM   15  C1  UNL     1      10.448  -0.996  -0.636  1.00  0.00     0.034 C 
ENDBRANCH  13  14
ENDBRANCH  11  13
ENDBRANCH  10  11
ENDBRANCH   9  10
ENDBRANCH   8   9
ENDBRANCH   7   8
ENDBRANCH   6   7
ENDBRANCH   5   6
ENDBRANCH   3   5
ENDBRANCH   1   3
BRANCH   1  16
HETATM   16  N2  UNL     1      -2.455   0.198   0.407  1.00  0.00    -0.355 N 
ATOM     17  H2  UNL     1      -1.984   0.979  -0.050  1.00  0.00     0.162 HD
BRANCH  16  18
HETATM   18  C11 UNL     1      -3.878   0.118   0.204  1.00  0.00     0.059 C 
HETATM   19  C12 UNL     1      -4.206  -1.138  -0.561  1.00  0.00     0.038 C 
HETATM   20  C13 UNL     1      -5.693  -1.196  -0.901  1.00  0.00    -0.011 C 
HETATM   21  C14 UNL     1      -6.421  -1.171   0.424  1.00  0.00     0.009 C 
HETATM   22  C18 UNL     1      -6.024  -0.041  -1.786  1.00  0.00     0.012 C 
HETATM   23  C15 UNL     1      -6.156   0.125   1.115  1.00  0.00    -0.011 C 
HETATM   24  C16 UNL     1      -6.582   1.260   0.218  1.00  0.00     0.012 C 
HETATM   25  C20 UNL     1      -4.688   0.228   1.471  1.00  0.00     0.038 C 
HETATM   26  C17 UNL     1      -5.735   1.242  -1.035  1.00  0.00     0.017 C 
HETATM   27  C19 UNL     1      -4.301   1.354  -0.632  1.00  0.00     0.150 C 
BRANCH  27  28
HETATM   28  O3  UNL     1      -4.177   2.441   0.234  1.00  0.00    -0.393 OA
ATOM     29  H3  UNL     1      -4.436   3.198  -0.278  1.00  0.00     0.210 HD
ENDBRANCH  27  28
ENDBRANCH  16  18
ENDBRANCH   1  16
TORSDOF 13
