REMARK  3 active torsions:
REMARK  status: ('A' for Active; 'I' for Inactive)
REMARK    1  A    between atoms: N1_2  and  C2_4 
REMARK    2  A    between atoms: N2_5  and  N3_7 
REMARK    3  A    between atoms: N3_7  and  C3_9 
ROOT
HETATM    1  C2  UNL     1      -0.348   0.086   0.145  1.00  0.00     0.192 C 
HETATM    2  N2  UNL     1       0.619   0.674  -0.433  1.00  0.00    -0.296 N 
ATOM      3  H2  UNL     1       0.415   1.097  -1.339  1.00  0.00     0.187 HD
ENDROOT
BRANCH   2   4
HETATM    4  N3  UNL     1       1.907   0.805   0.023  1.00  0.00    -0.296 N 
ATOM      5  H3  UNL     1       2.254   1.569   0.603  1.00  0.00     0.187 HD
BRANCH   4   6
HETATM    6  C3  UNL     1       2.691  -0.308  -0.448  1.00  0.00     0.190 C 
HETATM    7  N4  UNL     1       3.244  -1.131   0.330  1.00  0.00    -0.394 N 
ATOM      8  H42 UNL     1       3.121  -0.989   1.333  1.00  0.00     0.156 HD
ATOM      9  H41 UNL     1       3.799  -1.919  -0.003  1.00  0.00     0.156 HD
ENDBRANCH   4   6
ENDBRANCH   2   4
BRANCH   1  10
HETATM   10  N1  UNL     1      -1.606   0.072  -0.513  1.00  0.00    -0.389 N 
HETATM   11  C1  UNL     1      -2.740  -0.506   0.209  1.00  0.00     0.147 C 
ATOM     12  H1  UNL     1      -1.715   0.451  -1.454  1.00  0.00     0.159 HD
ENDBRANCH   1  10
TORSDOF 3
