REMARK  3 active torsions:
REMARK  status: ('A' for Active; 'I' for Inactive)
REMARK    1  A    between atoms: C2_2  and  C3_3 
REMARK    2  A    between atoms: C3_3  and  N1_4 
REMARK    3  A    between atoms: N2_6  and  N3_8 
ROOT
HETATM    1  N1  UNL     1      -0.118   0.415  -0.143  1.00  0.00    -0.319 N 
ATOM      2  H1  UNL     1      -0.106   1.435  -0.162  1.00  0.00     0.181 HD
HETATM    3  N2  UNL     1       0.934  -0.230   0.112  1.00  0.00    -0.252 N 
ATOM      4  H2  UNL     1       0.933  -1.250   0.133  1.00  0.00     0.207 HD
ENDROOT
BRANCH   1   5
HETATM    5  C3  UNL     1      -1.330  -0.298  -0.406  1.00  0.00     0.167 C 
BRANCH   5   6
HETATM    6  C2  UNL     1      -2.543   0.533  -0.264  1.00  0.00    -0.016 C 
HETATM    7  C1  UNL     1      -3.458   0.182   0.628  1.00  0.00     0.008 C 
ENDBRANCH   5   6
ENDBRANCH   1   5
BRANCH   3   8
HETATM    8  N3  UNL     1       2.106   0.497   0.366  1.00  0.00    -0.327 N 
HETATM    9  C4  UNL     1       3.396  -0.112   0.080  1.00  0.00     0.169 C 
ATOM     10  H3  UNL     1       2.055   1.442   0.747  1.00  0.00     0.181 HD
ENDBRANCH   3   8
TORSDOF 3
