REMARK  2 active torsions:
REMARK  status: ('A' for Active; 'I' for Inactive)
REMARK    1  A    between atoms: C2_2  and  N1_3 
REMARK    2  A    between atoms: N2_5  and  N3_7 
ROOT
HETATM    1  N1  UNL     1       0.055  -0.315  -0.201  1.00  0.00    -0.317 N 
HETATM    2  C3  UNL     1       0.633  -1.585  -0.544  1.00  0.00     0.172 C 
HETATM    3  N2  UNL     1       0.773   0.716  -0.374  1.00  0.00    -0.231 N 
ATOM      4  H2  UNL     1       0.385   1.627  -0.130  1.00  0.00     0.209 HD
ENDROOT
BRANCH   3   5
HETATM    5  N3  UNL     1       2.061   0.660  -0.880  1.00  0.00    -0.235 N 
HETATM    6  N4  UNL     1       3.109   0.913  -0.231  1.00  0.00    -0.330 N 
ATOM      7  H42 UNL     1       2.982   1.179   0.745  1.00  0.00     0.178 HD
ATOM      8  H41 UNL     1       4.058   0.872  -0.604  1.00  0.00     0.178 HD
ATOM      9  H3  UNL     1       2.169   0.392  -1.858  1.00  0.00     0.209 HD
ENDBRANCH   3   5
BRANCH   1  10
HETATM   10  C2  UNL     1      -1.293  -0.215   0.328  1.00  0.00     0.139 C 
HETATM   11  C1  UNL     1      -1.803   1.209   0.383  1.00  0.00     0.028 C 
ENDBRANCH   1  10
TORSDOF 2
