REMARK  6 active torsions:
REMARK  status: ('A' for Active; 'I' for Inactive)
REMARK    1  A    between atoms: C2_2  and  O1_3 
REMARK    2  A    between atoms: O1_3  and  N1_4 
REMARK    3  A    between atoms: N1_4  and  C3_5 
REMARK    4  A    between atoms: C3_5  and  C4_6 
REMARK    5  A    between atoms: C4_6  and  N2_7 
REMARK    6  A    between atoms: N2_7  and  C5_9 
ROOT
HETATM    1  C4  UNL     1       1.657   0.763  -1.292  1.00  0.00     0.182 C 
ENDROOT
BRANCH   1   2
HETATM    2  C3  UNL     1       0.550  -0.296  -1.212  1.00  0.00     0.210 C 
BRANCH   2   3
HETATM    3  N1  UNL     1      -0.421  -0.086  -0.332  1.00  0.00    -0.297 NA
BRANCH   3   4
HETATM    4  O1  UNL     1      -1.314   0.107   0.477  1.00  0.00    -0.210 OA
BRANCH   4   5
HETATM    5  C2  UNL     1      -2.650  -0.127   0.146  1.00  0.00     0.213 C 
HETATM    6  C1  UNL     1      -3.580   0.173   1.268  1.00  0.00     0.037 C 
ENDBRANCH   4   5
ENDBRANCH   3   4
ENDBRANCH   2   3
ENDBRANCH   1   2
BRANCH   1   7
HETATM    7  N2  UNL     1       2.326   0.887  -0.006  1.00  0.00    -0.381 N 
ATOM      8  H2  UNL     1       2.213   1.745   0.534  1.00  0.00     0.160 HD
BRANCH   7   9
HETATM    9  C5  UNL     1       3.135  -0.162   0.517  1.00  0.00     0.169 C 
HETATM   10  N3  UNL     1       3.572  -0.151   1.721  1.00  0.00    -0.396 N 
ATOM     11  H32 UNL     1       3.323   0.643   2.312  1.00  0.00     0.156 HD
ATOM     12  H31 UNL     1       4.151  -0.902   2.096  1.00  0.00     0.156 HD
ENDBRANCH   7   9
ENDBRANCH   1   7
TORSDOF 6
