REMARK  6 active torsions:
REMARK  status: ('A' for Active; 'I' for Inactive)
REMARK    1  A    between atoms: C2_2  and  N1_3 
REMARK    2  A    between atoms: N1_3  and  N2_4 
REMARK    3  A    between atoms: N2_4  and  C3_5 
REMARK    4  A    between atoms: C3_5  and  C4_6 
REMARK    5  A    between atoms: C4_6  and  N3_7 
REMARK    6  A    between atoms: N3_7  and  C5_9 
ROOT
HETATM    1  C3  UNL     1       0.847  -0.657   0.758  1.00  0.00     0.149 C 
ENDROOT
BRANCH   1   2
HETATM    2  N2  UNL     1      -0.142  -0.247  -0.247  1.00  0.00    -0.147 NA
BRANCH   2   3
HETATM    3  N1  UNL     1      -1.206   0.427   0.291  1.00  0.00    -0.149 NA
BRANCH   3   4
HETATM    4  C2  UNL     1      -2.486   0.099  -0.297  1.00  0.00     0.126 C 
HETATM    5  C1  UNL     1      -3.522   0.956   0.443  1.00  0.00     0.023 C 
ENDBRANCH   3   4
ENDBRANCH   2   3
ENDBRANCH   1   2
BRANCH   1   6
HETATM    6  C4  UNL     1       1.968  -1.383   0.085  1.00  0.00     0.139 C 
BRANCH   6   7
HETATM    7  N3  UNL     1       2.673  -0.612  -0.908  1.00  0.00    -0.367 N 
ATOM      8  H3  UNL     1       2.696  -0.939  -1.874  1.00  0.00     0.161 HD
BRANCH   7   9
HETATM    9  C5  UNL     1       3.332   0.588  -0.565  1.00  0.00     0.348 C 
HETATM   10  O1  UNL     1       3.324   1.024   0.629  1.00  0.00    -0.284 OA
ENDBRANCH   7   9
ENDBRANCH   6   7
ENDBRANCH   1   6
TORSDOF 6
