REMARK  11 active torsions:
REMARK  status: ('A' for Active; 'I' for Inactive)
REMARK    1  A    between atoms: N1_3  and  C3_5 
REMARK    2  A    between atoms: C3_5  and  C4_6 
REMARK    3  A    between atoms: C4_6  and  N2_7 
REMARK       I    between atoms: C5_9  and  N3_10 
REMARK       I    between atoms: C5_9  and  N5_20 
REMARK    4  A    between atoms: N3_10  and  C6_12 
REMARK    5  A    between atoms: C6_12  and  C7_13 
REMARK    6  A    between atoms: C7_13  and  C8_14 
REMARK    7  A    between atoms: C8_14  and  N4_15 
REMARK    8  A    between atoms: N4_15  and  C9_16 
REMARK    9  A    between atoms: N4_15  and  C11_18 
REMARK   10  A    between atoms: C14_22  and  O1_23 
REMARK   11  A    between atoms: C20_29  and  N6_30 
REMARK       I    between atoms: N6_30  and  C21_32 
REMARK       I    between atoms: C21_32  and  N7_34 
ROOT
HETATM    1  N2  UNL     1      -1.204   3.131   1.162  1.00  0.00    -0.224 N 
ATOM      2  H2  UNL     1      -0.547   3.910   1.211  1.00  0.00     0.177 HD
HETATM    3  C5  UNL     1      -0.749   1.932   1.018  1.00  0.00     0.683 C 
HETATM    4  N3  UNL     1      -1.655   0.859   0.948  1.00  0.00    -0.226 N 
ATOM      5  H3  UNL     1      -1.894   0.390   1.822  1.00  0.00     0.177 HD
HETATM    6  N5  UNL     1       0.642   1.692   0.947  1.00  0.00    -0.119 N 
HETATM    7  C13 UNL     1       1.493   2.854   1.051  1.00  0.00     0.156 C 
HETATM    8  C14 UNL     1       2.791   2.974   0.867  1.00  0.00     0.100 C 
HETATM    9  C16 UNL     1       3.809   1.982   0.495  1.00  0.00     0.065 A 
HETATM   10  C17 UNL     1       3.684   0.687   0.260  1.00  0.00     0.011 A 
HETATM   11  C18 UNL     1       4.984   0.126  -0.077  1.00  0.00     0.033 A 
HETATM   12  C19 UNL     1       5.330  -1.128  -0.430  1.00  0.00     0.046 A 
HETATM   13  C20 UNL     1       4.471  -2.282  -0.575  1.00  0.00     0.037 A 
HETATM   14  C23 UNL     1       3.151  -2.376  -0.349  1.00  0.00     0.030 A 
HETATM   15  C24 UNL     1       2.203  -1.381   0.099  1.00  0.00     0.020 A 
HETATM   16  C25 UNL     1       2.432  -0.099   0.353  1.00  0.00     0.045 A 
HETATM   17  C26 UNL     1       1.106   0.358   0.795  1.00  0.00     0.277 C 
HETATM   18  O3  UNL     1       0.293  -0.546   1.074  1.00  0.00    -0.266 OA
HETATM   19  C27 UNL     1       5.945   1.212  -0.025  1.00  0.00     0.233 A 
HETATM   20  O4  UNL     1       7.186   1.104  -0.258  1.00  0.00    -0.283 OA
HETATM   21  C28 UNL     1       5.198   2.401   0.341  1.00  0.00     0.236 A 
HETATM   22  O5  UNL     1       5.680   3.560   0.490  1.00  0.00    -0.283 OA
ENDROOT
BRANCH   1  23
HETATM   23  C4  UNL     1      -2.621   3.397   1.255  1.00  0.00     0.157 C 
BRANCH  23  24
HETATM   24  C3  UNL     1      -3.106   4.200   0.105  1.00  0.00     0.139 C 
BRANCH  24  25
HETATM   25  N1  UNL     1      -2.496   5.484  -0.037  1.00  0.00    -0.401 N 
HETATM   26  C2  UNL     1      -3.114   6.555   0.262  1.00  0.00     0.051 C 
HETATM   27  C1  UNL     1      -4.487   6.642   0.777  1.00  0.00     0.054 C 
ATOM     28  H1  UNL     1      -1.540   5.544  -0.387  1.00  0.00     0.158 HD
ENDBRANCH  24  25
ENDBRANCH  23  24
ENDBRANCH   1  23
BRANCH   4  29
HETATM   29  C6  UNL     1      -2.278   0.364  -0.268  1.00  0.00     0.140 C 
BRANCH  29  30
HETATM   30  C7  UNL     1      -3.216  -0.793   0.050  1.00  0.00     0.050 C 
BRANCH  30  31
HETATM   31  C8  UNL     1      -3.828  -1.284  -1.212  1.00  0.00     0.274 C 
BRANCH  31  32
HETATM   32  N4  UNL     1      -4.758  -2.387  -0.997  1.00  0.00     0.087 N 
BRANCH  32  33
HETATM   33  C9  UNL     1      -4.125  -3.574  -0.568  1.00  0.00     0.268 C 
HETATM   34  C10 UNL     1      -5.128  -4.662  -0.295  1.00  0.00     0.037 C 
ENDBRANCH  32  33
BRANCH  32  35
HETATM   35  C11 UNL     1      -5.572  -2.454  -2.160  1.00  0.00     0.268 C 
HETATM   36  C12 UNL     1      -4.882  -2.892  -3.421  1.00  0.00     0.037 C 
ENDBRANCH  32  35
ENDBRANCH  31  32
ENDBRANCH  30  31
ENDBRANCH  29  30
ENDBRANCH   4  29
BRANCH   8  37
HETATM   37  O1  UNL     1       3.259   4.276   1.062  1.00  0.00    -0.354 OA
HETATM   38  C15 UNL     1       3.066   4.815   2.358  1.00  0.00     0.210 C 
ENDBRANCH   8  37
BRANCH  13  39
HETATM   39  N6  UNL     1       5.082  -3.487  -1.028  1.00  0.00    -0.309 N 
HETATM   40  C21 UNL     1       6.082  -4.160  -0.266  1.00  0.00     0.320 C 
HETATM   41  O2  UNL     1       6.421  -3.664   0.833  1.00  0.00    -0.247 OA
HETATM   42  N7  UNL     1       6.693  -5.349  -0.700  1.00  0.00    -0.347 N 
HETATM   43  C22 UNL     1       7.690  -6.005   0.101  1.00  0.00     0.151 C 
ATOM     44  H7  UNL     1       6.425  -5.753  -1.597  1.00  0.00     0.163 HD
ATOM     45  H6  UNL     1       4.795  -3.880  -1.925  1.00  0.00     0.170 HD
ENDBRANCH  13  39
TORSDOF 11
