REMARK  11 active torsions:
REMARK  status: ('A' for Active; 'I' for Inactive)
REMARK    1  A    between atoms: C4_5  and  N2_6 
REMARK    2  A    between atoms: N2_6  and  C5_8 
REMARK    3  A    between atoms: C5_8  and  C6_9 
REMARK    4  A    between atoms: N3_12  and  C9_13 
REMARK    5  A    between atoms: C9_13  and  O1_14 
REMARK    6  A    between atoms: O1_14  and  C10_15 
REMARK    7  A    between atoms: C10_15  and  N4_16 
REMARK    8  A    between atoms: C13_19  and  C14_20 
REMARK    9  A    between atoms: C14_20  and  N5_21 
REMARK   10  A    between atoms: C16_25  and  N7_26 
REMARK   11  A    between atoms: N9_32  and  O2_33 
ROOT
HETATM    1  C9  UNL     1       0.484   0.880  -1.361  1.00  0.00     0.299 C 
ENDROOT
BRANCH   1   2
HETATM    2  N3  UNL     1      -0.422   0.377  -0.316  1.00  0.00    -0.345 N 
HETATM    3  C8  UNL     1      -0.152  -0.762   0.305  1.00  0.00     0.093 A 
HETATM    4  C7  UNL     1      -0.967  -1.266   1.296  1.00  0.00     0.026 A 
HETATM    5  C6  UNL     1      -2.109  -0.535   1.640  1.00  0.00    -0.038 A 
HETATM    6  C19 UNL     1      -2.370   0.642   0.984  1.00  0.00     0.026 A 
HETATM    7  C18 UNL     1      -1.518   1.078   0.014  1.00  0.00     0.093 A 
BRANCH   5   8
HETATM    8  C5  UNL     1      -3.018  -1.017   2.700  1.00  0.00     0.158 C 
BRANCH   8   9
HETATM    9  N2  UNL     1      -4.316  -0.342   2.520  1.00  0.00    -0.385 N 
ATOM     10  H2  UNL     1      -4.628   0.345   3.206  1.00  0.00     0.160 HD
BRANCH   9  11
HETATM   11  C4  UNL     1      -5.131  -0.638   1.406  1.00  0.00     0.042 A 
HETATM   12  C3  UNL     1      -4.791  -1.639   0.527  1.00  0.00     0.047 A 
HETATM   13  C2  UNL     1      -5.594  -1.941  -0.543  1.00  0.00     0.093 A 
HETATM   14  N1  UNL     1      -6.742  -1.279  -0.783  1.00  0.00    -0.360 N 
HETATM   15  C1  UNL     1      -7.559  -1.631  -1.924  1.00  0.00     0.155 C 
HETATM   16  C25 UNL     1      -7.070  -0.310   0.070  1.00  0.00     0.046 A 
HETATM   17  C20 UNL     1      -6.296   0.049   1.182  1.00  0.00     0.017 A 
HETATM   18  C24 UNL     1      -8.237   0.387  -0.149  1.00  0.00     0.030 A 
HETATM   19  C21 UNL     1      -6.739   1.074   1.992  1.00  0.00     0.016 A 
HETATM   20  C22 UNL     1      -7.923   1.765   1.750  1.00  0.00     0.001 A 
HETATM   21  C23 UNL     1      -8.669   1.406   0.664  1.00  0.00     0.002 A 
ENDBRANCH   9  11
ENDBRANCH   8   9
ENDBRANCH   5   8
ENDBRANCH   1   2
BRANCH   1  22
HETATM   22  O1  UNL     1       1.403   1.694  -1.036  1.00  0.00    -0.351 OA
BRANCH  22  23
HETATM   23  C10 UNL     1       2.480   1.884  -0.372  1.00  0.00     0.320 C 
BRANCH  23  24
HETATM   24  N4  UNL     1       3.690   1.115  -0.725  1.00  0.00    -0.254 N 
HETATM   25  C11 UNL     1       4.452   1.632  -1.740  1.00  0.00     0.116 A 
HETATM   26  C12 UNL     1       5.605   0.994  -2.106  1.00  0.00     0.029 A 
HETATM   27  C13 UNL     1       5.982  -0.162  -1.445  1.00  0.00    -0.018 A 
HETATM   28  C17 UNL     1       5.204  -0.659  -0.433  1.00  0.00     0.152 A 
HETATM   29  N9  UNL     1       4.066   0.025  -0.115  1.00  0.00    -0.171 N 
BRANCH  27  30
HETATM   30  C14 UNL     1       7.221  -0.887  -1.807  1.00  0.00     0.190 C 
BRANCH  30  31
HETATM   31  N5  UNL     1       8.345  -0.410  -1.032  1.00  0.00    -0.269 N 
HETATM   32  C15 UNL     1       9.174   0.593  -1.368  1.00  0.00     0.218 A 
HETATM   33  N6  UNL     1      10.104   0.748  -0.390  1.00  0.00    -0.185 N 
HETATM   34  C16 UNL     1       9.828  -0.184   0.555  1.00  0.00     0.691 A 
ATOM     35  H6  UNL     1      10.861   1.431  -0.371  1.00  0.00     0.185 HD
HETATM   36  N8  UNL     1       8.761  -0.854   0.122  1.00  0.00    -0.129 N 
ATOM     37  H8  UNL     1       8.322  -1.621   0.631  1.00  0.00     0.206 HD
BRANCH  34  38
HETATM   38  N7  UNL     1      10.454  -0.393   1.650  1.00  0.00    -0.233 N 
ATOM     39  H72 UNL     1      11.271   0.120   1.982  1.00  0.00     0.174 HD
ATOM     40  H71 UNL     1      10.246  -1.094   2.361  1.00  0.00     0.174 HD
ENDBRANCH  34  38
ENDBRANCH  30  31
ENDBRANCH  27  30
BRANCH  29  41
HETATM   41  O2  UNL     1       3.289  -0.448   0.946  1.00  0.00    -0.268 OA
ATOM     42  H2  UNL     1       3.563  -1.242   1.390  1.00  0.00     0.247 HD
ENDBRANCH  29  41
ENDBRANCH  23  24
ENDBRANCH  22  23
ENDBRANCH   1  22
TORSDOF 11
