REMARK  9 active torsions:
REMARK  status: ('A' for Active; 'I' for Inactive)
REMARK    1  A    between atoms: C2_2  and  C4_4 
REMARK    2  A    between atoms: C4_4  and  C5_5 
REMARK    3  A    between atoms: C7_10  and  C8_11 
REMARK    4  A    between atoms: C8_11  and  C9_12 
REMARK    5  A    between atoms: N5_22  and  C14_23 
REMARK    6  A    between atoms: C14_23  and  C15_24 
REMARK       I    between atoms: C15_24  and  N6_26 
REMARK    7  A    between atoms: C19_31  and  C20_32 
REMARK    8  A    between atoms: C20_32  and  C21_33 
REMARK    9  A    between atoms: C24_38  and  O4_39 
ROOT
HETATM    1  C5  UNL     1       0.839  -2.633   0.135  1.00  0.00     0.063 C 
HETATM    2  N1  UNL     1       2.178  -2.103   0.091  1.00  0.00    -0.325 N 
ATOM      3  H1  UNL     1       2.832  -2.634  -0.484  1.00  0.00     0.169 HD
HETATM    4  C6  UNL     1       2.719  -0.982   0.709  1.00  0.00     0.245 C 
HETATM    5  O1  UNL     1       3.769  -1.092   1.439  1.00  0.00    -0.271 OA
HETATM    6  C7  UNL     1       2.218   0.432   0.643  1.00  0.00     0.180 C 
HETATM    7  N4  UNL     1       1.148   0.605  -0.250  1.00  0.00    -0.372 N 
ATOM      8  H4  UNL     1       1.101   0.047  -1.102  1.00  0.00     0.161 HD
HETATM    9  C13 UNL     1       0.142   1.547   0.029  1.00  0.00     0.182 C 
HETATM   10  N5  UNL     1      -1.053   1.060   0.669  1.00  0.00    -0.304 N 
HETATM   11  C18 UNL     1      -1.854   0.081   0.031  1.00  0.00     0.248 C 
HETATM   12  O3  UNL     1      -2.821  -0.362   0.668  1.00  0.00    -0.271 OA
HETATM   13  C19 UNL     1      -1.597  -0.441  -1.355  1.00  0.00     0.176 C 
HETATM   14  N7  UNL     1      -1.183  -1.808  -1.318  1.00  0.00    -0.356 N 
ATOM     15  H7  UNL     1      -1.947  -2.463  -1.486  1.00  0.00     0.162 HD
HETATM   16  C24 UNL     1       0.045  -2.440  -1.101  1.00  0.00     0.159 C 
ENDROOT
BRANCH   6  17
HETATM   17  C8  UNL     1       3.315   1.426   0.361  1.00  0.00     0.093 C 
BRANCH  17  18
HETATM   18  C9  UNL     1       4.041   1.276  -0.892  1.00  0.00     0.029 A 
HETATM   19  C10 UNL     1       5.159   0.474  -1.122  1.00  0.00     0.114 A 
HETATM   20  N2  UNL     1       5.562   0.619  -2.385  1.00  0.00    -0.360 N 
HETATM   21  C11 UNL     1       4.746   1.483  -2.968  1.00  0.00     0.182 A 
ATOM     22  H2  UNL     1       6.355   0.149  -2.822  1.00  0.00     0.166 HD
HETATM   23  N3  UNL     1       3.821   1.893  -2.087  1.00  0.00    -0.350 N 
HETATM   24  C12 UNL     1       2.812   2.848  -2.412  1.00  0.00     0.156 C 
ENDBRANCH  17  18
ENDBRANCH   6  17
BRANCH   1  25
HETATM   25  C4  UNL     1       0.116  -2.491   1.430  1.00  0.00     0.065 C 
BRANCH  25  26
HETATM   26  C2  UNL     1       0.874  -3.266   2.514  1.00  0.00    -0.017 C 
HETATM   27  C1  UNL     1       0.168  -3.148   3.846  1.00  0.00     0.010 C 
HETATM   28  C3  UNL     1       1.071  -4.712   2.129  1.00  0.00     0.010 C 
ENDBRANCH  25  26
ENDBRANCH   1  25
BRANCH  10  29
HETATM   29  C14 UNL     1      -1.393   1.614   1.979  1.00  0.00     0.235 C 
BRANCH  29  30
HETATM   30  C15 UNL     1      -2.235   2.801   1.890  1.00  0.00     0.237 C 
HETATM   31  O2  UNL     1      -2.588   3.236   0.769  1.00  0.00    -0.272 OA
HETATM   32  N6  UNL     1      -2.676   3.488   3.043  1.00  0.00    -0.359 N 
HETATM   33  C16 UNL     1      -3.514   4.669   2.986  1.00  0.00     0.152 C 
HETATM   34  C17 UNL     1      -2.272   2.991   4.342  1.00  0.00     0.152 C 
ENDBRANCH  29  30
ENDBRANCH  10  29
BRANCH  16  35
HETATM   35  O4  UNL     1       0.661  -2.983  -2.117  1.00  0.00    -0.345 OA
ATOM     36  H4  UNL     1       0.152  -2.859  -2.909  1.00  0.00     0.219 HD
ENDBRANCH  16  35
BRANCH  13  37
HETATM   37  C20 UNL     1      -2.884  -0.284  -2.126  1.00  0.00     0.038 C 
BRANCH  37  38
HETATM   38  C21 UNL     1      -2.917  -0.652  -3.545  1.00  0.00    -0.020 C 
HETATM   39  C22 UNL     1      -2.626  -2.046  -3.931  1.00  0.00     0.009 C 
HETATM   40  C23 UNL     1      -4.184  -0.121  -4.227  1.00  0.00     0.009 C 
ENDBRANCH  37  38
ENDBRANCH  13  37
TORSDOF 9
