REMARK  11 active torsions:
REMARK  status: ('A' for Active; 'I' for Inactive)
REMARK    1  A    between atoms: C3_3  and  C4_4 
REMARK    2  A    between atoms: C5_5  and  C6_6 
REMARK    3  A    between atoms: C6_6  and  N1_7 
REMARK    4  A    between atoms: N1_7  and  C9_10 
REMARK    5  A    between atoms: C9_10  and  C10_11 
REMARK    6  A    between atoms: C10_11  and  C11_12 
REMARK    7  A    between atoms: C10_11  and  N2_16 
REMARK    8  A    between atoms: C11_12  and  C12_13 
REMARK       I    between atoms: N2_16  and  C15_18 
REMARK    9  A    between atoms: C15_18  and  C16_20 
REMARK   10  A    between atoms: C18_25  and  C19_26 
REMARK   11  A    between atoms: C22_31  and  O3_32 
ROOT
HETATM    1  C1  UNL     1      10.069   4.017   0.016  1.00  0.00     0.113 C 
HETATM    2  C2  UNL     1       8.836   3.354  -0.408  1.00  0.00    -0.097 C 
HETATM    3  C3  UNL     1       7.805   2.824  -0.754  1.00  0.00    -0.015 C 
ENDROOT
BRANCH   3   4
HETATM    4  C4  UNL     1       6.589   2.226  -1.167  1.00  0.00    -0.013 C 
HETATM    5  C5  UNL     1       5.541   1.736  -1.519  1.00  0.00    -0.065 C 
BRANCH   5   6
HETATM    6  C6  UNL     1       4.269   1.170  -1.934  1.00  0.00     0.330 C 
BRANCH   6   7
HETATM    7  N1  UNL     1       3.911   0.100  -0.935  1.00  0.00    -0.063 N 
HETATM    8  C7  UNL     1       4.321   0.564   0.352  1.00  0.00     0.273 C 
HETATM    9  C8  UNL     1       4.741  -1.023  -1.358  1.00  0.00     0.273 C 
BRANCH   7  10
HETATM   10  C9  UNL     1       2.547  -0.138  -1.162  1.00  0.00     0.262 C 
BRANCH  10  11
HETATM   11  C10 UNL     1       1.698  -0.724  -0.050  1.00  0.00     0.111 C 
BRANCH  11  12
HETATM   12  C11 UNL     1       2.217  -2.060   0.323  1.00  0.00     0.030 C 
BRANCH  12  13
HETATM   13  C12 UNL     1       1.531  -2.812   1.417  1.00  0.00    -0.021 C 
HETATM   14  C13 UNL     1       2.362  -4.124   1.595  1.00  0.00     0.009 C 
HETATM   15  C14 UNL     1       0.158  -3.272   0.960  1.00  0.00     0.009 C 
ENDBRANCH  12  13
ENDBRANCH  11  12
BRANCH  11  16
HETATM   16  N2  UNL     1       0.341  -0.756  -0.536  1.00  0.00    -0.353 N 
HETATM   17  C15 UNL     1      -0.605   0.129   0.064  1.00  0.00     0.250 C 
HETATM   18  O1  UNL     1      -0.251   0.918   0.997  1.00  0.00    -0.271 OA
ATOM     19  H2  UNL     1       0.065  -1.391  -1.285  1.00  0.00     0.163 HD
BRANCH  17  20
HETATM   20  C16 UNL     1      -2.024   0.177  -0.359  1.00  0.00     0.269 C 
HETATM   21  N3  UNL     1      -2.704   1.158   0.435  1.00  0.00    -0.338 N 
HETATM   22  C17 UNL     1      -3.746   0.950   1.340  1.00  0.00     0.241 C 
ATOM     23  H3  UNL     1      -2.389   2.122   0.326  1.00  0.00     0.163 HD
HETATM   24  O2  UNL     1      -3.801   1.812   2.296  1.00  0.00    -0.271 OA
HETATM   25  C18 UNL     1      -4.747  -0.097   1.330  1.00  0.00     0.179 C 
HETATM   26  N4  UNL     1      -5.362  -0.455   0.093  1.00  0.00    -0.359 N 
HETATM   27  C22 UNL     1      -4.928  -0.496  -1.218  1.00  0.00     0.135 C 
ATOM     28  H4  UNL     1      -6.334  -0.744   0.200  1.00  0.00     0.162 HD
HETATM   29  C23 UNL     1      -4.564   0.580  -2.175  1.00  0.00     0.155 C 
HETATM   30  C24 UNL     1      -5.006   1.954  -1.791  1.00  0.00     0.041 C 
HETATM   31  N5  UNL     1      -3.189   0.492  -2.621  1.00  0.00    -0.347 N 
HETATM   32  C25 UNL     1      -2.052   0.649  -1.781  1.00  0.00     0.250 C 
ATOM     33  H5  UNL     1      -3.024   0.304  -3.610  1.00  0.00     0.163 HD
HETATM   34  O4  UNL     1      -1.006   1.213  -2.239  1.00  0.00    -0.271 OA
BRANCH  25  35
HETATM   35  C19 UNL     1      -5.854   0.221   2.349  1.00  0.00     0.009 C 
HETATM   36  C20 UNL     1      -6.896  -0.882   2.346  1.00  0.00     0.012 C 
HETATM   37  C21 UNL     1      -6.568   1.496   2.067  1.00  0.00     0.012 C 
ENDBRANCH  25  35
BRANCH  27  38
HETATM   38  O3  UNL     1      -4.798  -1.668  -1.767  1.00  0.00    -0.348 OA
ATOM     39  H3  UNL     1      -4.500  -1.696  -2.668  1.00  0.00     0.219 HD
ENDBRANCH  27  38
ENDBRANCH  17  20
ENDBRANCH  11  16
ENDBRANCH  10  11
ENDBRANCH   7  10
ENDBRANCH   6   7
ENDBRANCH   5   6
ENDBRANCH   3   4
TORSDOF 11
