REMARK  11 active torsions:
REMARK  status: ('A' for Active; 'I' for Inactive)
REMARK    1  A    between atoms: C2_2  and  N1_3 
REMARK    2  A    between atoms: C5_6  and  C6_7 
REMARK    3  A    between atoms: C6_7  and  C7_8 
REMARK    4  A    between atoms: C7_8  and  C8_9 
REMARK    5  A    between atoms: C8_9  and  C9_10 
REMARK    6  A    between atoms: C9_10  and  N2_11 
REMARK    7  A    between atoms: N2_11  and  C11_13 
REMARK    8  A    between atoms: C11_13  and  C12_14 
REMARK    9  A    between atoms: C17_20  and  C18_21 
REMARK       I    between atoms: C18_21  and  N4_23 
REMARK   10  A    between atoms: N4_23  and  C19_25 
REMARK       I    between atoms: N5_27  and  C21_29 
REMARK   11  A    between atoms: C24_39  and  O3_40 
ROOT
HETATM    1  C18 UNL     1      -3.028  -1.590  -0.110  1.00  0.00     0.286 C 
HETATM    2  O1  UNL     1      -2.805  -1.935  -1.328  1.00  0.00    -0.264 OA
HETATM    3  N4  UNL     1      -4.319  -1.269   0.331  1.00  0.00    -0.340 N 
ATOM      4  H4  UNL     1      -4.442  -0.993   1.305  1.00  0.00     0.163 HD
ENDROOT
BRANCH   1   5
HETATM    5  C17 UNL     1      -1.858  -1.559   0.727  1.00  0.00     0.178 A 
HETATM    6  N1  UNL     1      -1.816  -2.210   1.884  1.00  0.00    -0.339 N 
HETATM    7  C3  UNL     1      -0.697  -2.061   2.665  1.00  0.00     0.094 A 
HETATM    8  C4  UNL     1       0.328  -1.276   2.259  1.00  0.00     0.042 A 
HETATM    9  C5  UNL     1       0.279  -0.595   1.039  1.00  0.00     0.014 A 
HETATM   10  N3  UNL     1      -0.817  -0.755   0.303  1.00  0.00    -0.337 N 
HETATM   11  C16 UNL     1      -0.975  -0.089  -0.998  1.00  0.00     0.158 C 
BRANCH   6  12
HETATM   12  C2  UNL     1      -2.810  -3.143   2.384  1.00  0.00     0.125 C 
HETATM   13  C1  UNL     1      -2.358  -4.537   1.881  1.00  0.00     0.027 C 
ENDBRANCH   6  12
BRANCH   9  14
HETATM   14  C6  UNL     1       1.434   0.238   0.617  1.00  0.00     0.057 C 
BRANCH  14  15
HETATM   15  C7  UNL     1       2.411  -0.515  -0.216  1.00  0.00     0.008 C 
BRANCH  15  16
HETATM   16  C8  UNL     1       3.542   0.376  -0.632  1.00  0.00     0.020 C 
BRANCH  16  17
HETATM   17  C9  UNL     1       4.275   0.915   0.553  1.00  0.00     0.121 C 
BRANCH  17  18
HETATM   18  N2  UNL     1       5.393   1.766   0.162  1.00  0.00    -0.397 N 
HETATM   19  C10 UNL     1       5.052   2.980  -0.436  1.00  0.00     0.148 C 
BRANCH  18  20
HETATM   20  C11 UNL     1       6.494   1.026  -0.244  1.00  0.00     0.066 C 
BRANCH  20  21
HETATM   21  C12 UNL     1       7.703   1.789  -0.688  1.00  0.00    -0.019 C 
HETATM   22  C13 UNL     1       8.801   0.758  -1.037  1.00  0.00     0.020 C 
HETATM   23  C14 UNL     1       8.144   2.723   0.382  1.00  0.00     0.020 C 
HETATM   24  C15 UNL     1       7.435   2.482  -2.020  1.00  0.00     0.020 C 
ENDBRANCH  20  21
ENDBRANCH  18  20
ENDBRANCH  17  18
ENDBRANCH  16  17
ENDBRANCH  15  16
ENDBRANCH  14  15
ENDBRANCH   9  14
ENDBRANCH   1   5
BRANCH   3  25
HETATM   25  C19 UNL     1      -5.494  -1.309  -0.529  1.00  0.00     0.179 C 
HETATM   26  C20 UNL     1      -6.088   0.050  -0.588  1.00  0.00     0.025 C 
HETATM   27  N5  UNL     1      -5.819   0.815  -1.589  1.00  0.00    -0.336 N 
HETATM   28  C22 UNL     1      -6.984   0.553   0.476  1.00  0.00     0.157 C 
HETATM   29  C21 UNL     1      -6.391   2.109  -1.632  1.00  0.00     0.186 C 
ATOM     30  H5  UNL     1      -5.205   0.494  -2.337  1.00  0.00     0.168 HD
HETATM   31  N6  UNL     1      -5.730   3.051  -1.037  1.00  0.00    -0.374 N 
HETATM   32  N7  UNL     1      -7.609   2.445  -2.265  1.00  0.00    -0.064 NA
ATOM     33  H62 UNL     1      -4.851   2.808  -0.580  1.00  0.00     0.158 HD
ATOM     34  H61 UNL     1      -6.142   3.983  -1.068  1.00  0.00     0.158 HD
HETATM   35  C23 UNL     1      -7.949  -0.519   0.810  1.00  0.00     0.225 C 
HETATM   36  O2  UNL     1      -9.137  -0.207   1.141  1.00  0.00    -0.273 OA
HETATM   37  N8  UNL     1      -7.513  -1.860   0.749  1.00  0.00    -0.332 N 
HETATM   38  C24 UNL     1      -6.487  -2.364  -0.127  1.00  0.00     0.248 C 
ATOM     39  H8  UNL     1      -7.961  -2.527   1.377  1.00  0.00     0.165 HD
BRANCH  38  40
HETATM   40  O3  UNL     1      -7.146  -2.904  -1.251  1.00  0.00    -0.374 OA
ATOM     41  H3  UNL     1      -7.773  -3.571  -0.997  1.00  0.00     0.212 HD
ENDBRANCH  38  40
ENDBRANCH   3  25
TORSDOF 11
