REMARK  9 active torsions:
REMARK  status: ('A' for Active; 'I' for Inactive)
REMARK    1  A    between atoms: N1_9  and  C8_10 
REMARK    2  A    between atoms: C8_10  and  C9_11 
REMARK    3  A    between atoms: C9_11  and  C10_12 
REMARK    4  A    between atoms: C10_12  and  C11_13 
REMARK    5  A    between atoms: C11_13  and  C12_14 
REMARK    6  A    between atoms: C12_14  and  C13_15 
REMARK    7  A    between atoms: C13_15  and  C14_16 
REMARK    8  A    between atoms: C14_16  and  N2_17 
REMARK    9  A    between atoms: N2_17  and  C15_19 
ROOT
HETATM    1  C13 UNL     1      -0.272  -0.445  -0.470  1.00  0.00     0.044 C 
ENDROOT
BRANCH   1   2
HETATM    2  C12 UNL     1       1.059  -1.124  -0.165  1.00  0.00     0.005 C 
BRANCH   2   3
HETATM    3  C11 UNL     1       1.785  -1.608  -1.382  1.00  0.00     0.000 C 
BRANCH   3   4
HETATM    4  C10 UNL     1       3.106  -2.263  -1.012  1.00  0.00     0.002 C 
BRANCH   4   5
HETATM    5  C9  UNL     1       4.051  -1.325  -0.298  1.00  0.00     0.022 C 
BRANCH   5   6
HETATM    6  C8  UNL     1       4.372  -0.156  -1.161  1.00  0.00     0.152 C 
BRANCH   6   7
HETATM    7  N1  UNL     1       5.324   0.795  -0.451  1.00  0.00    -0.264 N 
HETATM    8  C7  UNL     1       4.539   1.725   0.254  1.00  0.00     0.238 C 
HETATM    9  C6  UNL     1       4.927   2.459   1.683  1.00  0.00     0.116 C 
HETATM   10  O1  UNL     1       3.470   2.095  -0.117  1.00  0.00    -0.272 OA
HETATM   11  C5  UNL     1       6.203   1.878   1.612  1.00  0.00     0.092 C 
HETATM   12  C4  UNL     1       6.937   1.331   1.232  1.00  0.00    -0.151 C 
HETATM   13  C2  UNL     1       7.636   0.507   0.357  1.00  0.00     0.089 C 
HETATM   14  C1  UNL     1       8.898   1.117  -0.140  1.00  0.00     0.053 C 
HETATM   15  C3  UNL     1       7.779  -0.913   0.808  1.00  0.00     0.053 C 
HETATM   16  N4  UNL     1       6.598   0.455  -0.766  1.00  0.00    -0.311 N 
ATOM     17  H4  UNL     1       6.854   0.176  -1.713  1.00  0.00     0.182 HD
ENDBRANCH   6   7
ENDBRANCH   5   6
ENDBRANCH   4   5
ENDBRANCH   3   4
ENDBRANCH   2   3
ENDBRANCH   1   2
BRANCH   1  18
HETATM   18  C14 UNL     1      -1.189  -1.395  -1.164  1.00  0.00     0.057 C 
BRANCH  18  19
HETATM   19  N2  UNL     1      -2.453  -1.046  -1.566  1.00  0.00    -0.381 N 
ATOM     20  H2  UNL     1      -2.635  -0.908  -2.560  1.00  0.00     0.160 HD
BRANCH  19  21
HETATM   21  C15 UNL     1      -3.517  -0.871  -0.642  1.00  0.00     0.183 C 
HETATM   22  C16 UNL     1      -3.282   0.243   0.260  1.00  0.00     0.051 C 
HETATM   23  C17 UNL     1      -4.499   0.930   0.889  1.00  0.00    -0.010 C 
HETATM   24  C18 UNL     1      -5.266   0.028   1.772  1.00  0.00     0.009 C 
HETATM   25  C22 UNL     1      -5.216   1.814  -0.045  1.00  0.00     0.010 C 
HETATM   26  C19 UNL     1      -6.753   0.103   1.660  1.00  0.00    -0.013 C 
HETATM   27  C20 UNL     1      -7.221   1.497   1.292  1.00  0.00     0.010 C 
HETATM   28  C24 UNL     1      -7.260  -0.709   0.484  1.00  0.00     0.019 C 
HETATM   29  C21 UNL     1      -6.700   1.583  -0.128  1.00  0.00    -0.001 C 
HETATM   30  C23 UNL     1      -7.027   0.210  -0.664  1.00  0.00     0.082 C 
HETATM   31  C25 UNL     1      -5.978  -0.252  -1.561  1.00  0.00     0.223 C 
HETATM   32  O2  UNL     1      -6.331  -0.040  -2.779  1.00  0.00    -0.273 OA
HETATM   33  N3  UNL     1      -4.716  -0.851  -1.462  1.00  0.00    -0.340 N 
ATOM     34  H3  UNL     1      -4.597  -1.502  -2.238  1.00  0.00     0.164 HD
ENDBRANCH  19  21
ENDBRANCH  18  19
ENDBRANCH   1  18
TORSDOF 9
