REMARK  10 active torsions:
REMARK  status: ('A' for Active; 'I' for Inactive)
REMARK    1  A    between atoms: C3_5  and  C4_6 
REMARK    2  A    between atoms: C4_6  and  C5_7 
REMARK    3  A    between atoms: C9_14  and  C10_15 
REMARK    4  A    between atoms: C10_15  and  C11_16 
REMARK    5  A    between atoms: C11_16  and  C12_17 
REMARK    6  A    between atoms: C15_23  and  C16_24 
REMARK    7  A    between atoms: C16_24  and  C17_25 
REMARK    8  A    between atoms: N4_30  and  C21_31 
REMARK    9  A    between atoms: C21_31  and  C22_32 
REMARK   10  A    between atoms: C22_32  and  C23_33 
ROOT
HETATM    1  C1  UNL     1      -2.490   1.199   1.729  1.00  0.00     0.064 C 
HETATM    2  C2  UNL     1      -1.431   0.943   0.957  1.00  0.00     0.100 C 
HETATM    3  N1  UNL     1      -0.192   1.546   1.325  1.00  0.00    -0.342 N 
ATOM      4  H1  UNL     1      -0.071   1.642   2.333  1.00  0.00     0.167 HD
HETATM    5  C3  UNL     1       0.908   2.040   0.575  1.00  0.00     0.079 C 
HETATM    6  C8  UNL     1       1.073   1.558  -0.801  1.00  0.00     0.264 C 
HETATM    7  O1  UNL     1       0.392   2.028  -1.780  1.00  0.00    -0.266 OA
HETATM    8  N2  UNL     1       1.990   0.543  -1.183  1.00  0.00    -0.343 N 
ATOM      9  H2  UNL     1       2.350   0.551  -2.137  1.00  0.00     0.163 HD
HETATM   10  C9  UNL     1       2.440  -0.503  -0.287  1.00  0.00     0.177 C 
HETATM   11  C14 UNL     1       1.951  -1.790  -0.822  1.00  0.00     0.241 C 
HETATM   12  O2  UNL     1       2.389  -2.205  -1.916  1.00  0.00    -0.271 OA
HETATM   13  N3  UNL     1       0.978  -2.584  -0.112  1.00  0.00    -0.346 N 
ATOM     14  H3  UNL     1       1.094  -3.595  -0.043  1.00  0.00     0.163 HD
HETATM   15  C15 UNL     1      -0.159  -1.942   0.500  1.00  0.00     0.177 C 
HETATM   16  C20 UNL     1      -0.890  -1.083  -0.472  1.00  0.00     0.248 C 
HETATM   17  O3  UNL     1      -0.824  -1.413  -1.683  1.00  0.00    -0.271 OA
HETATM   18  N4  UNL     1      -1.659   0.077  -0.142  1.00  0.00    -0.303 N 
ENDROOT
BRANCH   5  19
HETATM   19  C4  UNL     1       1.248   3.493   0.715  1.00  0.00     0.067 C 
BRANCH  19  20
HETATM   20  C5  UNL     1       0.281   4.526   0.344  1.00  0.00    -0.017 C 
HETATM   21  C6  UNL     1       0.992   5.888   0.591  1.00  0.00     0.010 C 
HETATM   22  C7  UNL     1      -0.913   4.592   1.269  1.00  0.00     0.010 C 
ENDBRANCH  19  20
ENDBRANCH   5  19
BRANCH  18  23
HETATM   23  C21 UNL     1      -2.724   0.366  -1.080  1.00  0.00     0.133 C 
BRANCH  23  24
HETATM   24  C22 UNL     1      -3.999  -0.389  -0.872  1.00  0.00     0.020 C 
BRANCH  24  25
HETATM   25  C23 UNL     1      -5.038   0.007  -1.931  1.00  0.00    -0.003 C 
HETATM   26  C24 UNL     1      -6.321  -0.753  -1.721  1.00  0.00     0.005 C 
ENDBRANCH  24  25
ENDBRANCH  23  24
ENDBRANCH  18  23
BRANCH  10  27
HETATM   27  C10 UNL     1       3.910  -0.533  -0.100  1.00  0.00     0.035 C 
BRANCH  27  28
HETATM   28  C11 UNL     1       4.766  -0.738  -1.291  1.00  0.00     0.002 C 
BRANCH  28  29
HETATM   29  C12 UNL     1       6.224  -0.685  -0.774  1.00  0.00    -0.004 C 
HETATM   30  C13 UNL     1       6.468   0.649  -0.147  1.00  0.00     0.005 C 
ENDBRANCH  28  29
ENDBRANCH  27  28
ENDBRANCH  10  27
BRANCH  15  31
HETATM   31  C16 UNL     1      -1.059  -2.835   1.254  1.00  0.00     0.038 C 
BRANCH  31  32
HETATM   32  C17 UNL     1      -1.775  -3.926   0.589  1.00  0.00    -0.020 C 
HETATM   33  C18 UNL     1      -0.999  -5.005  -0.087  1.00  0.00     0.009 C 
HETATM   34  C19 UNL     1      -2.578  -4.656   1.695  1.00  0.00     0.009 C 
ENDBRANCH  31  32
ENDBRANCH  15  31
TORSDOF 10
