REMARK  12 active torsions:
REMARK  status: ('A' for Active; 'I' for Inactive)
REMARK    1  A    between atoms: N1_1  and  N2_4 
REMARK       I    between atoms: N2_4  and  C1_6 
REMARK    2  A    between atoms: C1_6  and  C2_8 
REMARK    3  A    between atoms: C2_8  and  O2_9 
REMARK    4  A    between atoms: C2_8  and  C3_11 
REMARK    5  A    between atoms: C2_8  and  C11_19 
REMARK    6  A    between atoms: C3_11  and  C4_12 
REMARK    7  A    between atoms: C4_12  and  C5_13 
REMARK    8  A    between atoms: C11_19  and  O3_20 
REMARK    9  A    between atoms: O3_20  and  C12_21 
REMARK   10  A    between atoms: C13_23  and  O5_24 
REMARK   11  A    between atoms: O5_24  and  C14_25 
REMARK   12  A    between atoms: C14_25  and  C15_26 
ROOT
HETATM    1  C12 UNL     1       0.774  -1.246   0.380  1.00  0.00     0.269 C 
HETATM    2  O4  UNL     1       1.169  -0.866  -0.929  1.00  0.00    -0.331 OA
HETATM    3  C13 UNL     1       2.433  -1.398  -1.248  1.00  0.00     0.268 C 
HETATM    4  C21 UNL     1       2.260  -2.946  -1.334  1.00  0.00     0.066 C 
HETATM    5  C22 UNL     1       1.923  -3.360   0.087  1.00  0.00     0.001 C 
HETATM    6  C23 UNL     1       1.839  -4.841   0.261  1.00  0.00     0.005 C 
HETATM    7  C24 UNL     1       2.263  -5.327   1.618  1.00  0.00     0.003 C 
HETATM    8  C25 UNL     1       1.320  -4.920   2.731  1.00  0.00     0.034 C 
HETATM    9  C26 UNL     1       1.003  -3.483   2.580  1.00  0.00     0.151 A 
HETATM   10  O6  UNL     1      -0.248  -2.950   2.735  1.00  0.00    -0.375 OA
HETATM   11  C27 UNL     1      -0.061  -3.389   1.472  1.00  0.00     0.160 A 
HETATM   12  C28 UNL     1       0.557  -2.706   0.348  1.00  0.00     0.077 C 
ENDROOT
BRANCH   1  13
HETATM   13  O3  UNL     1      -0.374  -0.574   0.694  1.00  0.00    -0.357 OA
BRANCH  13  14
HETATM   14  C11 UNL     1      -0.271   0.318   1.731  1.00  0.00     0.219 C 
BRANCH  14  15
HETATM   15  C2  UNL     1      -1.572   1.018   2.043  1.00  0.00     0.161 C 
BRANCH  15  16
HETATM   16  C1  UNL     1      -2.633   0.112   2.527  1.00  0.00     0.272 C 
HETATM   17  N2  UNL     1      -3.133  -0.980   1.802  1.00  0.00    -0.274 N 
ATOM     18  H2  UNL     1      -2.752  -1.183   0.878  1.00  0.00     0.189 HD
HETATM   19  O1  UNL     1      -3.142   0.321   3.683  1.00  0.00    -0.268 OA
BRANCH  17  20
HETATM   20  N1  UNL     1      -4.136  -1.789   2.318  1.00  0.00    -0.343 N 
ATOM     21  H12 UNL     1      -4.506  -1.572   3.243  1.00  0.00     0.176 HD
ATOM     22  H11 UNL     1      -4.500  -2.583   1.791  1.00  0.00     0.176 HD
ENDBRANCH  17  20
ENDBRANCH  15  16
BRANCH  15  23
HETATM   23  O2  UNL     1      -1.249   1.873   3.143  1.00  0.00    -0.378 OA
ATOM     24  H2  UNL     1      -0.566   2.456   2.832  1.00  0.00     0.211 HD
ENDBRANCH  15  23
BRANCH  15  25
HETATM   25  C3  UNL     1      -2.007   1.969   0.969  1.00  0.00     0.051 C 
BRANCH  25  26
HETATM   26  C4  UNL     1      -2.528   1.375  -0.282  1.00  0.00     0.008 C 
BRANCH  26  27
HETATM   27  C5  UNL     1      -2.921   2.475  -1.286  1.00  0.00    -0.014 C 
HETATM   28  C6  UNL     1      -3.440   1.787  -2.526  1.00  0.00     0.004 C 
HETATM   29  C7  UNL     1      -4.817   1.212  -2.342  1.00  0.00     0.000 C 
HETATM   30  C8  UNL     1      -5.798   2.312  -2.056  1.00  0.00     0.000 C 
HETATM   31  C9  UNL     1      -5.061   3.620  -1.781  1.00  0.00     0.000 C 
HETATM   32  C10 UNL     1      -3.993   3.370  -0.749  1.00  0.00     0.004 C 
ENDBRANCH  26  27
ENDBRANCH  25  26
ENDBRANCH  15  25
ENDBRANCH  14  15
ENDBRANCH  13  14
ENDBRANCH   1  13
BRANCH   3  33
HETATM   33  O5  UNL     1       3.291  -1.032  -0.321  1.00  0.00    -0.332 OA
BRANCH  33  34
HETATM   34  C14 UNL     1       4.375  -0.283  -0.407  1.00  0.00     0.144 C 
BRANCH  34  35
HETATM   35  C15 UNL     1       4.310   1.151  -0.739  1.00  0.00    -0.040 C 
HETATM   36  C16 UNL     1       4.779   2.072   0.136  1.00  0.00    -0.018 C 
HETATM   37  C17 UNL     1       4.781   3.518  -0.055  1.00  0.00     0.028 C 
HETATM   38  C18 UNL     1       3.934   3.991  -1.204  1.00  0.00     0.004 C 
HETATM   39  C19 UNL     1       2.964   2.928  -1.665  1.00  0.00     0.005 C 
HETATM   40  C20 UNL     1       3.798   1.696  -1.999  1.00  0.00     0.040 C 
ENDBRANCH  34  35
ENDBRANCH  33  34
ENDBRANCH   3  33
TORSDOF 12
