REMARK  14 active torsions:
REMARK  status: ('A' for Active; 'I' for Inactive)
REMARK    1  A    between atoms: C2_2  and  C3_3 
REMARK    2  A    between atoms: C6_6  and  C7_7 
REMARK    3  A    between atoms: C7_7  and  O1_8 
REMARK    4  A    between atoms: C9_11  and  O2_12 
REMARK    5  A    between atoms: C13_17  and  O3_18 
REMARK    6  A    between atoms: C14_21  and  C15_22 
REMARK    7  A    between atoms: C16_23  and  C17_24 
REMARK    8  A    between atoms: C17_24  and  C18_25 
REMARK    9  A    between atoms: C24_32  and  C25_33 
REMARK   10  A    between atoms: C25_33  and  O6_35 
REMARK   11  A    between atoms: O6_35  and  C27_36 
REMARK   12  A    between atoms: C27_36  and  C28_37 
REMARK   13  A    between atoms: C28_37  and  C29_38 
REMARK   14  A    between atoms: C29_38  and  O7_39 
ROOT
HETATM    1  C3  UNL     1      -1.974   1.806   1.006  1.00  0.00     0.021 C 
HETATM    2  C4  UNL     1      -2.200   2.159  -0.434  1.00  0.00     0.027 C 
HETATM    3  C5  UNL     1      -0.665   2.221   1.558  1.00  0.00    -0.006 C 
HETATM    4  C6  UNL     1       0.558   2.129   1.112  1.00  0.00    -0.056 C 
HETATM    5  C8  UNL     1       1.034   1.572  -0.165  1.00  0.00     0.079 C 
HETATM    6  C9  UNL     1       1.361   0.152  -0.307  1.00  0.00     0.099 C 
HETATM    7  C10 UNL     1       0.537  -0.517  -1.421  1.00  0.00     0.034 C 
HETATM    8  C11 UNL     1      -0.548  -1.216  -1.268  1.00  0.00     0.009 C 
HETATM    9  C12 UNL     1      -1.232  -1.809  -2.458  1.00  0.00     0.054 C 
HETATM   10  C13 UNL     1      -1.231  -1.480   0.009  1.00  0.00     0.185 C 
HETATM   11  O4  UNL     1      -1.506  -0.593   0.966  1.00  0.00    -0.320 OA
HETATM   12  C14 UNL     1      -2.330   0.377   1.376  1.00  0.00     0.169 C 
HETATM   13  C21 UNL     1       1.281  -0.146  -2.634  1.00  0.00     0.163 C 
HETATM   14  O5  UNL     1       0.885  -0.129  -3.831  1.00  0.00    -0.292 OA
HETATM   15  C22 UNL     1       2.695   0.252  -2.287  1.00  0.00     0.066 C 
HETATM   16  C23 UNL     1       2.901   1.641  -2.687  1.00  0.00     0.018 C 
HETATM   17  C24 UNL     1       2.726  -0.180  -0.891  1.00  0.00     0.065 C 
ENDROOT
BRANCH  17  18
HETATM   18  C25 UNL     1       3.932  -0.273  -0.100  1.00  0.00     0.125 C 
HETATM   19  C26 UNL     1       5.170  -0.533  -0.995  1.00  0.00     0.040 C 
BRANCH  18  20
HETATM   20  O6  UNL     1       3.917  -1.456   0.689  1.00  0.00    -0.386 OA
BRANCH  20  21
HETATM   21  C27 UNL     1       4.271  -1.383   1.969  1.00  0.00     0.170 C 
BRANCH  21  22
HETATM   22  C28 UNL     1       5.681  -1.024   2.336  1.00  0.00     0.052 C 
BRANCH  22  23
HETATM   23  C29 UNL     1       6.713  -2.015   1.937  1.00  0.00     0.166 C 
BRANCH  23  24
HETATM   24  O7  UNL     1       8.006  -1.623   2.288  1.00  0.00    -0.401 OA
ATOM     25  H7  UNL     1       8.666  -2.257   2.033  1.00  0.00     0.209 HD
ENDBRANCH  23  24
ENDBRANCH  22  23
ENDBRANCH  21  22
ENDBRANCH  20  21
ENDBRANCH  18  20
ENDBRANCH  17  18
BRANCH   6  26
HETATM   26  O2  UNL     1       1.269  -0.498   0.894  1.00  0.00    -0.384 OA
ATOM     27  H2  UNL     1       1.481  -1.419   0.802  1.00  0.00     0.211 HD
ENDBRANCH   6  26
BRANCH   4  28
HETATM   28  C7  UNL     1       1.589   2.729   2.080  1.00  0.00     0.198 C 
BRANCH  28  29
HETATM   29  O1  UNL     1       2.505   1.824   2.502  1.00  0.00    -0.397 OA
ATOM     30  H1  UNL     1       3.143   2.195   3.101  1.00  0.00     0.209 HD
ENDBRANCH  28  29
ENDBRANCH   4  28
BRANCH  10  31
HETATM   31  O3  UNL     1      -1.611  -2.708   0.244  1.00  0.00    -0.341 OA
ATOM     32  H3  UNL     1      -2.052  -2.878   1.068  1.00  0.00     0.220 HD
ENDBRANCH  10  31
BRANCH   1  33
HETATM   33  C2  UNL     1      -3.065   2.666   1.709  1.00  0.00    -0.021 C 
HETATM   34  C1  UNL     1      -3.491   3.776   1.199  1.00  0.00     0.008 C 
ENDBRANCH   1  33
BRANCH  12  35
HETATM   35  C15 UNL     1      -3.799   0.214   1.143  1.00  0.00     0.003 C 
HETATM   36  C16 UNL     1      -4.198  -0.158  -0.063  1.00  0.00    -0.028 C 
BRANCH  36  37
HETATM   37  C17 UNL     1      -5.653  -0.330  -0.329  1.00  0.00     0.030 C 
BRANCH  37  38
HETATM   38  C18 UNL     1      -5.930  -1.762  -0.756  1.00  0.00    -0.019 C 
HETATM   39  C19 UNL     1      -5.513  -2.703   0.332  1.00  0.00     0.010 C 
HETATM   40  C20 UNL     1      -7.431  -1.880  -0.945  1.00  0.00     0.010 C 
ENDBRANCH  37  38
ENDBRANCH  36  37
ENDBRANCH  12  35
TORSDOF 14
