REMARK  14 active torsions:
REMARK  status: ('A' for Active; 'I' for Inactive)
REMARK    1  A    between atoms: C2_2  and  C4_4 
REMARK    2  A    between atoms: C10_10  and  O1_11 
REMARK    3  A    between atoms: C12_14  and  O2_15 
REMARK    4  A    between atoms: C15_19  and  C16_20 
REMARK    5  A    between atoms: C16_20  and  C17_22 
REMARK    6  A    between atoms: C18_23  and  C19_24 
REMARK    7  A    between atoms: C19_24  and  C21_26 
REMARK    8  A    between atoms: C21_26  and  O4_27 
REMARK    9  A    between atoms: C21_26  and  O5_29 
REMARK   10  A    between atoms: C21_26  and  C23_31 
REMARK   11  A    between atoms: C23_31  and  C24_32 
REMARK   12  A    between atoms: C23_31  and  C28_36 
REMARK   13  A    between atoms: C24_32  and  C25_33 
REMARK   14  A    between atoms: C28_36  and  O7_38 
ROOT
HETATM    1  C16 UNL     1      -1.501   0.364  -1.309  1.00  0.00     0.155 C 
HETATM    2  O3  UNL     1      -2.030   0.832  -2.382  1.00  0.00    -0.293 OA
ENDROOT
BRANCH   1   3
HETATM    3  C15 UNL     1      -2.310   0.063  -0.119  1.00  0.00     0.079 C 
HETATM    4  C4  UNL     1      -1.837   0.651   1.139  1.00  0.00     0.025 C 
HETATM    5  C5  UNL     1      -2.105  -0.107   2.410  1.00  0.00     0.010 C 
HETATM    6  C6  UNL     1      -2.606  -1.484   2.340  1.00  0.00     0.010 C 
HETATM    7  C7  UNL     1      -3.565  -1.619   1.202  1.00  0.00     0.028 C 
HETATM    8  C8  UNL     1      -4.298  -2.882   1.147  1.00  0.00    -0.056 C 
HETATM    9  C13 UNL     1      -2.710  -1.396  -0.045  1.00  0.00     0.001 C 
HETATM   10  C9  UNL     1      -5.025  -3.195   2.219  1.00  0.00     0.017 C 
HETATM   11  C10 UNL     1      -4.307  -3.840   0.011  1.00  0.00     0.149 C 
HETATM   12  C11 UNL     1      -3.705  -3.280  -1.246  1.00  0.00     0.068 C 
HETATM   13  C12 UNL     1      -3.589  -1.782  -1.218  1.00  0.00     0.130 C 
HETATM   14  C14 UNL     1      -1.497  -2.262  -0.049  1.00  0.00     0.019 C 
BRANCH   4  15
HETATM   15  C2  UNL     1      -2.110   2.094   1.331  1.00  0.00    -0.088 C 
HETATM   16  C1  UNL     1      -2.736   2.848   0.488  1.00  0.00     0.014 C 
HETATM   17  C3  UNL     1      -1.624   2.756   2.597  1.00  0.00     0.043 C 
ENDBRANCH   4  15
BRANCH  11  18
HETATM   18  O1  UNL     1      -5.587  -4.354  -0.201  1.00  0.00    -0.391 OA
ATOM     19  H1  UNL     1      -5.593  -4.966  -0.927  1.00  0.00     0.210 HD
ENDBRANCH  11  18
BRANCH  13  20
HETATM   20  O2  UNL     1      -4.873  -1.283  -0.928  1.00  0.00    -0.395 OA
ATOM     21  H2  UNL     1      -4.800  -0.336  -0.910  1.00  0.00     0.210 HD
ENDBRANCH  13  20
ENDBRANCH   1   3
BRANCH   1  22
HETATM   22  C17 UNL     1      -0.050   0.152  -1.359  1.00  0.00     0.051 C 
HETATM   23  C18 UNL     1       0.632   0.417  -2.429  1.00  0.00     0.015 C 
BRANCH  23  24
HETATM   24  C19 UNL     1       2.036   0.292  -2.694  1.00  0.00    -0.005 C 
HETATM   25  C20 UNL     1       2.383   0.623  -3.976  1.00  0.00     0.024 C 
BRANCH  24  26
HETATM   26  C21 UNL     1       3.120  -0.068  -1.826  1.00  0.00     0.202 C 
BRANCH  26  27
HETATM   27  O4  UNL     1       4.246  -0.518  -2.614  1.00  0.00    -0.361 OA
ATOM     28  H4  UNL     1       4.964  -0.756  -2.039  1.00  0.00     0.213 HD
ENDBRANCH  26  27
BRANCH  26  29
HETATM   29  O5  UNL     1       2.778  -1.303  -1.166  1.00  0.00    -0.355 OA
HETATM   30  C22 UNL     1       2.473  -2.288  -2.066  1.00  0.00     0.206 C 
ENDBRANCH  26  29
BRANCH  26  31
HETATM   31  C23 UNL     1       3.706   0.848  -0.820  1.00  0.00     0.153 C 
BRANCH  31  32
HETATM   32  C24 UNL     1       2.775   1.363   0.215  1.00  0.00     0.024 C 
BRANCH  32  33
HETATM   33  C25 UNL     1       3.408   2.272   1.253  1.00  0.00    -0.022 C 
HETATM   34  C26 UNL     1       2.242   2.663   2.190  1.00  0.00     0.009 C 
HETATM   35  C27 UNL     1       4.409   1.595   2.126  1.00  0.00     0.009 C 
ENDBRANCH  32  33
ENDBRANCH  31  32
BRANCH  31  36
HETATM   36  C28 UNL     1       4.600   1.907  -1.352  1.00  0.00     0.268 C 
HETATM   37  O6  UNL     1       4.520   2.283  -2.523  1.00  0.00    -0.265 OA
BRANCH  36  38
HETATM   38  O7  UNL     1       5.555   2.514  -0.554  1.00  0.00    -0.326 OA
HETATM   39  C29 UNL     1       6.409   3.538  -1.078  1.00  0.00     0.213 C 
ENDBRANCH  36  38
ENDBRANCH  31  36
ENDBRANCH  26  31
ENDBRANCH  24  26
ENDBRANCH  23  24
ENDBRANCH   1  22
TORSDOF 14
