REMARK  2 active torsions:
REMARK  status: ('A' for Active; 'I' for Inactive)
REMARK    1  A    between atoms: C2_2  and  C4_4 
REMARK    2  A    between atoms: C8_10  and  N2_11 
ROOT
HETATM    1  C4  UNL     1      -0.105   0.012   0.323  1.00  0.00     0.039 C 
HETATM    2  C5  UNL     1       0.454  -1.348   0.574  1.00  0.00     0.010 C 
HETATM    3  C6  UNL     1       1.955  -1.249   0.754  1.00  0.00     0.020 C 
HETATM    4  C7  UNL     1       2.462  -0.753  -0.606  1.00  0.00     0.115 C 
HETATM    5  N1  UNL     1       2.040   0.591  -0.755  1.00  0.00    -0.395 N 
ATOM      6  H1  UNL     1       2.706   1.333  -0.969  1.00  0.00     0.155 HD
HETATM    7  C8  UNL     1       0.668   0.865  -0.597  1.00  0.00     0.281 C 
ENDROOT
BRANCH   7   8
HETATM    8  N2  UNL     1       0.534   2.257  -0.133  1.00  0.00    -0.058 N 
ATOM      9  H23 UNL     1      -0.438   2.553  -0.040  1.00  0.00     0.276 HD
ATOM     10  H22 UNL     1       0.805   2.378   0.843  1.00  0.00     0.276 HD
ATOM     11  H21 UNL     1       1.069   2.847  -0.770  1.00  0.00     0.276 HD
ENDBRANCH   7   8
BRANCH   1  12
HETATM   12  C2  UNL     1      -1.539  -0.164  -0.163  1.00  0.00    -0.015 C 
HETATM   13  C1  UNL     1      -2.335  -0.883   0.913  1.00  0.00     0.010 C 
HETATM   14  C3  UNL     1      -2.209   1.154  -0.411  1.00  0.00     0.010 C 
ENDBRANCH   1  12
TORSDOF 2
