REMARK  3 active torsions:
REMARK  status: ('A' for Active; 'I' for Inactive)
REMARK    1  A    between atoms: C2_2  and  N1_3 
REMARK    2  A    between atoms: C2_2  and  C3_7 
REMARK    3  A    between atoms: C6_10  and  N2_11 
ROOT
HETATM    1  C3  UNL     1      -0.587   0.360   0.100  1.00  0.00     0.016 C 
HETATM    2  C4  UNL     1       0.129  -0.797   0.762  1.00  0.00     0.008 C 
HETATM    3  C5  UNL     1       1.579  -0.345   0.962  1.00  0.00     0.033 C 
HETATM    4  C6  UNL     1       2.215  -0.021  -0.349  1.00  0.00     0.183 C 
HETATM    5  C7  UNL     1       1.401   1.021  -1.112  1.00  0.00     0.033 C 
HETATM    6  C8  UNL     1      -0.017   0.510  -1.276  1.00  0.00     0.008 C 
ENDROOT
BRANCH   1   7
HETATM    7  C2  UNL     1      -2.079   0.194   0.118  1.00  0.00     0.183 C 
HETATM    8  C1  UNL     1      -2.556  -1.028  -0.585  1.00  0.00     0.040 C 
BRANCH   7   9
HETATM    9  N1  UNL     1      -2.552   0.170   1.476  1.00  0.00    -0.075 N 
ATOM     10  H13 UNL     1      -3.565   0.060   1.532  1.00  0.00     0.274 HD
ATOM     11  H12 UNL     1      -2.288  -0.686   1.964  1.00  0.00     0.274 HD
ATOM     12  H11 UNL     1      -2.225   1.007   1.958  1.00  0.00     0.274 HD
ENDBRANCH   7   9
ENDBRANCH   1   7
BRANCH   4  13
HETATM   13  N2  UNL     1       3.509   0.572  -0.115  1.00  0.00    -0.075 N 
ATOM     14  H23 UNL     1       3.457   1.383   0.501  1.00  0.00     0.274 HD
ATOM     15  H22 UNL     1       4.104  -0.015   0.469  1.00  0.00     0.274 HD
ATOM     16  H21 UNL     1       3.944   0.793  -1.011  1.00  0.00     0.274 HD
ENDBRANCH   4  13
TORSDOF 3
