REMARK  1 active torsions:
REMARK  status: ('A' for Active; 'I' for Inactive)
REMARK    1  A    between atoms: C5_7  and  C6_8 
ROOT
HETATM    1  C1  UNL     1      -2.562   0.673  -1.435  1.00  0.00     0.040 C 
HETATM    2  C2  UNL     1      -1.647   0.424  -0.255  1.00  0.00     0.189 C 
HETATM    3  C3  UNL     1      -2.144  -0.756   0.497  1.00  0.00     0.076 C 
HETATM    4  C4  UNL     1      -1.126  -1.518   1.259  1.00  0.00     0.059 C 
HETATM    5  N1  UNL     1       0.226  -1.214   1.009  1.00  0.00    -0.375 N 
ATOM      6  H1  UNL     1       0.968  -1.901   1.145  1.00  0.00     0.160 HD
HETATM    7  C5  UNL     1       0.497   0.104   0.556  1.00  0.00     0.287 C 
HETATM    8  N2  UNL     1      -0.262   0.338  -0.652  1.00  0.00    -0.050 N 
ATOM      9  H21 UNL     1       0.058   1.150  -1.179  1.00  0.00     0.280 HD
ATOM     10  H22 UNL     1      -0.092  -0.359  -1.377  1.00  0.00     0.280 HD
ENDROOT
BRANCH   7  11
HETATM   11  C6  UNL     1       1.964   0.358   0.391  1.00  0.00     0.028 C 
HETATM   12  C7  UNL     1       2.612  -0.567  -0.601  1.00  0.00     0.013 C 
HETATM   13  C8  UNL     1       2.265   1.792   0.028  1.00  0.00     0.013 C 
ENDBRANCH   7  11
TORSDOF 1
