REMARK  4 active torsions:
REMARK  status: ('A' for Active; 'I' for Inactive)
REMARK    1  A    between atoms: N1_1  and  C1_5 
REMARK    2  A    between atoms: C1_5  and  C2_6 
REMARK    3  A    between atoms: C6_10  and  C7_11 
REMARK    4  A    between atoms: C7_11  and  C8_12 
ROOT
HETATM    1  C2  UNL     1      -1.270  -0.019  -0.283  1.00  0.00    -0.033 A 
HETATM    2  C3  UNL     1      -1.316  -1.372  -0.028  1.00  0.00     0.009 A 
HETATM    3  C4  UNL     1      -0.168  -2.116   0.128  1.00  0.00     0.001 A 
HETATM    4  C5  UNL     1       1.054  -1.448   0.018  1.00  0.00     0.007 A 
HETATM    5  C6  UNL     1       1.148  -0.106  -0.234  1.00  0.00    -0.055 A 
HETATM    6  C9  UNL     1      -0.022   0.609  -0.385  1.00  0.00     0.016 A 
ENDROOT
BRANCH   1   7
HETATM    7  C1  UNL     1      -2.443   0.849  -0.464  1.00  0.00     0.268 C 
BRANCH   7   8
HETATM    8  N1  UNL     1      -3.700   0.160  -0.364  1.00  0.00    -0.075 N 
ATOM      9  H13 UNL     1      -3.731  -0.625  -1.015  1.00  0.00     0.274 HD
ATOM     10  H12 UNL     1      -3.762  -0.346   0.519  1.00  0.00     0.274 HD
ATOM     11  H11 UNL     1      -4.514   0.762  -0.490  1.00  0.00     0.274 HD
ENDBRANCH   7   8
ENDBRANCH   1   7
BRANCH   5  12
HETATM   12  C7  UNL     1       2.486   0.560  -0.342  1.00  0.00     0.070 C 
BRANCH  12  13
HETATM   13  C8  UNL     1       2.886   1.034   1.032  1.00  0.00     0.226 C 
HETATM   14  F1  UNL     1       1.963   1.923   1.510  1.00  0.00    -0.255 F 
ENDBRANCH  12  13
ENDBRANCH   5  12
TORSDOF 4
