REMARK  8 active torsions:
REMARK  status: ('A' for Active; 'I' for Inactive)
REMARK       I    between atoms: N1_3  and  C3_5 
REMARK       I    between atoms: C3_5  and  N4_15 
REMARK    1  A    between atoms: N2_6  and  C4_8 
REMARK    2  A    between atoms: C4_8  and  C5_9 
REMARK    3  A    between atoms: C5_9  and  N3_10 
REMARK    4  A    between atoms: N3_10  and  C6_11 
REMARK    5  A    between atoms: N3_10  and  C8_13 
REMARK    6  A    between atoms: N4_15  and  C10_17 
REMARK    7  A    between atoms: N5_21  and  C14_22 
REMARK    8  A    between atoms: C16_24  and  O1_25 
ROOT
HETATM    1  C1  UNL     1       1.272  -4.502   1.648  1.00  0.00     0.037 C 
HETATM    2  C2  UNL     1       0.913  -3.929   0.654  1.00  0.00     0.015 C 
HETATM    3  N1  UNL     1       0.504  -3.285  -0.516  1.00  0.00    -0.150 N 
ATOM      4  H1  UNL     1       0.641  -3.743  -1.417  1.00  0.00     0.195 HD
HETATM    5  C3  UNL     1      -0.098  -2.004  -0.467  1.00  0.00     0.681 C 
HETATM    6  N2  UNL     1      -1.249  -1.832  -0.952  1.00  0.00    -0.224 N 
ATOM      7  H2  UNL     1      -1.687  -2.657  -1.363  1.00  0.00     0.177 HD
HETATM    8  N4  UNL     1       0.618  -0.938   0.130  1.00  0.00    -0.217 N 
ATOM      9  H4  UNL     1       0.173  -0.330   0.817  1.00  0.00     0.178 HD
ENDROOT
BRANCH   6  10
HETATM   10  C4  UNL     1      -2.023  -0.622  -1.000  1.00  0.00     0.158 C 
BRANCH  10  11
HETATM   11  C5  UNL     1      -3.286  -0.737  -0.198  1.00  0.00     0.142 C 
BRANCH  11  12
HETATM   12  N3  UNL     1      -4.055   0.447  -0.249  1.00  0.00    -0.393 N 
BRANCH  12  13
HETATM   13  C6  UNL     1      -3.549   1.589   0.373  1.00  0.00     0.054 C 
HETATM   14  C7  UNL     1      -4.479   2.764   0.205  1.00  0.00     0.054 C 
ENDBRANCH  12  13
BRANCH  12  15
HETATM   15  C8  UNL     1      -5.457   0.285  -0.332  1.00  0.00     0.117 C 
HETATM   16  C9  UNL     1      -5.938  -0.300   0.993  1.00  0.00     0.026 C 
ENDBRANCH  12  15
ENDBRANCH  11  12
ENDBRANCH  10  11
ENDBRANCH   6  10
BRANCH   8  17
HETATM   17  C10 UNL     1       2.002  -0.731  -0.260  1.00  0.00     0.148 C 
HETATM   18  C11 UNL     1       2.162  -0.439  -1.716  1.00  0.00     0.035 C 
HETATM   19  C12 UNL     1       2.675   0.989  -1.916  1.00  0.00     0.047 C 
HETATM   20  C13 UNL     1       4.057   1.027  -1.282  1.00  0.00     0.066 C 
HETATM   21  N5  UNL     1       3.951   0.571   0.044  1.00  0.00    -0.346 N 
HETATM   22  C16 UNL     1       2.668   0.338   0.586  1.00  0.00     0.246 C 
BRANCH  21  23
HETATM   23  C14 UNL     1       5.075   0.593   0.881  1.00  0.00     0.061 C 
HETATM   24  C15 UNL     1       5.560   1.962   1.264  1.00  0.00     0.055 C 
ENDBRANCH  21  23
BRANCH  22  25
HETATM   25  O1  UNL     1       2.812  -0.222   1.865  1.00  0.00    -0.374 OA
ATOM     26  H1  UNL     1       3.229   0.447   2.395  1.00  0.00     0.212 HD
ENDBRANCH  22  25
ENDBRANCH   8  17
TORSDOF 8
