REMARK  8 active torsions:
REMARK  status: ('A' for Active; 'I' for Inactive)
REMARK    1  A    between atoms: C2_2  and  C4_4 
REMARK    2  A    between atoms: C4_4  and  C5_5 
REMARK    3  A    between atoms: C5_5  and  C6_6 
REMARK    4  A    between atoms: C5_5  and  N3_15 
REMARK    5  A    between atoms: C6_6  and  N1_7 
REMARK    6  A    between atoms: N1_7  and  S1_9 
REMARK    7  A    between atoms: S1_9  and  N2_10 
REMARK    8  A    between atoms: N3_15  and  C7_17 
ROOT
HETATM    1  C5  UNL     1      -0.716   0.003  -0.840  1.00  0.00     0.095 C 
ENDROOT
BRANCH   1   2
HETATM    2  C4  UNL     1      -1.924  -0.870  -0.952  1.00  0.00     0.030 C 
BRANCH   2   3
HETATM    3  C2  UNL     1      -2.512  -1.315   0.341  1.00  0.00    -0.021 C 
HETATM    4  C1  UNL     1      -3.738  -2.192   0.037  1.00  0.00     0.009 C 
HETATM    5  C3  UNL     1      -1.605  -2.199   1.170  1.00  0.00     0.009 C 
ENDBRANCH   2   3
ENDBRANCH   1   2
BRANCH   1   6
HETATM    6  C6  UNL     1      -0.970   1.281  -0.087  1.00  0.00     0.158 C 
BRANCH   6   7
HETATM    7  N1  UNL     1      -2.011   2.025  -0.802  1.00  0.00    -0.301 N 
ATOM      8  H1  UNL     1      -2.462   1.704  -1.659  1.00  0.00     0.173 HD
BRANCH   7   9
HETATM    9  S1  UNL     1      -2.376   3.514  -0.009  1.00  0.00     0.312 S 
HETATM   10  O1  UNL     1      -2.640   4.575  -1.010  1.00  0.00    -0.183 OA
HETATM   11  O2  UNL     1      -1.152   3.921   0.786  1.00  0.00    -0.183 OA
BRANCH   9  12
HETATM   12  N2  UNL     1      -3.678   3.314   1.120  1.00  0.00    -0.312 N 
ATOM     13  H22 UNL     1      -4.155   2.427   1.282  1.00  0.00     0.170 HD
ATOM     14  H21 UNL     1      -3.894   4.194   1.589  1.00  0.00     0.170 HD
ENDBRANCH   9  12
ENDBRANCH   7   9
ENDBRANCH   6   7
ENDBRANCH   1   6
BRANCH   1  15
HETATM   15  N3  UNL     1       0.410  -0.737  -0.457  1.00  0.00    -0.408 N 
ATOM     16  H3  UNL     1       0.356  -1.755  -0.430  1.00  0.00     0.154 HD
BRANCH  15  17
HETATM   17  C7  UNL     1       1.605  -0.102  -0.112  1.00  0.00     0.115 C 
HETATM   18  C8  UNL     1       2.142   0.656  -1.304  1.00  0.00     0.054 C 
HETATM   19  C9  UNL     1       3.302  -0.178  -1.839  1.00  0.00     0.170 C 
HETATM   20  O3  UNL     1       4.297  -0.054  -0.885  1.00  0.00    -0.383 OA
HETATM   21  C10 UNL     1       4.021  -0.728   0.287  1.00  0.00     0.153 C 
HETATM   22  C11 UNL     1       4.581   0.127   1.411  1.00  0.00     0.042 C 
HETATM   23  C12 UNL     1       2.585  -1.040   0.518  1.00  0.00     0.221 C 
HETATM   24  F1  UNL     1       2.302  -2.324   0.087  1.00  0.00    -0.245 F 
ENDBRANCH  15  17
ENDBRANCH   1  15
TORSDOF 8
