REMARK  7 active torsions:
REMARK  status: ('A' for Active; 'I' for Inactive)
REMARK    1  A    between atoms: C2_2  and  C3_3 
REMARK    2  A    between atoms: C3_3  and  C4_4 
REMARK    3  A    between atoms: C4_4  and  C5_5 
REMARK    4  A    between atoms: C7_8  and  N1_10 
REMARK       I    between atoms: N1_10  and  C9_12 
REMARK    5  A    between atoms: C9_12  and  C10_14 
REMARK    6  A    between atoms: C13_17  and  N2_18 
REMARK    7  A    between atoms: N2_18  and  C14_20 
ROOT
HETATM    1  N1  UNL     1      -0.696  -0.294  -0.200  1.00  0.00    -0.350 N 
ATOM      2  H1  UNL     1      -1.164  -0.170  -1.098  1.00  0.00     0.163 HD
HETATM    3  C9  UNL     1      -1.401  -0.056   0.999  1.00  0.00     0.222 C 
HETATM    4  O1  UNL     1      -0.812  -0.213   2.099  1.00  0.00    -0.273 OA
ENDROOT
BRANCH   1   5
HETATM    5  C7  UNL     1       0.715  -0.721  -0.160  1.00  0.00     0.048 C 
HETATM    6  C6  UNL     1       1.530   0.303   0.525  1.00  0.00     0.079 C 
HETATM    7  C4  UNL     1       2.961   0.465  -0.001  1.00  0.00     0.130 C 
HETATM    8  O3  UNL     1       2.962   0.176  -1.398  1.00  0.00    -0.269 OA
HETATM    9  N3  UNL     1       2.564  -1.100  -1.602  1.00  0.00    -0.097 NA
HETATM   10  C16 UNL     1       1.114  -1.052  -1.571  1.00  0.00     0.173 C 
HETATM   11  C8  UNL     1       0.719  -2.051   0.609  1.00  0.00     0.040 C 
BRANCH   7  12
HETATM   12  C3  UNL     1       3.840  -0.517   0.618  1.00  0.00     0.011 C 
BRANCH  12  13
HETATM   13  C2  UNL     1       5.243  -0.722   0.296  1.00  0.00    -0.032 C 
HETATM   14  C1  UNL     1       6.277   0.295   0.586  1.00  0.00     0.036 C 
ENDBRANCH  12  13
ENDBRANCH   7  12
BRANCH   7  15
HETATM   15  C5  UNL     1       3.267   1.908   0.084  1.00  0.00     0.266 C 
HETATM   16  F1  UNL     1       4.406   2.373  -0.497  1.00  0.00    -0.252 F 
ENDBRANCH   7  15
ENDBRANCH   1   5
BRANCH   3  17
HETATM   17  C10 UNL     1      -2.800   0.368   1.010  1.00  0.00     0.080 C 
HETATM   18  C11 UNL     1      -3.001   1.701   0.281  1.00  0.00     0.016 C 
HETATM   19  C12 UNL     1      -4.514   1.745   0.196  1.00  0.00     0.026 C 
HETATM   20  C13 UNL     1      -4.900   0.318  -0.125  1.00  0.00     0.084 C 
HETATM   21  C15 UNL     1      -3.702  -0.541   0.207  1.00  0.00     0.039 C 
BRANCH  20  22
HETATM   22  N2  UNL     1      -6.065  -0.037   0.669  1.00  0.00    -0.364 N 
ATOM     23  H2  UNL     1      -5.990  -0.041   1.686  1.00  0.00     0.162 HD
BRANCH  22  24
HETATM   24  C14 UNL     1      -7.302  -0.378   0.069  1.00  0.00     0.348 C 
HETATM   25  O2  UNL     1      -7.449  -0.389  -1.179  1.00  0.00    -0.284 OA
ENDBRANCH  22  24
ENDBRANCH  20  22
ENDBRANCH   3  17
TORSDOF 7
