REMARK  10 active torsions:
REMARK  status: ('A' for Active; 'I' for Inactive)
REMARK    1  A    between atoms: C2_2  and  O1_3 
REMARK    2  A    between atoms: C2_2  and  C3_5 
REMARK    3  A    between atoms: C4_7  and  C5_8 
REMARK    4  A    between atoms: C5_8  and  N1_9 
REMARK    5  A    between atoms: N1_9  and  C6_11 
REMARK    6  A    between atoms: C6_11  and  N2_13 
REMARK    7  A    between atoms: N2_13  and  C7_15 
REMARK    8  A    between atoms: C7_15  and  C8_16 
REMARK    9  A    between atoms: C8_16  and  C9_18 
REMARK   10  A    between atoms: C9_18  and  N3_19 
ROOT
HETATM    1  C6  UNL     1       0.603  -1.132  -0.483  1.00  0.00     0.167 C 
HETATM    2  S1  UNL     1       0.656  -2.582   0.256  1.00  0.00    -0.041 SA
ENDROOT
BRANCH   1   3
HETATM    3  N1  UNL     1       1.459  -0.114  -0.085  1.00  0.00    -0.365 N 
ATOM      4  H1  UNL     1       1.387   0.786  -0.559  1.00  0.00     0.161 HD
BRANCH   3   5
HETATM    5  C5  UNL     1       2.458  -0.255   0.973  1.00  0.00     0.156 C 
BRANCH   5   6
HETATM    6  C4  UNL     1       3.542  -1.207   0.549  1.00  0.00     0.171 A 
HETATM    7  C3  UNL     1       4.956  -0.763   0.564  1.00  0.00     0.181 A 
HETATM    8  O2  UNL     1       4.245  -0.866  -0.619  1.00  0.00    -0.371 OA
BRANCH   7   9
HETATM    9  C2  UNL     1       5.423   0.600   0.918  1.00  0.00     0.145 C 
HETATM   10  C1  UNL     1       6.394   0.429   2.105  1.00  0.00     0.042 C 
BRANCH   9  11
HETATM   11  O1  UNL     1       6.266   1.142  -0.092  1.00  0.00    -0.393 OA
ATOM     12  H1  UNL     1       5.668   1.247  -0.823  1.00  0.00     0.210 HD
ENDBRANCH   9  11
ENDBRANCH   7   9
ENDBRANCH   5   6
ENDBRANCH   3   5
ENDBRANCH   1   3
BRANCH   1  13
HETATM   13  N2  UNL     1      -0.335  -0.935  -1.523  1.00  0.00    -0.364 N 
ATOM     14  H2  UNL     1      -0.934  -1.716  -1.791  1.00  0.00     0.162 HD
BRANCH  13  15
HETATM   15  C7  UNL     1      -0.483   0.309  -2.218  1.00  0.00     0.160 C 
BRANCH  15  16
HETATM   16  C8  UNL     1      -1.183   1.390  -1.460  1.00  0.00     0.205 C 
HETATM   17  F1  UNL     1      -1.192   2.544  -2.260  1.00  0.00    -0.246 F 
BRANCH  16  18
HETATM   18  C9  UNL     1      -2.687   1.037  -1.386  1.00  0.00     0.155 C 
BRANCH  18  19
HETATM   19  N3  UNL     1      -2.939  -0.159  -0.694  1.00  0.00    -0.410 N 
HETATM   20  C10 UNL     1      -2.774  -0.128   0.726  1.00  0.00     0.117 C 
HETATM   21  C11 UNL     1      -3.937   0.576   1.418  1.00  0.00     0.019 C 
HETATM   22  C12 UNL     1      -5.225   0.359   0.670  1.00  0.00     0.003 C 
HETATM   23  C13 UNL     1      -5.205  -0.922  -0.145  1.00  0.00     0.019 C 
HETATM   24  C14 UNL     1      -4.046  -0.947  -1.118  1.00  0.00     0.117 C 
ENDBRANCH  18  19
ENDBRANCH  16  18
ENDBRANCH  15  16
ENDBRANCH  13  15
ENDBRANCH   1  13
TORSDOF 10
