REMARK  9 active torsions:
REMARK  status: ('A' for Active; 'I' for Inactive)
REMARK    1  A    between atoms: O1_2  and  C2_3 
REMARK    2  A    between atoms: C2_3  and  C3_4 
REMARK    3  A    between atoms: C3_4  and  N1_5 
REMARK    4  A    between atoms: N1_5  and  C4_7 
REMARK    5  A    between atoms: N3_11  and  C6_13 
REMARK    6  A    between atoms: C6_13  and  C7_14 
REMARK    7  A    between atoms: C8_18  and  N5_19 
REMARK    8  A    between atoms: N5_19  and  C9_21 
REMARK    9  A    between atoms: C9_21  and  C10_22 
ROOT
HETATM    1  C4  UNL     1       1.806   0.029   0.474  1.00  0.00     0.707 A 
HETATM    2  N2  UNL     1       1.832   1.338   0.203  1.00  0.00    -0.022 N 
ATOM      3  H2  UNL     1       2.711   1.853   0.256  1.00  0.00     0.203 HD
HETATM    4  C5  UNL     1       0.703   1.972  -0.138  1.00  0.00     0.707 A 
HETATM    5  N3  UNL     1       0.672   3.216  -0.406  1.00  0.00    -0.224 N 
ATOM      6  H3  UNL     1      -0.241   3.598  -0.654  1.00  0.00     0.177 HD
HETATM    7  N4  UNL     1      -0.487   1.303  -0.215  1.00  0.00    -0.022 N 
ATOM      8  H4  UNL     1      -1.351   1.779  -0.474  1.00  0.00     0.203 HD
HETATM    9  C8  UNL     1      -0.466  -0.008   0.065  1.00  0.00     0.707 A 
HETATM   10  N6  UNL     1       0.668  -0.660   0.411  1.00  0.00    -0.022 N 
ATOM     11  H6  UNL     1       0.652  -1.658   0.619  1.00  0.00     0.203 HD
ENDROOT
BRANCH   9  12
HETATM   12  N5  UNL     1      -1.596  -0.671  -0.002  1.00  0.00    -0.224 N 
ATOM     13  H5  UNL     1      -1.622  -1.670   0.204  1.00  0.00     0.177 HD
BRANCH  12  14
HETATM   14  C9  UNL     1      -2.796   0.027  -0.369  1.00  0.00     0.146 C 
BRANCH  14  15
HETATM   15  C10 UNL     1      -3.998  -0.860  -0.419  1.00  0.00    -0.035 C 
HETATM   16  C11 UNL     1      -3.797  -1.961  -1.431  1.00  0.00     0.016 C 
HETATM   17  C12 UNL     1      -4.254  -1.493   0.944  1.00  0.00     0.016 C 
HETATM   18  C13 UNL     1      -5.224  -0.054  -0.788  1.00  0.00     0.016 C 
ENDBRANCH  14  15
ENDBRANCH  12  14
ENDBRANCH   9  12
BRANCH   1  19
HETATM   19  N1  UNL     1       2.918  -0.532   0.796  1.00  0.00    -0.223 N 
ATOM     20  H1  UNL     1       3.747   0.061   0.823  1.00  0.00     0.177 HD
BRANCH  19  21
HETATM   21  C3  UNL     1       3.094  -1.915   1.120  1.00  0.00     0.164 C 
BRANCH  21  22
HETATM   22  C2  UNL     1       3.286  -2.664  -0.174  1.00  0.00     0.187 C 
BRANCH  22  23
HETATM   23  O1  UNL     1       4.394  -2.171  -0.826  1.00  0.00    -0.394 OA
HETATM   24  C1  UNL     1       5.549  -2.311  -0.092  1.00  0.00     0.201 C 
ENDBRANCH  22  23
ENDBRANCH  21  22
ENDBRANCH  19  21
ENDBRANCH   1  19
BRANCH   5  25
HETATM   25  C6  UNL     1       1.761   4.145  -0.402  1.00  0.00     0.153 C 
BRANCH  25  26
HETATM   26  C7  UNL     1       1.564   5.040   0.830  1.00  0.00     0.135 C 
HETATM   27 CL1  UNL     1       1.585   4.000   2.256  1.00  0.00    -0.129 Cl
ENDBRANCH  25  26
ENDBRANCH   5  25
TORSDOF 9
