REMARK  5 active torsions:
REMARK  status: ('A' for Active; 'I' for Inactive)
REMARK    1  A    between atoms: C2_2  and  C3_4 
REMARK    2  A    between atoms: C3_4  and  C4_5 
REMARK    3  A    between atoms: C5_6  and  C6_7 
REMARK    4  A    between atoms: C6_7  and  C8_9 
REMARK    5  A    between atoms: C20_22  and  O3_23 
ROOT
HETATM    1  C3  UNL     1       0.674  -1.121   0.611  1.00  0.00     0.037 C 
HETATM    2  C14 UNL     1       1.193  -0.254   1.725  1.00  0.00     0.021 C 
HETATM    3  C15 UNL     1       1.162   1.210   1.414  1.00  0.00     0.004 C 
HETATM    4  C16 UNL     1       2.021   1.627   0.279  1.00  0.00     0.041 C 
HETATM    5  C17 UNL     1       3.260   0.782   0.096  1.00  0.00     0.096 C 
HETATM    6  C18 UNL     1       4.051   1.459  -1.032  1.00  0.00     0.046 C 
HETATM    7  C19 UNL     1       5.516   1.115  -0.952  1.00  0.00     0.066 C 
HETATM    8  C20 UNL     1       5.972   1.148   0.472  1.00  0.00     0.293 C 
HETATM    9  O4  UNL     1       5.151   0.279   1.198  1.00  0.00    -0.207 OA
HETATM   10  O5  UNL     1       3.978   0.864   1.300  1.00  0.00    -0.227 OA
HETATM   11  C21 UNL     1       2.978  -0.637  -0.249  1.00  0.00     0.042 C 
HETATM   12  C22 UNL     1       1.556  -0.928  -0.604  1.00  0.00     0.024 C 
ENDROOT
BRANCH   1  13
HETATM   13  C2  UNL     1       0.731  -2.532   1.083  1.00  0.00     0.135 C 
HETATM   14  C1  UNL     1       0.293  -3.667   0.212  1.00  0.00     0.092 C 
HETATM   15  O1  UNL     1       1.148  -2.741   2.208  1.00  0.00    -0.297 OA
ENDBRANCH   1  13
BRANCH   1  16
HETATM   16  C4  UNL     1      -0.752  -0.830   0.294  1.00  0.00    -0.013 C 
HETATM   17  C5  UNL     1      -1.280  -0.883  -0.913  1.00  0.00    -0.025 C 
BRANCH  17  18
HETATM   18  C6  UNL     1      -2.650  -0.617  -1.321  1.00  0.00     0.008 C 
HETATM   19  C7  UNL     1      -3.264  -1.794  -2.091  1.00  0.00     0.014 C 
BRANCH  18  20
HETATM   20  C8  UNL     1      -3.631  -0.209  -0.293  1.00  0.00    -0.005 C 
HETATM   21  C9  UNL     1      -4.970  -0.027  -1.029  1.00  0.00     0.008 C 
HETATM   22  C10 UNL     1      -5.965   0.419   0.035  1.00  0.00     0.035 C 
HETATM   23  C11 UNL     1      -5.669   1.909   0.210  1.00  0.00     0.151 A 
HETATM   24  O2  UNL     1      -5.197   2.391   1.402  1.00  0.00    -0.375 OA
HETATM   25  C12 UNL     1      -4.299   2.187   0.206  1.00  0.00     0.151 A 
HETATM   26  C13 UNL     1      -3.316   1.090   0.393  1.00  0.00     0.039 C 
ENDBRANCH  18  20
ENDBRANCH  17  18
ENDBRANCH   1  16
BRANCH   8  27
HETATM   27  O3  UNL     1       7.310   0.770   0.549  1.00  0.00    -0.368 OA
ATOM     28  H3  UNL     1       7.600   0.791   1.454  1.00  0.00     0.212 HD
ENDBRANCH   8  27
TORSDOF 5
