REMARK  6 active torsions:
REMARK  status: ('A' for Active; 'I' for Inactive)
REMARK    1  A    between atoms: C3_6  and  O1_7 
REMARK    2  A    between atoms: C4_9  and  C6_11 
REMARK    3  A    between atoms: C6_11  and  C7_12 
REMARK    4  A    between atoms: C7_12  and  O3_14 
REMARK    5  A    between atoms: O3_14  and  C8_15 
REMARK    6  A    between atoms: N2_20  and  C13_21 
ROOT
HETATM    1  C1  UNL     1      -1.633  -3.230  -0.457  1.00  0.00     0.063 C 
HETATM    2  C2  UNL     1      -0.713  -2.181  -0.931  1.00  0.00     0.282 C 
HETATM    3  N1  UNL     1       0.590  -2.649  -0.463  1.00  0.00    -0.026 N 
ATOM      4  H11 UNL     1       0.868  -3.593  -0.730  1.00  0.00     0.282 HD
ATOM      5  H12 UNL     1       0.684  -2.841   0.534  1.00  0.00     0.282 HD
HETATM    6  C3  UNL     1       1.380  -1.542  -1.006  1.00  0.00     0.349 C 
HETATM    7  C4  UNL     1       0.557  -0.408  -0.333  1.00  0.00     0.087 C 
HETATM    8  C5  UNL     1       1.038   0.816  -1.026  1.00  0.00     0.043 C 
HETATM    9  N2  UNL     1      -0.757  -0.862  -0.579  1.00  0.00    -0.364 N 
ENDROOT
BRANCH   9  10
HETATM   10  C13 UNL     1      -1.924  -0.169  -0.276  1.00  0.00     0.031 C 
HETATM   11  C14 UNL     1      -2.816  -0.278  -1.536  1.00  0.00     0.031 C 
HETATM   12  C15 UNL     1      -4.255  -0.464  -1.205  1.00  0.00     0.007 C 
HETATM   13  C16 UNL     1      -4.862   0.489  -0.246  1.00  0.00    -0.014 C 
HETATM   14  C17 UNL     1      -4.218   1.846  -0.396  1.00  0.00     0.009 C 
HETATM   15  C21 UNL     1      -4.878   0.069   1.188  1.00  0.00     0.009 C 
HETATM   16  C18 UNL     1      -3.006   2.012   0.415  1.00  0.00    -0.012 C 
HETATM   17  C19 UNL     1      -3.080   1.539   1.834  1.00  0.00     0.009 C 
HETATM   18  C23 UNL     1      -1.758   1.341  -0.176  1.00  0.00     0.035 C 
HETATM   19  C20 UNL     1      -3.452   0.108   1.757  1.00  0.00    -0.012 C 
HETATM   20  C22 UNL     1      -2.589  -0.759   0.910  1.00  0.00     0.035 C 
ENDBRANCH   9  10
BRANCH   7  21
HETATM   21  C6  UNL     1       0.965  -0.362   1.114  1.00  0.00     0.146 C 
BRANCH  21  22
HETATM   22  C7  UNL     1       2.349  -0.073   1.421  1.00  0.00     0.261 C 
HETATM   23  O2  UNL     1       2.766  -0.092   2.630  1.00  0.00    -0.265 OA
BRANCH  22  24
HETATM   24  O3  UNL     1       3.338   0.244   0.511  1.00  0.00    -0.316 OA
BRANCH  24  25
HETATM   25  C8  UNL     1       4.666   0.526   0.800  1.00  0.00     0.132 C 
HETATM   26  C9  UNL     1       5.008   1.889   0.239  1.00  0.00     0.032 C 
HETATM   27  C10 UNL     1       6.514   1.886   0.257  1.00  0.00     0.002 C 
HETATM   28  C11 UNL     1       6.937   0.423   0.302  1.00  0.00     0.002 C 
HETATM   29  C12 UNL     1       5.651  -0.355   0.068  1.00  0.00     0.032 C 
ENDBRANCH  24  25
ENDBRANCH  22  24
ENDBRANCH  21  22
ENDBRANCH   7  21
BRANCH   6  30
HETATM   30  O1  UNL     1       1.243  -1.567  -2.357  1.00  0.00    -0.368 OA
ATOM     31  H1  UNL     1       1.756  -0.849  -2.709  1.00  0.00     0.212 HD
ENDBRANCH   6  30
TORSDOF 6
