REMARK  6 active torsions:
REMARK  status: ('A' for Active; 'I' for Inactive)
REMARK    1  A    between atoms: C2_2  and  O1_3 
REMARK    2  A    between atoms: C2_2  and  C3_5 
REMARK    3  A    between atoms: C2_2  and  C14_18 
REMARK    4  A    between atoms: C3_5  and  C4_6 
REMARK    5  A    between atoms: C5_7  and  C6_8 
REMARK    6  A    between atoms: C6_8  and  O2_9 
ROOT
HETATM    1  C1  UNL     1       0.612  -3.040   0.559  1.00  0.00     0.047 C 
HETATM    2  C2  UNL     1       1.296  -2.302  -0.596  1.00  0.00     0.068 C 
ENDROOT
BRANCH   2   3
HETATM    3  O1  UNL     1       2.005  -3.217  -1.339  1.00  0.00    -0.389 OA
ATOM      4  H1  UNL     1       2.429  -2.759  -2.055  1.00  0.00     0.210 HD
ENDBRANCH   2   3
BRANCH   2   5
HETATM    5  C3  UNL     1       0.199  -1.665  -1.459  1.00  0.00     0.065 C 
BRANCH   5   6
HETATM    6  C4  UNL     1      -0.626  -0.702  -0.717  1.00  0.00    -0.025 C 
HETATM    7  C5  UNL     1      -1.918  -0.858  -0.576  1.00  0.00     0.007 C 
BRANCH   7   8
HETATM    8  C6  UNL     1      -2.788   0.099   0.170  1.00  0.00     0.082 C 
HETATM    9  C7  UNL     1      -3.595  -0.690   1.146  1.00  0.00     0.043 C 
HETATM   10  C8  UNL     1      -5.028  -0.228   1.248  1.00  0.00     0.003 C 
HETATM   11  C9  UNL     1      -5.081   1.275   1.149  1.00  0.00     0.001 C 
HETATM   12  C10 UNL     1      -4.721   1.648  -0.271  1.00  0.00     0.012 C 
HETATM   13  C11 UNL     1      -3.593   0.856  -0.835  1.00  0.00    -0.013 C 
HETATM   14  C12 UNL     1      -2.640   1.848  -1.514  1.00  0.00     0.018 C 
HETATM   15  C13 UNL     1      -4.112  -0.041  -1.943  1.00  0.00     0.018 C 
BRANCH   8  16
HETATM   16  O2  UNL     1      -1.932   0.985   0.847  1.00  0.00    -0.385 OA
ATOM     17  H2  UNL     1      -2.486   1.594   1.322  1.00  0.00     0.211 HD
ENDBRANCH   8  16
ENDBRANCH   7   8
ENDBRANCH   5   6
ENDBRANCH   2   5
BRANCH   2  18
HETATM   18  C14 UNL     1       2.111  -1.227   0.008  1.00  0.00     0.098 C 
HETATM   19  C15 UNL     1       3.147  -1.800   0.981  1.00  0.00     0.094 C 
HETATM   20  C16 UNL     1       4.059  -0.713   1.422  1.00  0.00     0.133 C 
HETATM   21  O3  UNL     1       4.312  -0.614   2.602  1.00  0.00    -0.297 OA
HETATM   22  C17 UNL     1       4.623   0.196   0.447  1.00  0.00     0.079 C 
HETATM   23  C18 UNL     1       5.284   1.431   0.936  1.00  0.00     0.021 C 
HETATM   24  C21 UNL     1       3.442   0.833  -0.321  1.00  0.00     0.088 C 
HETATM   25  C19 UNL     1       5.261   2.320  -0.317  1.00  0.00     0.080 C 
HETATM   26  C20 UNL     1       4.201   1.710  -1.211  1.00  0.00     0.143 C 
HETATM   27  O4  UNL     1       4.047   1.921  -2.383  1.00  0.00    -0.297 OA
HETATM   28  C22 UNL     1       2.535   1.556   0.629  1.00  0.00     0.032 C 
HETATM   29  C23 UNL     1       2.796  -0.335  -0.968  1.00  0.00     0.150 C 
HETATM   30  O5  UNL     1       2.837  -0.514  -2.135  1.00  0.00    -0.296 OA
ENDBRANCH   2  18
TORSDOF 6
