REMARK  6 active torsions:
REMARK  status: ('A' for Active; 'I' for Inactive)
REMARK    1  A    between atoms: S1_2  and  C2_3 
REMARK    2  A    between atoms: C3_4  and  O1_5 
REMARK    3  A    between atoms: C4_7  and  O2_8 
REMARK    4  A    between atoms: C5_10  and  O3_11 
REMARK    5  A    between atoms: N1_17  and  C9_18 
REMARK    6  A    between atoms: C9_18  and  N2_19 
ROOT
HETATM    1  C9  UNL     1      -2.132   2.481   0.389  1.00  0.00     0.402 C 
HETATM    2  C10 UNL     1      -2.613   2.991  -0.919  1.00  0.00     0.114 C 
HETATM    3  N3  UNL     1      -2.981   3.379  -1.935  1.00  0.00    -0.193 NA
ENDROOT
BRANCH   1   4
HETATM    4  N1  UNL     1      -1.415   1.231   0.207  1.00  0.00    -0.223 N 
HETATM    5  C8  UNL     1      -0.134   1.149   0.565  1.00  0.00     0.268 A 
HETATM    6  C7  UNL     1       0.499  -0.066   0.369  1.00  0.00     0.082 A 
HETATM    7  O4  UNL     1       0.519   2.092   1.062  1.00  0.00    -0.267 OA
HETATM    8  C2  UNL     1       1.809  -0.177   0.727  1.00  0.00     0.054 A 
HETATM    9  C6  UNL     1      -0.194  -1.143  -0.182  1.00  0.00     0.091 A 
HETATM   10  C3  UNL     1       2.472  -1.357   0.552  1.00  0.00     0.119 A 
HETATM   11  C4  UNL     1       1.789  -2.422   0.008  1.00  0.00     0.136 A 
HETATM   12  C5  UNL     1       0.449  -2.343  -0.370  1.00  0.00     0.130 A 
HETATM   13  N4  UNL     1      -1.484  -1.034  -0.535  1.00  0.00    -0.300 N 
HETATM   14  C11 UNL     1      -2.075   0.189  -0.323  1.00  0.00     0.334 A 
HETATM   15  C12 UNL     1      -2.225  -2.122  -1.103  1.00  0.00     0.161 C 
HETATM   16  O5  UNL     1      -3.287   0.324  -0.644  1.00  0.00    -0.246 OA
BRANCH   8  17
HETATM   17  S1  UNL     1       2.686   1.236   1.440  1.00  0.00    -0.130 SA
HETATM   18  C1  UNL     1       3.451   2.172   0.068  1.00  0.00     0.095 C 
ENDBRANCH   8  17
BRANCH  10  19
HETATM   19  O1  UNL     1       3.808  -1.456   0.923  1.00  0.00    -0.357 OA
ATOM     20  H1  UNL     1       4.270  -2.277   0.801  1.00  0.00     0.218 HD
ENDBRANCH  10  19
BRANCH  11  21
HETATM   21  O2  UNL     1       2.417  -3.634  -0.188  1.00  0.00    -0.356 OA
ATOM     22  H2  UNL     1       1.946  -4.369  -0.563  1.00  0.00     0.218 HD
ENDBRANCH  11  21
BRANCH  12  23
HETATM   23  O3  UNL     1      -0.191  -3.440  -0.911  1.00  0.00    -0.356 OA
ATOM     24  H3  UNL     1      -1.104  -3.386  -1.169  1.00  0.00     0.218 HD
ENDBRANCH  12  23
ENDBRANCH   1   4
BRANCH   1  25
HETATM   25  N2  UNL     1      -3.331   2.254   1.185  1.00  0.00    -0.045 N 
ATOM     26  H23 UNL     1      -3.924   1.527   0.785  1.00  0.00     0.278 HD
ATOM     27  H22 UNL     1      -3.120   1.801   2.074  1.00  0.00     0.278 HD
ATOM     28  H21 UNL     1      -3.835   3.132   1.313  1.00  0.00     0.278 HD
ENDBRANCH   1  25
TORSDOF 6
