REMARK  6 active torsions:
REMARK  status: ('A' for Active; 'I' for Inactive)
REMARK    1  A    between atoms: C4_10  and  O2_11 
REMARK    2  A    between atoms: C5_13  and  C6_14 
REMARK    3  A    between atoms: C6_14  and  N4_15 
REMARK    4  A    between atoms: N4_15  and  N5_17 
REMARK    5  A    between atoms: N5_17  and  C7_19 
REMARK    6  A    between atoms: C8_23  and  N7_24 
ROOT
HETATM    1  C1  UNL     1      -3.490   2.369  -1.166  1.00  0.00     0.181 C 
HETATM    2  N1  UNL     1      -3.557   1.237  -0.269  1.00  0.00    -0.265 N 
HETATM    3  N2  UNL     1      -4.569   0.859   0.468  1.00  0.00    -0.239 N 
ATOM      4  H2  UNL     1      -5.466   1.344   0.494  1.00  0.00     0.208 HD
HETATM    5  N3  UNL     1      -4.295  -0.225   1.177  1.00  0.00    -0.279 N 
ATOM      6  H3  UNL     1      -4.932  -0.696   1.819  1.00  0.00     0.189 HD
HETATM    7  C2  UNL     1      -3.036  -0.596   0.905  1.00  0.00     0.148 A 
HETATM    8  C3  UNL     1      -2.214  -1.620   1.325  1.00  0.00     0.239 A 
HETATM    9  O1  UNL     1      -2.620  -2.489   2.170  1.00  0.00    -0.283 OA
HETATM   10  C4  UNL     1      -0.952  -1.664   0.800  1.00  0.00     0.147 A 
HETATM   11  C5  UNL     1      -0.454  -0.755  -0.117  1.00  0.00     0.088 A 
HETATM   12  N8  UNL     1      -1.277   0.233  -0.509  1.00  0.00    -0.336 N 
ATOM     13  H8  UNL     1      -0.926   0.912  -1.184  1.00  0.00     0.168 HD
HETATM   14  C9  UNL     1      -2.538   0.376  -0.061  1.00  0.00     0.156 A 
ENDROOT
BRANCH  11  15
HETATM   15  C6  UNL     1       0.902  -0.871  -0.628  1.00  0.00     0.139 C 
BRANCH  15  16
HETATM   16  N4  UNL     1       1.673  -1.818  -0.244  1.00  0.00    -0.308 N 
ATOM     17  H4  UNL     1       1.298  -2.483   0.432  1.00  0.00     0.186 HD
BRANCH  16  18
HETATM   18  N5  UNL     1       2.967  -2.011  -0.670  1.00  0.00    -0.279 N 
ATOM     19  H5  UNL     1       3.236  -2.914  -1.060  1.00  0.00     0.189 HD
BRANCH  18  20
HETATM   20  C7  UNL     1       3.862  -1.053  -0.583  1.00  0.00     0.172 A 
HETATM   21  N6  UNL     1       5.146  -1.116  -0.961  1.00  0.00    -0.303 N 
HETATM   22  S1  UNL     1       5.996   0.290  -0.705  1.00  0.00     0.013 SA
ATOM     23  H6  UNL     1       5.565  -1.952  -1.369  1.00  0.00     0.176 HD
HETATM   24  C8  UNL     1       4.944   1.413  -0.023  1.00  0.00     0.129 A 
HETATM   25  S2  UNL     1       3.533   0.481   0.043  1.00  0.00    -0.026 SA
BRANCH  24  26
HETATM   26  N7  UNL     1       5.146   2.650   0.353  1.00  0.00    -0.387 N 
ATOM     27  H72 UNL     1       5.996   3.212   0.313  1.00  0.00     0.157 HD
ATOM     28  H71 UNL     1       4.508   3.331   0.766  1.00  0.00     0.157 HD
ENDBRANCH  24  26
ENDBRANCH  18  20
ENDBRANCH  16  18
ENDBRANCH  15  16
ENDBRANCH  11  15
BRANCH  10  29
HETATM   29  O2  UNL     1      -0.085  -2.678   1.193  1.00  0.00    -0.355 OA
ATOM     30  H2  UNL     1       0.792  -2.709   0.828  1.00  0.00     0.218 HD
ENDBRANCH  10  29
TORSDOF 6
