REMARK  3 active torsions:
REMARK  status: ('A' for Active; 'I' for Inactive)
REMARK    1  A    between atoms: N2_4  and  C1_6 
REMARK    2  A    between atoms: C4_10  and  N3_11 
REMARK    3  A    between atoms: N5_24  and  N6_25 
ROOT
HETATM    1  C1  UNL     1       2.938  -0.514   0.249  1.00  0.00     0.142 A 
HETATM    2  C2  UNL     1       3.269   0.752   0.054  1.00  0.00     0.192 A 
HETATM    3  O1  UNL     1       2.317   1.744  -0.125  1.00  0.00    -0.314 OA
HETATM    4  C3  UNL     1       0.974   1.461  -0.113  1.00  0.00     0.137 A 
HETATM    5  C4  UNL     1      -0.004   2.413  -0.275  1.00  0.00     0.140 A 
HETATM    6  C5  UNL     1      -1.343   2.065  -0.245  1.00  0.00     0.058 A 
HETATM    7  C6  UNL     1      -1.735   0.764  -0.058  1.00  0.00     0.066 A 
HETATM    8  C7  UNL     1      -3.083   0.565   0.009  1.00  0.00     0.261 C 
HETATM    9  O4  UNL     1      -3.768   1.445  -0.513  1.00  0.00    -0.267 OA
HETATM   10  N4  UNL     1      -3.716  -0.496   0.591  1.00  0.00    -0.285 N 
ATOM     11  H4  UNL     1      -4.731  -0.427   0.669  1.00  0.00     0.172 HD
HETATM   12  C8  UNL     1      -3.153  -1.632   1.078  1.00  0.00     0.318 C 
HETATM   13  O5  UNL     1      -3.873  -2.252   1.895  1.00  0.00    -0.262 OA
HETATM   14  C9  UNL     1      -1.895  -2.172   0.776  1.00  0.00     0.335 C 
HETATM   15  O6  UNL     1      -1.643  -3.321   1.149  1.00  0.00    -0.260 OA
HETATM   16  N5  UNL     1      -0.913  -1.547   0.101  1.00  0.00    -0.219 N 
HETATM   17  C10 UNL     1      -0.721  -0.215   0.103  1.00  0.00     0.105 A 
HETATM   18  C11 UNL     1       0.603   0.107   0.088  1.00  0.00     0.101 A 
HETATM   19  N7  UNL     1       1.566  -0.894   0.277  1.00  0.00    -0.336 N 
ATOM     20  H7  UNL     1       1.292  -1.865   0.430  1.00  0.00     0.168 HD
ENDROOT
BRANCH   1  21
HETATM   21  N2  UNL     1       3.980  -1.473   0.425  1.00  0.00    -0.290 N 
HETATM   22  N1  UNL     1       4.754  -1.872  -0.469  1.00  0.00    -0.344 N 
ATOM     23  H12 UNL     1       4.617  -1.469  -1.396  1.00  0.00     0.176 HD
ATOM     24  H11 UNL     1       5.499  -2.557  -0.343  1.00  0.00     0.176 HD
ATOM     25  H2  UNL     1       4.102  -1.865   1.359  1.00  0.00     0.188 HD
ENDBRANCH   1  21
BRANCH   5  26
HETATM   26  N3  UNL     1       0.394   3.769  -0.474  1.00  0.00    -0.113 N 
HETATM   27  O2  UNL     1       1.463   3.977  -1.070  1.00  0.00    -0.532 OA
HETATM   28  O3  UNL     1      -0.374   4.811  -0.026  1.00  0.00    -0.532 OA
ENDBRANCH   5  26
BRANCH  16  29
HETATM   29  N6  UNL     1      -0.073  -2.260  -0.746  1.00  0.00    -0.335 N 
ATOM     30  H62 UNL     1      -0.219  -3.270  -0.748  1.00  0.00     0.177 HD
ATOM     31  H61 UNL     1       0.671  -1.786  -1.258  1.00  0.00     0.177 HD
ENDBRANCH  16  29
TORSDOF 3
