REMARK  5 active torsions:
REMARK  status: ('A' for Active; 'I' for Inactive)
REMARK    1  A    between atoms: N2_7  and  O2_8 
REMARK    2  A    between atoms: C6_14  and  O4_15 
REMARK    3  A    between atoms: C6_14  and  N4_17 
REMARK    4  A    between atoms: N4_17  and  C7_19 
REMARK    5  A    between atoms: C12_24  and  N5_25 
ROOT
HETATM    1  C1  UNL     1       5.676  -0.259  -0.108  1.00  0.00     0.165 C 
HETATM    2  N1  UNL     1       4.239  -0.273   0.039  1.00  0.00    -0.266 N 
HETATM    3  C2  UNL     1       3.436   0.779  -0.185  1.00  0.00     0.289 A 
HETATM    4  O1  UNL     1       3.952   1.857  -0.553  1.00  0.00    -0.265 OA
HETATM    5  C3  UNL     1       2.052   0.719  -0.025  1.00  0.00     0.190 A 
HETATM    6  C4  UNL     1       1.481  -0.450   0.373  1.00  0.00     0.178 A 
HETATM    7  N2  UNL     1       2.304  -1.512   0.600  1.00  0.00    -0.152 N 
HETATM    8  C5  UNL     1       3.640  -1.418   0.436  1.00  0.00     0.357 A 
HETATM    9  O3  UNL     1       4.336  -2.445   0.667  1.00  0.00    -0.244 OA
HETATM   10  N3  UNL     1       0.073  -0.564   0.535  1.00  0.00    -0.317 N 
ATOM     11  H3  UNL     1      -0.311  -1.466   0.817  1.00  0.00     0.166 HD
HETATM   12  C6  UNL     1      -0.834   0.527   0.322  1.00  0.00     0.266 A 
HETATM   13  C11 UNL     1      -0.107   1.773  -0.107  1.00  0.00     0.152 A 
HETATM   14  C12 UNL     1      -0.825   2.848  -0.333  1.00  0.00     0.207 C 
HETATM   15  O7  UNL     1       1.268   1.813  -0.262  1.00  0.00    -0.297 OA
ENDROOT
BRANCH  12  16
HETATM   16  O4  UNL     1      -1.299   0.900   1.613  1.00  0.00    -0.349 OA
ATOM     17  H4  UNL     1      -1.900   1.622   1.472  1.00  0.00     0.215 HD
ENDBRANCH  12  16
BRANCH  12  18
HETATM   18  N4  UNL     1      -1.873   0.324  -0.589  1.00  0.00    -0.361 N 
ATOM     19  H4  UNL     1      -1.940   0.927  -1.409  1.00  0.00     0.159 HD
BRANCH  18  20
HETATM   20  C7  UNL     1      -2.820  -0.682  -0.405  1.00  0.00     0.019 C 
HETATM   21  C8  UNL     1      -4.121  -0.183  -1.078  1.00  0.00     0.037 C 
HETATM   22  C9  UNL     1      -3.241  -1.022   0.989  1.00  0.00     0.037 C 
HETATM   23  C10 UNL     1      -2.525  -1.989  -1.153  1.00  0.00     0.037 C 
ENDBRANCH  18  20
ENDBRANCH  12  18
BRANCH  14  24
HETATM   24  N5  UNL     1      -0.225   4.063  -0.739  1.00  0.00    -0.125 N 
HETATM   25  O5  UNL     1      -0.456   4.548  -1.843  1.00  0.00    -0.532 OA
HETATM   26  O6  UNL     1       0.645   4.763   0.087  1.00  0.00    -0.532 OA
ENDBRANCH  14  24
BRANCH   7  27
HETATM   27  O2  UNL     1       1.776  -2.707   1.004  1.00  0.00    -0.277 OA
ATOM     28  H2  UNL     1       2.350  -3.447   1.162  1.00  0.00     0.245 HD
ENDBRANCH   7  27
TORSDOF 5
