REMARK  14 active torsions:
REMARK  status: ('A' for Active; 'I' for Inactive)
REMARK    1  A    between atoms: C4_4  and  C5_5 
REMARK    2  A    between atoms: C5_5  and  N1_6 
REMARK    3  A    between atoms: N1_6  and  C6_9 
REMARK    4  A    between atoms: C6_9  and  C7_10 
REMARK    5  A    between atoms: C7_10  and  C8_11 
REMARK    6  A    between atoms: C8_11  and  C9_12 
REMARK    7  A    between atoms: C9_12  and  C10_13 
REMARK    8  A    between atoms: C10_13  and  C11_14 
REMARK    9  A    between atoms: C11_14  and  C12_15 
REMARK   10  A    between atoms: C12_15  and  C13_16 
REMARK   11  A    between atoms: C13_16  and  C14_17 
REMARK   12  A    between atoms: C14_17  and  C15_18 
REMARK   13  A    between atoms: C15_18  and  C16_19 
REMARK   14  A    between atoms: C16_19  and  C17_20 
ROOT
HETATM    1  C9  UNL     1       0.417   1.129  -1.054  1.00  0.00     0.000 C 
ENDROOT
BRANCH   1   2
HETATM    2  C8  UNL     1       1.247   2.205  -0.426  1.00  0.00     0.002 C 
BRANCH   2   3
HETATM    3  C7  UNL     1       2.541   1.667   0.078  1.00  0.00     0.027 C 
BRANCH   3   4
HETATM    4  C6  UNL     1       3.423   1.046  -0.950  1.00  0.00     0.232 C 
BRANCH   4   5
HETATM    5  N1  UNL     1       4.660   0.552  -0.388  1.00  0.00    -0.071 N 
ATOM      6  H12 UNL     1       5.163   1.300   0.090  1.00  0.00     0.277 HD
ATOM      7  H11 UNL     1       5.332   0.340  -1.125  1.00  0.00     0.277 HD
BRANCH   5   8
HETATM    8  C5  UNL     1       4.484  -0.583   0.484  1.00  0.00     0.270 C 
BRANCH   8   9
HETATM    9  C4  UNL     1       5.786  -1.013   1.004  1.00  0.00    -0.033 A 
HETATM   10  C3  UNL     1       6.910  -0.283   0.718  1.00  0.00     0.009 A 
HETATM   11  C2  UNL     1       8.152  -0.642   1.176  1.00  0.00     0.001 A 
HETATM   12  C1  UNL     1       8.275  -1.783   1.956  1.00  0.00     0.000 A 
HETATM   13  C21 UNL     1       7.170  -2.543   2.266  1.00  0.00     0.001 A 
HETATM   14  C20 UNL     1       5.942  -2.153   1.789  1.00  0.00     0.009 A 
ENDBRANCH   8   9
ENDBRANCH   5   8
ENDBRANCH   4   5
ENDBRANCH   3   4
ENDBRANCH   2   3
ENDBRANCH   1   2
BRANCH   1  15
HETATM   15  C10 UNL     1      -0.911   1.703  -1.558  1.00  0.00     0.000 C 
BRANCH  15  16
HETATM   16  C11 UNL     1      -1.659   0.540  -2.163  1.00  0.00     0.000 C 
BRANCH  16  17
HETATM   17  C12 UNL     1      -3.010   0.942  -2.713  1.00  0.00     0.000 C 
BRANCH  17  18
HETATM   18  C13 UNL     1      -3.899   1.519  -1.642  1.00  0.00     0.000 C 
BRANCH  18  19
HETATM   19  C14 UNL     1      -4.152   0.533  -0.521  1.00  0.00     0.000 C 
BRANCH  19  20
HETATM   20  C15 UNL     1      -4.810  -0.712  -0.970  1.00  0.00     0.006 C 
BRANCH  20  21
HETATM   21  C16 UNL     1      -5.049  -1.682   0.127  1.00  0.00     0.058 C 
BRANCH  21  22
HETATM   22  C17 UNL     1      -5.942  -1.251   1.205  1.00  0.00     0.025 A 
HETATM   23  C18 UNL     1      -6.211  -2.011   2.322  1.00  0.00     0.113 A 
HETATM   24  N2  UNL     1      -7.080  -1.347   3.113  1.00  0.00    -0.360 N 
HETATM   25  C19 UNL     1      -7.355  -0.190   2.509  1.00  0.00     0.180 A 
ATOM     26  H2  UNL     1      -7.456  -1.669   4.005  1.00  0.00     0.166 HD
HETATM   27  N3  UNL     1      -6.653  -0.137   1.339  1.00  0.00    -0.355 N 
ATOM     28  H3  UNL     1      -6.672   0.636   0.673  1.00  0.00     0.166 HD
ENDBRANCH  21  22
ENDBRANCH  20  21
ENDBRANCH  19  20
ENDBRANCH  18  19
ENDBRANCH  17  18
ENDBRANCH  16  17
ENDBRANCH  15  16
ENDBRANCH   1  15
TORSDOF 14
