REMARK  13 active torsions:
REMARK  status: ('A' for Active; 'I' for Inactive)
REMARK    1  A    between atoms: C1_1  and  C2_2 
REMARK    2  A    between atoms: C1_1  and  C11_11 
REMARK    3  A    between atoms: C2_2  and  C3_3 
REMARK    4  A    between atoms: C3_3  and  C4_4 
REMARK    5  A    between atoms: C4_4  and  C5_5 
REMARK    6  A    between atoms: C5_5  and  C6_6 
REMARK    7  A    between atoms: C7_7  and  C8_8 
REMARK    8  A    between atoms: C11_11  and  C12_12 
REMARK    9  A    between atoms: C12_12  and  C13_13 
REMARK   10  A    between atoms: C13_13  and  C14_14 
REMARK   11  A    between atoms: C14_14  and  C15_15 
REMARK   12  A    between atoms: C15_15  and  N1_16 
REMARK   13  A    between atoms: N1_16  and  C16_18 
ROOT
HETATM    1  C13 UNL     1      -1.050   0.669  -0.262  1.00  0.00     0.002 C 
ENDROOT
BRANCH   1   2
HETATM    2  C12 UNL     1      -0.001   0.778  -1.278  1.00  0.00     0.000 C 
BRANCH   2   3
HETATM    3  C11 UNL     1       1.276   0.052  -1.171  1.00  0.00     0.000 C 
BRANCH   3   4
HETATM    4  C1  UNL     1       1.281  -1.416  -1.079  1.00  0.00     0.000 C 
BRANCH   4   5
HETATM    5  C2  UNL     1       2.723  -1.965  -1.124  1.00  0.00     0.000 C 
BRANCH   5   6
HETATM    6  C3  UNL     1       3.489  -1.430   0.024  1.00  0.00     0.004 C 
BRANCH   6   7
HETATM    7  C4  UNL     1       4.913  -2.005  -0.016  1.00  0.00     0.027 C 
BRANCH   7   8
HETATM    8  C5  UNL     1       5.614  -1.648  -1.247  1.00  0.00    -0.027 C 
BRANCH   8   9
HETATM    9  C6  UNL     1       5.824  -0.290  -1.709  1.00  0.00    -0.008 C 
HETATM   10  C7  UNL     1       6.598   0.778  -1.131  1.00  0.00    -0.022 C 
BRANCH  10  11
HETATM   11  C8  UNL     1       6.351   1.367   0.182  1.00  0.00     0.008 A 
HETATM   12  C9  UNL     1       6.467   0.680   1.492  1.00  0.00     0.009 A 
HETATM   13  C10 UNL     1       7.389   1.812   1.144  1.00  0.00     0.009 A 
ENDBRANCH  10  11
ENDBRANCH   8   9
ENDBRANCH   7   8
ENDBRANCH   6   7
ENDBRANCH   5   6
ENDBRANCH   4   5
ENDBRANCH   3   4
ENDBRANCH   2   3
ENDBRANCH   1   2
BRANCH   1  14
HETATM   14  C14 UNL     1      -1.727  -0.649  -0.131  1.00  0.00     0.019 C 
BRANCH  14  15
HETATM   15  C15 UNL     1      -2.799  -0.548   0.999  1.00  0.00     0.115 C 
BRANCH  15  16
HETATM   16  N1  UNL     1      -3.684   0.473   0.579  1.00  0.00    -0.396 N 
ATOM     17  H1  UNL     1      -3.561   0.942  -0.318  1.00  0.00     0.155 HD
BRANCH  16  18
HETATM   18  C16 UNL     1      -4.757   0.824   1.456  1.00  0.00     0.279 C 
HETATM   19  C17 UNL     1      -5.668  -0.363   1.615  1.00  0.00     0.054 C 
HETATM   20  C18 UNL     1      -6.346  -0.588   0.281  1.00  0.00     0.004 C 
HETATM   21  C19 UNL     1      -7.770  -0.086   0.289  1.00  0.00     0.002 C 
HETATM   22  C20 UNL     1      -7.915   1.383   0.459  1.00  0.00     0.027 C 
HETATM   23  C21 UNL     1      -6.847   2.027   1.301  1.00  0.00     0.235 C 
HETATM   24  N2  UNL     1      -5.528   1.856   0.782  1.00  0.00    -0.055 N 
ATOM     25  H22 UNL     1      -5.023   2.742   0.788  1.00  0.00     0.279 HD
ATOM     26  H21 UNL     1      -5.558   1.682  -0.223  1.00  0.00     0.279 HD
ENDBRANCH  16  18
ENDBRANCH  15  16
ENDBRANCH  14  15
ENDBRANCH   1  14
TORSDOF 13
