REMARK  14 active torsions:
REMARK  status: ('A' for Active; 'I' for Inactive)
REMARK    1  A    between atoms: C2_4  and  C3_5 
REMARK    2  A    between atoms: C3_5  and  C4_6 
REMARK    3  A    between atoms: C4_6  and  C5_7 
REMARK    4  A    between atoms: C5_7  and  C6_8 
REMARK    5  A    between atoms: C6_8  and  C7_9 
REMARK    6  A    between atoms: C7_9  and  C8_10 
REMARK    7  A    between atoms: C8_10  and  C9_11 
REMARK    8  A    between atoms: C9_11  and  C10_12 
REMARK    9  A    between atoms: C10_12  and  C11_13 
REMARK   10  A    between atoms: C11_13  and  C12_14 
REMARK   11  A    between atoms: C12_14  and  C13_15 
REMARK   12  A    between atoms: C13_15  and  C14_16 
REMARK   13  A    between atoms: C14_16  and  N2_17 
REMARK   14  A    between atoms: N2_17  and  C15_20 
ROOT
HETATM    1  C9  UNL     1      -0.559  -1.576  -1.065  1.00  0.00     0.000 C 
ENDROOT
BRANCH   1   2
HETATM    2  C8  UNL     1       0.784  -0.966  -0.672  1.00  0.00     0.000 C 
BRANCH   2   3
HETATM    3  C7  UNL     1       1.268   0.007  -1.718  1.00  0.00     0.000 C 
BRANCH   3   4
HETATM    4  C6  UNL     1       2.595   0.584  -1.252  1.00  0.00     0.000 C 
BRANCH   4   5
HETATM    5  C5  UNL     1       3.656  -0.449  -1.044  1.00  0.00     0.000 C 
BRANCH   5   6
HETATM    6  C4  UNL     1       4.916   0.279  -0.578  1.00  0.00     0.006 C 
BRANCH   6   7
HETATM    7  C3  UNL     1       6.033  -0.721  -0.340  1.00  0.00     0.058 C 
BRANCH   7   8
HETATM    8  C2  UNL     1       7.221   0.075   0.119  1.00  0.00     0.025 A 
HETATM    9  N1  UNL     1       8.203   0.623  -0.613  1.00  0.00    -0.355 N 
HETATM   10  C1  UNL     1       9.077   1.260   0.208  1.00  0.00     0.180 A 
ATOM     11  H1  UNL     1       8.281   0.569  -1.629  1.00  0.00     0.166 HD
HETATM   12  N3  UNL     1       8.651   1.120   1.468  1.00  0.00    -0.360 N 
HETATM   13  C20 UNL     1       7.522   0.401   1.443  1.00  0.00     0.113 A 
ATOM     14  H3  UNL     1       9.106   1.495   2.301  1.00  0.00     0.166 HD
ENDBRANCH   7   8
ENDBRANCH   6   7
ENDBRANCH   5   6
ENDBRANCH   4   5
ENDBRANCH   3   4
ENDBRANCH   2   3
ENDBRANCH   1   2
BRANCH   1  15
HETATM   15  C10 UNL     1      -1.010  -2.532  -0.019  1.00  0.00     0.000 C 
BRANCH  15  16
HETATM   16  C11 UNL     1      -1.210  -2.072   1.364  1.00  0.00     0.000 C 
BRANCH  16  17
HETATM   17  C12 UNL     1      -2.235  -1.083   1.721  1.00  0.00     0.002 C 
BRANCH  17  18
HETATM   18  C13 UNL     1      -2.212   0.287   1.179  1.00  0.00     0.027 C 
BRANCH  18  19
HETATM   19  C14 UNL     1      -3.358   1.135   1.756  1.00  0.00     0.232 C 
BRANCH  19  20
HETATM   20  N2  UNL     1      -4.648   0.606   1.477  1.00  0.00    -0.071 N 
ATOM     21  H22 UNL     1      -4.733  -0.353   1.815  1.00  0.00     0.277 HD
ATOM     22  H21 UNL     1      -5.360   1.048   2.059  1.00  0.00     0.277 HD
BRANCH  20  23
HETATM   23  C15 UNL     1      -4.992   0.696   0.075  1.00  0.00     0.185 C 
HETATM   24  C16 UNL     1      -6.223  -0.095  -0.258  1.00  0.00     0.033 C 
HETATM   25  C17 UNL     1      -6.689   0.509  -1.554  1.00  0.00     0.002 C 
HETATM   26  C18 UNL     1      -6.075   1.888  -1.633  1.00  0.00     0.002 C 
HETATM   27  C19 UNL     1      -5.419   2.115  -0.291  1.00  0.00     0.033 C 
ENDBRANCH  20  23
ENDBRANCH  19  20
ENDBRANCH  18  19
ENDBRANCH  17  18
ENDBRANCH  16  17
ENDBRANCH  15  16
ENDBRANCH   1  15
TORSDOF 14
