REMARK  16 active torsions:
REMARK  status: ('A' for Active; 'I' for Inactive)
REMARK    1  A    between atoms: N1_1  and  C1_5 
REMARK    2  A    between atoms: C3_7  and  N2_8 
REMARK    3  A    between atoms: C3_7  and  C4_12 
REMARK    4  A    between atoms: C4_12  and  C5_13 
REMARK    5  A    between atoms: C5_13  and  C6_14 
REMARK    6  A    between atoms: C6_14  and  C7_15 
REMARK    7  A    between atoms: C7_15  and  C8_16 
REMARK    8  A    between atoms: C8_16  and  C9_17 
REMARK    9  A    between atoms: C9_17  and  C10_18 
REMARK   10  A    between atoms: C10_18  and  C11_19 
REMARK   11  A    between atoms: C11_19  and  C12_20 
REMARK   12  A    between atoms: C12_20  and  C13_21 
REMARK   13  A    between atoms: C13_21  and  C14_22 
REMARK   14  A    between atoms: C14_22  and  C15_23 
REMARK   15  A    between atoms: C15_23  and  C16_24 
REMARK   16  A    between atoms: C16_24  and  C17_25 
ROOT
HETATM    1  C7  UNL     1      -2.258  -1.011   0.555  1.00  0.00     0.000 C 
ENDROOT
BRANCH   1   2
HETATM    2  C6  UNL     1      -3.629  -0.348   0.655  1.00  0.00     0.000 C 
BRANCH   2   3
HETATM    3  C5  UNL     1      -4.474  -0.722  -0.495  1.00  0.00     0.002 C 
BRANCH   3   4
HETATM    4  C4  UNL     1      -5.829  -0.162  -0.597  1.00  0.00     0.041 C 
BRANCH   4   5
HETATM    5  C3  UNL     1      -6.785  -0.528   0.484  1.00  0.00     0.153 A 
HETATM    6  C1  UNL     1      -8.198   0.089   0.313  1.00  0.00     0.221 A 
HETATM    7  C2  UNL     1      -8.021  -1.359   0.025  1.00  0.00     0.076 A 
BRANCH   6   8
HETATM    8  N1  UNL     1      -8.876   0.510   1.522  1.00  0.00    -0.072 N 
ATOM      9  H13 UNL     1      -9.791   0.061   1.551  1.00  0.00     0.274 HD
ATOM     10  H12 UNL     1      -8.411   0.077   2.320  1.00  0.00     0.274 HD
ATOM     11  H11 UNL     1      -8.997   1.503   1.720  1.00  0.00     0.274 HD
ENDBRANCH   6   8
BRANCH   5  12
HETATM   12  N2  UNL     1      -6.384  -0.782   1.837  1.00  0.00    -0.068 N 
ATOM     13  H23 UNL     1      -6.462   0.071   2.391  1.00  0.00     0.275 HD
ATOM     14  H22 UNL     1      -7.079  -1.365   2.304  1.00  0.00     0.275 HD
ATOM     15  H21 UNL     1      -5.455  -1.188   1.949  1.00  0.00     0.275 HD
ENDBRANCH   5  12
ENDBRANCH   4   5
ENDBRANCH   3   4
ENDBRANCH   2   3
ENDBRANCH   1   2
BRANCH   1  16
HETATM   16  C8  UNL     1      -1.548  -0.596  -0.687  1.00  0.00     0.000 C 
BRANCH  16  17
HETATM   17  C9  UNL     1      -1.320   0.889  -0.800  1.00  0.00     0.000 C 
BRANCH  17  18
HETATM   18  C10 UNL     1      -0.509   1.422   0.335  1.00  0.00     0.000 C 
BRANCH  18  19
HETATM   19  C11 UNL     1       0.873   0.793   0.436  1.00  0.00     0.000 C 
BRANCH  19  20
HETATM   20  C12 UNL     1       1.680   1.018  -0.795  1.00  0.00     0.000 C 
BRANCH  20  21
HETATM   21  C13 UNL     1       3.056   0.399  -0.751  1.00  0.00     0.000 C 
BRANCH  21  22
HETATM   22  C14 UNL     1       3.835   0.976   0.381  1.00  0.00     0.000 C 
BRANCH  22  23
HETATM   23  C15 UNL     1       5.237   0.426   0.528  1.00  0.00     0.001 C 
BRANCH  23  24
HETATM   24  C16 UNL     1       6.017   0.704  -0.703  1.00  0.00     0.010 C 
BRANCH  24  25
HETATM   25  C17 UNL     1       7.442   0.216  -0.646  1.00  0.00     0.025 C 
HETATM   26  C18 UNL     1       8.244   0.798   0.431  1.00  0.00     0.060 C 
HETATM   27  N3  UNL     1       9.095  -0.052   0.872  1.00  0.00    -0.402 N 
HETATM   28  C19 UNL     1       8.994  -1.305   0.172  1.00  0.00     0.119 C 
ATOM     29  H3  UNL     1       9.759   0.135   1.623  1.00  0.00     0.158 HD
HETATM   30  C20 UNL     1       7.573  -1.268  -0.423  1.00  0.00     0.029 C 
ENDBRANCH  24  25
ENDBRANCH  23  24
ENDBRANCH  22  23
ENDBRANCH  21  22
ENDBRANCH  20  21
ENDBRANCH  19  20
ENDBRANCH  18  19
ENDBRANCH  17  18
ENDBRANCH  16  17
ENDBRANCH   1  16
TORSDOF 16
