REMARK  3 active torsions:
REMARK  status: ('A' for Active; 'I' for Inactive)
REMARK    1  A    between atoms: C2_2  and  O1_5 
REMARK    2  A    between atoms: O1_5  and  C5_6 
REMARK    3  A    between atoms: C5_6  and  C6_8 
ROOT
HETATM    1  C6  UNL     1       0.711  -0.113   0.930  1.00  0.00     0.091 C 
HETATM    2  C7  UNL     1       0.490  -1.562   0.672  1.00  0.00     0.052 C 
HETATM    3  C8  UNL     1      -0.150  -1.884  -0.630  1.00  0.00     0.173 C 
HETATM    4  F1  UNL     1      -0.557  -3.225  -0.568  1.00  0.00    -0.249 F 
HETATM    5  C9  UNL     1      -1.287  -1.009  -1.015  1.00  0.00     0.078 C 
HETATM    6  C10 UNL     1      -1.400   0.259  -0.236  1.00  0.00     0.100 C 
HETATM    7  C11 UNL     1      -2.167   0.141   1.039  1.00  0.00     0.044 C 
HETATM    8  C12 UNL     1      -3.515  -0.488   0.750  1.00  0.00     0.043 C 
HETATM    9  C13 UNL     1      -4.126   0.289  -0.396  1.00  0.00     0.089 C 
HETATM   10  C14 UNL     1      -5.250  -0.566  -0.966  1.00  0.00     0.049 C 
HETATM   11  C15 UNL     1      -4.761   1.546   0.139  1.00  0.00     0.049 C 
HETATM   12  O3  UNL     1      -3.225   0.526  -1.416  1.00  0.00    -0.230 OA
HETATM   13  O4  UNL     1      -2.153   1.150  -1.041  1.00  0.00    -0.229 OA
HETATM   14  C16 UNL     1      -0.012   0.803  -0.011  1.00  0.00     0.056 C 
ENDROOT
BRANCH   1  15
HETATM   15  C5  UNL     1       2.158   0.252   0.883  1.00  0.00     0.264 C 
HETATM   16  O2  UNL     1       2.769   0.751   1.863  1.00  0.00    -0.265 OA
BRANCH  15  17
HETATM   17  O1  UNL     1       2.919   0.053  -0.273  1.00  0.00    -0.311 OA
BRANCH  17  18
HETATM   18  C2  UNL     1       4.294   0.392  -0.339  1.00  0.00     0.060 C 
HETATM   19  C1  UNL     1       4.767   0.032  -1.741  1.00  0.00     0.045 C 
HETATM   20  C3  UNL     1       5.118  -0.420   0.639  1.00  0.00     0.045 C 
HETATM   21  C4  UNL     1       4.525   1.870  -0.139  1.00  0.00     0.045 C 
ENDBRANCH  17  18
ENDBRANCH  15  17
ENDBRANCH   1  15
TORSDOF 3
