REMARK  3 active torsions:
REMARK  status: ('A' for Active; 'I' for Inactive)
REMARK       I    between atoms: N1_4  and  C4_5 
REMARK    1  A    between atoms: C4_5  and  O2_7 
REMARK    2  A    between atoms: O2_7  and  C5_8 
REMARK    3  A    between atoms: C10_13  and  C11_14 
ROOT
HETATM    1  C1  UNL     1      -2.569  -2.998   1.450  1.00  0.00     0.014 C 
HETATM    2  C2  UNL     1      -1.949  -1.901   0.640  1.00  0.00     0.034 C 
HETATM    3  C3  UNL     1      -0.539  -2.359   0.277  1.00  0.00     0.135 C 
HETATM    4  N1  UNL     1       0.083  -1.208  -0.382  1.00  0.00    -0.327 N 
HETATM    5  C4  UNL     1       1.250  -0.616   0.117  1.00  0.00     0.363 C 
HETATM    6  O1  UNL     1       1.855  -1.009   1.153  1.00  0.00    -0.238 OA
HETATM    7  C9  UNL     1      -0.550  -0.714  -1.559  1.00  0.00     0.142 C 
HETATM    8  C10 UNL     1      -2.031  -0.610  -1.503  1.00  0.00     0.095 C 
HETATM    9  C14 UNL     1      -2.716  -1.571  -0.599  1.00  0.00     0.187 C 
HETATM   10  F1  UNL     1      -3.001  -2.718  -1.349  1.00  0.00    -0.248 F 
ENDROOT
BRANCH   5  11
HETATM   11  O2  UNL     1       1.803   0.471  -0.540  1.00  0.00    -0.294 OA
BRANCH  11  12
HETATM   12  C5  UNL     1       2.977   1.089  -0.061  1.00  0.00     0.061 C 
HETATM   13  C6  UNL     1       2.705   1.593   1.331  1.00  0.00     0.046 C 
HETATM   14  C7  UNL     1       4.158   0.150  -0.047  1.00  0.00     0.046 C 
HETATM   15  C8  UNL     1       3.311   2.226  -1.006  1.00  0.00     0.046 C 
ENDBRANCH  11  12
ENDBRANCH   5  11
BRANCH   8  16
HETATM   16  C11 UNL     1      -2.379   0.784  -1.029  1.00  0.00     0.059 A 
HETATM   17  N2  UNL     1      -2.098   1.344   0.138  1.00  0.00    -0.363 N 
HETATM   18  C12 UNL     1      -2.475   2.557   0.377  1.00  0.00     0.095 A 
ATOM     19  H2  UNL     1      -1.585   0.819   0.847  1.00  0.00     0.165 HD
HETATM   20  C13 UNL     1      -3.162   3.220  -0.608  1.00  0.00     0.068 A 
HETATM   21  S1  UNL     1      -3.220   2.030  -1.837  1.00  0.00    -0.087 SA
ENDBRANCH   8  16
TORSDOF 3
