REMARK  1 active torsions:
REMARK  status: ('A' for Active; 'I' for Inactive)
REMARK    1  A    between atoms: N1_5  and  C4_6 
ROOT
HETATM    1  C4  UNL     1       0.215   1.582   0.060  1.00  0.00     0.118 A 
HETATM    2  N2  UNL     1       0.867   2.731   0.271  1.00  0.00    -0.338 N 
ATOM      3  H2  UNL     1       1.886   2.723   0.234  1.00  0.00     0.168 HD
HETATM    4  C5  UNL     1       0.257   3.877   0.525  1.00  0.00     0.182 A 
HETATM    5  N3  UNL     1      -1.091   3.880   0.572  1.00  0.00    -0.346 N 
ATOM      6  H3  UNL     1      -1.595   4.745   0.766  1.00  0.00     0.167 HD
HETATM    7  C6  UNL     1      -1.777   2.721   0.359  1.00  0.00     0.089 A 
HETATM    8  S1  UNL     1      -3.451   2.366   0.335  1.00  0.00    -0.075 SA
HETATM    9  C7  UNL     1      -3.370   0.717  -0.011  1.00  0.00    -0.008 A 
HETATM   10  C8  UNL     1      -1.997   0.462  -0.105  1.00  0.00    -0.028 A 
HETATM   11  C9  UNL     1      -1.183   1.514   0.092  1.00  0.00     0.049 A 
HETATM   12  C10 UNL     1      -1.834  -0.999  -0.454  1.00  0.00     0.041 C 
HETATM   13  C11 UNL     1      -2.468  -1.745   0.727  1.00  0.00     0.005 C 
HETATM   14  C12 UNL     1      -3.964  -1.635   0.543  1.00  0.00     0.005 C 
HETATM   15  C13 UNL     1      -4.364  -0.388  -0.200  1.00  0.00     0.047 C 
ENDROOT
BRANCH   1  16
HETATM   16  N1  UNL     1       1.082   0.464  -0.119  1.00  0.00    -0.364 N 
HETATM   17  C3  UNL     1       1.255  -0.262   1.112  1.00  0.00     0.127 C 
HETATM   18  C2  UNL     1       1.834  -1.635   0.925  1.00  0.00     0.059 C 
HETATM   19  C1  UNL     1       3.298  -1.675   0.691  1.00  0.00     0.195 C 
HETATM   20  F1  UNL     1       3.575  -2.709  -0.197  1.00  0.00    -0.247 F 
HETATM   21  C16 UNL     1       3.907  -0.433   0.144  1.00  0.00     0.204 C 
HETATM   22  O1  UNL     1       3.753  -0.315  -1.237  1.00  0.00    -0.387 OA
HETATM   23  C15 UNL     1       3.017   0.813  -1.586  1.00  0.00     0.187 C 
HETATM   24  C14 UNL     1       1.544   0.395  -1.473  1.00  0.00     0.150 C 
ENDBRANCH   1  16
TORSDOF 1
