REMARK  1 active torsions:
REMARK  status: ('A' for Active; 'I' for Inactive)
REMARK    1  A    between atoms: C4_5  and  C5_6 
ROOT
HETATM    1  C5  UNL     1       1.284   0.558   0.079  1.00  0.00     0.383 C 
HETATM    2  O1  UNL     1       0.657   0.041  -1.017  1.00  0.00    -0.195 OA
HETATM    3  O2  UNL     1      -0.606   0.082  -1.052  1.00  0.00    -0.195 OA
HETATM    4  C6  UNL     1      -1.309   0.190   0.098  1.00  0.00     0.229 C 
HETATM    5  C7  UNL     1      -2.322   1.292  -0.038  1.00  0.00     0.074 C 
HETATM    6  C8  UNL     1      -3.562   0.901  -0.774  1.00  0.00     0.006 C 
HETATM    7  C9  UNL     1      -4.161  -0.318  -0.078  1.00  0.00     0.000 C 
HETATM    8  C10 UNL     1      -3.159  -1.445  -0.367  1.00  0.00     0.006 C 
HETATM    9  C11 UNL     1      -1.932  -1.146   0.427  1.00  0.00     0.074 C 
HETATM   10  O3  UNL     1      -0.536   0.538   1.220  1.00  0.00    -0.195 OA
HETATM   11  O4  UNL     1       0.643  -0.006   1.208  1.00  0.00    -0.195 OA
ENDROOT
BRANCH   1  12
HETATM   12  C4  UNL     1       2.723   0.315   0.072  1.00  0.00     0.070 A 
HETATM   13  C3  UNL     1       3.291  -0.881  -0.240  1.00  0.00     0.032 A 
HETATM   14  C2  UNL     1       4.655  -1.064  -0.233  1.00  0.00     0.022 A 
HETATM   15  C1  UNL     1       5.473   0.016   0.104  1.00  0.00     0.026 A 
HETATM   16 BR1  UNL     1       7.369  -0.123   0.145  1.00  0.00    -0.050 Br
HETATM   17  C12 UNL     1       4.891   1.207   0.413  1.00  0.00     0.107 A 
HETATM   18  N1  UNL     1       3.567   1.334   0.393  1.00  0.00    -0.364 N 
ATOM     19  H1  UNL     1       3.164   2.240   0.630  1.00  0.00     0.165 HD
ENDBRANCH   1  12
TORSDOF 1
