REMARK  2 active torsions:
REMARK  status: ('A' for Active; 'I' for Inactive)
REMARK    1  A    between atoms: C6_9  and  C7_10 
REMARK    2  A    between atoms: C7_10  and  C8_11 
ROOT
HETATM    1  C1  UNL     1      -4.810  -2.017  -0.988  1.00  0.00     0.025 C 
HETATM    2  C2  UNL     1      -3.403  -1.617  -0.705  1.00  0.00     0.114 C 
HETATM    3  C3  UNL     1      -2.616  -1.387  -1.958  1.00  0.00     0.273 C 
HETATM    4  O1  UNL     1      -3.185  -1.638  -3.028  1.00  0.00    -0.264 OA
HETATM    5  O2  UNL     1      -1.304  -0.916  -1.974  1.00  0.00    -0.252 OA
HETATM    6  C4  UNL     1      -0.445  -0.603  -0.917  1.00  0.00     0.224 C 
HETATM    7  C5  UNL     1      -0.813  -0.232   0.283  1.00  0.00     0.152 C 
HETATM    8  O3  UNL     1       0.363  -0.028   0.999  1.00  0.00    -0.315 OA
HETATM    9  C6  UNL     1       1.471  -0.488   0.264  1.00  0.00     0.275 C 
HETATM   10  O4  UNL     1       0.951  -0.654  -1.033  1.00  0.00    -0.296 OA
HETATM   11  C13 UNL     1      -2.122  -0.011   0.959  1.00  0.00     0.180 C 
HETATM   12  F1  UNL     1      -2.085  -0.792   2.118  1.00  0.00    -0.230 F 
HETATM   13  C14 UNL     1      -2.185   1.426   1.415  1.00  0.00     0.056 C 
HETATM   14  C15 UNL     1      -3.608   1.657   1.918  1.00  0.00     0.008 C 
HETATM   15  C16 UNL     1      -4.485   1.658   0.709  1.00  0.00     0.027 C 
HETATM   16  C17 UNL     1      -4.342   0.362  -0.004  1.00  0.00    -0.019 C 
HETATM   17  C18 UNL     1      -3.272  -0.390   0.111  1.00  0.00    -0.024 C 
ENDROOT
BRANCH   9  18
HETATM   18  C7  UNL     1       2.515   0.616   0.216  1.00  0.00     0.066 C 
BRANCH  18  19
HETATM   19  C8  UNL     1       3.734   0.196  -0.557  1.00  0.00    -0.010 C 
HETATM   20  C9  UNL     1       4.709   1.348  -0.551  1.00  0.00     0.005 C 
HETATM   21  C10 UNL     1       5.910   0.837   0.238  1.00  0.00     0.000 C 
HETATM   22  C11 UNL     1       5.883  -0.644  -0.116  1.00  0.00     0.000 C 
HETATM   23  C12 UNL     1       4.421  -0.971   0.101  1.00  0.00     0.005 C 
ENDBRANCH  18  19
ENDBRANCH   9  18
TORSDOF 2
