REMARK  1 active torsions:
REMARK  status: ('A' for Active; 'I' for Inactive)
REMARK    1  A    between atoms: O1_2  and  C2_3 
ROOT
HETATM    1  C2  UNL     1       3.571  -0.329   0.230  1.00  0.00     0.042 C 
HETATM    2  C3  UNL     1       2.997  -0.722  -0.884  1.00  0.00     0.008 C 
HETATM    3  C4  UNL     1       1.640  -1.340  -0.780  1.00  0.00     0.071 C 
HETATM    4  C5  UNL     1       0.725  -0.523   0.104  1.00  0.00     0.100 C 
HETATM    5  C6  UNL     1       1.457   0.074   1.250  1.00  0.00     0.048 C 
HETATM    6  C7  UNL     1       2.825  -0.533   1.484  1.00  0.00     0.067 C 
HETATM    7  C8  UNL     1      -0.384  -1.449   0.550  1.00  0.00     0.044 C 
HETATM    8  C9  UNL     1      -1.491  -0.758   1.265  1.00  0.00     0.047 C 
HETATM    9  C10 UNL     1      -2.518  -0.136   0.364  1.00  0.00     0.124 C 
HETATM   10  C11 UNL     1      -3.498   0.631   1.251  1.00  0.00     0.052 C 
HETATM   11  O2  UNL     1      -3.286  -1.136  -0.292  1.00  0.00    -0.322 OA
HETATM   12  C12 UNL     1      -4.191  -0.723  -1.276  1.00  0.00     0.162 C 
HETATM   13 CL1  UNL     1      -5.561  -1.674  -1.767  1.00  0.00    -0.055 Cl
HETATM   14  C13 UNL     1      -4.016   0.454  -1.882  1.00  0.00     0.188 C 
HETATM   15  O3  UNL     1      -2.939   1.238  -1.519  1.00  0.00    -0.317 OA
HETATM   16  C14 UNL     1      -1.938   0.827  -0.622  1.00  0.00     0.229 C 
HETATM   17  C15 UNL     1      -1.384   2.033   0.110  1.00  0.00     0.085 C 
HETATM   18  O4  UNL     1      -0.899   0.152  -1.304  1.00  0.00    -0.197 OA
HETATM   19  O5  UNL     1       0.208   0.495  -0.726  1.00  0.00    -0.226 OA
ENDROOT
BRANCH   1  20
HETATM   20  O1  UNL     1       4.809   0.250   0.267  1.00  0.00    -0.361 OA
HETATM   21  C1  UNL     1       5.520   0.669  -0.880  1.00  0.00     0.209 C 
ENDBRANCH   1  20
TORSDOF 1
