REMARK  12 active torsions:
REMARK  status: ('A' for Active; 'I' for Inactive)
REMARK    1  A    between atoms: C2_2  and  C3_3 
REMARK    2  A    between atoms: C4_4  and  C5_5 
REMARK    3  A    between atoms: C6_6  and  C7_7 
REMARK    4  A    between atoms: C8_8  and  C9_9 
REMARK    5  A    between atoms: C9_9  and  C10_10 
REMARK    6  A    between atoms: C10_10  and  C11_11 
REMARK    7  A    between atoms: C11_11  and  C12_12 
REMARK    8  A    between atoms: C11_11  and  C13_20 
REMARK    9  A    between atoms: C19_29  and  O2_30 
REMARK   10  A    between atoms: O2_30  and  C20_31 
REMARK   11  A    between atoms: C20_31  and  C23_34 
REMARK   12  A    between atoms: C24_37  and  C25_38 
ROOT
HETATM    1  C5  UNL     1      -0.807  -0.744  -0.269  1.00  0.00     0.050 A 
HETATM    2  C6  UNL     1       0.193  -0.923   0.697  1.00  0.00     0.043 A 
HETATM    3  C16 UNL     1       0.090  -0.437   1.952  1.00  0.00    -0.039 A 
HETATM    4  C17 UNL     1       1.164  -0.645   2.971  1.00  0.00     0.050 C 
HETATM    5  C18 UNL     1      -1.066   0.268   2.257  1.00  0.00     0.046 A 
HETATM    6  C19 UNL     1      -2.061   0.472   1.342  1.00  0.00     0.083 A 
HETATM    7  C24 UNL     1      -1.946  -0.045   0.022  1.00  0.00     0.024 A 
ENDROOT
BRANCH   2   8
HETATM    8  C7  UNL     1       1.448  -1.478   0.255  1.00  0.00    -0.065 C 
HETATM    9  C8  UNL     1       2.527  -1.867  -0.145  1.00  0.00    -0.101 C 
BRANCH   9  10
HETATM   10  C9  UNL     1       3.845  -2.254  -0.683  1.00  0.00     0.095 C 
BRANCH  10  11
HETATM   11  C10 UNL     1       4.527  -0.962  -1.123  1.00  0.00     0.031 C 
BRANCH  11  12
HETATM   12  C11 UNL     1       4.765  -0.057   0.050  1.00  0.00     0.115 C 
BRANCH  12  13
HETATM   13  C12 UNL     1       5.385   1.242  -0.432  1.00  0.00     0.120 A 
HETATM   14  N1  UNL     1       5.415   2.412   0.210  1.00  0.00    -0.270 N 
HETATM   15  N2  UNL     1       6.039   3.311  -0.551  1.00  0.00    -0.005 NA
ATOM     16  H1  UNL     1       5.023   2.590   1.135  1.00  0.00     0.185 HD
HETATM   17  N3  UNL     1       6.410   2.701  -1.693  1.00  0.00    -0.225 N 
HETATM   18  N4  UNL     1       6.002   1.458  -1.588  1.00  0.00    -0.274 N 
ATOM     19  H3  UNL     1       6.907   3.120  -2.479  1.00  0.00     0.205 HD
ATOM     20  H4  UNL     1       6.141   0.746  -2.305  1.00  0.00     0.189 HD
ENDBRANCH  12  13
BRANCH  12  21
HETATM   21  C13 UNL     1       5.832  -0.690   0.911  1.00  0.00     0.081 A 
HETATM   22  C14 UNL     1       6.803  -1.606   0.492  1.00  0.00     0.123 A 
HETATM   23  N5  UNL     1       7.530  -1.902   1.581  1.00  0.00    -0.354 N 
HETATM   24  C15 UNL     1       7.053  -1.215   2.634  1.00  0.00     0.233 A 
ATOM     25  H5  UNL     1       8.320  -2.547   1.606  1.00  0.00     0.166 HD
HETATM   26  O1  UNL     1       6.043  -0.509   2.169  1.00  0.00    -0.308 OA
ENDBRANCH  12  21
ENDBRANCH  11  12
ENDBRANCH  10  11
ENDBRANCH   9  10
ENDBRANCH   2   8
BRANCH   1  27
HETATM   27  C4  UNL     1      -0.594  -1.350  -1.577  1.00  0.00    -0.065 C 
HETATM   28  C3  UNL     1      -0.409  -1.907  -2.652  1.00  0.00    -0.101 C 
BRANCH  28  29
HETATM   29  C2  UNL     1      -0.222  -2.598  -3.954  1.00  0.00     0.090 C 
HETATM   30  C1  UNL     1      -0.982  -3.920  -3.829  1.00  0.00     0.018 C 
ENDBRANCH  28  29
ENDBRANCH   1  27
BRANCH   7  31
HETATM   31  C25 UNL     1      -3.066   0.125  -0.943  1.00  0.00    -0.041 C 
HETATM   32  C26 UNL     1      -3.399  -0.923  -1.856  1.00  0.00     0.045 C 
HETATM   33  C27 UNL     1      -4.039  -0.648  -2.974  1.00  0.00     0.094 C 
HETATM   34  F1  UNL     1      -4.341  -1.650  -3.821  1.00  0.00    -0.211 F 
HETATM   35  C28 UNL     1      -4.479   0.709  -3.350  1.00  0.00     0.070 C 
HETATM   36  C29 UNL     1      -4.414   1.731  -2.278  1.00  0.00     0.011 C 
HETATM   37  C30 UNL     1      -3.291   1.538  -1.325  1.00  0.00     0.040 C 
ENDBRANCH   7  31
BRANCH   6  38
HETATM   38  O2  UNL     1      -3.174   1.143   1.639  1.00  0.00    -0.329 OA
BRANCH  38  39
HETATM   39  C20 UNL     1      -3.711   1.751   2.748  1.00  0.00     0.148 C 
HETATM   40  C21 UNL     1      -5.092   2.376   2.368  1.00  0.00     0.058 C 
HETATM   41  C22 UNL     1      -4.000   0.795   3.891  1.00  0.00     0.058 C 
BRANCH  39  42
HETATM   42  C23 UNL     1      -2.930   2.911   3.282  1.00  0.00     0.209 C 
HETATM   43  O3  UNL     1      -1.872   3.345   2.857  1.00  0.00    -0.646 OA
HETATM   44  O4  UNL     1      -3.487   3.582   4.400  1.00  0.00    -0.646 OA
ENDBRANCH  39  42
ENDBRANCH  38  39
ENDBRANCH   6  38
TORSDOF 12
