REMARK  9 active torsions:
REMARK  status: ('A' for Active; 'I' for Inactive)
REMARK    1  A    between atoms: C2_2  and  N1_5 
REMARK       I    between atoms: N1_5  and  C5_7 
REMARK       I    between atoms: C5_7  and  N2_9 
REMARK    2  A    between atoms: N2_9  and  C6_11 
REMARK    3  A    between atoms: C9_14  and  C10_15 
REMARK    4  A    between atoms: C11_19  and  C12_20 
REMARK       I    between atoms: N4_23  and  C15_24 
REMARK    5  A    between atoms: C15_24  and  C16_26 
REMARK    6  A    between atoms: C16_26  and  C17_27 
REMARK    7  A    between atoms: C17_27  and  C18_28 
REMARK    8  A    between atoms: C18_28  and  C19_29 
REMARK    9  A    between atoms: C20_32  and  C21_33 
ROOT
HETATM    1  C10 UNL     1      -1.634  -0.238  -0.430  1.00  0.00     0.137 A 
HETATM    2  N3  UNL     1      -0.701  -0.541  -1.316  1.00  0.00    -0.242 N 
ATOM      3  H3  UNL     1      -0.850  -0.796  -2.292  1.00  0.00     0.196 HD
HETATM    4  O2  UNL     1       0.440  -0.452  -0.707  1.00  0.00    -0.222 OA
HETATM    5  C11 UNL     1       0.278  -0.102   0.552  1.00  0.00     0.152 A 
HETATM    6  N7  UNL     1      -1.044   0.038   0.733  1.00  0.00    -0.322 N 
ATOM      7  H7  UNL     1      -1.511   0.306   1.599  1.00  0.00     0.169 HD
ENDROOT
BRANCH   5   8
HETATM    8  C12 UNL     1       1.369   0.099   1.566  1.00  0.00     0.066 C 
HETATM    9  C13 UNL     1       2.230   1.264   1.259  1.00  0.00     0.033 C 
HETATM   10  C14 UNL     1       3.641   0.918   0.896  1.00  0.00     0.127 C 
HETATM   11  N4  UNL     1       4.252  -0.057   1.769  1.00  0.00    -0.349 N 
HETATM   12  C15 UNL     1       5.699  -0.121   1.880  1.00  0.00     0.243 C 
HETATM   13  C24 UNL     1       3.404  -0.924   2.542  1.00  0.00     0.127 C 
HETATM   14  O3  UNL     1       6.316   0.739   1.234  1.00  0.00    -0.268 OA
HETATM   15  C25 UNL     1       2.130  -1.180   1.780  1.00  0.00     0.033 C 
BRANCH  12  16
HETATM   16  C16 UNL     1       6.338  -1.126   2.693  1.00  0.00     0.070 C 
BRANCH  16  17
HETATM   17  C17 UNL     1       7.766  -1.393   2.625  1.00  0.00    -0.013 C 
BRANCH  17  18
HETATM   18  C18 UNL     1       8.451  -1.940   1.458  1.00  0.00     0.114 C 
BRANCH  18  19
HETATM   19  C19 UNL     1       8.489  -1.175   0.217  1.00  0.00     0.151 A 
HETATM   20  N5  UNL     1       9.442  -0.206  -0.046  1.00  0.00    -0.326 N 
HETATM   21  C20 UNL     1       9.233   0.325  -1.263  1.00  0.00     0.108 A 
ATOM     22  H5  UNL     1      10.192   0.065   0.590  1.00  0.00     0.169 HD
HETATM   23  N6  UNL     1       8.165  -0.314  -1.744  1.00  0.00    -0.247 N 
HETATM   24  O4  UNL     1       7.754  -1.187  -0.843  1.00  0.00    -0.223 OA
ATOM     25  H6  UNL     1       7.737  -0.155  -2.656  1.00  0.00     0.196 HD
BRANCH  21  26
HETATM   26  C21 UNL     1      10.038   1.398  -1.887  1.00  0.00     0.055 A 
HETATM   27  C22 UNL     1      10.589   1.182  -3.259  1.00  0.00     0.013 A 
HETATM   28  C23 UNL     1       9.545   2.218  -2.995  1.00  0.00     0.013 A 
ENDBRANCH  21  26
ENDBRANCH  18  19
ENDBRANCH  17  18
ENDBRANCH  16  17
ENDBRANCH  12  16
ENDBRANCH   5   8
BRANCH   1  29
HETATM   29  C9  UNL     1      -3.094  -0.229  -0.664  1.00  0.00     0.011 A 
HETATM   30  C8  UNL     1      -3.985   0.160   0.281  1.00  0.00     0.017 A 
HETATM   31  C7  UNL     1      -5.362   0.155   0.090  1.00  0.00     0.032 A 
HETATM   32  C6  UNL     1      -5.879  -0.266  -1.121  1.00  0.00     0.058 A 
HETATM   33  C27 UNL     1      -4.948  -0.665  -2.091  1.00  0.00     0.061 A 
HETATM   34  C26 UNL     1      -3.588  -0.650  -1.876  1.00  0.00     0.041 A 
HETATM   35 CL1  UNL     1      -5.567  -1.206  -3.658  1.00  0.00    -0.082 Cl
BRANCH  32  36
HETATM   36  N2  UNL     1      -7.247  -0.327  -1.411  1.00  0.00    -0.307 N 
HETATM   37  C5  UNL     1      -8.350   0.094  -0.681  1.00  0.00     0.321 C 
HETATM   38  N1  UNL     1      -9.686  -0.088  -1.202  1.00  0.00    -0.335 N 
HETATM   39  O1  UNL     1      -8.275   0.640   0.428  1.00  0.00    -0.247 OA
ATOM     40  H1  UNL     1      -9.808  -0.543  -2.106  1.00  0.00     0.165 HD
ATOM     41  H2  UNL     1      -7.471  -0.753  -2.310  1.00  0.00     0.170 HD
BRANCH  38  42
HETATM   42  C2  UNL     1     -10.855   0.359  -0.474  1.00  0.00     0.023 C 
HETATM   43  C1  UNL     1     -12.126   0.023  -1.234  1.00  0.00     0.037 C 
HETATM   44  C3  UNL     1     -10.915  -0.270   0.874  1.00  0.00     0.037 C 
HETATM   45  C4  UNL     1     -10.766   1.883  -0.370  1.00  0.00     0.037 C 
ENDBRANCH  38  42
ENDBRANCH  32  36
ENDBRANCH   1  29
TORSDOF 9
