REMARK  2 active torsions:
REMARK  status: ('A' for Active; 'I' for Inactive)
REMARK    1  A    between atoms: N1_3  and  C3_5 
REMARK    2  A    between atoms: C3_5  and  C4_6 
ROOT
HETATM    1  C1  UNL     1       3.644   0.514  -0.314  1.00  0.00     0.036 C 
HETATM    2  C2  UNL     1       2.750   0.006   0.327  1.00  0.00    -0.006 C 
HETATM    3  N1  UNL     1       1.734  -0.561   1.080  1.00  0.00    -0.351 N 
ATOM      4  H1  UNL     1       1.841  -0.572   2.094  1.00  0.00     0.169 HD
ENDROOT
BRANCH   3   5
HETATM    5  C3  UNL     1       0.534  -1.137   0.522  1.00  0.00     0.134 C 
BRANCH   5   6
HETATM    6  C4  UNL     1      -0.285  -0.039  -0.065  1.00  0.00     0.004 C 
HETATM    7  C5  UNL     1      -1.590  -0.426  -0.713  1.00  0.00     0.006 C 
HETATM    8  C6  UNL     1      -2.135   0.896  -0.147  1.00  0.00     0.001 C 
HETATM    9  C7  UNL     1      -1.124   0.703   0.984  1.00  0.00     0.006 C 
ENDBRANCH   5   6
ENDBRANCH   3   5
TORSDOF 2
