REMARK  3 active torsions:
REMARK  status: ('A' for Active; 'I' for Inactive)
REMARK    1  A    between atoms: N1_1  and  C1_5 
REMARK    2  A    between atoms: C1_5  and  C2_6 
REMARK    3  A    between atoms: C2_6  and  N2_7 
ROOT
HETATM    1  C2  UNL     1      -0.658  -0.980  -0.141  1.00  0.00     0.300 C 
ENDROOT
BRANCH   1   2
HETATM    2  C1  UNL     1      -2.127  -0.624  -0.109  1.00  0.00     0.259 C 
BRANCH   2   3
HETATM    3  N1  UNL     1      -2.444   0.260   1.000  1.00  0.00    -0.078 N 
ATOM      4  H13 UNL     1      -2.138  -0.135   1.889  1.00  0.00     0.274 HD
ATOM      5  H12 UNL     1      -1.860   1.096   0.987  1.00  0.00     0.274 HD
ATOM      6  H11 UNL     1      -3.435   0.500   1.022  1.00  0.00     0.274 HD
ENDBRANCH   2   3
ENDBRANCH   1   2
BRANCH   1   7
HETATM    7  N2  UNL     1       0.141   0.217  -0.260  1.00  0.00     0.099 N 
HETATM    8  C3  UNL     1       1.514   0.090  -0.625  1.00  0.00     0.227 C 
HETATM    9  C4  UNL     1       1.709   1.423   0.070  1.00  0.00     0.071 C 
HETATM   10  C6  UNL     1       1.780  -0.533   0.684  1.00  0.00     0.071 C 
HETATM   11  C5  UNL     1       0.831   0.582   0.967  1.00  0.00     0.227 C 
ENDBRANCH   1   7
TORSDOF 3
