REMARK  3 active torsions:
REMARK  status: ('A' for Active; 'I' for Inactive)
REMARK    1  A    between atoms: C2_2  and  C3_3 
REMARK    2  A    between atoms: C3_3  and  N1_4 
REMARK    3  A    between atoms: N1_4  and  C4_6 
ROOT
HETATM    1  C4  UNL     1       1.049   0.010  -0.535  1.00  0.00     0.674 A 
HETATM    2  N2  UNL     1       1.465   1.018   0.121  1.00  0.00    -0.222 N 
ATOM      3  H2  UNL     1       0.886   1.798   0.431  1.00  0.00     0.178 HD
HETATM    4  C5  UNL     1       2.871   0.887   0.356  1.00  0.00     0.183 A 
HETATM    5  C6  UNL     1       3.206  -0.384  -0.282  1.00  0.00     0.099 A 
HETATM    6  N3  UNL     1       2.128  -0.859  -0.785  1.00  0.00    -0.204 N 
ATOM      7  H3  UNL     1       2.061  -1.741  -1.294  1.00  0.00     0.183 HD
ENDROOT
BRANCH   1   8
HETATM    8  N1  UNL     1      -0.325  -0.208  -0.960  1.00  0.00    -0.223 N 
ATOM      9  H1  UNL     1      -0.591  -0.209  -1.945  1.00  0.00     0.178 HD
BRANCH   8  10
HETATM   10  C3  UNL     1      -1.294  -0.424   0.093  1.00  0.00     0.164 C 
BRANCH  10  11
HETATM   11  C2  UNL     1      -2.612  -0.623  -0.544  1.00  0.00    -0.017 C 
HETATM   12  C1  UNL     1      -3.590   0.194  -0.266  1.00  0.00     0.008 C 
ENDBRANCH  10  11
ENDBRANCH   8  10
ENDBRANCH   1   8
TORSDOF 3
