REMARK  9 active torsions:
REMARK  status: ('A' for Active; 'I' for Inactive)
REMARK    1  A    between atoms: C2_2  and  C3_3 
REMARK    2  A    between atoms: C3_3  and  O1_5 
REMARK    3  A    between atoms: O1_5  and  C5_6 
REMARK    4  A    between atoms: C5_6  and  C6_8 
REMARK    5  A    between atoms: C6_8  and  N1_9 
REMARK    6  A    between atoms: C6_8  and  C11_19 
REMARK       I    between atoms: N1_9  and  C7_11 
REMARK    7  A    between atoms: C7_11  and  C8_13 
REMARK    8  A    between atoms: C11_19  and  C12_21 
REMARK    9  A    between atoms: C13_22  and  O6_23 
ROOT
HETATM    1  C6  UNL     1      -0.150   0.606  -0.885  1.00  0.00     0.260 C 
ENDROOT
BRANCH   1   2
HETATM    2  C5  UNL     1       0.931   0.519   0.163  1.00  0.00     0.290 C 
HETATM    3  O2  UNL     1       1.449   1.587   0.579  1.00  0.00    -0.262 OA
BRANCH   2   4
HETATM    4  O1  UNL     1       1.384  -0.652   0.695  1.00  0.00    -0.314 OA
BRANCH   4   5
HETATM    5  C3  UNL     1       2.388  -0.766   1.673  1.00  0.00     0.127 C 
HETATM    6  C4  UNL     1       3.588  -1.547   1.260  1.00  0.00     0.040 C 
BRANCH   5   7
HETATM    7  C2  UNL     1       1.882  -1.290   2.998  1.00  0.00     0.027 C 
HETATM    8  C1  UNL     1       3.012  -1.115   4.008  1.00  0.00     0.007 C 
ENDBRANCH   5   7
ENDBRANCH   4   5
ENDBRANCH   2   4
ENDBRANCH   1   2
BRANCH   1   9
HETATM    9  N1  UNL     1      -0.933   1.819  -0.613  1.00  0.00    -0.336 N 
HETATM   10  C7  UNL     1      -0.998   2.914  -1.479  1.00  0.00     0.267 C 
HETATM   11  O3  UNL     1      -0.383   2.964  -2.593  1.00  0.00    -0.266 OA
ATOM     12  H1  UNL     1      -1.460   1.865   0.259  1.00  0.00     0.164 HD
BRANCH  10  13
HETATM   13  C8  UNL     1      -1.798   4.078  -1.131  1.00  0.00     0.101 C 
HETATM   14  N2  UNL     1      -1.952   5.149  -1.828  1.00  0.00    -0.265 N 
HETATM   15  O4  UNL     1      -2.769   6.039  -1.201  1.00  0.00    -0.280 OA
ATOM     16  H2  UNL     1      -1.517   5.311  -2.736  1.00  0.00     0.194 HD
HETATM   17  C9  UNL     1      -3.508   5.382  -0.187  1.00  0.00     0.207 C 
HETATM   18  C10 UNL     1      -2.596   4.234   0.136  1.00  0.00     0.093 C 
ENDBRANCH  10  13
ENDBRANCH   1   9
BRANCH   1  19
HETATM   19  C11 UNL     1      -1.006  -0.584  -0.932  1.00  0.00     0.201 C 
HETATM   20  O5  UNL     1      -2.141  -0.449  -0.334  1.00  0.00    -0.289 OA
BRANCH  19  21
HETATM   21  C12 UNL     1      -0.762  -1.854  -1.540  1.00  0.00     0.131 A 
HETATM   22  C13 UNL     1      -1.702  -2.873  -1.439  1.00  0.00     0.163 A 
HETATM   23  N3  UNL     1      -1.545  -4.073  -2.016  1.00  0.00    -0.288 N 
HETATM   24  C14 UNL     1      -0.437  -4.330  -2.731  1.00  0.00     0.329 A 
ATOM     25  H3  UNL     1      -2.264  -4.789  -1.912  1.00  0.00     0.172 HD
HETATM   26  O7  UNL     1      -0.287  -5.478  -3.283  1.00  0.00    -0.247 OA
HETATM   27  N4  UNL     1       0.488  -3.387  -2.856  1.00  0.00    -0.275 N 
HETATM   28  C15 UNL     1       0.350  -2.158  -2.278  1.00  0.00     0.267 A 
ATOM     29  H4  UNL     1       1.327  -3.586  -3.400  1.00  0.00     0.173 HD
HETATM   30  O8  UNL     1       1.265  -1.343  -2.455  1.00  0.00    -0.267 OA
BRANCH  22  31
HETATM   31  O6  UNL     1      -2.847  -2.623  -0.705  1.00  0.00    -0.345 OA
ATOM     32  H6  UNL     1      -3.489  -3.319  -0.636  1.00  0.00     0.219 HD
ENDBRANCH  22  31
ENDBRANCH  19  21
ENDBRANCH   1  19
TORSDOF 9
