REMARK  11 active torsions:
REMARK  status: ('A' for Active; 'I' for Inactive)
REMARK    1  A    between atoms: O1_2  and  C2_3 
REMARK    2  A    between atoms: C2_3  and  C3_5 
REMARK    3  A    between atoms: C3_5  and  O3_6 
REMARK    4  A    between atoms: O3_6  and  N1_7 
REMARK    5  A    between atoms: N1_7  and  C4_9 
REMARK    6  A    between atoms: C4_9  and  C5_10 
REMARK    7  A    between atoms: C4_9  and  C10_24 
REMARK    8  A    between atoms: C5_10  and  O4_11 
REMARK    9  A    between atoms: O4_11  and  C6_12 
REMARK   10  A    between atoms: C6_12  and  C7_14 
REMARK   11  A    between atoms: C8_15  and  O6_16 
ROOT
HETATM    1  C4  UNL     1       0.399   0.162   1.632  1.00  0.00     0.073 C 
ENDROOT
BRANCH   1   2
HETATM    2  N1  UNL     1       1.203  -0.694   1.234  1.00  0.00    -0.267 N 
ATOM      3  H1  UNL     1       0.864  -1.615   1.511  1.00  0.00     0.194 HD
BRANCH   2   4
HETATM    4  O3  UNL     1       2.333  -0.839   0.584  1.00  0.00    -0.270 OA
BRANCH   4   5
HETATM    5  C3  UNL     1       2.496  -1.807  -0.416  1.00  0.00     0.312 C 
BRANCH   5   6
HETATM    6  C2  UNL     1       3.886  -1.751  -0.995  1.00  0.00     0.284 C 
HETATM    7  O2  UNL     1       4.729  -0.916  -0.579  1.00  0.00    -0.263 OA
BRANCH   6   8
HETATM    8  O1  UNL     1       4.283  -2.614  -2.000  1.00  0.00    -0.325 OA
HETATM    9  C1  UNL     1       5.576  -2.601  -2.576  1.00  0.00     0.213 C 
ENDBRANCH   6   8
ENDBRANCH   5   6
ENDBRANCH   4   5
ENDBRANCH   2   4
ENDBRANCH   1   2
BRANCH   1  10
HETATM   10  C5  UNL     1      -0.800  -0.370   2.383  1.00  0.00     0.239 C 
BRANCH  10  11
HETATM   11  O4  UNL     1      -1.989  -0.268   1.668  1.00  0.00    -0.311 OA
BRANCH  11  12
HETATM   12  C6  UNL     1      -2.242  -0.861   0.453  1.00  0.00     0.303 C 
HETATM   13  O5  UNL     1      -1.356  -1.555  -0.083  1.00  0.00    -0.259 OA
BRANCH  12  14
HETATM   14  C7  UNL     1      -3.538  -0.672  -0.194  1.00  0.00     0.160 A 
HETATM   15  C8  UNL     1      -3.975  -1.175  -1.392  1.00  0.00     0.177 A 
HETATM   16  N2  UNL     1      -5.237  -0.765  -1.630  1.00  0.00    -0.276 N 
HETATM   17  N3  UNL     1      -5.600  -0.012  -0.599  1.00  0.00    -0.264 N 
ATOM     18  H2  UNL     1      -5.805  -0.991  -2.447  1.00  0.00     0.189 HD
HETATM   19  C9  UNL     1      -4.588   0.068   0.299  1.00  0.00     0.280 A 
ATOM     20  H3  UNL     1      -6.508   0.441  -0.497  1.00  0.00     0.190 HD
HETATM   21  O7  UNL     1      -4.614   0.713   1.394  1.00  0.00    -0.266 OA
BRANCH  15  22
HETATM   22  O6  UNL     1      -3.236  -1.976  -2.223  1.00  0.00    -0.344 OA
ATOM     23  H6  UNL     1      -3.539  -2.325  -3.053  1.00  0.00     0.219 HD
ENDBRANCH  15  22
ENDBRANCH  12  14
ENDBRANCH  11  12
ENDBRANCH  10  11
ENDBRANCH   1  10
BRANCH   1  24
HETATM   24  C10 UNL     1       0.556   1.584   1.380  1.00  0.00     0.074 A 
HETATM   25  C11 UNL     1       1.615   2.059   0.610  1.00  0.00     0.112 A 
HETATM   26  N4  UNL     1       1.698   3.379   0.397  1.00  0.00    -0.318 N 
HETATM   27  C12 UNL     1       0.820   4.269   0.882  1.00  0.00     0.327 A 
ATOM     28  H4  UNL     1       2.474   3.727  -0.167  1.00  0.00     0.170 HD
HETATM   29  O8  UNL     1       0.970   5.497   0.635  1.00  0.00    -0.247 OA
HETATM   30  N5  UNL     1      -0.202   3.845   1.622  1.00  0.00    -0.275 N 
HETATM   31  C13 UNL     1      -0.335   2.511   1.870  1.00  0.00     0.263 A 
ATOM     32  H5  UNL     1      -0.877   4.510   1.999  1.00  0.00     0.173 HD
HETATM   33  O9  UNL     1      -1.338   2.194   2.586  1.00  0.00    -0.267 OA
ENDBRANCH   1  24
TORSDOF 11
