REMARK  12 active torsions:
REMARK  status: ('A' for Active; 'I' for Inactive)
REMARK    1  A    between atoms: O1_2  and  C2_3 
REMARK    2  A    between atoms: C2_3  and  C3_5 
REMARK    3  A    between atoms: C3_5  and  C4_6 
REMARK    4  A    between atoms: C4_6  and  O4_8 
REMARK    5  A    between atoms: O4_8  and  C5_9 
REMARK    6  A    between atoms: C7_16  and  N1_17 
REMARK    7  A    between atoms: N1_17  and  C8_19 
REMARK    8  A    between atoms: C8_19  and  C9_20 
REMARK    9  A    between atoms: C8_19  and  C10_25 
REMARK   10  A    between atoms: C9_20  and  N2_21 
REMARK   11  A    between atoms: C10_25  and  N4_29 
REMARK   12  A    between atoms: N4_29  and  C11_31 
ROOT
HETATM    1  N1  UNL     1      -0.753  -0.356   0.333  1.00  0.00    -0.381 N 
ATOM      2  H1  UNL     1      -0.813   0.603   0.675  1.00  0.00     0.156 HD
ENDROOT
BRANCH   1   3
HETATM    3  C7  UNL     1       0.499  -1.086   0.286  1.00  0.00     0.271 C 
HETATM    4  C5  UNL     1       1.566  -0.277   0.941  1.00  0.00     0.206 C 
HETATM    5  C6  UNL     1       1.364  -0.211   2.465  1.00  0.00     0.229 C 
HETATM    6  O5  UNL     1       1.548  -1.441   3.046  1.00  0.00    -0.251 OA
HETATM    7  S1  UNL     1       0.342  -2.447   2.455  1.00  0.00     0.404 S 
HETATM    8  O6  UNL     1       0.760  -3.862   2.813  1.00  0.00    -0.169 OA
HETATM    9  O7  UNL     1      -0.963  -2.139   3.113  1.00  0.00    -0.169 OA
HETATM   10  O8  UNL     1       0.305  -2.339   0.809  1.00  0.00    -0.225 OA
BRANCH   4  11
HETATM   11  O4  UNL     1       2.882  -0.602   0.673  1.00  0.00    -0.309 OA
BRANCH  11  12
HETATM   12  C4  UNL     1       3.853   0.173   0.098  1.00  0.00     0.268 C 
HETATM   13  O3  UNL     1       3.492   1.320  -0.233  1.00  0.00    -0.265 OA
BRANCH  12  14
HETATM   14  C3  UNL     1       5.256  -0.316  -0.119  1.00  0.00     0.222 C 
BRANCH  14  15
HETATM   15  C2  UNL     1       6.076   0.720  -0.803  1.00  0.00     0.267 C 
HETATM   16  O2  UNL     1       5.712   1.217  -1.893  1.00  0.00    -0.265 OA
BRANCH  15  17
HETATM   17  O1  UNL     1       7.261   1.124  -0.198  1.00  0.00    -0.326 OA
HETATM   18  C1  UNL     1       8.081   2.106  -0.795  1.00  0.00     0.213 C 
ENDBRANCH  15  17
ENDBRANCH  14  15
ENDBRANCH  12  14
ENDBRANCH  11  12
ENDBRANCH   4  11
ENDBRANCH   1   3
BRANCH   1  19
HETATM   19  C8  UNL     1      -1.888  -1.070  -0.130  1.00  0.00     0.171 C 
BRANCH  19  20
HETATM   20  C9  UNL     1      -1.797  -1.462  -1.614  1.00  0.00     0.262 C 
BRANCH  20  21
HETATM   21  N2  UNL     1      -2.993  -2.192  -2.006  1.00  0.00    -0.077 N 
ATOM     22  H23 UNL     1      -3.163  -2.999  -1.406  1.00  0.00     0.274 HD
ATOM     23  H22 UNL     1      -3.845  -1.671  -1.799  1.00  0.00     0.274 HD
ATOM     24  H21 UNL     1      -2.933  -2.452  -2.990  1.00  0.00     0.274 HD
ENDBRANCH  20  21
ENDBRANCH  19  20
BRANCH  19  25
HETATM   25  C10 UNL     1      -3.076  -0.229   0.084  1.00  0.00     0.095 C 
HETATM   26  N3  UNL     1      -4.047  -0.649   0.789  1.00  0.00    -0.387 N 
ATOM     27  H32 UNL     1      -3.995  -1.577   1.209  1.00  0.00     0.157 HD
ATOM     28  H31 UNL     1      -4.871  -0.066   0.937  1.00  0.00     0.157 HD
BRANCH  25  29
HETATM   29  N4  UNL     1      -3.148   1.050  -0.495  1.00  0.00    -0.374 N 
ATOM     30  H4  UNL     1      -2.288   1.518  -0.779  1.00  0.00     0.161 HD
BRANCH  29  31
HETATM   31  C11 UNL     1      -4.402   1.709  -0.694  1.00  0.00     0.074 C 
HETATM   32  C12 UNL     1      -5.306   0.925  -1.612  1.00  0.00     0.031 C 
HETATM   33  C13 UNL     1      -5.133   1.879   0.626  1.00  0.00     0.031 C 
ENDBRANCH  29  31
ENDBRANCH  25  29
ENDBRANCH  19  25
ENDBRANCH   1  19
TORSDOF 12
