REMARK  11 active torsions:
REMARK  status: ('A' for Active; 'I' for Inactive)
REMARK    1  A    between atoms: C8_11  and  O3_12 
REMARK    2  A    between atoms: C8_11  and  C9_14 
REMARK    3  A    between atoms: C9_14  and  O4_15 
REMARK    4  A    between atoms: O4_15  and  C10_16 
REMARK    5  A    between atoms: C10_16  and  C11_18 
REMARK    6  A    between atoms: C11_18  and  N2_19 
REMARK    7  A    between atoms: C11_18  and  N3_23 
REMARK       I    between atoms: N3_23  and  C12_25 
REMARK    8  A    between atoms: C12_25  and  C13_27 
REMARK    9  A    between atoms: C13_27  and  N4_28 
REMARK   10  A    between atoms: C13_27  and  C14_32 
REMARK   11  A    between atoms: C14_32  and  C15_33 
ROOT
HETATM    1  C1  UNL     1      -1.986   2.598   0.555  1.00  0.00     0.016 C 
HETATM    2  C2  UNL     1      -2.710   1.886  -0.097  1.00  0.00    -0.058 C 
HETATM    3  C3  UNL     1      -3.602   1.043  -0.880  1.00  0.00     0.274 C 
HETATM    4  C4  UNL     1      -3.689   1.499  -2.263  1.00  0.00     0.118 C 
HETATM    5  N1  UNL     1      -3.756   1.873  -3.343  1.00  0.00    -0.193 NA
HETATM    6  O1  UNL     1      -4.873   1.099  -0.256  1.00  0.00    -0.314 OA
HETATM    7  C5  UNL     1      -4.929   0.045   0.618  1.00  0.00     0.164 C 
HETATM    8  C6  UNL     1      -5.134   0.605   2.011  1.00  0.00     0.078 C 
HETATM    9  C7  UNL     1      -6.110  -0.884   0.338  1.00  0.00     0.078 C 
HETATM   10  O2  UNL     1      -3.776  -0.698   0.512  1.00  0.00    -0.313 OA
HETATM   11  C8  UNL     1      -3.313  -0.413  -0.754  1.00  0.00     0.245 C 
ENDROOT
BRANCH  11  12
HETATM   12  O3  UNL     1      -4.150  -1.090  -1.655  1.00  0.00    -0.360 OA
ATOM     13  H3  UNL     1      -3.966  -2.018  -1.575  1.00  0.00     0.213 HD
ENDBRANCH  11  12
BRANCH  11  14
HETATM   14  C9  UNL     1      -1.925  -0.822  -1.030  1.00  0.00     0.253 C 
BRANCH  14  15
HETATM   15  O4  UNL     1      -0.958  -0.231  -0.190  1.00  0.00    -0.313 OA
BRANCH  15  16
HETATM   16  C10 UNL     1       0.384  -0.524  -0.337  1.00  0.00     0.309 C 
HETATM   17  O5  UNL     1       0.708  -1.331  -1.239  1.00  0.00    -0.261 OA
BRANCH  16  18
HETATM   18  C11 UNL     1       1.436   0.089   0.541  1.00  0.00     0.384 C 
BRANCH  18  19
HETATM   19  N2  UNL     1       1.155  -0.405   1.898  1.00  0.00    -0.049 N 
ATOM     20  H23 UNL     1       0.202  -0.221   2.212  1.00  0.00     0.277 HD
ATOM     21  H22 UNL     1       1.109  -1.422   1.962  1.00  0.00     0.277 HD
ATOM     22  H21 UNL     1       1.870   0.012   2.495  1.00  0.00     0.277 HD
ENDBRANCH  18  19
BRANCH  18  23
HETATM   23  N3  UNL     1       2.749  -0.392   0.169  1.00  0.00    -0.324 N 
HETATM   24  C12 UNL     1       3.785   0.524  -0.159  1.00  0.00     0.250 C 
HETATM   25  O6  UNL     1       3.550   1.763  -0.123  1.00  0.00    -0.271 OA
ATOM     26  H3  UNL     1       2.932  -1.395   0.142  1.00  0.00     0.165 HD
BRANCH  24  27
HETATM   27  C13 UNL     1       5.136   0.095  -0.544  1.00  0.00     0.284 C 
BRANCH  27  28
HETATM   28  N4  UNL     1       5.185  -1.345  -0.520  1.00  0.00    -0.066 N 
ATOM     29  H43 UNL     1       4.893  -1.731   0.378  1.00  0.00     0.275 HD
ATOM     30  H42 UNL     1       4.460  -1.771  -1.098  1.00  0.00     0.275 HD
ATOM     31  H41 UNL     1       6.123  -1.643  -0.787  1.00  0.00     0.275 HD
ENDBRANCH  27  28
BRANCH  27  32
HETATM   32  C14 UNL     1       6.159   0.600   0.450  1.00  0.00     0.155 C 
BRANCH  32  33
HETATM   33  C15 UNL     1       7.505   0.159   0.046  1.00  0.00     0.175 C 
HETATM   34  O7  UNL     1       8.473   0.512   0.794  1.00  0.00    -0.648 OA
HETATM   35  O8  UNL     1       7.799  -0.595  -1.060  1.00  0.00    -0.648 OA
ENDBRANCH  32  33
ENDBRANCH  27  32
ENDBRANCH  24  27
ENDBRANCH  18  23
ENDBRANCH  16  18
ENDBRANCH  15  16
ENDBRANCH  14  15
ENDBRANCH  11  14
TORSDOF 11
