REMARK  11 active torsions:
REMARK  status: ('A' for Active; 'I' for Inactive)
REMARK    1  A    between atoms: N1_2  and  C2_4 
REMARK    2  A    between atoms: C3_7  and  N3_8 
REMARK    3  A    between atoms: C7_20  and  S1_21 
REMARK    4  A    between atoms: N7_25  and  C8_26 
REMARK    5  A    between atoms: C8_26  and  O4_27 
REMARK    6  A    between atoms: O4_27  and  C9_28 
REMARK    7  A    between atoms: C9_28  and  C10_29 
REMARK    8  A    between atoms: C10_29  and  O5_30 
REMARK    9  A    between atoms: O5_30  and  C11_31 
REMARK   10  A    between atoms: C11_31  and  C12_32 
REMARK   11  A    between atoms: C12_32  and  O6_33 
ROOT
HETATM    1  C2  UNL     1       4.644  -0.511  -0.696  1.00  0.00     0.133 A 
HETATM    2  N2  UNL     1       5.652  -0.577   0.182  1.00  0.00    -0.176 N 
ATOM      3  H2  UNL     1       6.583  -0.832  -0.149  1.00  0.00     0.186 HD
HETATM    4  C3  UNL     1       5.468  -0.312   1.507  1.00  0.00     0.679 A 
HETATM    5  N4  UNL     1       4.251   0.024   1.953  1.00  0.00    -0.176 N 
ATOM      6  H4  UNL     1       4.126   0.220   2.946  1.00  0.00     0.186 HD
HETATM    7  C4  UNL     1       3.183   0.112   1.129  1.00  0.00     0.139 A 
HETATM    8  N5  UNL     1       1.883   0.416   1.277  1.00  0.00    -0.325 N 
ATOM      9  H5  UNL     1       1.447   0.661   2.166  1.00  0.00     0.169 HD
HETATM   10  C5  UNL     1       1.225   0.355   0.096  1.00  0.00     0.141 A 
HETATM   11  C6  UNL     1       2.183  -0.008  -0.834  1.00  0.00     0.097 A 
HETATM   12  N6  UNL     1       1.527  -0.068  -2.010  1.00  0.00    -0.326 N 
ATOM     13  H6  UNL     1       1.955  -0.312  -2.903  1.00  0.00     0.168 HD
HETATM   14  C7  UNL     1       0.228   0.239  -1.839  1.00  0.00     0.231 A 
HETATM   15  N7  UNL     1       0.040   0.503  -0.525  1.00  0.00    -0.283 N 
HETATM   16  C13 UNL     1       3.404  -0.164  -0.211  1.00  0.00     0.083 A 
ENDROOT
BRANCH  15  17
HETATM   17  C8  UNL     1      -1.169   0.879   0.165  1.00  0.00     0.302 C 
BRANCH  17  18
HETATM   18  O4  UNL     1      -1.892  -0.170   0.638  1.00  0.00    -0.369 OA
BRANCH  18  19
HETATM   19  C9  UNL     1      -3.054   0.165   1.315  1.00  0.00     0.196 C 
BRANCH  19  20
HETATM   20  C10 UNL     1      -4.050   0.929   0.501  1.00  0.00     0.193 C 
BRANCH  20  21
HETATM   21  O5  UNL     1      -5.200   1.260   1.171  1.00  0.00    -0.387 OA
BRANCH  21  22
HETATM   22  C11 UNL     1      -5.928   0.188   1.650  1.00  0.00     0.193 C 
BRANCH  22  23
HETATM   23  C12 UNL     1      -6.365  -0.748   0.540  1.00  0.00     0.190 C 
BRANCH  23  24
HETATM   24  O6  UNL     1      -7.167  -0.093  -0.393  1.00  0.00    -0.399 OA
ATOM     25  H6  UNL     1      -7.441  -0.679  -1.088  1.00  0.00     0.209 HD
ENDBRANCH  23  24
ENDBRANCH  22  23
ENDBRANCH  21  22
ENDBRANCH  20  21
ENDBRANCH  19  20
ENDBRANCH  18  19
ENDBRANCH  17  18
ENDBRANCH  15  17
BRANCH  14  26
HETATM   26  S1  UNL     1      -1.004   0.295  -3.057  1.00  0.00     0.172 S 
HETATM   27  O1  UNL     1      -0.601  -0.634  -4.197  1.00  0.00    -0.589 OA
HETATM   28  O2  UNL     1      -2.326  -0.196  -2.575  1.00  0.00    -0.589 OA
HETATM   29  O3  UNL     1      -1.103   1.828  -3.734  1.00  0.00    -0.589 OA
ENDBRANCH  14  26
BRANCH   1  30
HETATM   30  N1  UNL     1       4.877  -0.772  -1.929  1.00  0.00    -0.379 N 
HETATM   31  C1  UNL     1       6.208  -1.130  -2.365  1.00  0.00     0.147 C 
ATOM     32  H1  UNL     1       4.117  -0.727  -2.608  1.00  0.00     0.160 HD
ENDBRANCH   1  30
BRANCH   4  33
HETATM   33  N3  UNL     1       6.503  -0.402   2.283  1.00  0.00    -0.234 N 
ATOM     34  H32 UNL     1       7.430  -0.658   1.943  1.00  0.00     0.174 HD
ATOM     35  H31 UNL     1       6.365  -0.204   3.274  1.00  0.00     0.174 HD
ENDBRANCH   4  33
TORSDOF 11
