REMARK  8 active torsions:
REMARK  status: ('A' for Active; 'I' for Inactive)
REMARK    1  A    between atoms: C2_2  and  O1_3 
REMARK    2  A    between atoms: O1_3  and  C3_4 
REMARK    3  A    between atoms: C3_4  and  N1_5 
REMARK    4  A    between atoms: C3_4  and  C9_19 
REMARK       I    between atoms: N1_5  and  C4_7 
REMARK    5  A    between atoms: C4_7  and  C5_9 
REMARK    6  A    between atoms: C11_21  and  C12_22 
REMARK    7  A    between atoms: C12_22  and  O4_24 
REMARK    8  A    between atoms: C16_32  and  O7_33 
ROOT
HETATM    1  C3  UNL     1       0.213  -1.423  -0.570  1.00  0.00     0.260 C 
ENDROOT
BRANCH   1   2
HETATM    2  O1  UNL     1      -0.174  -2.725  -0.623  1.00  0.00    -0.363 OA
BRANCH   2   3
HETATM    3  C2  UNL     1      -0.193  -3.161  -1.950  1.00  0.00     0.166 C 
HETATM    4  C1  UNL     1      -0.620  -4.610  -2.056  1.00  0.00     0.033 C 
ENDBRANCH   2   3
ENDBRANCH   1   2
BRANCH   1   5
HETATM    5  N1  UNL     1      -0.868  -0.610   0.020  1.00  0.00    -0.329 N 
HETATM    6  C4  UNL     1      -1.499   0.455  -0.635  1.00  0.00     0.252 C 
HETATM    7  O2  UNL     1      -1.147   0.763  -1.793  1.00  0.00    -0.271 OA
ATOM      8  H1  UNL     1      -1.175  -0.838   0.965  1.00  0.00     0.165 HD
BRANCH   6   9
HETATM    9  C5  UNL     1      -2.574   1.222   0.020  1.00  0.00     0.302 C 
HETATM   10  C6  UNL     1      -3.642   0.248   0.465  1.00  0.00     0.275 C 
HETATM   11  N2  UNL     1      -4.745   0.901   1.095  1.00  0.00    -0.071 N 
HETATM   12  C7  UNL     1      -4.675   2.344   1.021  1.00  0.00     0.260 C 
ATOM     13  H22 UNL     1      -5.630   0.562   0.718  1.00  0.00     0.277 HD
ATOM     14  H21 UNL     1      -4.844   0.592   2.062  1.00  0.00     0.277 HD
HETATM   15  C8  UNL     1      -4.393   2.728  -0.416  1.00  0.00     0.260 C 
HETATM   16  N3  UNL     1      -3.096   2.275  -0.811  1.00  0.00    -0.059 N 
ATOM     17  H32 UNL     1      -2.441   3.055  -0.858  1.00  0.00     0.278 HD
ATOM     18  H31 UNL     1      -3.096   1.994  -1.791  1.00  0.00     0.278 HD
ENDBRANCH   6   9
ENDBRANCH   1   5
BRANCH   1  19
HETATM   19  C9  UNL     1       1.411  -1.097   0.214  1.00  0.00     0.030 C 
HETATM   20  C10 UNL     1       2.340  -0.216  -0.393  1.00  0.00     0.038 C 
HETATM   21  C11 UNL     1       3.257   0.602   0.224  1.00  0.00     0.108 C 
HETATM   22  C14 UNL     1       3.428   0.768   1.588  1.00  0.00     0.264 C 
HETATM   23  O5  UNL     1       4.306   1.567   1.930  1.00  0.00    -0.267 OA
HETATM   24  N4  UNL     1       2.765   0.175   2.623  1.00  0.00    -0.287 N 
HETATM   25  C15 UNL     1       1.975  -0.923   2.605  1.00  0.00     0.282 C 
ATOM     26  H4  UNL     1       2.881   0.620   3.533  1.00  0.00     0.172 HD
HETATM   27  O6  UNL     1       1.568  -1.390   3.694  1.00  0.00    -0.265 OA
HETATM   28  C16 UNL     1       1.527  -1.647   1.462  1.00  0.00     0.145 C 
BRANCH  21  29
HETATM   29  C12 UNL     1       4.126   1.363  -0.660  1.00  0.00     0.298 C 
HETATM   30  O3  UNL     1       4.031   1.266  -1.909  1.00  0.00    -0.259 OA
BRANCH  29  31
HETATM   31  O4  UNL     1       5.093   2.225  -0.164  1.00  0.00    -0.322 OA
HETATM   32  C13 UNL     1       5.950   2.976  -1.009  1.00  0.00     0.213 C 
ENDBRANCH  29  31
ENDBRANCH  21  29
BRANCH  28  33
HETATM   33  O7  UNL     1       1.211  -2.938   1.646  1.00  0.00    -0.355 OA
ATOM     34  H7  UNL     1       1.292  -3.320   2.512  1.00  0.00     0.218 HD
ENDBRANCH  28  33
ENDBRANCH   1  19
TORSDOF 8
