REMARK  4 active torsions:
REMARK  status: ('A' for Active; 'I' for Inactive)
REMARK    1  A    between atoms: C4_7  and  C5_8 
REMARK    2  A    between atoms: C5_8  and  C6_9 
REMARK    3  A    between atoms: C6_9  and  N2_10 
REMARK    4  A    between atoms: N2_10  and  N3_11 
ROOT
HETATM    1  C1  UNL     1      -2.901   1.074   0.936  1.00  0.00     0.051 C 
HETATM    2  C2  UNL     1      -1.828   0.490   0.373  1.00  0.00     0.068 A 
HETATM    3  N1  UNL     1      -1.740  -0.180  -0.774  1.00  0.00    -0.317 N 
ATOM      4  H1  UNL     1      -2.562  -0.311  -1.364  1.00  0.00     0.169 HD
HETATM    5  C3  UNL     1      -0.588  -0.664  -1.127  1.00  0.00     0.263 A 
HETATM    6  O1  UNL     1      -0.399  -1.329  -2.219  1.00  0.00    -0.267 OA
HETATM    7  C4  UNL     1       0.482  -0.459  -0.296  1.00  0.00     0.077 A 
HETATM    8  S1  UNL     1      -0.236   0.439   0.977  1.00  0.00    -0.068 SA
ENDROOT
BRANCH   7   9
HETATM    9  C5  UNL     1       1.744  -0.849  -0.435  1.00  0.00     0.058 C 
BRANCH   9  10
HETATM   10  C6  UNL     1       2.682  -0.488   0.612  1.00  0.00     0.210 C 
BRANCH  10  11
HETATM   11  N2  UNL     1       3.418   0.512   0.425  1.00  0.00    -0.346 NA
BRANCH  11  12
HETATM   12  N3  UNL     1       3.913   1.632   0.357  1.00  0.00    -0.281 N 
ATOM     13  H32 UNL     1       3.085   2.062   0.768  1.00  0.00     0.191 HD
ATOM     14  H31 UNL     1       4.511   2.444   0.205  1.00  0.00     0.191 HD
ENDBRANCH  11  12
ENDBRANCH  10  11
ENDBRANCH   9  10
ENDBRANCH   7   9
TORSDOF 4
