REMARK  3 active torsions:
REMARK  status: ('A' for Active; 'I' for Inactive)
REMARK    1  A    between atoms: O1_2  and  C2_3 
REMARK    2  A    between atoms: C2_3  and  C3_5 
REMARK    3  A    between atoms: C4_7  and  N1_8 
ROOT
HETATM    1  C3  UNL     1       0.725   1.461   0.162  1.00  0.00     0.073 C 
HETATM    2  S2  UNL     1       0.804   3.229   0.472  1.00  0.00    -0.047 SA
HETATM    3  C4  UNL     1       1.828   0.758  -0.033  1.00  0.00     0.129 C 
ENDROOT
BRANCH   1   4
HETATM    4  C2  UNL     1      -0.577   0.820   0.130  1.00  0.00     0.154 C 
HETATM    5  S1  UNL     1      -1.944   1.684   0.370  1.00  0.00    -0.051 SA
BRANCH   4   6
HETATM    6  O1  UNL     1      -0.740  -0.537  -0.102  1.00  0.00    -0.344 OA
HETATM    7  C1  UNL     1      -1.847  -1.236   0.452  1.00  0.00     0.211 C 
ENDBRANCH   4   6
ENDBRANCH   1   4
BRANCH   3   8
HETATM    8  N1  UNL     1       1.779  -0.641  -0.279  1.00  0.00    -0.317 N 
HETATM    9  N2  UNL     1       2.139  -1.512   0.562  1.00  0.00    -0.345 N 
ATOM     10  H22 UNL     1       2.481  -1.176   1.462  1.00  0.00     0.176 HD
ATOM     11  H21 UNL     1       2.104  -2.516   0.385  1.00  0.00     0.176 HD
ATOM     12  H1  UNL     1       1.434  -0.959  -1.185  1.00  0.00     0.185 HD
ENDBRANCH   3   8
TORSDOF 3
