REMARK  1 active torsions:
REMARK  status: ('A' for Active; 'I' for Inactive)
REMARK    1  A    between atoms: C4_4  and  C5_5 
ROOT
HETATM    1  C5  UNL     1       0.828  -0.023  -0.781  1.00  0.00     0.178 C 
HETATM    2  N1  UNL     1       2.115   0.527  -0.522  1.00  0.00    -0.337 N 
ATOM      3  H1  UNL     1       2.309   1.524  -0.617  1.00  0.00     0.164 HD
HETATM    4  C6  UNL     1       3.087  -0.382  -0.132  1.00  0.00     0.299 C 
HETATM    5  O1  UNL     1       4.341  -0.200  -0.334  1.00  0.00    -0.263 OA
HETATM    6  C7  UNL     1       2.595  -1.567   0.528  1.00  0.00     0.278 C 
HETATM    7  O2  UNL     1       3.207  -2.384   1.291  1.00  0.00    -0.275 OA
HETATM    8  S1  UNL     1       0.872  -1.667   0.040  1.00  0.00    -0.053 SA
ENDROOT
BRANCH   1   9
HETATM    9  C4  UNL     1      -0.187   0.769  -0.037  1.00  0.00     0.011 C 
HETATM   10  C2  UNL     1      -1.430   0.418   0.123  1.00  0.00    -0.089 C 
HETATM   11  C1  UNL     1      -2.369   1.270   0.879  1.00  0.00     0.042 C 
HETATM   12  C3  UNL     1      -1.926  -0.851  -0.456  1.00  0.00     0.042 C 
ENDBRANCH   1   9
TORSDOF 1
