REMARK  3 active torsions:
REMARK  status: ('A' for Active; 'I' for Inactive)
REMARK       I    between atoms: C2_2  and  N1_4 
REMARK       I    between atoms: N1_4  and  C3_5 
REMARK    1  A    between atoms: N1_4  and  C8_13 
REMARK    2  A    between atoms: C3_5  and  C4_7 
REMARK    3  A    between atoms: C6_9  and  C7_10 
ROOT
HETATM    1  C1  UNL     1      -0.268  -2.645   0.540  1.00  0.00     0.117 C 
HETATM    2  C2  UNL     1      -1.100  -1.448   0.464  1.00  0.00     0.223 C 
HETATM    3  O1  UNL     1      -2.288  -1.600   0.937  1.00  0.00    -0.273 OA
HETATM    4  N1  UNL     1      -0.750  -0.148  -0.061  1.00  0.00    -0.280 N 
HETATM    5  C3  UNL     1       0.502   0.161  -0.592  1.00  0.00     0.232 C 
HETATM    6  O2  UNL     1       0.720   1.415  -0.828  1.00  0.00    -0.272 OA
ENDROOT
BRANCH   4   7
HETATM    7  C8  UNL     1      -1.851   0.808   0.107  1.00  0.00     0.032 C 
HETATM    8  C9  UNL     1      -1.567   2.167  -0.404  1.00  0.00     0.038 C 
HETATM    9  C10 UNL     1      -3.107   0.268  -0.588  1.00  0.00     0.038 C 
HETATM   10  C11 UNL     1      -2.160   0.860   1.595  1.00  0.00     0.038 C 
ENDBRANCH   4   7
BRANCH   5  11
HETATM   11  C4  UNL     1       1.615  -0.721  -0.930  1.00  0.00     0.093 A 
HETATM   12  C5  UNL     1       2.697  -0.163  -1.873  1.00  0.00     0.031 A 
HETATM   13  C6  UNL     1       3.012  -0.547  -0.450  1.00  0.00     0.100 A 
BRANCH  13  14
HETATM   14  C7  UNL     1       3.461   0.422   0.536  1.00  0.00     0.177 C 
HETATM   15  O3  UNL     1       2.987   1.550   0.664  1.00  0.00    -0.648 OA
HETATM   16  O4  UNL     1       4.499   0.085   1.416  1.00  0.00    -0.648 OA
ENDBRANCH  13  14
ENDBRANCH   5  11
TORSDOF 3
