REMARK  3 active torsions:
REMARK  status: ('A' for Active; 'I' for Inactive)
REMARK    1  A    between atoms: C2_2  and  S1_3 
REMARK    2  A    between atoms: S1_3  and  N1_6 
REMARK    3  A    between atoms: C5_10  and  C6_11 
ROOT
HETATM    1  N1  UNL     1      -0.467   0.216  -0.489  1.00  0.00    -0.182 NA
HETATM    2  C3  UNL     1      -0.782  -0.717  -1.562  1.00  0.00     0.182 C 
HETATM    3  S2  UNL     1      -1.268  -2.177  -0.543  1.00  0.00    -0.151 SA
HETATM    4  C4  UNL     1      -1.692  -1.216   0.966  1.00  0.00     0.107 C 
HETATM    5  C5  UNL     1      -1.567   0.180   0.395  1.00  0.00     0.185 C 
ENDROOT
BRANCH   1   6
HETATM    6  S1  UNL     1       1.059  -0.209   0.107  1.00  0.00     0.234 S 
HETATM    7  O1  UNL     1       1.018  -1.679   0.520  1.00  0.00    -0.207 OA
HETATM    8  O2  UNL     1       1.406   0.523   1.382  1.00  0.00    -0.207 OA
BRANCH   6   9
HETATM    9  C2  UNL     1       2.328  -0.087  -1.069  1.00  0.00     0.116 C 
HETATM   10  C1  UNL     1       3.474   0.466  -0.744  1.00  0.00     0.024 C 
ENDBRANCH   6   9
ENDBRANCH   1   6
BRANCH   5  11
HETATM   11  C6  UNL     1      -1.678   1.225   1.389  1.00  0.00     0.193 C 
HETATM   12  O3  UNL     1      -2.601   1.188   2.243  1.00  0.00    -0.647 OA
HETATM   13  O4  UNL     1      -0.815   2.301   1.471  1.00  0.00    -0.647 OA
ENDBRANCH   5  11
TORSDOF 3
