REMARK  2 active torsions:
REMARK  status: ('A' for Active; 'I' for Inactive)
REMARK    1  A    between atoms: C8_11  and  C9_12 
REMARK       I    between atoms: N2_14  and  C11_16 
REMARK    2  A    between atoms: C11_16  and  C12_18 
ROOT
HETATM    1  C1  UNL     1       1.427  -2.377   0.795  1.00  0.00     0.044 C 
HETATM    2  C2  UNL     1       1.758  -0.986   0.378  1.00  0.00    -0.067 C 
HETATM    3  C3  UNL     1       3.000  -0.509   0.444  1.00  0.00     0.007 C 
HETATM    4  C4  UNL     1       3.385   0.873   0.041  1.00  0.00     0.044 C 
HETATM    5  C5  UNL     1       4.703   1.182   0.728  1.00  0.00     0.042 C 
HETATM    6  C6  UNL     1       3.570   1.027  -1.435  1.00  0.00     0.042 C 
HETATM    7  N1  UNL     1       2.330   1.756   0.512  1.00  0.00    -0.348 N 
ATOM      8  H1  UNL     1       2.538   2.702   0.831  1.00  0.00     0.163 HD
HETATM    9  C7  UNL     1       1.000   1.256   0.513  1.00  0.00     0.232 C 
HETATM   10  O1  UNL     1       0.116   1.928   1.073  1.00  0.00    -0.272 OA
HETATM   11  C8  UNL     1       0.718  -0.030  -0.142  1.00  0.00     0.151 C 
ENDROOT
BRANCH  11  12
HETATM   12  C9  UNL     1      -0.649  -0.513  -0.022  1.00  0.00     0.003 C 
HETATM   13  C10 UNL     1      -1.068  -1.746  -0.714  1.00  0.00     0.064 C 
HETATM   14  N2  UNL     1      -1.510   0.122   0.687  1.00  0.00    -0.333 N 
HETATM   15  C11 UNL     1      -2.863  -0.291   0.850  1.00  0.00     0.225 C 
ATOM     16  H2  UNL     1      -1.207   0.973   1.162  1.00  0.00     0.168 HD
HETATM   17  O2  UNL     1      -3.082  -1.116   1.774  1.00  0.00    -0.273 OA
BRANCH  15  18
HETATM   18  C12 UNL     1      -3.971   0.180   0.022  1.00  0.00     0.070 C 
HETATM   19  C13 UNL     1      -5.252  -0.475   0.489  1.00  0.00     0.019 C 
HETATM   20  C14 UNL     1      -4.163   1.679   0.142  1.00  0.00     0.019 C 
ENDBRANCH  15  18
ENDBRANCH  11  12
TORSDOF 2
