REMARK  5 active torsions:
REMARK  status: ('A' for Active; 'I' for Inactive)
REMARK    1  A    between atoms: N1_2  and  C2_4 
REMARK    2  A    between atoms: C2_4  and  N2_6 
REMARK    3  A    between atoms: N2_6  and  C4_8 
REMARK    4  A    between atoms: C7_12  and  C8_13 
REMARK    5  A    between atoms: C8_13  and  S3_14 
ROOT
HETATM    1  C4  UNL     1       0.016  -0.023  -0.883  1.00  0.00     0.101 C 
HETATM    2  C5  UNL     1      -0.340   0.083  -2.355  1.00  0.00     0.099 C 
HETATM    3  S2  UNL     1      -0.080   1.883  -2.622  1.00  0.00    -0.167 SA
HETATM    4  C6  UNL     1       1.013   2.191  -1.210  1.00  0.00     0.081 C 
HETATM    5  C7  UNL     1       1.118   0.845  -0.535  1.00  0.00     0.032 C 
ENDROOT
BRANCH   1   6
HETATM    6  N2  UNL     1      -1.175  -0.024  -0.030  1.00  0.00    -0.357 N 
HETATM    7  C3  UNL     1      -1.523   1.074   0.798  1.00  0.00     0.152 C 
BRANCH   6   8
HETATM    8  C2  UNL     1      -1.972  -1.177  -0.107  1.00  0.00     0.169 C 
HETATM    9  S1  UNL     1      -1.410  -2.425  -1.116  1.00  0.00    -0.041 SA
BRANCH   8  10
HETATM   10  N1  UNL     1      -3.163  -1.395   0.577  1.00  0.00    -0.371 N 
HETATM   11  C1  UNL     1      -3.890  -0.606   1.486  1.00  0.00     0.148 C 
ATOM     12  H1  UNL     1      -3.591  -2.300   0.382  1.00  0.00     0.161 HD
ENDBRANCH   8  10
ENDBRANCH   6   8
ENDBRANCH   1   6
BRANCH   5  13
HETATM   13  C8  UNL     1       2.502   0.315  -0.766  1.00  0.00     0.147 C 
BRANCH  13  14
HETATM   14  S3  UNL     1       2.959  -1.119   0.101  1.00  0.00     0.141 S 
HETATM   15  C9  UNL     1       2.826  -0.833   1.868  1.00  0.00     0.161 C 
HETATM   16  O1  UNL     1       4.466  -1.333  -0.145  1.00  0.00    -0.228 OA
HETATM   17  O2  UNL     1       2.245  -2.364  -0.216  1.00  0.00    -0.228 OA
ENDBRANCH  13  14
ENDBRANCH   5  13
TORSDOF 5
