REMARK  6 active torsions:
REMARK  status: ('A' for Active; 'I' for Inactive)
REMARK    1  A    between atoms: C2_2  and  N1_4 
REMARK    2  A    between atoms: N1_4  and  N2_6 
REMARK    3  A    between atoms: C7_13  and  C8_14 
REMARK    4  A    between atoms: C7_13  and  N5_20 
REMARK    5  A    between atoms: C8_14  and  N3_16 
REMARK    6  A    between atoms: N3_16  and  N4_17 
ROOT
HETATM    1  N2  UNL     1       1.324   0.927  -0.547  1.00  0.00    -0.305 N 
ATOM      2  H2  UNL     1       1.011   1.004  -1.515  1.00  0.00     0.186 HD
HETATM    3  C3  UNL     1       0.498   0.480   0.330  1.00  0.00     0.057 C 
HETATM    4  C4  UNL     1       0.853   0.327   1.770  1.00  0.00     0.065 C 
HETATM    5  C5  UNL     1      -0.352   0.978   2.428  1.00  0.00     0.088 C 
HETATM    6  C6  UNL     1      -1.454   0.513   1.543  1.00  0.00     0.178 C 
HETATM    7  O1  UNL     1      -2.619   0.529   1.849  1.00  0.00    -0.294 OA
HETATM    8  C7  UNL     1      -0.889   0.029   0.226  1.00  0.00     0.297 C 
ENDROOT
BRANCH   8   9
HETATM    9  C8  UNL     1      -0.935  -1.451   0.228  1.00  0.00     0.133 C 
HETATM   10  C9  UNL     1      -0.235  -2.246  -0.812  1.00  0.00     0.086 C 
BRANCH   9  11
HETATM   11  N3  UNL     1      -1.559  -2.103   1.102  1.00  0.00    -0.339 NA
BRANCH  11  12
HETATM   12  N4  UNL     1      -1.903  -2.723   2.131  1.00  0.00    -0.280 N 
ATOM     13  H42 UNL     1      -0.995  -2.593   2.578  1.00  0.00     0.191 HD
ATOM     14  H41 UNL     1      -2.410  -3.252   2.841  1.00  0.00     0.191 HD
ENDBRANCH  11  12
ENDBRANCH   9  11
ENDBRANCH   8   9
BRANCH   8  15
HETATM   15  N5  UNL     1      -1.613   0.558  -0.884  1.00  0.00     0.035 N 
HETATM   16  C10 UNL     1      -2.196   1.862  -0.605  1.00  0.00     0.297 C 
HETATM   17  C11 UNL     1      -2.727  -0.329  -1.176  1.00  0.00     0.297 C 
HETATM   18 CL1  UNL     1      -0.678   0.718  -2.332  1.00  0.00     0.119 Cl
ENDBRANCH   8  15
BRANCH   1  19
HETATM   19  N1  UNL     1       2.632   1.313  -0.238  1.00  0.00    -0.294 N 
ATOM     20  H1  UNL     1       2.767   2.183   0.277  1.00  0.00     0.187 HD
BRANCH  19  21
HETATM   21  C2  UNL     1       3.772   0.573  -0.595  1.00  0.00     0.088 C 
HETATM   22  C1  UNL     1       3.630  -0.692  -1.343  1.00  0.00     0.083 C 
HETATM   23  S1  UNL     1       5.249   1.101  -0.191  1.00  0.00    -0.064 SA
ENDBRANCH  19  21
ENDBRANCH   1  19
TORSDOF 6
