REMARK  4 active torsions:
REMARK  status: ('A' for Active; 'I' for Inactive)
REMARK       I    between atoms: C2_2  and  N1_4 
REMARK    1  A    between atoms: N1_4  and  C3_6 
REMARK    2  A    between atoms: C8_11  and  C9_12 
REMARK       I    between atoms: C9_12  and  N2_14 
REMARK    3  A    between atoms: N2_14  and  C10_15 
REMARK    4  A    between atoms: N2_14  and  C12_18 
ROOT
HETATM    1  C10 UNL     1      -2.225  -1.638   0.762  1.00  0.00     0.191 C 
HETATM    2  C11 UNL     1      -1.432  -2.803   0.481  1.00  0.00     0.105 C 
HETATM    3  N3  UNL     1      -0.790  -3.721   0.243  1.00  0.00    -0.191 NA
ENDROOT
BRANCH   1   4
HETATM    4  N2  UNL     1      -2.268  -0.640  -0.269  1.00  0.00    -0.281 N 
HETATM    5  C9  UNL     1      -1.372   0.454  -0.383  1.00  0.00     0.231 C 
HETATM    6  O2  UNL     1      -1.541   1.257  -1.333  1.00  0.00    -0.273 OA
BRANCH   5   7
HETATM    7  C8  UNL     1      -0.278   0.685   0.535  1.00  0.00     0.085 C 
HETATM    8  C7  UNL     1       0.962  -0.128   0.328  1.00  0.00     0.022 C 
HETATM    9  C3  UNL     1       1.913   0.952  -0.240  1.00  0.00     0.093 C 
HETATM   10  C6  UNL     1       1.599  -0.311   1.684  1.00  0.00     0.008 C 
HETATM   11  C4  UNL     1       1.668   1.961   0.830  1.00  0.00     0.009 C 
HETATM   12  C5  UNL     1       1.802   1.151   2.089  1.00  0.00     0.007 C 
HETATM   13  C15 UNL     1       0.158   2.158   0.600  1.00  0.00     0.021 C 
BRANCH   9  14
HETATM   14  N1  UNL     1       3.245   0.500  -0.405  1.00  0.00    -0.356 N 
HETATM   15  C2  UNL     1       3.999   0.471  -1.582  1.00  0.00     0.213 C 
HETATM   16  C1  UNL     1       5.390  -0.025  -1.637  1.00  0.00     0.117 C 
HETATM   17  O1  UNL     1       3.475   0.884  -2.644  1.00  0.00    -0.274 OA
ATOM     18  H1  UNL     1       3.710   0.155   0.435  1.00  0.00     0.162 HD
ENDBRANCH   9  14
ENDBRANCH   5   7
BRANCH   4  19
HETATM   19  C12 UNL     1      -3.344  -0.793  -1.266  1.00  0.00     0.177 C 
HETATM   20  C13 UNL     1      -4.220  -1.984  -0.994  1.00  0.00     0.076 C 
HETATM   21  C14 UNL     1      -4.134   0.496  -1.247  1.00  0.00     0.076 C 
HETATM   22  F1  UNL     1      -2.812  -0.948  -2.528  1.00  0.00    -0.220 F 
ENDBRANCH   4  19
ENDBRANCH   1   4
TORSDOF 4
