REMARK  3 active torsions:
REMARK  status: ('A' for Active; 'I' for Inactive)
REMARK    1  A    between atoms: C4_4  and  C5_5 
REMARK    2  A    between atoms: C5_5  and  C6_6 
REMARK    3  A    between atoms: C5_5  and  S1_8 
ROOT
HETATM    1  C5  UNL     1       1.151   0.619  -0.623  1.00  0.00     0.106 C 
ENDROOT
BRANCH   1   2
HETATM    2  C4  UNL     1      -0.237   0.173  -0.468  1.00  0.00     0.010 C 
HETATM    3  C3  UNL     1      -0.532  -1.263  -0.306  1.00  0.00     0.037 C 
HETATM    4  C2  UNL     1      -1.948  -1.550   0.112  1.00  0.00     0.118 C 
HETATM    5  C1  UNL     1      -2.526  -2.587  -0.828  1.00  0.00     0.039 C 
HETATM    6  O3  UNL     1      -2.785  -0.466   0.081  1.00  0.00    -0.376 OA
HETATM    7  C11 UNL     1      -2.353   0.714   0.571  1.00  0.00     0.054 C 
HETATM    8  C10 UNL     1      -0.886   0.935   0.675  1.00  0.00     0.043 C 
HETATM    9  C12 UNL     1      -2.930   0.879   1.983  1.00  0.00     0.045 C 
HETATM   10  C13 UNL     1      -3.021   1.827  -0.251  1.00  0.00     0.045 C 
ENDBRANCH   1   2
BRANCH   1  11
HETATM   11  C6  UNL     1       1.196   2.123  -0.775  1.00  0.00     0.246 C 
HETATM   12  O1  UNL     1       1.196   2.688  -1.839  1.00  0.00    -0.306 OA
ENDBRANCH   1  11
BRANCH   1  13
HETATM   13  S1  UNL     1       2.298   0.210   0.624  1.00  0.00    -0.163 SA
HETATM   14  C7  UNL     1       3.900   0.910   0.161  1.00  0.00     0.170 C 
HETATM   15  C8  UNL     1       4.820  -0.140   0.593  1.00  0.00     0.228 C 
HETATM   16  O2  UNL     1       6.088   0.043   0.581  1.00  0.00    -0.273 OA
HETATM   17  N1  UNL     1       4.225  -1.318   1.006  1.00  0.00    -0.335 N 
HETATM   18  C9  UNL     1       2.867  -1.497   0.525  1.00  0.00     0.236 C 
ATOM     19  H1  UNL     1       4.699  -2.001   1.597  1.00  0.00     0.164 HD
HETATM   20 CL1  UNL     1       2.822  -1.977  -1.170  1.00  0.00    -0.091 Cl
ENDBRANCH   1  13
TORSDOF 3
