REMARK  5 active torsions:
REMARK  status: ('A' for Active; 'I' for Inactive)
REMARK    1  A    between atoms: C2_2  and  C3_3 
REMARK    2  A    between atoms: C3_3  and  C4_4 
REMARK    3  A    between atoms: C4_4  and  C5_5 
REMARK    4  A    between atoms: C7_7  and  C8_8 
REMARK    5  A    between atoms: C8_8  and  C10_10 
ROOT
HETATM    1  C5  UNL     1      -1.193  -1.447   0.399  1.00  0.00     0.142 C 
HETATM    2  C6  UNL     1       0.166  -1.078   0.929  1.00  0.00     0.071 C 
HETATM    3  C7  UNL     1       0.992  -0.681  -0.305  1.00  0.00    -0.026 C 
HETATM    4  C12 UNL     1       0.970  -1.573  -1.261  1.00  0.00     0.182 C 
HETATM    5  F1  UNL     1       1.644  -1.346  -2.387  1.00  0.00    -0.196 F 
HETATM    6  S1  UNL     1       0.034  -3.100  -1.035  1.00  0.00     0.060 SA
HETATM    7  O1  UNL     1      -1.156  -2.826   0.163  1.00  0.00    -0.308 OA
ENDROOT
BRANCH   1   8
HETATM    8  C4  UNL     1      -2.329  -1.040   1.265  1.00  0.00     0.033 C 
BRANCH   8   9
HETATM    9  C3  UNL     1      -2.373   0.450   1.448  1.00  0.00     0.002 C 
BRANCH   9  10
HETATM   10  C2  UNL     1      -2.526   1.162   0.116  1.00  0.00    -0.004 C 
HETATM   11  C1  UNL     1      -3.805   0.721  -0.552  1.00  0.00     0.005 C 
ENDBRANCH   9  10
ENDBRANCH   8   9
ENDBRANCH   1   8
BRANCH   3  12
HETATM   12  C8  UNL     1       1.656   0.576  -0.179  1.00  0.00     0.014 C 
HETATM   13  C9  UNL     1       2.439   0.499   1.159  1.00  0.00     0.015 C 
BRANCH  12  14
HETATM   14  C10 UNL     1       2.572   1.169  -1.135  1.00  0.00     0.004 C 
HETATM   15  C11 UNL     1       3.846   0.455  -1.449  1.00  0.00     0.006 C 
ENDBRANCH  12  14
ENDBRANCH   3  12
TORSDOF 5
