REMARK  7 active torsions:
REMARK  status: ('A' for Active; 'I' for Inactive)
REMARK    1  A    between atoms: C2_2  and  C3_3 
REMARK    2  A    between atoms: C3_3  and  C4_4 
REMARK    3  A    between atoms: C4_4  and  C5_5 
REMARK    4  A    between atoms: C5_5  and  C6_6 
REMARK    5  A    between atoms: C6_6  and  C7_7 
REMARK    6  A    between atoms: C7_7  and  C8_8 
REMARK    7  A    between atoms: C8_8  and  C10_10 
ROOT
HETATM    1  C8  UNL     1       1.776   0.663  -0.502  1.00  0.00     0.042 C 
HETATM    2  C9  UNL     1       2.389   1.708  -1.440  1.00  0.00     0.017 C 
ENDROOT
BRANCH   1   3
HETATM    3  C7  UNL     1       0.578   0.021  -1.112  1.00  0.00     0.011 C 
BRANCH   3   4
HETATM    4  C6  UNL     1      -0.519   0.995  -1.433  1.00  0.00     0.001 C 
BRANCH   4   5
HETATM    5  C5  UNL     1      -1.046   1.740  -0.247  1.00  0.00     0.000 C 
BRANCH   5   6
HETATM    6  C4  UNL     1      -1.622   0.819   0.804  1.00  0.00     0.000 C 
BRANCH   6   7
HETATM    7  C3  UNL     1      -2.774  -0.013   0.280  1.00  0.00    -0.000 C 
BRANCH   7   8
HETATM    8  C2  UNL     1      -3.231  -0.877   1.463  1.00  0.00    -0.005 C 
HETATM    9  C1  UNL     1      -4.378  -1.765   1.099  1.00  0.00     0.005 C 
ENDBRANCH   7   8
ENDBRANCH   6   7
ENDBRANCH   5   6
ENDBRANCH   4   5
ENDBRANCH   3   4
ENDBRANCH   1   3
BRANCH   1  10
HETATM   10  C10 UNL     1       2.856  -0.318  -0.225  1.00  0.00     0.103 C 
HETATM   11  C11 UNL     1       2.843  -1.593  -0.480  1.00  0.00     0.190 C 
HETATM   12  F1  UNL     1       1.904  -2.329  -1.031  1.00  0.00    -0.196 F 
HETATM   13  S1  UNL     1       4.401  -2.269   0.068  1.00  0.00     0.012 SA
HETATM   14  C12 UNL     1       4.785  -0.762   1.057  1.00  0.00     0.421 C 
HETATM   15  F2  UNL     1       6.124  -0.461   0.974  1.00  0.00    -0.164 F 
HETATM   16  F3  UNL     1       4.374  -1.030   2.337  1.00  0.00    -0.164 F 
HETATM   17  O1  UNL     1       4.008   0.135   0.361  1.00  0.00    -0.275 OA
ENDBRANCH   1  10
TORSDOF 7
