REMARK  4 active torsions:
REMARK  status: ('A' for Active; 'I' for Inactive)
REMARK    1  A    between atoms: N2_10  and  C8_12 
REMARK    2  A    between atoms: C8_12  and  C9_13 
REMARK    3  A    between atoms: C9_13  and  C10_14 
REMARK    4  A    between atoms: C10_14  and  N3_15 
ROOT
HETATM    1  C1  UNL     1      -3.628   2.803  -0.591  1.00  0.00     0.018 C 
HETATM    2  C2  UNL     1      -3.548   1.727  -0.032  1.00  0.00    -0.074 C 
HETATM    3  C3  UNL     1      -3.479   0.449   0.634  1.00  0.00     0.060 A 
HETATM    4  C4  UNL     1      -4.651  -0.221   0.935  1.00  0.00     0.026 A 
HETATM    5  C5  UNL     1      -4.563  -1.429   1.565  1.00  0.00     0.019 A 
HETATM    6  C6  UNL     1      -3.343  -1.972   1.895  1.00  0.00     0.090 A 
HETATM    7  N1  UNL     1      -2.236  -1.278   1.579  1.00  0.00    -0.351 N 
ATOM      8  H1  UNL     1      -1.335  -1.686   1.827  1.00  0.00     0.166 HD
HETATM    9  C7  UNL     1      -2.232  -0.085   0.960  1.00  0.00     0.119 A 
HETATM   10  N2  UNL     1      -1.213   0.592   0.649  1.00  0.00    -0.375 N 
ATOM     11  H2  UNL     1      -1.402   1.479   0.182  1.00  0.00     0.161 HD
ENDROOT
BRANCH  10  12
HETATM   12  C8  UNL     1       0.156   0.293   0.858  1.00  0.00     0.123 C 
BRANCH  12  13
HETATM   13  C9  UNL     1       1.069   0.839  -0.215  1.00  0.00     0.039 C 
BRANCH  13  14
HETATM   14  C10 UNL     1       2.503   0.438   0.144  1.00  0.00     0.123 C 
BRANCH  14  15
HETATM   15  N3  UNL     1       3.433   0.931  -0.841  1.00  0.00    -0.367 N 
HETATM   16  C11 UNL     1       4.219   0.119  -1.429  1.00  0.00     0.196 C 
HETATM   17  N4  UNL     1       5.168   0.515  -2.414  1.00  0.00    -0.067 NA
HETATM   18  N5  UNL     1       4.186  -1.269  -1.120  1.00  0.00    -0.067 NA
ATOM     19  H3  UNL     1       3.462   1.925  -1.066  1.00  0.00     0.161 HD
ENDBRANCH  14  15
ENDBRANCH  13  14
ENDBRANCH  12  13
ENDBRANCH  10  12
TORSDOF 4
