REMARK  6 active torsions:
REMARK  status: ('A' for Active; 'I' for Inactive)
REMARK    1  A    between atoms: N1_1  and  C1_5 
REMARK    2  A    between atoms: C1_5  and  C2_6 
REMARK    3  A    between atoms: C2_6  and  C3_7 
REMARK    4  A    between atoms: C3_7  and  C4_8 
REMARK    5  A    between atoms: C6_15  and  C7_16 
REMARK    6  A    between atoms: C7_16  and  C8_17 
ROOT
HETATM    1  C4  UNL     1      -1.012  -0.704  -0.148  1.00  0.00     0.059 A 
HETATM    2  N2  UNL     1      -1.141  -2.051  -0.139  1.00  0.00    -0.307 N 
ATOM      3  H2  UNL     1      -2.034  -2.543  -0.157  1.00  0.00     0.170 HD
HETATM    4  C5  UNL     1       0.054  -2.655  -0.104  1.00  0.00     0.325 A 
HETATM    5  O1  UNL     1       0.295  -3.889  -0.087  1.00  0.00    -0.247 OA
HETATM    6  N3  UNL     1       0.984  -1.654  -0.090  1.00  0.00    -0.306 N 
ATOM      7  H3  UNL     1       1.995  -1.783  -0.064  1.00  0.00     0.170 HD
HETATM    8  C6  UNL     1       0.347  -0.472  -0.116  1.00  0.00     0.063 A 
ENDROOT
BRANCH   1   9
HETATM    9  C3  UNL     1      -1.996   0.176  -0.180  1.00  0.00     0.007 C 
BRANCH   9  10
HETATM   10  C2  UNL     1      -3.394  -0.298  -0.210  1.00  0.00     0.056 C 
BRANCH  10  11
HETATM   11  C1  UNL     1      -4.382   0.795   0.100  1.00  0.00     0.233 C 
BRANCH  11  12
HETATM   12  N1  UNL     1      -5.711   0.205   0.038  1.00  0.00    -0.079 N 
ATOM     13  H13 UNL     1      -5.899  -0.264  -0.848  1.00  0.00     0.274 HD
ATOM     14  H12 UNL     1      -5.815  -0.610   0.642  1.00  0.00     0.274 HD
ATOM     15  H11 UNL     1      -6.380   0.945   0.248  1.00  0.00     0.274 HD
ENDBRANCH  11  12
ENDBRANCH  10  11
ENDBRANCH   9  10
ENDBRANCH   1   9
BRANCH   8  16
HETATM   16  C7  UNL     1       0.960   0.696  -0.112  1.00  0.00     0.043 C 
BRANCH  16  17
HETATM   17  C8  UNL     1       2.420   0.810  -0.077  1.00  0.00    -0.034 A 
HETATM   18  C9  UNL     1       3.113   0.830  -1.269  1.00  0.00     0.011 A 
HETATM   19  C10 UNL     1       4.487   0.938  -1.209  1.00  0.00     0.001 A 
HETATM   20  C11 UNL     1       5.187   1.023  -0.022  1.00  0.00     0.000 A 
HETATM   21  C12 UNL     1       4.476   1.001   1.161  1.00  0.00     0.001 A 
HETATM   22  C13 UNL     1       3.105   0.895   1.123  1.00  0.00     0.011 A 
ENDBRANCH  16  17
ENDBRANCH   8  16
TORSDOF 6
