REMARK  6 active torsions:
REMARK  status: ('A' for Active; 'I' for Inactive)
REMARK    1  A    between atoms: N1_1  and  C1_5 
REMARK    2  A    between atoms: C1_5  and  C2_6 
REMARK    3  A    between atoms: C2_6  and  N2_7 
REMARK    4  A    between atoms: N2_7  and  C3_9 
REMARK    5  A    between atoms: C6_12  and  C7_13 
REMARK    6  A    between atoms: C7_13  and  N3_14 
ROOT
HETATM    1  C3  UNL     1       1.470   0.311  -0.718  1.00  0.00     0.100 A 
HETATM    2  C4  UNL     1       0.653   0.712  -1.758  1.00  0.00     0.049 A 
HETATM    3  C5  UNL     1      -0.610   0.160  -1.886  1.00  0.00     0.014 A 
HETATM    4  C6  UNL     1      -1.067  -0.785  -0.991  1.00  0.00    -0.024 A 
HETATM    5  C11 UNL     1      -0.233  -1.168   0.038  1.00  0.00     0.098 A 
HETATM    6  N5  UNL     1       0.989  -0.612   0.134  1.00  0.00    -0.352 N 
ATOM      7  H5  UNL     1       1.589  -0.910   0.903  1.00  0.00     0.166 HD
ENDROOT
BRANCH   1   8
HETATM    8  N2  UNL     1       2.666   0.815  -0.573  1.00  0.00    -0.375 N 
ATOM      9  H2  UNL     1       3.031   1.515  -1.219  1.00  0.00     0.161 HD
BRANCH   8  10
HETATM   10  C2  UNL     1       3.452   0.335   0.546  1.00  0.00     0.148 C 
BRANCH  10  11
HETATM   11  C1  UNL     1       4.820   1.021   0.423  1.00  0.00     0.249 C 
BRANCH  11  12
HETATM   12  N1  UNL     1       5.691   0.607   1.503  1.00  0.00    -0.078 N 
ATOM     13  H13 UNL     1       5.266   0.768   2.416  1.00  0.00     0.274 HD
ATOM     14  H12 UNL     1       5.778  -0.408   1.553  1.00  0.00     0.274 HD
ATOM     15  H11 UNL     1       6.600   1.063   1.421  1.00  0.00     0.274 HD
ENDBRANCH  11  12
ENDBRANCH  10  11
ENDBRANCH   8  10
ENDBRANCH   1   8
BRANCH   4  16
HETATM   16  C7  UNL     1      -2.403  -1.427  -1.053  1.00  0.00     0.169 C 
BRANCH  16  17
HETATM   17  N3  UNL     1      -3.399  -0.677  -0.296  1.00  0.00    -0.347 N 
HETATM   18  C8  UNL     1      -4.147   0.294  -0.818  1.00  0.00     0.109 A 
HETATM   19  C9  UNL     1      -4.966   0.771   0.176  1.00  0.00     0.106 A 
HETATM   20  N4  UNL     1      -4.677   0.061   1.269  1.00  0.00    -0.361 N 
HETATM   21  C10 UNL     1      -3.719  -0.825   0.979  1.00  0.00     0.182 A 
ATOM     22  H4  UNL     1      -5.118   0.176   2.182  1.00  0.00     0.166 HD
ENDBRANCH  16  17
ENDBRANCH   4  16
TORSDOF 6
