REMARK  5 active torsions:
REMARK  status: ('A' for Active; 'I' for Inactive)
REMARK    1  A    between atoms: O1_3  and  C3_4 
REMARK    2  A    between atoms: C3_4  and  C4_5 
REMARK    3  A    between atoms: N2_10  and  C7_11 
REMARK    4  A    between atoms: C7_11  and  N3_12 
REMARK    5  A    between atoms: N3_12  and  C8_14 
ROOT
HETATM    1  C1  UNL     1       4.296  -1.616   0.677  1.00  0.00     0.044 C 
HETATM    2  C2  UNL     1       3.314  -0.931   0.818  1.00  0.00     0.043 C 
HETATM    3  O1  UNL     1       2.186  -0.164   0.961  1.00  0.00    -0.298 OA
ENDROOT
BRANCH   3   4
HETATM    4  C3  UNL     1       1.832   0.646  -0.145  1.00  0.00     0.246 C 
BRANCH   4   5
HETATM    5  C4  UNL     1       0.630   1.436   0.061  1.00  0.00     0.054 A 
HETATM    6  C5  UNL     1       0.561   2.701   0.582  1.00  0.00     0.116 A 
HETATM    7  N1  UNL     1      -0.710   3.116   0.624  1.00  0.00    -0.360 N 
HETATM    8  C6  UNL     1      -1.445   2.110   0.128  1.00  0.00     0.184 A 
ATOM      9  H1  UNL     1      -1.051   4.015   0.964  1.00  0.00     0.166 HD
HETATM   10  N2  UNL     1      -0.626   1.073  -0.221  1.00  0.00    -0.326 N 
BRANCH  10  11
HETATM   11  C7  UNL     1      -1.143  -0.139  -0.781  1.00  0.00     0.254 C 
BRANCH  11  12
HETATM   12  N3  UNL     1      -1.451  -1.086   0.302  1.00  0.00    -0.353 N 
ATOM     13  H3  UNL     1      -1.280  -0.811   1.269  1.00  0.00     0.163 HD
BRANCH  12  14
HETATM   14  C8  UNL     1      -1.977  -2.365   0.030  1.00  0.00     0.182 C 
HETATM   15  N4  UNL     1      -2.232  -2.794  -1.302  1.00  0.00    -0.070 NA
HETATM   16  S1  UNL     1      -2.300  -3.372   1.270  1.00  0.00    -0.044 SA
ENDBRANCH  12  14
ENDBRANCH  11  12
ENDBRANCH  10  11
ENDBRANCH   4   5
ENDBRANCH   3   4
TORSDOF 5
