REMARK  7 active torsions:
REMARK  status: ('A' for Active; 'I' for Inactive)
REMARK    1  A    between atoms: C2_2  and  C3_3 
REMARK    2  A    between atoms: C3_3  and  C4_4 
REMARK    3  A    between atoms: C4_4  and  C5_5 
REMARK    4  A    between atoms: C4_4  and  N1_8 
REMARK    5  A    between atoms: C5_5  and  C6_6 
REMARK    6  A    between atoms: N1_8  and  C8_10 
REMARK    7  A    between atoms: C8_10  and  C9_11 
ROOT
HETATM    1  C4  UNL     1      -0.265   0.196  -0.495  1.00  0.00     0.080 C 
ENDROOT
BRANCH   1   2
HETATM    2  C3  UNL     1      -0.902  -1.089  -0.198  1.00  0.00     0.024 C 
BRANCH   2   3
HETATM    3  C2  UNL     1      -1.869  -1.254   0.893  1.00  0.00    -0.002 C 
HETATM    4  C1  UNL     1      -2.237  -2.767   0.876  1.00  0.00     0.005 C 
ENDBRANCH   2   3
ENDBRANCH   1   2
BRANCH   1   5
HETATM    5  C5  UNL     1      -1.045   1.376  -0.900  1.00  0.00     0.024 C 
BRANCH   5   6
HETATM    6  C6  UNL     1      -2.072   1.961  -0.021  1.00  0.00    -0.002 C 
HETATM    7  C7  UNL     1      -2.608   3.205  -0.799  1.00  0.00     0.005 C 
ENDBRANCH   5   6
ENDBRANCH   1   5
BRANCH   1   8
HETATM    8  N1  UNL     1       0.700   0.476   0.535  1.00  0.00    -0.397 N 
ATOM      9  H1  UNL     1       0.581   1.291   1.137  1.00  0.00     0.159 HD
BRANCH   8  10
HETATM   10  C8  UNL     1       1.792  -0.361   0.711  1.00  0.00     0.060 C 
BRANCH  10  11
HETATM   11  C9  UNL     1       2.813  -0.378  -0.390  1.00  0.00     0.024 A 
HETATM   12  C10 UNL     1       3.977  -1.334  -0.095  1.00  0.00     0.010 A 
HETATM   13  C11 UNL     1       4.209   0.142  -0.098  1.00  0.00     0.010 A 
ENDBRANCH  10  11
ENDBRANCH   8  10
ENDBRANCH   1   8
TORSDOF 7
