REMARK  8 active torsions:
REMARK  status: ('A' for Active; 'I' for Inactive)
REMARK    1  A    between atoms: C2_2  and  C3_3 
REMARK    2  A    between atoms: C2_2  and  C6_10 
REMARK    3  A    between atoms: C3_3  and  C4_4 
REMARK    4  A    between atoms: C4_4  and  C5_5 
REMARK    5  A    between atoms: C5_5  and  N1_6 
REMARK    6  A    between atoms: C6_10  and  C7_11 
REMARK    7  A    between atoms: C7_11  and  C8_12 
REMARK    8  A    between atoms: C8_12  and  C9_13 
ROOT
HETATM    1  C1  UNL     1       1.485   1.228  -1.015  1.00  0.00     0.010 C 
HETATM    2  C2  UNL     1       0.851   0.023  -0.447  1.00  0.00    -0.019 C 
ENDROOT
BRANCH   2   3
HETATM    3  C3  UNL     1       1.647  -0.825   0.480  1.00  0.00     0.006 C 
BRANCH   3   4
HETATM    4  C4  UNL     1       2.884  -1.450   0.009  1.00  0.00     0.027 C 
BRANCH   4   5
HETATM    5  C5  UNL     1       4.024  -0.629  -0.435  1.00  0.00     0.229 C 
BRANCH   5   6
HETATM    6  N1  UNL     1       4.565   0.256   0.593  1.00  0.00    -0.079 N 
ATOM      7  H13 UNL     1       3.828   0.848   0.977  1.00  0.00     0.274 HD
ATOM      8  H12 UNL     1       4.813  -0.277   1.427  1.00  0.00     0.274 HD
ATOM      9  H11 UNL     1       5.354   0.824   0.286  1.00  0.00     0.274 HD
ENDBRANCH   5   6
ENDBRANCH   4   5
ENDBRANCH   3   4
ENDBRANCH   2   3
BRANCH   2  10
HETATM   10  C6  UNL     1      -0.456   0.364   0.228  1.00  0.00     0.004 C 
BRANCH  10  11
HETATM   11  C7  UNL     1      -1.502   0.963  -0.621  1.00  0.00     0.001 C 
BRANCH  11  12
HETATM   12  C8  UNL     1      -2.735   1.208   0.268  1.00  0.00     0.005 C 
BRANCH  12  13
HETATM   13  C9  UNL     1      -3.243  -0.065   0.861  1.00  0.00    -0.014 A 
HETATM   14  C10 UNL     1      -3.705  -1.201   0.055  1.00  0.00     0.005 A 
HETATM   15  C11 UNL     1      -4.738  -0.350   0.678  1.00  0.00     0.005 A 
ENDBRANCH  12  13
ENDBRANCH  11  12
ENDBRANCH  10  11
ENDBRANCH   2  10
TORSDOF 8
