REMARK  6 active torsions:
REMARK  status: ('A' for Active; 'I' for Inactive)
REMARK    1  A    between atoms: C4_6  and  C5_7 
REMARK    2  A    between atoms: C6_11  and  N3_12 
REMARK    3  A    between atoms: C11_18  and  N4_19 
REMARK       I    between atoms: N4_19  and  C12_21 
REMARK    4  A    between atoms: C12_21  and  C13_23 
REMARK    5  A    between atoms: C13_23  and  C14_24 
REMARK    6  A    between atoms: C15_27  and  N6_28 
ROOT
HETATM    1  N3  UNL     1       2.407  -0.850   0.063  1.00  0.00    -0.355 N 
HETATM    2  C7  UNL     1       2.065  -1.866   1.033  1.00  0.00     0.130 C 
HETATM    3  C8  UNL     1       0.902  -1.430   1.898  1.00  0.00     0.061 C 
HETATM    4  C9  UNL     1      -0.259  -1.162   0.953  1.00  0.00    -0.018 A 
HETATM    5  C10 UNL     1       0.067  -0.396  -0.126  1.00  0.00     0.011 A 
HETATM    6  S2  UNL     1      -1.428  -0.274  -0.967  1.00  0.00    -0.073 SA
HETATM    7  C11 UNL     1      -2.404  -1.200   0.081  1.00  0.00     0.098 A 
HETATM    8  C17 UNL     1      -1.535  -1.579   1.062  1.00  0.00     0.086 A 
HETATM    9  C18 UNL     1      -2.033  -2.411   2.170  1.00  0.00     0.103 C 
HETATM   10  N9  UNL     1      -2.447  -3.064   3.061  1.00  0.00    -0.191 NA
HETATM   11  C19 UNL     1       1.462   0.139  -0.384  1.00  0.00     0.171 C 
ENDROOT
BRANCH   7  12
HETATM   12  N4  UNL     1      -3.793  -1.494  -0.061  1.00  0.00    -0.320 N 
HETATM   13  C12 UNL     1      -4.542  -0.978  -1.152  1.00  0.00     0.229 C 
HETATM   14  O1  UNL     1      -4.001  -0.248  -2.000  1.00  0.00    -0.273 OA
ATOM     15  H4  UNL     1      -4.255  -2.084   0.631  1.00  0.00     0.169 HD
BRANCH  13  16
HETATM   16  C13 UNL     1      -5.977  -1.307  -1.290  1.00  0.00     0.180 C 
BRANCH  16  17
HETATM   17  C14 UNL     1      -6.767  -0.064  -1.163  1.00  0.00     0.110 A 
HETATM   18  N5  UNL     1      -7.257   0.255   0.070  1.00  0.00    -0.180 N 
HETATM   19  C15 UNL     1      -7.996   1.352   0.294  1.00  0.00     0.681 A 
ATOM     20  H5  UNL     1      -7.053  -0.366   0.853  1.00  0.00     0.185 HD
HETATM   21  N7  UNL     1      -8.277   2.187  -0.726  1.00  0.00    -0.141 N 
HETATM   22  C16 UNL     1      -7.795   1.883  -1.958  1.00  0.00     0.339 A 
ATOM     23  H7  UNL     1      -8.838   3.026  -0.576  1.00  0.00     0.189 HD
HETATM   24  O2  UNL     1      -8.053   2.659  -2.921  1.00  0.00    -0.246 OA
HETATM   25  N8  UNL     1      -7.043   0.760  -2.172  1.00  0.00    -0.297 N 
ATOM     26  H8  UNL     1      -6.693   0.553  -3.107  1.00  0.00     0.172 HD
BRANCH  19  27
HETATM   27  N6  UNL     1      -8.455   1.637   1.478  1.00  0.00    -0.234 N 
ATOM     28  H62 UNL     1      -8.242   1.005   2.250  1.00  0.00     0.174 HD
ATOM     29  H61 UNL     1      -9.017   2.471   1.648  1.00  0.00     0.174 HD
ENDBRANCH  19  27
ENDBRANCH  16  17
ENDBRANCH  13  16
ENDBRANCH   7  12
BRANCH   1  30
HETATM   30  C6  UNL     1       3.735  -0.825  -0.459  1.00  0.00     0.165 A 
HETATM   31  S1  UNL     1       4.416  -1.728  -1.765  1.00  0.00     0.024 SA
HETATM   32  N2  UNL     1       5.979  -1.113  -1.703  1.00  0.00    -0.308 N 
HETATM   33  C5  UNL     1       5.913  -0.244  -0.687  1.00  0.00     0.132 A 
ATOM     34  H2  UNL     1       6.779  -1.344  -2.293  1.00  0.00     0.176 HD
HETATM   35  N10 UNL     1       4.781  -0.111  -0.075  1.00  0.00    -0.320 N 
ATOM     36  H10 UNL     1       4.695   0.543   0.703  1.00  0.00     0.169 HD
BRANCH  33  37
HETATM   37  C4  UNL     1       7.122   0.537  -0.286  1.00  0.00     0.066 A 
HETATM   38  C3  UNL     1       8.388   0.489  -0.796  1.00  0.00     0.111 A 
HETATM   39  N1  UNL     1       9.273   1.284  -0.281  1.00  0.00    -0.362 N 
HETATM   40  C2  UNL     1       8.935   2.103   0.702  1.00  0.00     0.047 A 
ATOM     41  H1  UNL     1      10.230   1.278  -0.634  1.00  0.00     0.165 HD
HETATM   42  C1  UNL     1       9.799   3.103   1.434  1.00  0.00     0.076 C 
HETATM   43  S3  UNL     1       7.274   1.736   0.920  1.00  0.00    -0.072 SA
ENDBRANCH  33  37
ENDBRANCH   1  30
TORSDOF 6
