REMARK  8 active torsions:
REMARK  status: ('A' for Active; 'I' for Inactive)
REMARK    1  A    between atoms: C4_5  and  C5_6 
REMARK    2  A    between atoms: C10_11  and  N2_12 
REMARK    3  A    between atoms: N2_12  and  C11_14 
REMARK    4  A    between atoms: C13_18  and  S1_19 
REMARK    5  A    between atoms: S1_19  and  C14_20 
REMARK    6  A    between atoms: C14_20  and  C15_21 
REMARK    7  A    between atoms: C16_27  and  N6_28 
REMARK    8  A    between atoms: C18_38  and  N10_39 
ROOT
HETATM    1  C11 UNL     1       2.664   0.081   0.036  1.00  0.00     0.698 C 
HETATM    2  N3  UNL     1       4.015   0.201   0.193  1.00  0.00    -0.184 N 
ATOM      3  H3  UNL     1       4.503  -0.591   0.610  1.00  0.00     0.184 HD
HETATM    4  C12 UNL     1       4.779   1.286  -0.157  1.00  0.00     0.129 A 
HETATM    5  C13 UNL     1       5.957   1.665   0.449  1.00  0.00     0.116 A 
HETATM    6  N7  UNL     1       6.342   2.772  -0.208  1.00  0.00    -0.290 N 
ATOM      7  H7  UNL     1       7.186   3.308  -0.004  1.00  0.00     0.187 HD
HETATM    8  N8  UNL     1       5.468   3.068  -1.160  1.00  0.00    -0.282 N 
ATOM      9  H8  UNL     1       5.547   3.865  -1.791  1.00  0.00     0.188 HD
HETATM   10  C17 UNL     1       4.463   2.175  -1.181  1.00  0.00     0.166 A 
HETATM   11  N9  UNL     1       3.411   2.175  -2.014  1.00  0.00    -0.173 N 
ATOM     12  H9  UNL     1       3.450   2.861  -2.768  1.00  0.00     0.186 HD
HETATM   13  C18 UNL     1       2.314   1.401  -1.996  1.00  0.00     0.692 C 
HETATM   14  N11 UNL     1       2.036   0.416  -1.094  1.00  0.00    -0.022 N 
ATOM     15  H11 UNL     1       1.220  -0.154  -1.318  1.00  0.00     0.203 HD
ENDROOT
BRANCH   1  16
HETATM   16  N2  UNL     1       1.951  -0.366   0.994  1.00  0.00    -0.185 N 
ATOM     17  H2  UNL     1       2.386  -0.635   1.876  1.00  0.00     0.185 HD
BRANCH  16  18
HETATM   18  C10 UNL     1       0.536  -0.487   0.822  1.00  0.00     0.093 A 
HETATM   19  C9  UNL     1      -0.246  -1.601   0.910  1.00  0.00     0.052 A 
HETATM   20  C8  UNL     1      -1.574  -1.446   0.707  1.00  0.00     0.001 A 
HETATM   21  C7  UNL     1      -2.567  -2.447   0.748  1.00  0.00     0.016 A 
HETATM   22  C19 UNL     1      -2.020  -0.187   0.430  1.00  0.00     0.086 A 
HETATM   23  C6  UNL     1      -3.874  -2.108   0.516  1.00  0.00     0.026 A 
HETATM   24  C5  UNL     1      -4.302  -0.833   0.239  1.00  0.00     0.014 A 
HETATM   25  N12 UNL     1      -3.345   0.109   0.203  1.00  0.00    -0.353 N 
ATOM     26  H12 UNL     1      -3.608   1.074   0.001  1.00  0.00     0.166 HD
HETATM   27  S2  UNL     1      -0.582   0.744   0.461  1.00  0.00    -0.053 SA
BRANCH  24  28
HETATM   28  C4  UNL     1      -5.707  -0.473  -0.008  1.00  0.00     0.038 C 
HETATM   29  C3  UNL     1      -6.376  -1.246  -1.097  1.00  0.00     0.030 C 
HETATM   30  C2  UNL     1      -7.751  -0.680  -1.312  1.00  0.00     0.117 C 
HETATM   31  N1  UNL     1      -8.227   0.201  -0.312  1.00  0.00    -0.417 N 
HETATM   32  C1  UNL     1      -8.240   1.580  -0.655  1.00  0.00     0.143 C 
HETATM   33  C21 UNL     1      -7.933  -0.116   1.039  1.00  0.00     0.117 C 
HETATM   34  C20 UNL     1      -6.542  -0.673   1.244  1.00  0.00     0.030 C 
ENDBRANCH  24  28
ENDBRANCH  16  18
ENDBRANCH   1  16
BRANCH  13  35
HETATM   35  N10 UNL     1       1.422   1.567  -2.888  1.00  0.00    -0.234 N 
ATOM     36 2H10 UNL     1       1.630   2.303  -3.562  1.00  0.00     0.174 HD
ATOM     37 1H10 UNL     1       0.589   0.979  -2.874  1.00  0.00     0.174 HD
ENDBRANCH  13  35
BRANCH   5  38
HETATM   38  S1  UNL     1       6.751   0.816   1.805  1.00  0.00    -0.102 SA
BRANCH  38  39
HETATM   39  C14 UNL     1       7.928  -0.440   1.189  1.00  0.00     0.144 C 
BRANCH  39  40
HETATM   40  C15 UNL     1       9.065   0.186   0.504  1.00  0.00     0.089 A 
HETATM   41  N4  UNL     1       9.246   1.507   0.340  1.00  0.00    -0.241 N 
HETATM   42  O1  UNL     1      10.346   1.673  -0.299  1.00  0.00    -0.155 OA
ATOM     43  H4  UNL     1       8.621   2.245   0.665  1.00  0.00     0.196 HD
HETATM   44  N5  UNL     1      10.911   0.530  -0.570  1.00  0.00    -0.224 N 
HETATM   45  C16 UNL     1      10.134  -0.452  -0.079  1.00  0.00     0.146 A 
ATOM     46  H5  UNL     1      11.791   0.402  -1.069  1.00  0.00     0.198 HD
BRANCH  45  47
HETATM   47  N6  UNL     1      10.366  -1.742  -0.153  1.00  0.00    -0.382 N 
ATOM     48  H62 UNL     1       9.777  -2.487   0.219  1.00  0.00     0.157 HD
ATOM     49  H61 UNL     1      11.159  -2.215  -0.586  1.00  0.00     0.157 HD
ENDBRANCH  45  47
ENDBRANCH  39  40
ENDBRANCH  38  39
ENDBRANCH   5  38
TORSDOF 8
