REMARK  6 active torsions:
REMARK  status: ('A' for Active; 'I' for Inactive)
REMARK    1  A    between atoms: O1_2  and  C2_3 
REMARK    2  A    between atoms: C2_3  and  C3_4 
REMARK    3  A    between atoms: C8_11  and  N1_12 
REMARK    4  A    between atoms: C9_13  and  S2_14 
REMARK    5  A    between atoms: S2_14  and  C10_15 
REMARK    6  A    between atoms: C21_36  and  N6_37 
ROOT
HETATM    1  C10 UNL     1       1.722  -0.095  -0.857  1.00  0.00     0.280 C 
HETATM    2  N2  UNL     1       2.435   0.746   0.125  1.00  0.00    -0.056 N 
ATOM      3  H21 UNL     1       2.287   0.444   1.088  1.00  0.00     0.279 HD
ATOM      4  H22 UNL     1       2.033   1.679   0.214  1.00  0.00     0.279 HD
HETATM    5  C11 UNL     1       3.784   0.768  -0.236  1.00  0.00     0.189 C 
HETATM    6  C12 UNL     1       4.562   2.055  -0.119  1.00  0.00     0.033 C 
HETATM    7  C13 UNL     1       6.010   1.602  -0.351  1.00  0.00     0.004 C 
HETATM    8  C14 UNL     1       6.117   0.318  -1.132  1.00  0.00     0.032 C 
HETATM    9  C15 UNL     1       5.488  -0.882  -0.414  1.00  0.00     0.132 C 
HETATM   10  C16 UNL     1       4.560  -0.216   0.612  1.00  0.00     0.065 C 
HETATM   11  O3  UNL     1       4.598  -1.564  -1.306  1.00  0.00    -0.333 OA
HETATM   12  C17 UNL     1       3.268  -2.038  -1.269  1.00  0.00     0.132 C 
HETATM   13  N3  UNL     1       3.238  -3.153  -1.912  1.00  0.00    -0.382 N 
ATOM     14  H31 UNL     1       2.278  -3.495  -1.885  1.00  0.00     0.158 HD
ATOM     15  H32 UNL     1       4.111  -3.491  -2.316  1.00  0.00     0.158 HD
HETATM   16  C18 UNL     1       2.015  -1.553  -0.689  1.00  0.00     0.208 C 
HETATM   17  C19 UNL     1       0.915  -2.257  -1.405  1.00  0.00     0.075 C 
HETATM   18  N4  UNL     1       0.038  -2.792  -1.967  1.00  0.00    -0.196 NA
ENDROOT
BRANCH   1  19
HETATM   19  S2  UNL     1      -0.024   0.324  -0.885  1.00  0.00    -0.058 SA
BRANCH  19  20
HETATM   20  C9  UNL     1      -0.886  -0.084   0.606  1.00  0.00     0.151 A 
HETATM   21  N1  UNL     1      -2.191   0.162   0.810  1.00  0.00    -0.302 N 
HETATM   22  C23 UNL     1      -2.451  -0.316   2.069  1.00  0.00     0.142 A 
HETATM   23  C20 UNL     1      -1.328  -0.846   2.630  1.00  0.00     0.123 A 
HETATM   24  N8  UNL     1      -3.599  -0.329   2.778  1.00  0.00    -0.336 N 
HETATM   25  N5  UNL     1      -0.364  -0.696   1.713  1.00  0.00    -0.330 N 
HETATM   26  C21 UNL     1      -1.412  -1.374   3.899  1.00  0.00     0.131 A 
ATOM     27  H5  UNL     1       0.606  -0.991   1.822  1.00  0.00     0.168 HD
HETATM   28  N7  UNL     1      -2.582  -1.360   4.556  1.00  0.00    -0.337 N 
HETATM   29  C22 UNL     1      -3.691  -0.838   4.006  1.00  0.00     0.183 A 
ATOM     30  H7  UNL     1      -2.630  -1.755   5.495  1.00  0.00     0.168 HD
ATOM     31  H8  UNL     1      -4.436   0.070   2.354  1.00  0.00     0.168 HD
BRANCH  21  32
HETATM   32  C8  UNL     1      -3.170   0.795  -0.050  1.00  0.00     0.152 C 
HETATM   33  C3  UNL     1      -3.283   0.120  -1.388  1.00  0.00     0.141 A 
HETATM   34  O2  UNL     1      -4.359   0.707  -2.133  1.00  0.00    -0.353 OA
HETATM   35  C4  UNL     1      -3.020   0.867  -2.496  1.00  0.00     0.224 A 
HETATM   36  S1  UNL     1      -2.408   2.489  -1.873  1.00  0.00    -0.123 SA
HETATM   37  C5  UNL     1      -3.016   2.251  -0.178  1.00  0.00     0.027 C 
HETATM   38  C6  UNL     1      -2.106   2.891   0.840  1.00  0.00     0.029 C 
HETATM   39  C7  UNL     1      -4.383   2.947  -0.130  1.00  0.00     0.029 C 
BRANCH  33  40
HETATM   40  C2  UNL     1      -3.405  -1.364  -1.259  1.00  0.00     0.210 C 
BRANCH  40  41
HETATM   41  O1  UNL     1      -3.415  -2.131  -2.367  1.00  0.00    -0.393 OA
HETATM   42  C1  UNL     1      -4.431  -1.954  -3.240  1.00  0.00     0.201 C 
ENDBRANCH  40  41
ENDBRANCH  33  40
ENDBRANCH  21  32
BRANCH  26  43
HETATM   43  N6  UNL     1      -0.350  -1.873   4.423  1.00  0.00    -0.383 N 
ATOM     44  H62 UNL     1       0.539  -1.884   3.924  1.00  0.00     0.157 HD
ATOM     45  H61 UNL     1      -0.412  -2.264   5.363  1.00  0.00     0.157 HD
ENDBRANCH  26  43
ENDBRANCH  19  20
ENDBRANCH   1  19
TORSDOF 6
