REMARK  4 active torsions:
REMARK  status: ('A' for Active; 'I' for Inactive)
REMARK    1  A    between atoms: O1_1  and  C1_3 
REMARK    2  A    between atoms: C2_6  and  C3_7 
REMARK    3  A    between atoms: C3_7  and  N1_8 
REMARK    4  A    between atoms: C8_14  and  O4_15 
ROOT
HETATM    1  C1  UNL     1      -3.615  -0.074  -0.740  1.00  0.00     0.301 C 
HETATM    2  O2  UNL     1      -3.087   0.169  -2.003  1.00  0.00    -0.285 OA
HETATM    3  S1  UNL     1      -1.485   0.774  -1.702  1.00  0.00     0.001 SA
HETATM    4  C2  UNL     1      -1.324   0.181   0.028  1.00  0.00     0.138 C 
HETATM    5  C8  UNL     1      -2.553  -0.730   0.092  1.00  0.00     0.191 C 
ENDROOT
BRANCH   4   6
HETATM    6  C3  UNL     1      -0.139  -0.726   0.177  1.00  0.00     0.292 C 
BRANCH   6   7
HETATM    7  N1  UNL     1       1.114  -0.103  -0.157  1.00  0.00     0.093 N 
HETATM    8  C4  UNL     1       2.154  -1.087   0.033  1.00  0.00     0.298 C 
HETATM    9  C5  UNL     1       3.521  -0.542  -0.317  1.00  0.00     0.198 C 
HETATM   10  O3  UNL     1       3.714   0.601   0.456  1.00  0.00    -0.388 OA
HETATM   11  C6  UNL     1       2.781   1.566   0.165  1.00  0.00     0.198 C 
HETATM   12  C7  UNL     1       1.357   1.126   0.512  1.00  0.00     0.298 C 
ENDBRANCH   6   7
ENDBRANCH   4   6
BRANCH   5  13
HETATM   13  O4  UNL     1      -3.025  -0.844   1.383  1.00  0.00    -0.389 OA
ATOM     14  H4  UNL     1      -2.352  -1.259   1.910  1.00  0.00     0.210 HD
ENDBRANCH   5  13
BRANCH   1  15
HETATM   15  O1  UNL     1      -4.163   1.039  -0.151  1.00  0.00    -0.368 OA
ATOM     16  H1  UNL     1      -4.524   0.873   0.712  1.00  0.00     0.212 HD
ENDBRANCH   1  15
TORSDOF 4
