REMARK  0 active torsions:
REMARK  status: ('A' for Active; 'I' for Inactive)
ROOT
HETATM    1  C1  UNL     1      -1.260   1.407   0.237  1.00  0.00     0.049 C 
HETATM    2  C2  UNL     1      -0.623   0.071   0.445  1.00  0.00     0.085 A 
HETATM    3  C3  UNL     1      -1.568  -1.110   0.393  1.00  0.00     0.049 C 
HETATM    4  O1  UNL     1       0.378  -0.083   1.413  1.00  0.00    -0.365 OA
HETATM    5  C4  UNL     1       0.815  -0.110   0.097  1.00  0.00     0.085 A 
HETATM    6  C5  UNL     1       1.164  -1.401  -0.569  1.00  0.00     0.049 C 
HETATM    7  C6  UNL     1       1.612   1.101  -0.309  1.00  0.00     0.049 C 
ENDROOT
TORSDOF 0
