REMARK  0 active torsions:
REMARK  status: ('A' for Active; 'I' for Inactive)
ROOT
HETATM    1  C1  UNL     1      -1.164  -0.629   0.722  1.00  0.00     0.031 C 
HETATM    2  C2  UNL     1      -0.020  -0.076  -0.158  1.00  0.00     0.023 A 
HETATM    3  C3  UNL     1      -0.515   1.301  -0.651  1.00  0.00     0.031 C 
HETATM    4  C4  UNL     1       1.267  -0.104   0.413  1.00  0.00     0.000 A 
HETATM    5  C5  UNL     1       1.807  -0.922  -0.356  1.00  0.00     0.043 A 
HETATM    6  S1  UNL     1       0.450  -1.215  -1.362  1.00  0.00    -0.128 SA
ENDROOT
TORSDOF 0
