REMARK  0 active torsions:
REMARK  status: ('A' for Active; 'I' for Inactive)
ROOT
HETATM    1  C1  UNL     1      -1.963  -0.357   0.349  1.00  0.00     0.044 C 
HETATM    2  C2  UNL     1      -0.767  -0.104  -0.573  1.00  0.00     0.146 A 
HETATM    3  C3  UNL     1      -0.093   1.136  -0.124  1.00  0.00     0.005 A 
HETATM    4  C4  UNL     1       1.185   1.120   0.214  1.00  0.00     0.000 A 
HETATM    5  C5  UNL     1       1.983  -0.082   0.165  1.00  0.00     0.024 A 
HETATM    6  C6  UNL     1       1.408  -1.222  -0.236  1.00  0.00     0.135 A 
HETATM    7  O1  UNL     1       0.087  -1.215  -0.587  1.00  0.00    -0.354 OA
ENDROOT
TORSDOF 0
