REMARK  7 active torsions:
REMARK  status: ('A' for Active; 'I' for Inactive)
REMARK    1  A    between atoms: C2_2  and  C3_4 
REMARK    2  A    between atoms: C6_7  and  O2_8 
REMARK    3  A    between atoms: O2_8  and  C7_9 
REMARK    4  A    between atoms: C9_11  and  N1_12 
REMARK    5  A    between atoms: C14_17  and  N2_18 
REMARK    6  A    between atoms: C16_22  and  N3_23 
REMARK    7  A    between atoms: C17_26  and  N4_27 
ROOT
HETATM    1  C7  UNL     1      -0.357  -0.433  -1.100  1.00  0.00     0.111 A 
HETATM    2  C8  UNL     1      -1.341   0.076  -0.256  1.00  0.00     0.071 A 
HETATM    3  C9  UNL     1      -2.463  -0.631   0.144  1.00  0.00     0.066 A 
HETATM    4  C14 UNL     1      -2.570  -1.901  -0.343  1.00  0.00     0.132 A 
HETATM    5  C15 UNL     1      -1.631  -2.465  -1.186  1.00  0.00     0.077 A 
HETATM    6  C16 UNL     1      -0.524  -1.712  -1.559  1.00  0.00     0.139 A 
ENDROOT
BRANCH   1   7
HETATM    7  O2  UNL     1       0.667   0.419  -1.374  1.00  0.00    -0.306 OA
BRANCH   7   8
HETATM    8  C6  UNL     1       1.949   0.456  -0.939  1.00  0.00     0.109 A 
HETATM    9  C5  UNL     1       2.433  -0.378   0.045  1.00  0.00     0.041 A 
HETATM   10  C4  UNL     1       3.738  -0.293   0.440  1.00  0.00     0.018 A 
HETATM   11  C3  UNL     1       4.592   0.622  -0.131  1.00  0.00     0.012 A 
HETATM   12  C18 UNL     1       4.083   1.446  -1.114  1.00  0.00     0.054 A 
HETATM   13  C17 UNL     1       2.787   1.402  -1.545  1.00  0.00     0.137 A 
BRANCH  11  14
HETATM   14  C2  UNL     1       5.970   0.683   0.310  1.00  0.00     0.155 C 
HETATM   15  C1  UNL     1       6.468  -0.219   1.355  1.00  0.00     0.096 C 
HETATM   16  O1  UNL     1       6.741   1.515  -0.207  1.00  0.00    -0.293 OA
ENDBRANCH  11  14
BRANCH  13  17
HETATM   17  N4  UNL     1       2.271   2.254  -2.559  1.00  0.00    -0.113 N 
HETATM   18  O7  UNL     1       2.998   2.733  -3.457  1.00  0.00    -0.532 OA
HETATM   19  O8  UNL     1       0.939   2.590  -2.594  1.00  0.00    -0.532 OA
ENDBRANCH  13  17
ENDBRANCH   7   8
ENDBRANCH   1   7
BRANCH   6  20
HETATM   20  N3  UNL     1       0.340  -2.291  -2.503  1.00  0.00    -0.113 N 
HETATM   21  O5  UNL     1      -0.204  -3.134  -3.309  1.00  0.00    -0.532 OA
HETATM   22  O6  UNL     1       1.650  -2.091  -2.701  1.00  0.00    -0.532 OA
ENDBRANCH   6  20
BRANCH   3  23
HETATM   23  N1  UNL     1      -3.413  -0.007   0.977  1.00  0.00    -0.379 N 
HETATM   24  C10 UNL     1      -4.764   0.369   0.636  1.00  0.00     0.123 C 
HETATM   25  C11 UNL     1      -4.717   1.853   1.068  1.00  0.00     0.021 C 
HETATM   26  C12 UNL     1      -3.748   1.860   2.256  1.00  0.00     0.021 C 
HETATM   27  C13 UNL     1      -3.254   0.417   2.349  1.00  0.00     0.123 C 
ENDBRANCH   3  23
BRANCH   4  28
HETATM   28  N2  UNL     1      -3.682  -2.711   0.024  1.00  0.00    -0.113 N 
HETATM   29  O3  UNL     1      -4.263  -2.687   1.110  1.00  0.00    -0.532 OA
HETATM   30  O4  UNL     1      -4.154  -3.634  -0.908  1.00  0.00    -0.532 OA
ENDBRANCH   4  28
TORSDOF 7
