REMARK  7 active torsions:
REMARK  status: ('A' for Active; 'I' for Inactive)
REMARK    1  A    between atoms: C1_2  and  C2_3 
REMARK    2  A    between atoms: C1_2  and  C11_17 
REMARK    3  A    between atoms: C2_3  and  S1_4 
REMARK    4  A    between atoms: S1_4  and  C3_5 
REMARK    5  A    between atoms: C4_6  and  C5_7 
REMARK    6  A    between atoms: C13_19  and  N3_20 
REMARK    7  A    between atoms: C15_24  and  N4_25 
ROOT
HETATM    1  O1  UNL     1       0.215   1.337  -0.514  1.00  0.00    -0.291 OA
HETATM    2  C1  UNL     1       0.777   0.254  -0.722  1.00  0.00     0.169 C 
ENDROOT
BRANCH   2   3
HETATM    3  C2  UNL     1       0.124  -0.908  -1.336  1.00  0.00     0.164 C 
BRANCH   3   4
HETATM    4  S1  UNL     1      -1.547  -0.855  -1.835  1.00  0.00    -0.103 SA
BRANCH   4   5
HETATM    5  C3  UNL     1      -2.789  -0.714  -0.540  1.00  0.00     0.092 A 
HETATM    6  C4  UNL     1      -3.345   0.495  -0.267  1.00  0.00     0.024 A 
HETATM    7  S2  UNL     1      -4.409   0.140   1.032  1.00  0.00    -0.055 SA
HETATM    8  C8  UNL     1      -4.087  -1.524   1.154  1.00  0.00     0.156 A 
HETATM    9  N1  UNL     1      -4.414  -2.639   1.847  1.00  0.00    -0.345 N 
HETATM   10  N2  UNL     1      -3.188  -1.748   0.209  1.00  0.00    -0.294 N 
HETATM   11  C9  UNL     1      -3.687  -3.629   1.320  1.00  0.00     0.108 A 
ATOM     12  H1  UNL     1      -5.080  -2.710   2.616  1.00  0.00     0.167 HD
HETATM   13  C10 UNL     1      -2.931  -3.075   0.308  1.00  0.00     0.117 A 
BRANCH   6  14
HETATM   14  C5  UNL     1      -3.216   1.863  -0.843  1.00  0.00     0.028 A 
HETATM   15  C6  UNL     1      -4.280   2.886  -0.470  1.00  0.00     0.010 A 
HETATM   16  C7  UNL     1      -2.900   2.951   0.121  1.00  0.00     0.010 A 
ENDBRANCH   6  14
ENDBRANCH   4   5
ENDBRANCH   3   4
ENDBRANCH   2   3
BRANCH   2  17
HETATM   17  C11 UNL     1       2.185   0.173  -0.314  1.00  0.00     0.015 A 
HETATM   18  C12 UNL     1       2.761   1.253   0.298  1.00  0.00     0.051 A 
HETATM   19  C13 UNL     1       4.101   1.230   0.704  1.00  0.00     0.106 A 
HETATM   20  C14 UNL     1       4.856   0.101   0.486  1.00  0.00     0.072 A 
HETATM   21  C15 UNL     1       4.290  -1.005  -0.134  1.00  0.00     0.106 A 
HETATM   22  C16 UNL     1       2.952  -0.945  -0.525  1.00  0.00     0.051 A 
BRANCH  19  23
HETATM   23  N3  UNL     1       4.653   2.372   1.340  1.00  0.00    -0.116 N 
HETATM   24  O2  UNL     1       5.841   2.348   1.708  1.00  0.00    -0.532 OA
HETATM   25  O3  UNL     1       3.920   3.508   1.565  1.00  0.00    -0.532 OA
ENDBRANCH  19  23
BRANCH  21  26
HETATM   26  N4  UNL     1       5.035  -2.186  -0.386  1.00  0.00    -0.116 N 
HETATM   27  O4  UNL     1       4.517  -3.152  -0.966  1.00  0.00    -0.532 OA
HETATM   28  O5  UNL     1       6.341  -2.234   0.019  1.00  0.00    -0.532 OA
ENDBRANCH  21  26
ENDBRANCH   2  17
TORSDOF 7
