REMARK  7 active torsions:
REMARK  status: ('A' for Active; 'I' for Inactive)
REMARK    1  A    between atoms: C3_3  and  C4_4 
REMARK    2  A    between atoms: C6_6  and  S1_7 
REMARK    3  A    between atoms: S1_7  and  C7_8 
REMARK    4  A    between atoms: C7_8  and  C8_9 
REMARK    5  A    between atoms: C10_14  and  C11_15 
REMARK    6  A    between atoms: C15_22  and  N4_23 
REMARK    7  A    between atoms: C17_27  and  N5_28 
ROOT
HETATM    1  C1  UNL     1      -3.949   3.713   0.200  1.00  0.00     0.012 C 
HETATM    2  C2  UNL     1      -4.403   2.603   0.101  1.00  0.00    -0.113 C 
HETATM    3  C3  UNL     1      -4.934   1.245  -0.027  1.00  0.00     0.134 C 
ENDROOT
BRANCH   3   4
HETATM    4  C4  UNL     1      -3.895   0.217   0.280  1.00  0.00    -0.013 A 
HETATM    5  C5  UNL     1      -3.350  -0.537  -0.762  1.00  0.00     0.031 A 
HETATM    6  C6  UNL     1      -2.397  -1.512  -0.559  1.00  0.00     0.034 A 
HETATM    7  C15 UNL     1      -1.995  -1.723   0.730  1.00  0.00     0.122 A 
HETATM    8  C16 UNL     1      -2.522  -0.986   1.765  1.00  0.00     0.074 A 
HETATM    9  C17 UNL     1      -3.493   0.009   1.557  1.00  0.00     0.112 A 
BRANCH   6  10
HETATM   10  S1  UNL     1      -1.815  -2.411  -1.977  1.00  0.00    -0.121 SA
BRANCH  10  11
HETATM   11  C7  UNL     1      -0.694  -1.466  -3.005  1.00  0.00     0.138 C 
BRANCH  11  12
HETATM   12  C8  UNL     1       0.603  -1.112  -2.374  1.00  0.00     0.038 A 
HETATM   13  C9  UNL     1       0.890   0.006  -1.642  1.00  0.00     0.144 A 
HETATM   14  N1  UNL     1       2.197  -0.018  -1.226  1.00  0.00    -0.242 N 
HETATM   15  N2  UNL     1       2.954   0.744  -0.541  1.00  0.00    -0.289 N 
HETATM   16  C14 UNL     1       2.689  -1.154  -1.712  1.00  0.00     0.172 A 
HETATM   17  C10 UNL     1       4.213   0.415  -0.315  1.00  0.00     0.074 A 
ATOM     18  H2  UNL     1       2.584   1.616  -0.163  1.00  0.00     0.188 HD
HETATM   19  S2  UNL     1       4.308  -1.083  -1.138  1.00  0.00    -0.037 SA
HETATM   20  N3  UNL     1       1.750  -1.845  -2.415  1.00  0.00    -0.337 N 
ATOM     21  H3  UNL     1       1.881  -2.742  -2.883  1.00  0.00     0.168 HD
BRANCH  17  22
HETATM   22  C11 UNL     1       5.263   1.161   0.458  1.00  0.00     0.044 A 
HETATM   23  C12 UNL     1       6.643   1.172  -0.042  1.00  0.00     0.012 A 
HETATM   24  C13 UNL     1       6.275   0.423   1.222  1.00  0.00     0.012 A 
ENDBRANCH  17  22
ENDBRANCH  11  12
ENDBRANCH  10  11
ENDBRANCH   6  10
BRANCH   7  25
HETATM   25  N4  UNL     1      -1.064  -2.737   1.059  1.00  0.00    -0.114 N 
HETATM   26  O1  UNL     1      -0.127  -3.136   0.383  1.00  0.00    -0.532 OA
HETATM   27  O2  UNL     1      -1.206  -3.392   2.299  1.00  0.00    -0.532 OA
ENDBRANCH   7  25
BRANCH   9  28
HETATM   28  N5  UNL     1      -3.962   0.734   2.673  1.00  0.00    -0.115 N 
HETATM   29  O3  UNL     1      -5.092   1.177   2.814  1.00  0.00    -0.532 OA
HETATM   30  O4  UNL     1      -3.039   0.942   3.703  1.00  0.00    -0.532 OA
ENDBRANCH   9  28
ENDBRANCH   3   4
TORSDOF 7
