REMARK  8 active torsions:
REMARK  status: ('A' for Active; 'I' for Inactive)
REMARK    1  A    between atoms: C2_2  and  O1_3 
REMARK    2  A    between atoms: O1_3  and  C3_4 
REMARK    3  A    between atoms: C3_4  and  C4_6 
REMARK    4  A    between atoms: C6_11  and  C7_12 
REMARK    5  A    between atoms: C8_13  and  C9_14 
REMARK    6  A    between atoms: N6_23  and  C12_24 
REMARK    7  A    between atoms: C12_24  and  C13_25 
REMARK    8  A    between atoms: C12_24  and  C18_30 
ROOT
HETATM    1  C9  UNL     1       1.949   3.026  -0.383  1.00  0.00     0.252 C 
HETATM    2  C10 UNL     1       2.877   3.281   0.707  1.00  0.00     0.085 C 
HETATM    3  N2  UNL     1       3.627   3.467   1.591  1.00  0.00    -0.195 NA
HETATM    4  C11 UNL     1       1.447   4.373  -0.773  1.00  0.00     0.085 C 
HETATM    5  N3  UNL     1       1.047   5.408  -1.092  1.00  0.00    -0.195 NA
ENDROOT
BRANCH   1   6
HETATM    6  C8  UNL     1       0.815   2.223   0.061  1.00  0.00     0.088 A 
HETATM    7  C7  UNL     1       0.247   1.030  -0.428  1.00  0.00     0.098 A 
HETATM    8  N6  UNL     1      -0.818   0.738   0.307  1.00  0.00    -0.269 N 
HETATM    9  N5  UNL     1      -0.914   1.708   1.224  1.00  0.00    -0.239 N 
HETATM   10  N4  UNL     1       0.026   2.568   1.088  1.00  0.00    -0.286 N 
ATOM     11  H5  UNL     1      -1.641   1.756   1.938  1.00  0.00     0.208 HD
ATOM     12  H4  UNL     1       0.155   3.393   1.674  1.00  0.00     0.188 HD
BRANCH   7  13
HETATM   13  C6  UNL     1       0.885   0.301  -1.549  1.00  0.00     0.069 A 
HETATM   14  C4  UNL     1       2.097  -0.358  -1.613  1.00  0.00     0.076 A 
HETATM   15  C5  UNL     1       2.396  -0.933  -2.797  1.00  0.00     0.115 A 
HETATM   16  N1  UNL     1       1.518  -0.827  -3.788  1.00  0.00    -0.335 N 
HETATM   17  S1  UNL     1       0.271   0.054  -3.136  1.00  0.00    -0.012 SA
ATOM     18  H1  UNL     1       1.593  -1.201  -4.734  1.00  0.00     0.173 HD
BRANCH  14  19
HETATM   19  C3  UNL     1       2.977  -0.572  -0.441  1.00  0.00     0.296 C 
HETATM   20  O2  UNL     1       2.600  -0.232   0.684  1.00  0.00    -0.259 OA
BRANCH  19  21
HETATM   21  O1  UNL     1       4.223  -1.145  -0.558  1.00  0.00    -0.318 OA
BRANCH  21  22
HETATM   22  C2  UNL     1       5.051  -1.337   0.599  1.00  0.00     0.174 C 
HETATM   23  C1  UNL     1       5.347  -0.019   1.261  1.00  0.00     0.034 C 
ENDBRANCH  21  22
ENDBRANCH  19  21
ENDBRANCH  14  19
ENDBRANCH   7  13
BRANCH   8  24
HETATM   24  C12 UNL     1      -1.773  -0.389   0.229  1.00  0.00     0.118 C 
BRANCH  24  25
HETATM   25  C13 UNL     1      -2.760  -0.222  -0.846  1.00  0.00     0.011 C 
HETATM   26  C14 UNL     1      -3.499   1.112  -0.524  1.00  0.00     0.007 C 
HETATM   27  C15 UNL     1      -4.332   0.728   0.677  1.00  0.00     0.000 C 
HETATM   28  C16 UNL     1      -4.536  -0.776   0.586  1.00  0.00     0.000 C 
HETATM   29  C17 UNL     1      -4.017  -1.074  -0.768  1.00  0.00     0.007 C 
ENDBRANCH  24  25
BRANCH  24  30
HETATM   30  C18 UNL     1      -1.063  -1.678   0.416  1.00  0.00     0.011 A 
HETATM   31  C19 UNL     1      -1.608  -3.019   0.435  1.00  0.00     0.007 A 
HETATM   32  C20 UNL     1      -1.216  -2.457   1.744  1.00  0.00     0.007 A 
ENDBRANCH  24  30
ENDBRANCH   8  24
ENDBRANCH   1   6
TORSDOF 8
