REMARK  7 active torsions:
REMARK  status: ('A' for Active; 'I' for Inactive)
REMARK    1  A    between atoms: S1_2  and  C2_3 
REMARK    2  A    between atoms: C3_6  and  S2_7 
REMARK    3  A    between atoms: S2_7  and  C4_8 
REMARK    4  A    between atoms: C4_8  and  C6_11 
REMARK    5  A    between atoms: C6_11  and  C7_13 
REMARK    6  A    between atoms: C7_13  and  C8_14 
REMARK    7  A    between atoms: C14_22  and  C15_23 
ROOT
HETATM    1  C4  UNL     1      -0.849  -0.220   0.446  1.00  0.00     0.229 C 
HETATM    2  C5  UNL     1      -0.629  -0.124   1.876  1.00  0.00     0.082 C 
HETATM    3  N2  UNL     1      -0.461  -0.067   3.020  1.00  0.00    -0.196 NA
ENDROOT
BRANCH   1   4
HETATM    4  S2  UNL     1       0.460  -1.212  -0.324  1.00  0.00    -0.085 SA
BRANCH   4   5
HETATM    5  C3  UNL     1       1.996  -0.326  -0.167  1.00  0.00     0.075 A 
HETATM    6  N1  UNL     1       2.090   0.871   0.436  1.00  0.00    -0.331 N 
HETATM    7  C2  UNL     1       3.224   1.570   0.575  1.00  0.00     0.145 A 
ATOM      8  H1  UNL     1       1.235   1.277   0.816  1.00  0.00     0.168 HD
HETATM    9  N5  UNL     1       4.358   1.030   0.072  1.00  0.00    -0.336 N 
HETATM   10  C14 UNL     1       4.373  -0.154  -0.546  1.00  0.00     0.054 A 
ATOM     11  H5  UNL     1       5.233   1.546   0.168  1.00  0.00     0.168 HD
HETATM   12  C13 UNL     1       3.193  -0.843  -0.671  1.00  0.00     0.068 A 
BRANCH   7  13
HETATM   13  S1  UNL     1       3.176   3.130   1.396  1.00  0.00    -0.098 SA
HETATM   14  C1  UNL     1       3.447   2.852   3.168  1.00  0.00     0.099 C 
ENDBRANCH   7  13
BRANCH  10  15
HETATM   15  C15 UNL     1       5.617  -0.736  -1.093  1.00  0.00     0.031 A 
HETATM   16  C16 UNL     1       6.878  -0.197  -1.062  1.00  0.00     0.021 A 
HETATM   17  C17 UNL     1       7.859  -0.909  -1.623  1.00  0.00     0.008 A 
HETATM   18  C18 UNL     1       7.534  -2.112  -2.182  1.00  0.00     0.050 A 
HETATM   19  S3  UNL     1       5.855  -2.216  -1.906  1.00  0.00    -0.100 SA
ENDBRANCH  10  15
ENDBRANCH   4   5
ENDBRANCH   1   4
BRANCH   1  20
HETATM   20  C6  UNL     1      -2.196  -0.739   0.117  1.00  0.00     0.156 C 
HETATM   21  O1  UNL     1      -2.259  -1.774  -0.523  1.00  0.00    -0.296 OA
BRANCH  20  22
HETATM   22  C7  UNL     1      -3.430  -0.057   0.531  1.00  0.00     0.106 C 
BRANCH  22  23
HETATM   23  C8  UNL     1      -4.677  -0.784   0.074  1.00  0.00     0.102 C 
HETATM   24  C9  UNL     1      -4.755  -0.919  -1.412  1.00  0.00     0.028 C 
HETATM   25  C10 UNL     1      -6.148  -0.420  -1.731  1.00  0.00     0.023 C 
HETATM   26  C11 UNL     1      -6.321   0.692  -0.719  1.00  0.00     0.135 C 
HETATM   27  N3  UNL     1      -5.798   0.071   0.469  1.00  0.00    -0.315 N 
HETATM   28  C12 UNL     1      -6.274   0.252   1.755  1.00  0.00     0.180 C 
HETATM   29  N4  UNL     1      -6.684   0.400   2.822  1.00  0.00    -0.172 NA
ENDBRANCH  22  23
ENDBRANCH  20  22
ENDBRANCH   1  20
TORSDOF 7
