REMARK  11 active torsions:
REMARK  status: ('A' for Active; 'I' for Inactive)
REMARK    1  A    between atoms: C2_2  and  C3_3 
REMARK    2  A    between atoms: C3_3  and  C4_4 
REMARK    3  A    between atoms: C4_4  and  C5_5 
REMARK    4  A    between atoms: C5_5  and  C6_6 
REMARK    5  A    between atoms: C6_6  and  C7_7 
REMARK    6  A    between atoms: C8_8  and  C9_9 
REMARK    7  A    between atoms: C9_9  and  C10_10 
REMARK    8  A    between atoms: C10_10  and  C11_11 
REMARK    9  A    between atoms: C11_11  and  C12_12 
REMARK   10  A    between atoms: C12_12  and  C13_13 
REMARK   11  A    between atoms: C13_13  and  N1_14 
ROOT
HETATM    1  C9  UNL     1      -1.154   1.052   0.196  1.00  0.00     0.027 C 
ENDROOT
BRANCH   1   2
HETATM    2  C8  UNL     1      -0.716   0.167   1.276  1.00  0.00    -0.031 C 
HETATM    3  C7  UNL     1       0.523  -0.187   1.512  1.00  0.00    -0.031 C 
BRANCH   3   4
HETATM    4  C6  UNL     1       1.671   0.256   0.721  1.00  0.00     0.027 C 
BRANCH   4   5
HETATM    5  C5  UNL     1       2.400  -0.922   0.099  1.00  0.00     0.004 C 
BRANCH   5   6
HETATM    6  C4  UNL     1       3.556  -0.399  -0.706  1.00  0.00     0.004 C 
BRANCH   6   7
HETATM    7  C3  UNL     1       4.542   0.372   0.105  1.00  0.00     0.026 C 
BRANCH   7   8
HETATM    8  C2  UNL     1       5.642   0.826  -0.800  1.00  0.00    -0.037 C 
HETATM    9  C1  UNL     1       6.886   0.454  -0.581  1.00  0.00     0.007 C 
ENDBRANCH   7   8
ENDBRANCH   6   7
ENDBRANCH   5   6
ENDBRANCH   4   5
ENDBRANCH   3   4
ENDBRANCH   1   2
BRANCH   1  10
HETATM   10  C10 UNL     1      -2.121   0.393  -0.773  1.00  0.00     0.004 C 
BRANCH  10  11
HETATM   11  C11 UNL     1      -3.337  -0.036  -0.020  1.00  0.00     0.002 C 
BRANCH  11  12
HETATM   12  C12 UNL     1      -4.360  -0.704  -0.955  1.00  0.00     0.027 C 
BRANCH  12  13
HETATM   13  C13 UNL     1      -5.539  -1.086  -0.053  1.00  0.00     0.229 C 
BRANCH  13  14
HETATM   14  N1  UNL     1      -6.031   0.127   0.526  1.00  0.00    -0.079 N 
ATOM     15  H13 UNL     1      -5.310   0.661   1.012  1.00  0.00     0.274 HD
ATOM     16  H12 UNL     1      -6.270   0.835  -0.168  1.00  0.00     0.274 HD
ATOM     17  H11 UNL     1      -6.816  -0.127   1.126  1.00  0.00     0.274 HD
ENDBRANCH  13  14
ENDBRANCH  12  13
ENDBRANCH  11  12
ENDBRANCH  10  11
ENDBRANCH   1  10
TORSDOF 11
