REMARK  10 active torsions:
REMARK  status: ('A' for Active; 'I' for Inactive)
REMARK    1  A    between atoms: C2_2  and  C3_3 
REMARK    2  A    between atoms: C4_4  and  C5_5 
REMARK    3  A    between atoms: C5_5  and  C6_6 
REMARK    4  A    between atoms: C6_6  and  C7_7 
REMARK    5  A    between atoms: C7_7  and  C8_8 
REMARK    6  A    between atoms: C8_8  and  C9_9 
REMARK    7  A    between atoms: C9_9  and  C10_10 
REMARK    8  A    between atoms: C11_11  and  C12_12 
REMARK    9  A    between atoms: C12_12  and  C13_13 
REMARK   10  A    between atoms: C13_13  and  N1_14 
ROOT
HETATM    1  C9  UNL     1       1.911  -1.176  -0.577  1.00  0.00     0.027 C 
ENDROOT
BRANCH   1   2
HETATM    2  C8  UNL     1       0.854  -0.101  -0.290  1.00  0.00     0.004 C 
BRANCH   2   3
HETATM    3  C7  UNL     1      -0.484  -0.761  -0.511  1.00  0.00     0.001 C 
BRANCH   3   4
HETATM    4  C6  UNL     1      -1.635   0.183  -0.265  1.00  0.00     0.004 C 
BRANCH   4   5
HETATM    5  C5  UNL     1      -2.905  -0.635  -0.530  1.00  0.00     0.027 C 
BRANCH   5   6
HETATM    6  C4  UNL     1      -4.124   0.160  -0.328  1.00  0.00    -0.031 C 
HETATM    7  C3  UNL     1      -5.002  -0.229   0.582  1.00  0.00    -0.031 C 
BRANCH   7   8
HETATM    8  C2  UNL     1      -6.244   0.505   0.849  1.00  0.00     0.022 C 
HETATM    9  C1  UNL     1      -6.321   1.707  -0.053  1.00  0.00     0.009 C 
ENDBRANCH   7   8
ENDBRANCH   5   6
ENDBRANCH   4   5
ENDBRANCH   3   4
ENDBRANCH   2   3
ENDBRANCH   1   2
BRANCH   1  10
HETATM   10  C10 UNL     1       3.285  -0.606  -0.381  1.00  0.00    -0.031 C 
HETATM   11  C11 UNL     1       4.068  -1.152   0.517  1.00  0.00    -0.029 C 
BRANCH  11  12
HETATM   12  C12 UNL     1       5.438  -0.653   0.776  1.00  0.00     0.054 C 
BRANCH  12  13
HETATM   13  C13 UNL     1       5.743   0.526  -0.131  1.00  0.00     0.233 C 
BRANCH  13  14
HETATM   14  N1  UNL     1       7.094   0.980   0.159  1.00  0.00    -0.079 N 
ATOM     15  H13 UNL     1       7.234   1.195   1.146  1.00  0.00     0.274 HD
ATOM     16  H12 UNL     1       7.786   0.234   0.082  1.00  0.00     0.274 HD
ATOM     17  H11 UNL     1       7.299   1.772  -0.450  1.00  0.00     0.274 HD
ENDBRANCH  13  14
ENDBRANCH  12  13
ENDBRANCH  11  12
ENDBRANCH   1  10
TORSDOF 10
