REMARK  9 active torsions:
REMARK  status: ('A' for Active; 'I' for Inactive)
REMARK    1  A    between atoms: C2_2  and  C3_3 
REMARK    2  A    between atoms: C3_3  and  C4_4 
REMARK    3  A    between atoms: C4_4  and  C5_5 
REMARK    4  A    between atoms: C5_5  and  C6_6 
REMARK    5  A    between atoms: C6_6  and  C7_7 
REMARK    6  A    between atoms: C7_7  and  C8_8 
REMARK    7  A    between atoms: C8_8  and  C9_9 
REMARK    8  A    between atoms: C9_9  and  N1_10 
REMARK    9  A    between atoms: N1_10  and  C10_12 
ROOT
HETATM    1  C8  UNL     1      -0.419  -0.040   0.729  1.00  0.00     0.044 C 
ENDROOT
BRANCH   1   2
HETATM    2  C7  UNL     1       0.282   1.290   0.563  1.00  0.00     0.005 C 
BRANCH   2   3
HETATM    3  C6  UNL     1       1.438   1.259  -0.384  1.00  0.00     0.000 C 
BRANCH   3   4
HETATM    4  C5  UNL     1       2.541   0.321   0.009  1.00  0.00     0.000 C 
BRANCH   4   5
HETATM    5  C4  UNL     1       3.637   0.376  -1.039  1.00  0.00     0.004 C 
BRANCH   5   6
HETATM    6  C3  UNL     1       4.776  -0.570  -0.642  1.00  0.00     0.026 C 
BRANCH   6   7
HETATM    7  C2  UNL     1       5.366  -0.186   0.651  1.00  0.00    -0.037 C 
HETATM    8  C1  UNL     1       5.383  -0.996   1.699  1.00  0.00     0.007 C 
ENDBRANCH   6   7
ENDBRANCH   5   6
ENDBRANCH   4   5
ENDBRANCH   3   4
ENDBRANCH   2   3
ENDBRANCH   1   2
BRANCH   1   9
HETATM    9  C9  UNL     1      -0.955  -0.532  -0.566  1.00  0.00     0.056 C 
BRANCH   9  10
HETATM   10  N1  UNL     1      -1.916   0.175  -1.261  1.00  0.00    -0.398 N 
ATOM     11  H1  UNL     1      -1.614   0.655  -2.109  1.00  0.00     0.159 HD
BRANCH  10  12
HETATM   12  C10 UNL     1      -3.247   0.293  -0.916  1.00  0.00     0.080 C 
HETATM   13  C11 UNL     1      -4.049  -0.985  -0.893  1.00  0.00     0.025 C 
HETATM   14  C12 UNL     1      -5.110  -0.671   0.143  1.00  0.00     0.002 C 
HETATM   15  C13 UNL     1      -4.222  -0.020   1.218  1.00  0.00     0.002 C 
HETATM   16  C14 UNL     1      -3.543   1.033   0.349  1.00  0.00     0.025 C 
ENDBRANCH  10  12
ENDBRANCH   9  10
ENDBRANCH   1   9
TORSDOF 9
