REMARK  9 active torsions:
REMARK  status: ('A' for Active; 'I' for Inactive)
REMARK    1  A    between atoms: C2_2  and  C3_3 
REMARK    2  A    between atoms: C3_3  and  C4_4 
REMARK    3  A    between atoms: C4_4  and  C5_5 
REMARK    4  A    between atoms: C5_5  and  C6_6 
REMARK    5  A    between atoms: C6_6  and  C7_7 
REMARK    6  A    between atoms: C7_7  and  C8_8 
REMARK    7  A    between atoms: C8_8  and  C9_9 
REMARK    8  A    between atoms: C10_10  and  C11_11 
REMARK    9  A    between atoms: C11_11  and  C12_12 
ROOT
HETATM    1  C7  UNL     1      -0.130   1.098  -0.600  1.00  0.00     0.004 C 
ENDROOT
BRANCH   1   2
HETATM    2  C6  UNL     1      -0.322  -0.378  -0.418  1.00  0.00     0.000 C 
BRANCH   2   3
HETATM    3  C5  UNL     1      -1.770  -0.811  -0.420  1.00  0.00     0.000 C 
BRANCH   3   4
HETATM    4  C4  UNL     1      -2.494  -0.133   0.707  1.00  0.00     0.004 C 
BRANCH   4   5
HETATM    5  C3  UNL     1      -3.934  -0.463   0.829  1.00  0.00     0.026 C 
BRANCH   5   6
HETATM    6  C2  UNL     1      -4.821  -0.087  -0.260  1.00  0.00    -0.037 C 
HETATM    7  C1  UNL     1      -4.564   0.646  -1.322  1.00  0.00     0.007 C 
ENDBRANCH   5   6
ENDBRANCH   4   5
ENDBRANCH   3   4
ENDBRANCH   2   3
ENDBRANCH   1   2
BRANCH   1   8
HETATM    8  C8  UNL     1       1.395   1.352  -0.591  1.00  0.00     0.027 C 
BRANCH   8   9
HETATM    9  C9  UNL     1       1.871   0.883   0.709  1.00  0.00    -0.031 C 
HETATM   10  C10 UNL     1       2.742  -0.043   0.890  1.00  0.00    -0.030 C 
BRANCH  10  11
HETATM   11  C11 UNL     1       3.416  -0.796  -0.165  1.00  0.00     0.037 C 
BRANCH  11  12
HETATM   12  C12 UNL     1       4.934  -0.580  -0.061  1.00  0.00     0.090 C 
HETATM   13  S1  UNL     1       5.453  -1.174   1.577  1.00  0.00    -0.097 SA
ENDBRANCH  11  12
ENDBRANCH  10  11
ENDBRANCH   8   9
ENDBRANCH   1   8
TORSDOF 9
