REMARK  8 active torsions:
REMARK  status: ('A' for Active; 'I' for Inactive)
REMARK    1  A    between atoms: C2_2  and  C3_3 
REMARK    2  A    between atoms: C2_2  and  C5_7 
REMARK    3  A    between atoms: C3_3  and  C4_4 
REMARK    4  A    between atoms: C4_4  and  O1_5 
REMARK    5  A    between atoms: C5_7  and  C6_8 
REMARK    6  A    between atoms: C6_8  and  C7_9 
REMARK    7  A    between atoms: C7_9  and  O2_10 
REMARK    8  A    between atoms: O2_10  and  C8_11 
ROOT
HETATM    1  C6  UNL     1      -0.422  -1.137   0.010  1.00  0.00     0.031 C 
ENDROOT
BRANCH   1   2
HETATM    2  C5  UNL     1      -1.679  -1.278  -0.835  1.00  0.00     0.035 C 
BRANCH   2   3
HETATM    3  C2  UNL     1      -2.898  -0.810  -0.137  1.00  0.00    -0.087 C 
HETATM    4  C1  UNL     1      -3.896  -1.670   0.064  1.00  0.00     0.014 C 
BRANCH   3   5
HETATM    5  C3  UNL     1      -3.040   0.572   0.357  1.00  0.00     0.059 C 
BRANCH   5   6
HETATM    6  C4  UNL     1      -3.018   1.633  -0.693  1.00  0.00     0.168 C 
BRANCH   6   7
HETATM    7  O1  UNL     1      -1.834   1.625  -1.381  1.00  0.00    -0.401 OA
ATOM      8  H1  UNL     1      -1.820   2.300  -2.049  1.00  0.00     0.209 HD
ENDBRANCH   6   7
ENDBRANCH   5   6
ENDBRANCH   3   5
ENDBRANCH   2   3
ENDBRANCH   1   2
BRANCH   1   9
HETATM    9  C7  UNL     1       0.756  -1.630  -0.776  1.00  0.00     0.176 C 
BRANCH   9  10
HETATM   10  O2  UNL     1       1.975  -1.555  -0.134  1.00  0.00    -0.351 OA
BRANCH  10  11
HETATM   11  C8  UNL     1       2.688  -0.458   0.275  1.00  0.00     0.068 A 
HETATM   12  C9  UNL     1       2.322   0.851   0.083  1.00  0.00     0.037 A 
HETATM   13  C10 UNL     1       3.114   1.910   0.541  1.00  0.00     0.003 A 
HETATM   14  C11 UNL     1       4.297   1.692   1.205  1.00  0.00     0.000 A 
HETATM   15  C12 UNL     1       4.675   0.385   1.402  1.00  0.00     0.003 A 
HETATM   16  C13 UNL     1       3.908  -0.655   0.959  1.00  0.00     0.037 A 
ENDBRANCH  10  11
ENDBRANCH   9  10
ENDBRANCH   1   9
TORSDOF 8
