REMARK  9 active torsions:
REMARK  status: ('A' for Active; 'I' for Inactive)
REMARK    1  A    between atoms: C2_2  and  C3_5 
REMARK    2  A    between atoms: C3_5  and  N1_6 
REMARK    3  A    between atoms: C3_5  and  C4_10 
REMARK    4  A    between atoms: C6_17  and  C7_18 
REMARK    5  A    between atoms: C7_18  and  C8_19 
REMARK    6  A    between atoms: C8_19  and  C9_20 
REMARK       I    between atoms: C9_20  and  N5_22 
REMARK    7  A    between atoms: N5_22  and  C10_24 
REMARK    8  A    between atoms: C10_24  and  C11_25 
REMARK    9  A    between atoms: N6_29  and  C15_30 
ROOT
HETATM    1  C4  UNL     1       5.571   0.131  -0.811  1.00  0.00     0.088 A 
HETATM    2  N2  UNL     1       6.707  -0.066  -0.102  1.00  0.00    -0.286 N 
ATOM      3  H2  UNL     1       7.644  -0.145  -0.497  1.00  0.00     0.188 HD
HETATM    4  N3  UNL     1       6.414  -0.139   1.162  1.00  0.00    -0.240 N 
ATOM      5  H3  UNL     1       7.074  -0.284   1.926  1.00  0.00     0.208 HD
HETATM    6  N4  UNL     1       5.071   0.012   1.280  1.00  0.00    -0.279 N 
HETATM    7  C5  UNL     1       4.544   0.179   0.083  1.00  0.00     0.064 A 
HETATM    8  C6  UNL     1       3.086   0.365  -0.119  1.00  0.00     0.062 C 
HETATM    9  C21 UNL     1       2.435  -0.440   0.950  1.00  0.00     0.016 C 
HETATM   10  C22 UNL     1       2.915  -0.277   2.342  1.00  0.00     0.023 C 
HETATM   11  C23 UNL     1       4.348  -0.004   2.519  1.00  0.00     0.150 C 
ENDROOT
BRANCH   8  12
HETATM   12  C7  UNL     1       2.688   1.774  -0.208  1.00  0.00    -0.010 C 
BRANCH  12  13
HETATM   13  C8  UNL     1       1.320   2.210  -0.480  1.00  0.00     0.071 C 
BRANCH  13  14
HETATM   14  C9  UNL     1       0.191   2.045   0.387  1.00  0.00     0.240 C 
HETATM   15  O1  UNL     1       0.264   1.829   1.607  1.00  0.00    -0.269 OA
HETATM   16  N5  UNL     1      -1.147   2.124  -0.138  1.00  0.00    -0.357 N 
ATOM     17  H5  UNL     1      -1.270   2.304  -1.134  1.00  0.00     0.162 HD
BRANCH  16  18
HETATM   18  C10 UNL     1      -2.301   1.962   0.669  1.00  0.00     0.127 C 
BRANCH  18  19
HETATM   19  C11 UNL     1      -2.468   0.632   1.342  1.00  0.00     0.005 C 
HETATM   20  C12 UNL     1      -3.747   0.613   2.174  1.00  0.00     0.008 C 
HETATM   21  C13 UNL     1      -3.893  -0.783   2.726  1.00  0.00     0.031 C 
HETATM   22  C14 UNL     1      -4.466  -1.738   1.704  1.00  0.00     0.273 C 
HETATM   23  N6  UNL     1      -4.856  -0.984   0.547  1.00  0.00     0.093 N 
HETATM   24  C19 UNL     1      -3.777  -0.715  -0.336  1.00  0.00     0.273 C 
HETATM   25  C20 UNL     1      -2.450  -0.515   0.359  1.00  0.00     0.036 C 
BRANCH  23  26
HETATM   26  C15 UNL     1      -6.011  -1.460  -0.130  1.00  0.00     0.223 C 
HETATM   27  C16 UNL     1      -7.314  -1.466   0.589  1.00  0.00     0.036 C 
HETATM   28  C17 UNL     1      -7.678  -0.175  -0.049  1.00  0.00     0.004 C 
HETATM   29  C18 UNL     1      -6.573  -0.431  -1.079  1.00  0.00     0.036 C 
ENDBRANCH  23  26
ENDBRANCH  18  19
ENDBRANCH  16  18
ENDBRANCH  13  14
ENDBRANCH  12  13
ENDBRANCH   8  12
BRANCH   1  30
HETATM   30  C3  UNL     1       5.554   0.257  -2.256  1.00  0.00     0.307 C 
BRANCH  30  31
HETATM   31  C2  UNL     1       6.958   0.085  -2.856  1.00  0.00     0.273 C 
HETATM   32  C1  UNL     1       7.434  -1.338  -2.689  1.00  0.00     0.093 C 
HETATM   33  F1  UNL     1       7.871   0.932  -2.304  1.00  0.00    -0.204 F 
HETATM   34  F2  UNL     1       6.873   0.382  -4.212  1.00  0.00    -0.204 F 
ENDBRANCH  30  31
BRANCH  30  35
HETATM   35  N1  UNL     1       4.705  -0.632  -2.966  1.00  0.00    -0.064 N 
ATOM     36  H13 UNL     1       4.733  -0.498  -3.977  1.00  0.00     0.275 HD
ATOM     37  H12 UNL     1       5.033  -1.598  -2.959  1.00  0.00     0.275 HD
ATOM     38  H11 UNL     1       3.773  -0.518  -2.568  1.00  0.00     0.275 HD
ENDBRANCH  30  35
ENDBRANCH   1  30
TORSDOF 9
