REMARK  13 active torsions:
REMARK  status: ('A' for Active; 'I' for Inactive)
REMARK    1  A    between atoms: C2_2  and  O1_5 
REMARK    2  A    between atoms: O1_5  and  C5_6 
REMARK       I    between atoms: C5_6  and  N1_8 
REMARK    3  A    between atoms: N1_8  and  C6_10 
REMARK    4  A    between atoms: C6_10  and  N2_11 
REMARK    5  A    between atoms: C6_10  and  C12_20 
REMARK       I    between atoms: N2_11  and  C7_13 
REMARK    6  A    between atoms: C7_13  and  O4_15 
REMARK    7  A    between atoms: O4_15  and  C8_16 
REMARK    8  A    between atoms: C12_20  and  C13_22 
REMARK    9  A    between atoms: C14_24  and  C15_25 
REMARK   10  A    between atoms: C15_25  and  N3_26 
REMARK   11  A    between atoms: N3_26  and  C16_27 
REMARK   12  A    between atoms: N3_26  and  C18_31 
REMARK   13  A    between atoms: C16_27  and  C17_28 
ROOT
HETATM    1  C6  UNL     1      -0.785  -0.655  -1.217  1.00  0.00     0.264 C 
ENDROOT
BRANCH   1   2
HETATM    2  N1  UNL     1      -2.252  -0.987  -1.202  1.00  0.00    -0.309 N 
HETATM    3  C5  UNL     1      -2.755  -1.924  -0.264  1.00  0.00     0.363 C 
HETATM    4  O2  UNL     1      -1.996  -2.498   0.571  1.00  0.00    -0.238 OA
ATOM      5  H1  UNL     1      -2.884  -0.539  -1.865  1.00  0.00     0.167 HD
BRANCH   3   6
HETATM    6  O1  UNL     1      -4.098  -2.248  -0.228  1.00  0.00    -0.294 OA
BRANCH   6   7
HETATM    7  C2  UNL     1      -4.696  -3.162   0.654  1.00  0.00     0.061 C 
HETATM    8  C1  UNL     1      -6.190  -3.190   0.333  1.00  0.00     0.046 C 
HETATM    9  C3  UNL     1      -4.175  -4.571   0.444  1.00  0.00     0.046 C 
HETATM   10  C4  UNL     1      -4.532  -2.811   2.111  1.00  0.00     0.046 C 
ENDBRANCH   6   7
ENDBRANCH   3   6
ENDBRANCH   1   2
BRANCH   1  11
HETATM   11  N2  UNL     1      -0.782   0.773  -1.143  1.00  0.00    -0.309 N 
HETATM   12  C7  UNL     1      -0.693   1.418   0.111  1.00  0.00     0.363 C 
HETATM   13  O3  UNL     1      -0.604   0.772   1.193  1.00  0.00    -0.238 OA
ATOM     14  H2  UNL     1      -0.844   1.327  -1.997  1.00  0.00     0.167 HD
BRANCH  12  15
HETATM   15  O4  UNL     1      -0.707   2.789   0.174  1.00  0.00    -0.294 OA
BRANCH  15  16
HETATM   16  C8  UNL     1      -0.652   3.564   1.330  1.00  0.00     0.061 C 
HETATM   17  C9  UNL     1      -1.814   3.310   2.271  1.00  0.00     0.046 C 
HETATM   18  C10 UNL     1       0.626   3.455   2.111  1.00  0.00     0.046 C 
HETATM   19  C11 UNL     1      -0.773   5.022   0.872  1.00  0.00     0.046 C 
ENDBRANCH  15  16
ENDBRANCH  12  15
ENDBRANCH   1  11
BRANCH   1  20
HETATM   20  C12 UNL     1      -0.203  -1.154  -2.467  1.00  0.00     0.200 C 
HETATM   21  O5  UNL     1      -1.025  -1.692  -3.275  1.00  0.00    -0.291 OA
BRANCH  20  22
HETATM   22  C13 UNL     1       1.175  -1.098  -2.865  1.00  0.00     0.230 A 
HETATM   23  O6  UNL     1       2.054  -0.049  -2.771  1.00  0.00    -0.362 OA
HETATM   24  C14 UNL     1       2.364  -1.352  -2.067  1.00  0.00     0.197 A 
BRANCH  24  25
HETATM   25  C15 UNL     1       2.656  -1.008  -0.664  1.00  0.00     0.098 C 
BRANCH  25  26
HETATM   26  N3  UNL     1       3.776  -0.220  -0.455  1.00  0.00    -0.361 N 
BRANCH  26  27
HETATM   27  C16 UNL     1       5.096  -0.589  -0.507  1.00  0.00     0.133 C 
BRANCH  27  28
HETATM   28  C17 UNL     1       5.675  -0.934  -1.821  1.00  0.00     0.392 C 
HETATM   29  F1  UNL     1       7.051  -1.240  -1.700  1.00  0.00    -0.208 F 
HETATM   30  F2  UNL     1       5.439   0.000  -2.787  1.00  0.00    -0.208 F 
ENDBRANCH  27  28
ENDBRANCH  26  27
BRANCH  26  31
HETATM   31  C18 UNL     1       3.524   1.209  -0.346  1.00  0.00     0.088 A 
HETATM   32  C19 UNL     1       4.613   2.145  -0.623  1.00  0.00     0.028 A 
HETATM   33  C20 UNL     1       4.032   1.988   0.782  1.00  0.00     0.028 A 
ENDBRANCH  26  31
ENDBRANCH  25  26
ENDBRANCH  24  25
ENDBRANCH  20  22
ENDBRANCH   1  20
TORSDOF 13
