REMARK  9 active torsions:
REMARK  status: ('A' for Active; 'I' for Inactive)
REMARK    1  A    between atoms: C2_2  and  C3_3 
REMARK    2  A    between atoms: C4_4  and  N1_5 
REMARK    3  A    between atoms: N1_5  and  C5_6 
REMARK    4  A    between atoms: N1_5  and  S1_8 
REMARK    5  A    between atoms: S1_8  and  C7_11 
REMARK    6  A    between atoms: C7_11  and  C9_14 
REMARK    7  A    between atoms: C11_16  and  C12_17 
REMARK    8  A    between atoms: C12_17  and  O3_18 
REMARK    9  A    between atoms: C15_25  and  C16_26 
ROOT
HETATM    1  C3  UNL     1       1.713   0.356  -0.411  1.00  0.00     0.045 A 
HETATM    2  C4  UNL     1       0.723  -0.214   0.398  1.00  0.00     0.078 A 
HETATM    3  C11 UNL     1       1.106  -1.184   1.257  1.00  0.00     0.020 A 
HETATM    4  C13 UNL     1       2.440  -1.633   1.374  1.00  0.00     0.089 A 
HETATM    5 CL2  UNL     1       2.883  -2.886   2.502  1.00  0.00    -0.080 Cl
HETATM    6  C14 UNL     1       3.375  -1.039   0.560  1.00  0.00     0.135 A 
HETATM    7  N2  UNL     1       4.704  -1.261   0.455  1.00  0.00    -0.334 N 
ATOM      8  H2  UNL     1       5.244  -1.939   0.993  1.00  0.00     0.168 HD
HETATM    9  C15 UNL     1       5.179  -0.443  -0.469  1.00  0.00     0.127 A 
HETATM   10  C17 UNL     1       4.120   0.299  -0.944  1.00  0.00     0.135 A 
HETATM   11  N3  UNL     1       3.016  -0.083  -0.297  1.00  0.00    -0.306 N 
ENDROOT
BRANCH   2  12
HETATM   12  N1  UNL     1      -0.586   0.381   0.343  1.00  0.00    -0.272 N 
BRANCH  12  13
HETATM   13  C5  UNL     1      -0.705   1.653   1.090  1.00  0.00     0.137 C 
HETATM   14  C6  UNL     1      -1.144   1.573   2.490  1.00  0.00     0.028 C 
ENDBRANCH  12  13
BRANCH  12  15
HETATM   15  S1  UNL     1      -1.922  -0.142  -0.523  1.00  0.00     0.255 S 
HETATM   16  O1  UNL     1      -1.489  -1.306  -1.446  1.00  0.00    -0.203 OA
HETATM   17  O2  UNL     1      -2.256   0.960  -1.556  1.00  0.00    -0.203 OA
BRANCH  15  18
HETATM   18  C7  UNL     1      -3.427  -0.550   0.208  1.00  0.00     0.155 C 
HETATM   19  C8  UNL     1      -4.100   0.626   0.937  1.00  0.00     0.052 C 
HETATM   20 CL1  UNL     1      -3.507  -1.912   1.300  1.00  0.00    -0.101 Cl
BRANCH  18  21
HETATM   21  C9  UNL     1      -4.406  -0.929  -0.942  1.00  0.00     0.039 C 
HETATM   22  C10 UNL     1      -4.656   0.158  -1.905  1.00  0.00     0.008 C 
ENDBRANCH  18  21
ENDBRANCH  15  18
ENDBRANCH  12  15
ENDBRANCH   2  12
BRANCH   1  23
HETATM   23  C2  UNL     1       1.433   1.348  -1.439  1.00  0.00     0.055 C 
HETATM   24  C1  UNL     1       1.058   0.758  -2.794  1.00  0.00     0.011 C 
ENDBRANCH   1  23
BRANCH   3  25
HETATM   25  C12 UNL     1       0.148  -1.899   2.095  1.00  0.00     0.207 C 
BRANCH  25  26
HETATM   26  O3  UNL     1       0.798  -2.857   2.903  1.00  0.00    -0.396 OA
ATOM     27  H3  UNL     1       0.175  -3.322   3.448  1.00  0.00     0.209 HD
ENDBRANCH  25  26
ENDBRANCH   3  25
BRANCH   9  28
HETATM   28  C16 UNL     1       6.572  -0.373  -0.879  1.00  0.00     0.228 C 
HETATM   29  O4  UNL     1       7.445  -1.102  -0.371  1.00  0.00    -0.643 OA
HETATM   30  O5  UNL     1       6.947   0.528  -1.861  1.00  0.00    -0.643 OA
ENDBRANCH   9  28
TORSDOF 9
