REMARK  6 active torsions:
REMARK  status: ('A' for Active; 'I' for Inactive)
REMARK    1  A    between atoms: C2_2  and  C3_3 
REMARK    2  A    between atoms: C3_3  and  C4_4 
REMARK    3  A    between atoms: C7_7  and  C8_8 
REMARK    4  A    between atoms: C11_12  and  O2_13 
REMARK    5  A    between atoms: C18_22  and  C19_23 
REMARK    6  A    between atoms: C19_23  and  O3_24 
ROOT
HETATM    1  C4  UNL     1      -0.098   1.112  -0.529  1.00  0.00     0.009 C 
HETATM    2  C5  UNL     1       1.044   0.268  -1.070  1.00  0.00     0.026 C 
HETATM    3  C6  UNL     1       2.425   0.875  -0.897  1.00  0.00     0.015 C 
HETATM    4  C7  UNL     1       3.013   0.150   0.304  1.00  0.00     0.020 C 
HETATM    5  C10 UNL     1       2.295  -1.176   0.394  1.00  0.00     0.045 C 
HETATM    6  C11 UNL     1       1.226  -1.145  -0.683  1.00  0.00     0.067 C 
HETATM    7  C12 UNL     1       0.003  -1.903  -0.391  1.00  0.00     0.032 A 
HETATM    8  C13 UNL     1      -0.820  -2.249   0.727  1.00  0.00     0.027 A 
HETATM    9  C14 UNL     1      -2.340  -2.141   0.750  1.00  0.00     0.278 C 
HETATM   10  N1  UNL     1      -2.845  -0.927   1.185  1.00  0.00     0.094 N 
HETATM   11  C15 UNL     1      -4.173  -0.554   1.024  1.00  0.00     0.275 C 
HETATM   12  C16 UNL     1      -3.741   0.451  -0.023  1.00  0.00     0.067 C 
HETATM   13  C17 UNL     1      -2.377   0.331   0.564  1.00  0.00     0.236 C 
HETATM   14  C18 UNL     1      -1.200   0.082  -0.229  1.00  0.00     0.021 C 
HETATM   15  C20 UNL     1      -0.449  -0.881   0.574  1.00  0.00     0.012 A 
ENDROOT
BRANCH   1  16
HETATM   16  C3  UNL     1       0.327   1.922   0.653  1.00  0.00     0.032 C 
BRANCH  16  17
HETATM   17  C2  UNL     1      -0.618   2.944   1.152  1.00  0.00    -0.036 C 
HETATM   18  C1  UNL     1      -1.553   3.533   0.449  1.00  0.00     0.007 C 
ENDBRANCH  16  17
ENDBRANCH   1  16
BRANCH  14  19
HETATM   19  C19 UNL     1      -1.632  -0.290  -1.608  1.00  0.00     0.176 C 
BRANCH  19  20
HETATM   20  O3  UNL     1      -2.088   0.927  -2.193  1.00  0.00    -0.400 OA
ATOM     21  H3  UNL     1      -2.363   0.690  -3.071  1.00  0.00     0.209 HD
ENDBRANCH  19  20
ENDBRANCH  14  19
BRANCH   6  22
HETATM   22  O2  UNL     1       1.861  -1.772  -1.794  1.00  0.00    -0.389 OA
ATOM     23  H2  UNL     1       1.978  -2.681  -1.545  1.00  0.00     0.210 HD
ENDBRANCH   6  22
BRANCH   4  24
HETATM   24  C8  UNL     1       4.497  -0.064   0.149  1.00  0.00     0.149 A 
HETATM   25  C9  UNL     1       5.326  -0.714   1.107  1.00  0.00     0.200 A 
HETATM   26  O1  UNL     1       4.965  -1.386  -0.060  1.00  0.00    -0.381 OA
ENDBRANCH   4  24
TORSDOF 6
