REMARK  4 active torsions:
REMARK  status: ('A' for Active; 'I' for Inactive)
REMARK       I    between atoms: N1_2  and  C2_3 
REMARK    1  A    between atoms: N1_2  and  C9_18 
REMARK       I    between atoms: C2_3  and  N2_5 
REMARK       I    between atoms: N2_5  and  C3_7 
REMARK    2  A    between atoms: C3_7  and  C4_9 
REMARK    3  A    between atoms: C4_9  and  N3_11 
REMARK    4  A    between atoms: C7_14  and  C8_15 
ROOT
HETATM    1  C1  UNL     1      -3.852  -2.561   0.320  1.00  0.00     0.161 C 
HETATM    2  N1  UNL     1      -2.851  -1.508   0.282  1.00  0.00    -0.304 N 
HETATM    3  C2  UNL     1      -1.469  -1.823   0.239  1.00  0.00     0.329 C 
HETATM    4  O1  UNL     1      -1.143  -3.041   0.225  1.00  0.00    -0.246 OA
HETATM    5  N2  UNL     1      -0.501  -0.784   0.211  1.00  0.00    -0.273 N 
ATOM      6  H2  UNL     1      -0.812   0.187   0.223  1.00  0.00     0.173 HD
HETATM    7  C3  UNL     1       0.903  -1.068   0.166  1.00  0.00     0.287 C 
HETATM    8  O2  UNL     1       1.234  -2.261   0.148  1.00  0.00    -0.265 OA
ENDROOT
BRANCH   7   9
HETATM    9  C4  UNL     1       1.841   0.061   0.145  1.00  0.00     0.168 C 
HETATM   10  S1  UNL     1       1.252   1.579   0.177  1.00  0.00    -0.054 SA
BRANCH   9  11
HETATM   11  N3  UNL     1       3.250  -0.133   0.114  1.00  0.00    -0.353 N 
HETATM   12  C5  UNL     1       4.032  -1.354   0.104  1.00  0.00     0.127 C 
HETATM   13  C6  UNL     1       5.104  -0.611  -0.637  1.00  0.00     0.056 C 
HETATM   14  C7  UNL     1       4.479   0.596   0.095  1.00  0.00     0.188 C 
BRANCH  14  15
HETATM   15  C8  UNL     1       4.592   1.833  -0.663  1.00  0.00     0.196 C 
HETATM   16  O3  UNL     1       5.666   2.516  -0.526  1.00  0.00    -0.646 OA
HETATM   17  O4  UNL     1       3.663   2.350  -1.520  1.00  0.00    -0.646 OA
ENDBRANCH  14  15
ENDBRANCH   9  11
ENDBRANCH   7   9
BRANCH   2  18
HETATM   18  C9  UNL     1      -3.251  -0.121   0.289  1.00  0.00     0.038 A 
HETATM   19  C10 UNL     1      -3.529   0.554   1.434  1.00  0.00     0.030 A 
HETATM   20  C11 UNL     1      -3.909   1.895   1.369  1.00  0.00     0.002 A 
HETATM   21  C12 UNL     1      -4.008   2.551   0.166  1.00  0.00     0.000 A 
HETATM   22  C13 UNL     1      -3.725   1.861  -0.990  1.00  0.00     0.002 A 
HETATM   23  C14 UNL     1      -3.343   0.517  -0.931  1.00  0.00     0.030 A 
ENDBRANCH   2  18
TORSDOF 4
