REMARK  3 active torsions:
REMARK  status: ('A' for Active; 'I' for Inactive)
REMARK    1  A    between atoms: C6_6  and  N1_7 
REMARK       I    between atoms: N1_7  and  C7_9 
REMARK    2  A    between atoms: C7_9  and  C8_11 
REMARK       I    between atoms: C8_11  and  N2_13 
REMARK    3  A    between atoms: C14_19  and  C15_20 
ROOT
HETATM    1  N1  UNL     1       1.084   0.965   0.616  1.00  0.00    -0.343 N 
ATOM      2  H1  UNL     1       0.733   1.657   1.278  1.00  0.00     0.163 HD
HETATM    3  C7  UNL     1       0.167   0.354  -0.291  1.00  0.00     0.310 C 
HETATM    4  O1  UNL     1       0.647  -0.483  -1.077  1.00  0.00    -0.262 OA
ENDROOT
BRANCH   3   5
HETATM    5  C8  UNL     1      -1.237   0.686  -0.299  1.00  0.00     0.312 C 
HETATM    6  O2  UNL     1      -1.583   1.555   0.601  1.00  0.00    -0.262 OA
HETATM    7  N2  UNL     1      -2.275   0.232  -1.105  1.00  0.00    -0.331 N 
HETATM    8  C9  UNL     1      -1.971  -0.750  -2.119  1.00  0.00     0.127 C 
HETATM    9  C14 UNL     1      -3.628   0.716  -0.871  1.00  0.00     0.176 C 
HETATM   10  C10 UNL     1      -2.220  -2.128  -1.545  1.00  0.00     0.020 C 
HETATM   11  C11 UNL     1      -2.842  -2.112  -0.172  1.00  0.00     0.002 C 
HETATM   12  C12 UNL     1      -4.189  -1.499  -0.073  1.00  0.00     0.002 C 
HETATM   13  C13 UNL     1      -4.153  -0.030   0.349  1.00  0.00     0.035 C 
BRANCH   9  14
HETATM   14  C15 UNL     1      -3.829   2.141  -0.892  1.00  0.00     0.254 C 
HETATM   15  N3  UNL     1      -2.867   3.010  -1.503  1.00  0.00    -0.060 NA
HETATM   16  O3  UNL     1      -4.858   2.711  -0.384  1.00  0.00    -0.275 OA
ENDBRANCH   9  14
ENDBRANCH   3   5
BRANCH   1  17
HETATM   17  C6  UNL     1       2.439   0.651   0.630  1.00  0.00     0.037 C 
HETATM   18  C2  UNL     1       2.795  -0.803   0.903  1.00  0.00     0.014 C 
HETATM   19  C1  UNL     1       2.360  -1.277   2.240  1.00  0.00     0.012 C 
HETATM   20  C3  UNL     1       4.308  -0.621   0.801  1.00  0.00    -0.008 C 
HETATM   21  C4  UNL     1       4.386  -0.098  -0.633  1.00  0.00     0.007 C 
HETATM   22  C17 UNL     1       4.531   0.544   1.705  1.00  0.00     0.007 C 
HETATM   23  C5  UNL     1       3.227   0.907  -0.633  1.00  0.00     0.032 C 
HETATM   24  C16 UNL     1       3.225   1.317   1.747  1.00  0.00     0.032 C 
ENDBRANCH   1  17
TORSDOF 3
