REMARK  10 active torsions:
REMARK  status: ('A' for Active; 'I' for Inactive)
REMARK    1  A    between atoms: C1_4  and  N2_5 
REMARK    2  A    between atoms: N2_5  and  C2_7 
REMARK    3  A    between atoms: C2_7  and  C3_8 
REMARK    4  A    between atoms: C3_8  and  C4_9 
REMARK    5  A    between atoms: C4_9  and  C5_10 
REMARK    6  A    between atoms: C5_10  and  C6_11 
REMARK    7  A    between atoms: C6_11  and  C7_12 
REMARK    8  A    between atoms: C7_12  and  C8_13 
REMARK    9  A    between atoms: C8_13  and  C9_14 
REMARK   10  A    between atoms: C10_15  and  C11_16 
ROOT
HETATM    1  C4  UNL     1       2.264   0.081  -0.611  1.00  0.00     0.002 C 
ENDROOT
BRANCH   1   2
HETATM    2  C3  UNL     1       3.022   1.165   0.131  1.00  0.00     0.020 C 
BRANCH   2   3
HETATM    3  C2  UNL     1       3.915   0.515   1.163  1.00  0.00     0.120 C 
BRANCH   3   4
HETATM    4  N2  UNL     1       4.637   1.592   1.860  1.00  0.00    -0.387 N 
ATOM      5  H2  UNL     1       5.644   1.719   1.756  1.00  0.00     0.160 HD
BRANCH   4   6
HETATM    6  C1  UNL     1       3.866   2.432   2.673  1.00  0.00     0.168 C 
HETATM    7  N1  UNL     1       3.478   3.590   2.239  1.00  0.00    -0.396 N 
ATOM      8  H12 UNL     1       3.744   3.876   1.297  1.00  0.00     0.156 HD
ATOM      9  H11 UNL     1       2.916   4.202   2.831  1.00  0.00     0.156 HD
ENDBRANCH   4   6
ENDBRANCH   3   4
ENDBRANCH   2   3
ENDBRANCH   1   2
BRANCH   1  10
HETATM   10  C5  UNL     1       1.412  -0.741   0.285  1.00  0.00     0.000 C 
BRANCH  10  11
HETATM   11  C6  UNL     1       0.694  -1.794  -0.515  1.00  0.00     0.000 C 
BRANCH  11  12
HETATM   12  C7  UNL     1      -0.172  -1.180  -1.550  1.00  0.00     0.004 C 
BRANCH  12  13
HETATM   13  C8  UNL     1      -1.181  -0.284  -0.854  1.00  0.00     0.027 C 
BRANCH  13  14
HETATM   14  C9  UNL     1      -2.086   0.353  -1.826  1.00  0.00    -0.030 C 
HETATM   15  C10 UNL     1      -3.386   0.161  -1.789  1.00  0.00    -0.026 C 
BRANCH  15  16
HETATM   16  C11 UNL     1      -4.036  -0.708  -0.772  1.00  0.00     0.008 A 
HETATM   17  C12 UNL     1      -5.510  -0.962  -1.006  1.00  0.00     0.009 A 
HETATM   18  C13 UNL     1      -5.032  -0.184   0.177  1.00  0.00     0.009 A 
ENDBRANCH  15  16
ENDBRANCH  13  14
ENDBRANCH  12  13
ENDBRANCH  11  12
ENDBRANCH  10  11
ENDBRANCH   1  10
TORSDOF 10
