REMARK  10 active torsions:
REMARK  status: ('A' for Active; 'I' for Inactive)
REMARK    1  A    between atoms: N1_1  and  C1_5 
REMARK    2  A    between atoms: C1_5  and  C2_6 
REMARK    3  A    between atoms: C2_6  and  C3_7 
REMARK    4  A    between atoms: C3_7  and  C4_8 
REMARK    5  A    between atoms: C4_8  and  C5_9 
REMARK    6  A    between atoms: C6_10  and  C7_11 
REMARK    7  A    between atoms: C7_11  and  C8_12 
REMARK    8  A    between atoms: C8_12  and  C9_13 
REMARK    9  A    between atoms: C9_13  and  C10_14 
REMARK   10  A    between atoms: C10_14  and  C11_15 
ROOT
HETATM    1  C5  UNL     1      -1.536   1.177  -0.833  1.00  0.00    -0.031 C 
HETATM    2  C6  UNL     1      -0.440   0.516  -1.042  1.00  0.00    -0.031 C 
ENDROOT
BRANCH   1   3
HETATM    3  C4  UNL     1      -2.245   1.260   0.446  1.00  0.00     0.027 C 
BRANCH   3   4
HETATM    4  C3  UNL     1      -3.663   0.699   0.321  1.00  0.00     0.005 C 
BRANCH   4   5
HETATM    5  C2  UNL     1      -3.532  -0.736  -0.102  1.00  0.00     0.027 C 
BRANCH   5   6
HETATM    6  C1  UNL     1      -4.869  -1.410  -0.262  1.00  0.00     0.229 C 
BRANCH   6   7
HETATM    7  N1  UNL     1      -5.652  -1.429   0.938  1.00  0.00    -0.079 N 
ATOM      8  H13 UNL     1      -5.126  -1.850   1.704  1.00  0.00     0.274 HD
ATOM      9  H12 UNL     1      -5.767  -0.485   1.308  1.00  0.00     0.274 HD
ATOM     10  H11 UNL     1      -6.558  -1.886   0.830  1.00  0.00     0.274 HD
ENDBRANCH   6   7
ENDBRANCH   5   6
ENDBRANCH   4   5
ENDBRANCH   3   4
ENDBRANCH   1   3
BRANCH   2  11
HETATM   11  C7  UNL     1       0.275  -0.259  -0.045  1.00  0.00     0.027 C 
BRANCH  11  12
HETATM   12  C8  UNL     1       1.708   0.246   0.184  1.00  0.00     0.004 C 
BRANCH  12  13
HETATM   13  C9  UNL     1       2.516   0.190  -1.043  1.00  0.00     0.001 C 
BRANCH  13  14
HETATM   14  C10 UNL     1       3.879   0.710  -0.979  1.00  0.00     0.004 C 
BRANCH  14  15
HETATM   15  C11 UNL     1       4.916   0.158  -0.103  1.00  0.00    -0.014 A 
HETATM   16  C12 UNL     1       4.742   0.173   1.398  1.00  0.00     0.005 A 
HETATM   17  C13 UNL     1       4.791  -1.104   0.676  1.00  0.00     0.005 A 
ENDBRANCH  14  15
ENDBRANCH  13  14
ENDBRANCH  12  13
ENDBRANCH  11  12
ENDBRANCH   2  11
TORSDOF 10
