REMARK  5 active torsions:
REMARK  status: ('A' for Active; 'I' for Inactive)
REMARK    1  A    between atoms: N1_1  and  C1_5 
REMARK    2  A    between atoms: C4_8  and  N2_9 
REMARK    3  A    between atoms: N2_9  and  C5_11 
REMARK    4  A    between atoms: C5_11  and  C6_12 
REMARK    5  A    between atoms: C6_12  and  N3_13 
ROOT
HETATM    1  N2  UNL     1      -0.026   0.312   0.760  1.00  0.00    -0.412 N 
ATOM      2  H2  UNL     1      -0.531   0.998   1.321  1.00  0.00     0.153 HD
ENDROOT
BRANCH   1   3
HETATM    3  C4  UNL     1       1.384   0.253   0.739  1.00  0.00     0.107 C 
HETATM    4  C1  UNL     1       2.037   0.525  -0.627  1.00  0.00     0.205 C 
HETATM    5  C2  UNL     1       3.163  -0.356  -0.123  1.00  0.00     0.037 C 
HETATM    6  C3  UNL     1       2.070  -1.075   0.687  1.00  0.00     0.029 C 
BRANCH   4   7
HETATM    7  N1  UNL     1       2.300   1.919  -0.752  1.00  0.00    -0.073 N 
ATOM      8  H13 UNL     1       2.638   2.280   0.140  1.00  0.00     0.274 HD
ATOM      9  H12 UNL     1       3.124   2.056  -1.338  1.00  0.00     0.274 HD
ATOM     10  H11 UNL     1       1.542   2.512  -1.091  1.00  0.00     0.274 HD
ENDBRANCH   4   7
ENDBRANCH   1   3
BRANCH   1  11
HETATM   11  C5  UNL     1      -0.701  -0.647  -0.052  1.00  0.00     0.152 C 
BRANCH  11  12
HETATM   12  C6  UNL     1      -2.202  -0.386   0.115  1.00  0.00     0.112 A 
HETATM   13  C7  UNL     1      -2.819   0.734  -0.634  1.00  0.00     0.042 A 
HETATM   14  C8  UNL     1      -3.106  -0.699  -1.029  1.00  0.00     0.042 A 
BRANCH  12  15
HETATM   15  N3  UNL     1      -2.634  -0.522   1.481  1.00  0.00    -0.143 N 
HETATM   16  O1  UNL     1      -3.494  -1.363   1.765  1.00  0.00    -0.536 OA
HETATM   17  O2  UNL     1      -2.099   0.272   2.450  1.00  0.00    -0.536 OA
ENDBRANCH  12  15
ENDBRANCH  11  12
ENDBRANCH   1  11
TORSDOF 5
