REMARK  4 active torsions:
REMARK  status: ('A' for Active; 'I' for Inactive)
REMARK    1  A    between atoms: N1_1  and  C1_5 
REMARK    2  A    between atoms: C1_5  and  C2_6 
REMARK    3  A    between atoms: C1_5  and  C3_8 
REMARK       I    between atoms: C3_8  and  N2_10 
REMARK    4  A    between atoms: N2_10  and  C4_12 
ROOT
HETATM    1  C3  UNL     1       0.827  -0.777   0.475  1.00  0.00     0.249 C 
HETATM    2  O1  UNL     1       0.481  -1.001   1.692  1.00  0.00    -0.271 OA
HETATM    3  N2  UNL     1      -0.140  -0.299  -0.456  1.00  0.00    -0.353 N 
ATOM      4  H2  UNL     1       0.108  -0.118  -1.429  1.00  0.00     0.163 HD
ENDROOT
BRANCH   1   5
HETATM    5  C1  UNL     1       2.247  -1.047   0.140  1.00  0.00     0.284 C 
BRANCH   5   6
HETATM    6  N1  UNL     1       2.808  -1.840   1.260  1.00  0.00    -0.066 N 
ATOM      7  H13 UNL     1       3.814  -1.990   1.180  1.00  0.00     0.275 HD
ATOM      8  H12 UNL     1       2.822  -1.331   2.144  1.00  0.00     0.275 HD
ATOM      9  H11 UNL     1       2.276  -2.709   1.307  1.00  0.00     0.275 HD
ENDBRANCH   5   6
BRANCH   5  10
HETATM   10  C2  UNL     1       3.044   0.256   0.069  1.00  0.00     0.128 C 
HETATM   11  S1  UNL     1       2.406   1.252  -1.288  1.00  0.00    -0.095 SA
ENDBRANCH   5  10
ENDBRANCH   1   5
BRANCH   3  12
HETATM   12  C4  UNL     1      -1.475  -0.082   0.024  1.00  0.00     0.110 C 
HETATM   13  C5  UNL     1      -1.926   1.366  -0.149  1.00  0.00     0.053 C 
HETATM   14  C6  UNL     1      -3.432   1.134  -0.091  1.00  0.00     0.169 C 
HETATM   15  O2  UNL     1      -3.661  -0.034  -0.789  1.00  0.00    -0.389 OA
HETATM   16  C7  UNL     1      -2.530  -0.805  -0.743  1.00  0.00     0.192 C 
ENDBRANCH   3  12
TORSDOF 4
