REMARK  5 active torsions:
REMARK  status: ('A' for Active; 'I' for Inactive)
REMARK    1  A    between atoms: N1_1  and  C1_5 
REMARK    2  A    between atoms: C1_5  and  C2_6 
REMARK    3  A    between atoms: C1_5  and  C3_8 
REMARK    4  A    between atoms: C3_8  and  C4_10 
REMARK    5  A    between atoms: C4_10  and  C5_11 
ROOT
HETATM    1  C3  UNL     1       1.213  -0.425   0.631  1.00  0.00     0.166 C 
HETATM    2  O2  UNL     1       1.059  -1.399   1.345  1.00  0.00    -0.295 OA
ENDROOT
BRANCH   1   3
HETATM    3  C1  UNL     1       2.472  -0.233  -0.156  1.00  0.00     0.313 C 
BRANCH   3   4
HETATM    4  N1  UNL     1       3.397  -1.322   0.053  1.00  0.00    -0.062 N 
ATOM      5  H13 UNL     1       4.287  -1.160  -0.419  1.00  0.00     0.275 HD
ATOM      6  H12 UNL     1       3.738  -1.352   1.014  1.00  0.00     0.275 HD
ATOM      7  H11 UNL     1       2.974  -2.207  -0.227  1.00  0.00     0.275 HD
ENDBRANCH   3   4
BRANCH   3   8
HETATM    8  C2  UNL     1       3.091   1.061   0.254  1.00  0.00     0.271 C 
HETATM    9  O1  UNL     1       4.213   1.057   0.687  1.00  0.00    -0.304 OA
ENDBRANCH   3   8
ENDBRANCH   1   3
BRANCH   1  10
HETATM   10  C4  UNL     1       0.137   0.598   0.530  1.00  0.00     0.106 C 
BRANCH  10  11
HETATM   11  C5  UNL     1      -0.881   0.131  -0.457  1.00  0.00     0.091 C 
HETATM   12  C6  UNL     1      -2.018   1.094  -0.638  1.00  0.00     0.035 C 
HETATM   13  C7  UNL     1      -3.230   0.486   0.032  1.00  0.00     0.105 C 
HETATM   14  C8  UNL     1      -2.949  -0.965  -0.115  1.00  0.00     0.217 C 
HETATM   15  O3  UNL     1      -3.785  -1.911  -0.271  1.00  0.00    -0.274 OA
HETATM   16  N2  UNL     1      -1.532  -1.090  -0.046  1.00  0.00    -0.356 N 
ATOM     17  H2  UNL     1      -1.041  -1.932   0.255  1.00  0.00     0.162 HD
ENDBRANCH  10  11
ENDBRANCH   1  10
TORSDOF 5
