REMARK  4 active torsions:
REMARK  status: ('A' for Active; 'I' for Inactive)
REMARK    1  A    between atoms: C1_2  and  N1_3 
REMARK    2  A    between atoms: N1_3  and  C2_5 
REMARK    3  A    between atoms: C2_5  and  C3_6 
REMARK    4  A    between atoms: C2_5  and  C4_9 
ROOT
HETATM    1  C4  UNL     1      -0.261  -0.138   0.294  1.00  0.00     0.117 C 
HETATM    2  C5  UNL     1      -0.780   1.197  -0.181  1.00  0.00     0.047 C 
HETATM    3  C6  UNL     1      -2.279   1.200   0.152  1.00  0.00     0.122 C 
HETATM    4  N2  UNL     1      -2.848  -0.050  -0.330  1.00  0.00    -0.386 N 
ATOM      5  H2  UNL     1      -3.860  -0.172  -0.299  1.00  0.00     0.160 HD
HETATM    6  C7  UNL     1      -2.050  -1.107  -0.842  1.00  0.00     0.171 C 
HETATM    7  N3  UNL     1      -0.794  -1.168  -0.552  1.00  0.00    -0.379 N 
ATOM      8  H3  UNL     1      -0.203  -1.919  -0.910  1.00  0.00     0.160 HD
ENDROOT
BRANCH   1   9
HETATM    9  C2  UNL     1       1.233  -0.184   0.415  1.00  0.00     0.207 C 
BRANCH   9  10
HETATM   10  N1  UNL     1       1.930   0.066  -0.806  1.00  0.00    -0.352 N 
ATOM     11  H1  UNL     1       1.748  -0.579  -1.575  1.00  0.00     0.162 HD
BRANCH  10  12
HETATM   12  C1  UNL     1       2.829   1.093  -1.057  1.00  0.00     0.349 C 
HETATM   13  O1  UNL     1       3.108   1.927  -0.169  1.00  0.00    -0.284 OA
ENDBRANCH  10  12
ENDBRANCH   9  10
BRANCH   9  14
HETATM   14  C3  UNL     1       1.588  -1.536   0.904  1.00  0.00     0.198 C 
HETATM   15  O2  UNL     1       2.392  -2.217   0.223  1.00  0.00    -0.646 OA
HETATM   16  O3  UNL     1       1.035  -2.035   2.097  1.00  0.00    -0.646 OA
ENDBRANCH   9  14
ENDBRANCH   1   9
TORSDOF 4
