REMARK  6 active torsions:
REMARK  status: ('A' for Active; 'I' for Inactive)
REMARK    1  A    between atoms: C2_2  and  N1_3 
REMARK    2  A    between atoms: N1_3  and  N2_5 
REMARK       I    between atoms: N2_5  and  C3_7 
REMARK    3  A    between atoms: C3_7  and  C4_9 
REMARK    4  A    between atoms: C4_9  and  N3_10 
REMARK    5  A    between atoms: C4_9  and  C5_14 
REMARK    6  A    between atoms: C5_14  and  C6_15 
ROOT
HETATM    1  C4  UNL     1      -0.366  -1.247  -0.002  1.00  0.00     0.282 C 
ENDROOT
BRANCH   1   2
HETATM    2  C3  UNL     1       0.579  -0.350   0.711  1.00  0.00     0.267 C 
HETATM    3  N2  UNL     1       1.990  -0.540   0.649  1.00  0.00    -0.262 N 
ATOM      4  H2  UNL     1       2.394  -1.305   0.108  1.00  0.00     0.190 HD
HETATM    5  O1  UNL     1       0.126   0.590   1.378  1.00  0.00    -0.269 OA
BRANCH   3   6
HETATM    6  N1  UNL     1       2.800   0.348   1.348  1.00  0.00    -0.267 N 
ATOM      7  H1  UNL     1       2.441   0.817   2.180  1.00  0.00     0.196 HD
BRANCH   6   8
HETATM    8  C2  UNL     1       4.003   0.580   0.948  1.00  0.00    -0.059 C 
HETATM    9  C1  UNL     1       5.174   0.500   0.375  1.00  0.00     0.124 C 
ENDBRANCH   6   8
ENDBRANCH   3   6
ENDBRANCH   1   2
BRANCH   1  10
HETATM   10  N3  UNL     1       0.401  -2.354  -0.602  1.00  0.00    -0.066 N 
ATOM     11  H33 UNL     1       1.157  -2.026  -1.202  1.00  0.00     0.275 HD
ATOM     12  H32 UNL     1       0.971  -2.851   0.082  1.00  0.00     0.275 HD
ATOM     13  H31 UNL     1      -0.248  -2.970  -1.092  1.00  0.00     0.275 HD
ENDBRANCH   1  10
BRANCH   1  14
HETATM   14  C5  UNL     1      -1.129  -0.539  -1.092  1.00  0.00     0.101 C 
BRANCH  14  15
HETATM   15  C6  UNL     1      -1.956   0.584  -0.658  1.00  0.00     0.028 A 
HETATM   16  C7  UNL     1      -3.276   0.497  -0.234  1.00  0.00     0.114 A 
HETATM   17  N4  UNL     1      -3.705   1.728   0.065  1.00  0.00    -0.360 N 
HETATM   18  C8  UNL     1      -2.702   2.582  -0.157  1.00  0.00     0.180 A 
ATOM     19  H4  UNL     1      -4.636   1.972   0.404  1.00  0.00     0.166 HD
HETATM   20  N5  UNL     1      -1.641   1.890  -0.596  1.00  0.00    -0.355 N 
ATOM     21  H5  UNL     1      -0.737   2.291  -0.844  1.00  0.00     0.166 HD
ENDBRANCH  14  15
ENDBRANCH   1  14
TORSDOF 6
