REMARK  5 active torsions:
REMARK  status: ('A' for Active; 'I' for Inactive)
REMARK    1  A    between atoms: N1_1  and  C1_5 
REMARK    2  A    between atoms: C1_5  and  N2_6 
REMARK    3  A    between atoms: C1_5  and  C2_10 
REMARK       I    between atoms: C2_10  and  N3_12 
REMARK    4  A    between atoms: N3_12  and  C3_14 
REMARK    5  A    between atoms: C3_14  and  C4_15 
ROOT
HETATM    1  C2  UNL     1      -1.424   0.652  -0.462  1.00  0.00     0.276 C 
HETATM    2  O1  UNL     1      -0.831   1.753  -0.446  1.00  0.00    -0.269 OA
HETATM    3  N3  UNL     1      -0.810  -0.448  -1.079  1.00  0.00    -0.353 N 
ATOM      4  H3  UNL     1      -1.286  -1.350  -1.097  1.00  0.00     0.162 HD
ENDROOT
BRANCH   1   5
HETATM    5  C1  UNL     1      -2.748   0.486   0.151  1.00  0.00     0.468 C 
BRANCH   5   6
HETATM    6  N1  UNL     1      -3.181  -0.880  -0.019  1.00  0.00    -0.042 N 
ATOM      7  H13 UNL     1      -2.634  -1.522   0.554  1.00  0.00     0.277 HD
ATOM      8  H12 UNL     1      -4.097  -1.039   0.401  1.00  0.00     0.277 HD
ATOM      9  H11 UNL     1      -3.166  -1.148  -1.003  1.00  0.00     0.277 HD
ENDBRANCH   5   6
BRANCH   5  10
HETATM   10  N2  UNL     1      -2.769   0.867   1.550  1.00  0.00    -0.042 N 
ATOM     11  H23 UNL     1      -3.685   0.708   1.970  1.00  0.00     0.277 HD
ATOM     12  H22 UNL     1      -2.222   0.225   2.123  1.00  0.00     0.277 HD
ATOM     13  H21 UNL     1      -2.463   1.833   1.670  1.00  0.00     0.277 HD
ENDBRANCH   5  10
ENDBRANCH   1   5
BRANCH   3  14
HETATM   14  C3  UNL     1       0.492  -0.312  -1.689  1.00  0.00     0.162 C 
BRANCH  14  15
HETATM   15  C4  UNL     1       1.507  -0.297  -0.585  1.00  0.00    -0.025 A 
HETATM   16  C5  UNL     1       2.194   0.849  -0.248  1.00  0.00     0.011 A 
HETATM   17  C6  UNL     1       3.116   0.762   0.798  1.00  0.00     0.018 A 
HETATM   18  C7  UNL     1       3.348  -0.414   1.483  1.00  0.00     0.087 A 
HETATM   19  N4  UNL     1       2.657  -1.510   1.124  1.00  0.00    -0.375 N 
HETATM   20  C8  UNL     1       1.761  -1.448   0.115  1.00  0.00     0.096 A 
ATOM     21  H4  UNL     1       2.810  -2.391   1.615  1.00  0.00     0.164 HD
ENDBRANCH  14  15
ENDBRANCH   3  14
TORSDOF 5
