REMARK  4 active torsions:
REMARK  status: ('A' for Active; 'I' for Inactive)
REMARK    1  A    between atoms: C1_2  and  C2_4 
REMARK    2  A    between atoms: C2_4  and  N1_5 
REMARK    3  A    between atoms: C2_4  and  C5_15 
REMARK    4  A    between atoms: C3_7  and  C4_8 
ROOT
HETATM    1  N1  UNL     1       0.605  -0.019   0.180  1.00  0.00    -0.381 N 
ATOM      2  H1  UNL     1       0.969   0.180  -0.752  1.00  0.00     0.160 HD
HETATM    3  C3  UNL     1       1.453  -0.378   1.047  1.00  0.00     0.135 C 
ENDROOT
BRANCH   1   4
HETATM    4  C2  UNL     1      -0.801   0.140   0.355  1.00  0.00     0.186 C 
BRANCH   4   5
HETATM    5  C1  UNL     1      -1.389  -1.081   1.003  1.00  0.00     0.197 C 
HETATM    6  O1  UNL     1      -0.665  -2.059   1.313  1.00  0.00    -0.646 OA
HETATM    7  O2  UNL     1      -2.741  -1.172   1.280  1.00  0.00    -0.646 OA
ENDBRANCH   4   5
BRANCH   4   8
HETATM    8  C5  UNL     1      -1.410   0.362  -1.013  1.00  0.00     0.019 A 
HETATM    9  C6  UNL     1      -2.867   0.578  -1.166  1.00  0.00     0.007 A 
HETATM   10  C7  UNL     1      -1.930   1.761  -1.251  1.00  0.00     0.007 A 
ENDBRANCH   4   8
ENDBRANCH   1   4
BRANCH   3  11
HETATM   11  C4  UNL     1       2.858  -0.481   0.667  1.00  0.00     0.152 A 
HETATM   12  N2  UNL     1       4.034  -0.811   1.247  1.00  0.00    -0.269 N 
HETATM   13  N3  UNL     1       4.704  -0.608   0.135  1.00  0.00    -0.239 N 
ATOM     14  H2  UNL     1       4.299  -1.105   2.187  1.00  0.00     0.190 HD
HETATM   15  N4  UNL     1       3.586  -0.284  -0.454  1.00  0.00    -0.269 N 
ATOM     16  H3  UNL     1       5.682  -0.675  -0.147  1.00  0.00     0.208 HD
ATOM     17  H4  UNL     1       3.350   0.008  -1.403  1.00  0.00     0.190 HD
ENDBRANCH   3  11
TORSDOF 4
