REMARK  4 active torsions:
REMARK  status: ('A' for Active; 'I' for Inactive)
REMARK    1  A    between atoms: C2_2  and  N1_3 
REMARK       I    between atoms: N1_3  and  C3_5 
REMARK       I    between atoms: C3_5  and  N2_7 
REMARK    2  A    between atoms: N2_7  and  C4_9 
REMARK    3  A    between atoms: C13_18  and  C14_19 
REMARK    4  A    between atoms: C14_19  and  C15_20 
ROOT
HETATM    1  C4  UNL     1      -0.120  -0.043  -0.188  1.00  0.00     0.039 C 
HETATM    2  C5  UNL     1      -0.055  -1.548  -0.563  1.00  0.00     0.036 C 
HETATM    3  C6  UNL     1      -1.360  -2.100  -1.031  1.00  0.00    -0.011 C 
HETATM    4  C7  UNL     1      -1.670  -1.416  -2.348  1.00  0.00     0.009 C 
HETATM    5  C8  UNL     1      -1.720   0.072  -2.054  1.00  0.00    -0.011 C 
HETATM    6  C9  UNL     1      -2.868   0.282  -1.122  1.00  0.00     0.014 C 
HETATM    7  C10 UNL     1      -2.526  -0.361   0.240  1.00  0.00    -0.037 C 
HETATM    8  C11 UNL     1      -3.683  -0.111   1.156  1.00  0.00     0.015 C 
HETATM    9  C12 UNL     1      -2.361  -1.832   0.048  1.00  0.00     0.014 C 
HETATM   10  C13 UNL     1      -1.246   0.309   0.683  1.00  0.00     0.023 C 
HETATM   11  C16 UNL     1      -0.424   0.628  -1.544  1.00  0.00     0.036 C 
ENDROOT
BRANCH   1  12
HETATM   12  N2  UNL     1       1.208   0.195   0.289  1.00  0.00    -0.333 N 
HETATM   13  C3  UNL     1       2.412   0.167  -0.466  1.00  0.00     0.316 C 
HETATM   14  N1  UNL     1       3.671   0.439   0.193  1.00  0.00    -0.343 N 
HETATM   15  O1  UNL     1       2.509  -0.077  -1.686  1.00  0.00    -0.247 OA
ATOM     16  H1  UNL     1       3.686   0.648   1.191  1.00  0.00     0.164 HD
ATOM     17  H2  UNL     1       1.301   0.409   1.282  1.00  0.00     0.165 HD
BRANCH  14  18
HETATM   18  C2  UNL     1       4.899   0.417  -0.550  1.00  0.00     0.120 C 
HETATM   19  C1  UNL     1       6.080   0.725   0.320  1.00  0.00     0.026 C 
ENDBRANCH  14  18
ENDBRANCH   1  12
BRANCH  10  20
HETATM   20  C14 UNL     1      -1.140   0.647   2.106  1.00  0.00     0.023 C 
BRANCH  20  21
HETATM   21  C15 UNL     1      -0.422   1.901   2.501  1.00  0.00     0.115 C 
HETATM   22 CL1  UNL     1      -0.413   2.068   4.303  1.00  0.00    -0.130 Cl
ENDBRANCH  20  21
ENDBRANCH  10  20
TORSDOF 4
