REMARK  7 active torsions:
REMARK  status: ('A' for Active; 'I' for Inactive)
REMARK    1  A    between atoms: C2_2  and  C3_3 
REMARK    2  A    between atoms: C5_6  and  C6_7 
REMARK    3  A    between atoms: C6_7  and  C7_8 
REMARK    4  A    between atoms: C7_8  and  N1_9 
REMARK    5  A    between atoms: N1_9  and  C8_11 
REMARK    6  A    between atoms: C8_11  and  N2_13 
REMARK    7  A    between atoms: N2_13  and  C9_15 
ROOT
HETATM    1  N1  UNL     1      -0.185   1.068   0.112  1.00  0.00    -0.367 N 
ATOM      2  H1  UNL     1      -0.607   0.734   0.978  1.00  0.00     0.161 HD
ENDROOT
BRANCH   1   3
HETATM    3  C7  UNL     1       1.251   1.100   0.049  1.00  0.00     0.122 C 
BRANCH   3   4
HETATM    4  C6  UNL     1       1.782   0.049  -0.872  1.00  0.00     0.026 C 
BRANCH   4   5
HETATM    5  C5  UNL     1       3.280   0.010  -0.979  1.00  0.00     0.012 A 
HETATM    6  C3  UNL     1       4.180  -0.243   0.143  1.00  0.00     0.041 A 
HETATM    7 CL1  UNL     1       3.642  -0.727   1.750  1.00  0.00    -0.119 Cl
HETATM    8  C4  UNL     1       3.952  -1.329  -0.909  1.00  0.00     0.032 A 
BRANCH   6   9
HETATM    9  C2  UNL     1       5.586   0.361   0.089  1.00  0.00     0.021 C 
HETATM   10  C1  UNL     1       6.563  -0.684   0.608  1.00  0.00     0.007 C 
ENDBRANCH   6   9
ENDBRANCH   4   5
ENDBRANCH   3   4
ENDBRANCH   1   3
BRANCH   1  11
HETATM   11  C8  UNL     1      -1.051   1.456  -0.915  1.00  0.00     0.167 C 
HETATM   12  S1  UNL     1      -0.397   2.060  -2.308  1.00  0.00    -0.041 SA
BRANCH  11  13
HETATM   13  N2  UNL     1      -2.454   1.365  -0.773  1.00  0.00    -0.363 N 
ATOM     14  H2  UNL     1      -3.032   1.677  -1.553  1.00  0.00     0.162 HD
BRANCH  13  15
HETATM   15  C9  UNL     1      -3.128   0.858   0.408  1.00  0.00     0.083 C 
HETATM   16  C10 UNL     1      -4.596   1.144   0.212  1.00  0.00     0.025 C 
HETATM   17  C11 UNL     1      -5.278   0.095  -0.634  1.00  0.00     0.002 C 
HETATM   18  C12 UNL     1      -5.242  -1.161   0.155  1.00  0.00     0.000 C 
HETATM   19  C13 UNL     1      -3.863  -1.590   0.486  1.00  0.00     0.002 C 
HETATM   20  C14 UNL     1      -2.814  -0.579   0.624  1.00  0.00     0.025 C 
ENDBRANCH  13  15
ENDBRANCH  11  13
ENDBRANCH   1  11
TORSDOF 7
