REMARK  4 active torsions:
REMARK  status: ('A' for Active; 'I' for Inactive)
REMARK    1  A    between atoms: C4_9  and  C5_10 
REMARK    2  A    between atoms: C5_10  and  C6_11 
REMARK    3  A    between atoms: C12_18  and  C13_19 
REMARK    4  A    between atoms: C13_19  and  C14_20 
ROOT
HETATM    1  C1  UNL     1      -1.198  -2.376   1.652  1.00  0.00     0.032 C 
HETATM    2  C2  UNL     1      -2.195  -1.808   0.711  1.00  0.00     0.085 C 
HETATM    3  N1  UNL     1      -2.230  -2.423  -0.595  1.00  0.00    -0.363 N 
ATOM      4  H1  UNL     1      -3.026  -2.962  -0.935  1.00  0.00     0.162 HD
HETATM    5  C3  UNL     1      -1.042  -2.207  -1.371  1.00  0.00     0.168 C 
HETATM    6  S1  UNL     1      -0.716  -3.051  -2.737  1.00  0.00    -0.041 SA
HETATM    7  N2  UNL     1      -0.160  -1.212  -0.877  1.00  0.00    -0.362 N 
ATOM      8  H2  UNL     1       0.850  -1.323  -0.969  1.00  0.00     0.162 HD
HETATM    9  C4  UNL     1      -0.715  -0.038  -0.241  1.00  0.00     0.093 C 
HETATM   10  C12 UNL     1      -2.013  -0.282   0.492  1.00  0.00     0.031 C 
ENDROOT
BRANCH   9  11
HETATM   11  C5  UNL     1       0.342   0.565   0.671  1.00  0.00     0.053 C 
BRANCH  11  12
HETATM   12  C6  UNL     1       1.535   0.943  -0.128  1.00  0.00    -0.019 C 
HETATM   13  C7  UNL     1       2.740   0.446   0.081  1.00  0.00    -0.050 C 
HETATM   14  C8  UNL     1       4.005   0.767  -0.674  1.00  0.00     0.037 C 
HETATM   15  C11 UNL     1       3.162  -0.544   1.099  1.00  0.00     0.199 C 
HETATM   16  C9  UNL     1       5.007   0.887   0.438  1.00  0.00     0.007 C 
HETATM   17  C10 UNL     1       4.512  -0.012   1.550  1.00  0.00     0.042 C 
HETATM   18  F1  UNL     1       3.410  -1.740   0.436  1.00  0.00    -0.245 F 
ENDBRANCH  11  12
ENDBRANCH   9  11
BRANCH  10  19
HETATM   19  C13 UNL     1      -3.176   0.102  -0.342  1.00  0.00     0.013 C 
BRANCH  19  20
HETATM   20  C14 UNL     1      -3.395   1.494  -0.735  1.00  0.00    -0.014 A 
HETATM   21  C15 UNL     1      -3.594   2.434   0.504  1.00  0.00     0.005 A 
HETATM   22  C16 UNL     1      -2.582   2.679  -0.586  1.00  0.00     0.005 A 
ENDBRANCH  19  20
ENDBRANCH  10  19
TORSDOF 4
