REMARK  1 active torsions:
REMARK  status: ('A' for Active; 'I' for Inactive)
REMARK    1  A    between atoms: C4_4  and  C5_5 
ROOT
HETATM    1  C1  UNL     1       3.081   0.016  -0.146  1.00  0.00     0.017 C 
HETATM    2  C2  UNL     1       1.924  -0.175   0.150  1.00  0.00    -0.089 C 
HETATM    3  C3  UNL     1       0.542  -0.382   0.490  1.00  0.00     0.065 C 
HETATM    4  C4  UNL     1      -0.455   0.139  -0.186  1.00  0.00     0.025 C 
ENDROOT
BRANCH   4   5
HETATM    5  C5  UNL     1      -1.814  -0.122   0.228  1.00  0.00     0.081 C 
HETATM    6  N1  UNL     1      -2.823   0.367  -0.405  1.00  0.00    -0.408 N 
ATOM      7  H12 UNL     1      -2.640   0.953  -1.220  1.00  0.00     0.155 HD
ATOM      8  H11 UNL     1      -3.783   0.183  -0.113  1.00  0.00     0.155 HD
ENDBRANCH   4   5
TORSDOF 1
