REMARK  1 active torsions:
REMARK  status: ('A' for Active; 'I' for Inactive)
REMARK    1  A    between atoms: C2_2  and  C3_3 
ROOT
HETATM    1  C3  UNL     1      -0.145   0.342  -0.033  1.00  0.00     0.047 A 
HETATM    2  C4  UNL     1      -1.233   1.183  -0.143  1.00  0.00     0.118 A 
HETATM    3  N1  UNL     1      -2.321   0.402  -0.121  1.00  0.00    -0.360 N 
ATOM      4  H1  UNL     1      -3.279   0.747  -0.186  1.00  0.00     0.166 HD
HETATM    5  C5  UNL     1      -1.991  -0.883  -0.004  1.00  0.00     0.180 A 
HETATM    6  N2  UNL     1      -0.641  -0.906   0.049  1.00  0.00    -0.351 N 
ATOM      7  H2  UNL     1      -0.077  -1.751   0.139  1.00  0.00     0.166 HD
ENDROOT
BRANCH   1   8
HETATM    8  C2  UNL     1       1.259   0.737  -0.012  1.00  0.00     0.021 C 
HETATM    9  C1  UNL     1       2.199  -0.188   0.099  1.00  0.00     0.013 C 
ENDBRANCH   1   8
TORSDOF 1
