REMARK  2 active torsions:
REMARK  status: ('A' for Active; 'I' for Inactive)
REMARK    1  A    between atoms: C2_2  and  C3_3 
REMARK    2  A    between atoms: C5_5  and  N1_6 
ROOT
HETATM    1  C3  UNL     1       0.083   0.356   0.132  1.00  0.00     0.040 A 
HETATM    2  C4  UNL     1      -0.859   0.003   1.242  1.00  0.00     0.044 A 
HETATM    3  C5  UNL     1      -1.035  -0.655  -0.063  1.00  0.00     0.191 A 
ENDROOT
BRANCH   3   4
HETATM    4  N1  UNL     1      -2.117  -0.222  -0.931  1.00  0.00    -0.074 N 
ATOM      5  H13 UNL     1      -2.499   0.664  -0.600  1.00  0.00     0.274 HD
ATOM      6  H12 UNL     1      -1.746   0.069  -1.835  1.00  0.00     0.274 HD
ATOM      7  H11 UNL     1      -2.867  -0.900  -1.062  1.00  0.00     0.274 HD
ENDBRANCH   3   4
BRANCH   1   8
HETATM    8  C2  UNL     1       1.473  -0.168   0.247  1.00  0.00    -0.030 C 
HETATM    9  C1  UNL     1       2.390   0.199  -0.618  1.00  0.00     0.007 C 
ENDBRANCH   1   8
TORSDOF 2
