REMARK  9 active torsions:
REMARK  status: ('A' for Active; 'I' for Inactive)
REMARK    1  A    between atoms: C2_2  and  C4_4 
REMARK    2  A    between atoms: C11_12  and  O2_13 
REMARK    3  A    between atoms: C12_16  and  C13_17 
REMARK    4  A    between atoms: C13_17  and  O3_18 
REMARK    5  A    between atoms: C14_20  and  O4_21 
REMARK    6  A    between atoms: C15_23  and  C17_25 
REMARK    7  A    between atoms: C17_25  and  C18_26 
REMARK    8  A    between atoms: C18_26  and  C19_27 
REMARK    9  A    between atoms: C19_27  and  C20_28 
ROOT
HETATM    1  C4  UNL     1      -0.169  -2.114  -0.112  1.00  0.00     0.022 C 
HETATM    2  C5  UNL     1      -1.605  -2.446  -0.120  1.00  0.00     0.011 C 
HETATM    3  C6  UNL     1      -2.174  -1.399   0.752  1.00  0.00     0.018 C 
HETATM    4  C7  UNL     1      -1.312  -0.102   0.555  1.00  0.00     0.028 C 
HETATM    5  C8  UNL     1      -1.659   0.750   1.729  1.00  0.00     0.031 A 
HETATM    6  C9  UNL     1      -1.981   2.111   1.638  1.00  0.00     0.035 A 
HETATM    7  C10 UNL     1      -2.282   2.623   2.886  1.00  0.00     0.164 A 
HETATM    8  O1  UNL     1      -2.161   1.656   3.710  1.00  0.00    -0.299 OA
HETATM    9  C11 UNL     1      -1.798   0.531   3.083  1.00  0.00     0.191 A 
HETATM   10  S1  UNL     1      -2.052   3.044   0.122  1.00  0.00    -0.118 SA
HETATM   11  C12 UNL     1      -1.802   1.797  -1.168  1.00  0.00     0.106 C 
HETATM   12  C14 UNL     1      -2.032   0.481  -0.597  1.00  0.00     0.148 C 
HETATM   13  C15 UNL     1       0.023  -0.691   0.441  1.00  0.00    -0.022 C 
HETATM   14  C16 UNL     1       0.648  -0.917   1.837  1.00  0.00     0.017 C 
ENDROOT
BRANCH  12  15
HETATM   15  O4  UNL     1      -2.368  -0.371  -1.643  1.00  0.00    -0.393 OA
ATOM     16  H4  UNL     1      -2.831   0.004  -2.383  1.00  0.00     0.210 HD
ENDBRANCH  12  15
BRANCH  13  17
HETATM   17  C17 UNL     1       1.127  -0.044  -0.290  1.00  0.00     0.011 C 
BRANCH  17  18
HETATM   18  C18 UNL     1       1.554   1.340   0.122  1.00  0.00     0.001 C 
BRANCH  18  19
HETATM   19  C19 UNL     1       2.702   1.827  -0.788  1.00  0.00    -0.000 C 
BRANCH  19  20
HETATM   20  C20 UNL     1       3.905   0.952  -0.718  1.00  0.00    -0.005 C 
HETATM   21  C21 UNL     1       4.450   0.886   0.686  1.00  0.00     0.005 C 
ENDBRANCH  19  20
ENDBRANCH  18  19
ENDBRANCH  17  18
ENDBRANCH  13  17
BRANCH   9  22
HETATM   22  O2  UNL     1      -1.639  -0.583   3.848  1.00  0.00    -0.340 OA
ATOM     23  H2  UNL     1      -1.735  -0.734   4.781  1.00  0.00     0.220 HD
ENDBRANCH   9  22
BRANCH  11  24
HETATM   24  C13 UNL     1      -2.944   2.048  -2.176  1.00  0.00     0.182 C 
BRANCH  24  25
HETATM   25  O3  UNL     1      -2.805   3.350  -2.650  1.00  0.00    -0.400 OA
ATOM     26  H3  UNL     1      -3.508   3.504  -3.270  1.00  0.00     0.209 HD
ENDBRANCH  24  25
ENDBRANCH  11  24
BRANCH   1  27
HETATM   27  C2  UNL     1       0.532  -2.546  -1.291  1.00  0.00    -0.088 C 
HETATM   28  C1  UNL     1       0.001  -2.896  -2.479  1.00  0.00     0.014 C 
HETATM   29  C3  UNL     1       2.038  -2.750  -1.291  1.00  0.00     0.043 C 
ENDBRANCH   1  27
TORSDOF 9
