REMARK  10 active torsions:
REMARK  status: ('A' for Active; 'I' for Inactive)
REMARK    1  A    between atoms: C2_2  and  C3_3 
REMARK    2  A    between atoms: C2_2  and  C20_23 
REMARK    3  A    between atoms: C3_3  and  C4_4 
REMARK    4  A    between atoms: C4_4  and  C5_5 
REMARK    5  A    between atoms: C12_12  and  C14_14 
REMARK    6  A    between atoms: C15_16  and  O2_17 
REMARK    7  A    between atoms: C20_23  and  C21_24 
REMARK    8  A    between atoms: C21_24  and  C22_25 
REMARK    9  A    between atoms: C22_25  and  N1_27 
REMARK   10  A    between atoms: C22_25  and  O3_31 
ROOT
HETATM    1  C5  UNL     1      -0.469   1.361   0.850  1.00  0.00    -0.069 C 
HETATM    2  C6  UNL     1      -0.298   1.295   2.197  1.00  0.00    -0.081 C 
HETATM    3  C7  UNL     1       0.996   1.646   2.835  1.00  0.00     0.043 C 
HETATM    4  C8  UNL     1      -1.358   0.855   3.140  1.00  0.00     0.034 C 
HETATM    5  C9  UNL     1      -2.260  -0.110   2.325  1.00  0.00     0.010 C 
HETATM    6  C10 UNL     1      -2.781   0.736   1.195  1.00  0.00    -0.001 C 
HETATM    7  C11 UNL     1      -4.069   0.271   0.625  1.00  0.00     0.024 C 
HETATM    8  C12 UNL     1      -4.176  -1.002  -0.078  1.00  0.00     0.035 C 
HETATM    9  C13 UNL     1      -4.968  -0.880  -1.399  1.00  0.00     0.025 C 
HETATM   10  C15 UNL     1      -2.944  -1.795  -0.366  1.00  0.00     0.133 C 
HETATM   11  C16 UNL     1      -1.816  -1.109  -1.032  1.00  0.00     0.034 C 
HETATM   12  C17 UNL     1      -1.810   0.356  -1.069  1.00  0.00     0.016 C 
HETATM   13  C18 UNL     1      -1.745   1.120   0.176  1.00  0.00    -0.017 C 
HETATM   14  C19 UNL     1      -2.163   2.570  -0.270  1.00  0.00     0.020 C 
ENDROOT
BRANCH   1  15
HETATM   15  C4  UNL     1       0.784   1.816   0.153  1.00  0.00     0.039 C 
BRANCH  15  16
HETATM   16  C3  UNL     1       1.580   0.706  -0.451  1.00  0.00     0.037 C 
BRANCH  16  17
HETATM   17  C2  UNL     1       2.805   1.213  -1.127  1.00  0.00    -0.089 C 
HETATM   18  C1  UNL     1       3.060   2.493  -1.168  1.00  0.00     0.014 C 
BRANCH  17  19
HETATM   19  C20 UNL     1       3.749   0.261  -1.762  1.00  0.00     0.038 C 
BRANCH  19  20
HETATM   20  C21 UNL     1       4.251  -0.673  -0.679  1.00  0.00     0.072 C 
BRANCH  20  21
HETATM   21  C22 UNL     1       5.230  -1.688  -1.232  1.00  0.00     0.218 C 
HETATM   22  C23 UNL     1       5.669  -2.565  -0.082  1.00  0.00     0.078 C 
BRANCH  21  23
HETATM   23  N1  UNL     1       6.422  -1.038  -1.749  1.00  0.00    -0.048 N 
ATOM     24  H13 UNL     1       6.191  -0.324  -2.440  1.00  0.00     0.278 HD
ATOM     25  H12 UNL     1       6.858  -0.440  -1.047  1.00  0.00     0.278 HD
ATOM     26  H11 UNL     1       7.081  -1.721  -2.121  1.00  0.00     0.278 HD
ENDBRANCH  21  23
BRANCH  21  27
HETATM   27  O3  UNL     1       4.676  -2.497  -2.200  1.00  0.00    -0.365 OA
ATOM     28  H3  UNL     1       5.290  -3.134  -2.547  1.00  0.00     0.212 HD
ENDBRANCH  21  27
ENDBRANCH  20  21
ENDBRANCH  19  20
ENDBRANCH  17  19
ENDBRANCH  16  17
ENDBRANCH  15  16
ENDBRANCH   1  15
BRANCH   8  29
HETATM   29  C14 UNL     1      -5.024  -1.899   0.769  1.00  0.00     0.243 C 
HETATM   30  O1  UNL     1      -4.553  -2.767   1.465  1.00  0.00    -0.306 OA
ENDBRANCH   8  29
BRANCH  10  31
HETATM   31  O2  UNL     1      -3.403  -2.843  -1.216  1.00  0.00    -0.394 OA
ATOM     32  H2  UNL     1      -2.619  -3.348  -1.399  1.00  0.00     0.210 HD
ENDBRANCH  10  31
TORSDOF 10
