REMARK  9 active torsions:
REMARK  status: ('A' for Active; 'I' for Inactive)
REMARK    1  A    between atoms: C2_2  and  C4_4 
REMARK    2  A    between atoms: C5_6  and  O2_7 
REMARK    3  A    between atoms: C6_9  and  C7_10 
REMARK    4  A    between atoms: C7_10  and  C8_11 
REMARK    5  A    between atoms: C12_15  and  C13_16 
REMARK    6  A    between atoms: C13_16  and  C14_17 
REMARK    7  A    between atoms: C15_19  and  C16_20 
REMARK    8  A    between atoms: C16_20  and  O4_23 
REMARK    9  A    between atoms: C23_29  and  O5_30 
ROOT
HETATM    1  C7  UNL     1       1.453  -0.555  -0.408  1.00  0.00    -0.022 C 
HETATM    2  C12 UNL     1       0.360   0.193  -0.575  1.00  0.00    -0.011 C 
ENDROOT
BRANCH   1   3
HETATM    3  C6  UNL     1       2.630   0.190   0.039  1.00  0.00     0.068 A 
HETATM    4  C5  UNL     1       2.730   0.985   1.150  1.00  0.00     0.198 A 
HETATM    5  O1  UNL     1       3.852   1.596   1.097  1.00  0.00    -0.284 OA
HETATM    6  C4  UNL     1       4.558   1.289   0.022  1.00  0.00     0.117 A 
HETATM    7  C23 UNL     1       3.785   0.375  -0.691  1.00  0.00     0.116 A 
BRANCH   4   8
HETATM    8  O2  UNL     1       1.761   1.099   2.159  1.00  0.00    -0.340 OA
ATOM      9  H2  UNL     1       0.927   0.645   2.198  1.00  0.00     0.220 HD
ENDBRANCH   4   8
BRANCH   6  10
HETATM   10  C2  UNL     1       5.856   1.842  -0.268  1.00  0.00    -0.035 C 
HETATM   11  C1  UNL     1       6.816   1.257  -0.908  1.00  0.00     0.021 C 
HETATM   12  C3  UNL     1       6.107   3.260   0.194  1.00  0.00     0.050 C 
ENDBRANCH   6  10
BRANCH   7  13
HETATM   13  O5  UNL     1       4.124  -0.200  -1.891  1.00  0.00    -0.357 OA
ATOM     14  H5  UNL     1       3.597  -0.823  -2.377  1.00  0.00     0.217 HD
ENDBRANCH   7  13
ENDBRANCH   1   3
BRANCH   1  15
HETATM   15  C8  UNL     1       1.492  -1.958  -0.648  1.00  0.00     0.014 C 
HETATM   16  C9  UNL     1       2.355  -2.906  -0.505  1.00  0.00    -0.087 C 
HETATM   17  C10 UNL     1       3.728  -2.913   0.005  1.00  0.00     0.043 C 
HETATM   18  C11 UNL     1       1.893  -4.310  -0.945  1.00  0.00     0.043 C 
ENDBRANCH   1  15
BRANCH   2  19
HETATM   19  C13 UNL     1      -0.965  -0.223  -1.002  1.00  0.00     0.064 C 
BRANCH  19  20
HETATM   20  C14 UNL     1      -2.068   0.262  -0.124  1.00  0.00     0.153 C 
HETATM   21  O3  UNL     1      -3.296  -0.154  -0.597  1.00  0.00    -0.373 OA
HETATM   22  C15 UNL     1      -4.373   0.183   0.176  1.00  0.00     0.156 C 
HETATM   23  C19 UNL     1      -4.188   0.967   1.410  1.00  0.00     0.039 C 
HETATM   24  C20 UNL     1      -2.861   0.853   2.120  1.00  0.00     0.038 C 
HETATM   25  C21 UNL     1      -2.046  -0.075   1.288  1.00  0.00    -0.060 C 
HETATM   26  C22 UNL     1      -1.438  -1.080   1.819  1.00  0.00     0.017 C 
BRANCH  22  27
HETATM   27  C16 UNL     1      -5.389   0.829  -0.782  1.00  0.00     0.076 C 
HETATM   28  C17 UNL     1      -5.759  -0.101  -1.896  1.00  0.00     0.048 C 
HETATM   29  C18 UNL     1      -6.623   1.273  -0.082  1.00  0.00     0.048 C 
BRANCH  27  30
HETATM   30  O4  UNL     1      -4.814   1.971  -1.383  1.00  0.00    -0.388 OA
ATOM     31  H4  UNL     1      -5.441   2.370  -1.975  1.00  0.00     0.210 HD
ENDBRANCH  27  30
ENDBRANCH  22  27
ENDBRANCH  19  20
ENDBRANCH   2  19
TORSDOF 9
