REMARK  9 active torsions:
REMARK  status: ('A' for Active; 'I' for Inactive)
REMARK    1  A    between atoms: C4_4  and  O1_5 
REMARK    2  A    between atoms: O1_5  and  O2_6 
REMARK    3  A    between atoms: C5_8  and  O3_9 
REMARK    4  A    between atoms: C9_14  and  C10_15 
REMARK    5  A    between atoms: C11_16  and  C12_17 
REMARK    6  A    between atoms: C13_18  and  C14_19 
REMARK    7  A    between atoms: C14_19  and  C15_20 
REMARK    8  A    between atoms: C16_21  and  C17_22 
REMARK    9  A    between atoms: C21_26  and  O4_27 
ROOT
HETATM    1  C1  UNL     1      -4.217  -2.753   1.712  1.00  0.00     0.043 C 
HETATM    2  C2  UNL     1      -4.073  -1.499   0.930  1.00  0.00    -0.084 C 
HETATM    3  C3  UNL     1      -5.027  -0.634   1.208  1.00  0.00     0.013 C 
HETATM    4  C4  UNL     1      -5.462   0.719   0.823  1.00  0.00     0.212 C 
HETATM    5  C5  UNL     1      -5.062   1.206  -0.506  1.00  0.00     0.154 C 
HETATM    6  C6  UNL     1      -3.711   1.158  -1.013  1.00  0.00     0.039 C 
HETATM    7  C7  UNL     1      -2.524   1.094  -0.121  1.00  0.00    -0.008 C 
HETATM    8  C8  UNL     1      -2.744   2.070   1.055  1.00  0.00     0.011 C 
HETATM    9  C9  UNL     1      -2.069  -0.228   0.318  1.00  0.00     0.016 C 
HETATM   10  C22 UNL     1      -2.925  -1.418  -0.004  1.00  0.00     0.042 C 
ENDROOT
BRANCH   9  11
HETATM   11  C10 UNL     1      -0.673  -0.618   0.007  1.00  0.00    -0.021 C 
HETATM   12  C11 UNL     1       0.123  -0.055  -0.875  1.00  0.00    -0.004 C 
BRANCH  12  13
HETATM   13  C12 UNL     1       1.476  -0.548  -1.071  1.00  0.00    -0.004 C 
HETATM   14  C13 UNL     1       2.262   0.023  -1.955  1.00  0.00    -0.023 C 
BRANCH  14  15
HETATM   15  C14 UNL     1       3.660  -0.475  -2.169  1.00  0.00     0.054 C 
BRANCH  15  16
HETATM   16  C15 UNL     1       3.973  -1.601  -1.305  1.00  0.00    -0.020 C 
HETATM   17  C16 UNL     1       4.900  -1.679  -0.402  1.00  0.00     0.033 C 
BRANCH  17  18
HETATM   18  C17 UNL     1       5.825  -0.648  -0.065  1.00  0.00     0.078 A 
HETATM   19  C18 UNL     1       6.811  -0.802   0.926  1.00  0.00     0.049 A 
HETATM   20  C19 UNL     1       7.494   0.384   0.963  1.00  0.00    -0.001 A 
HETATM   21  C20 UNL     1       8.642   0.767   1.834  1.00  0.00     0.053 C 
HETATM   22  C21 UNL     1       6.923   1.209   0.019  1.00  0.00     0.189 A 
HETATM   23  O5  UNL     1       5.959   0.548  -0.542  1.00  0.00    -0.288 OA
BRANCH  22  24
HETATM   24  O4  UNL     1       7.295   2.507  -0.290  1.00  0.00    -0.340 OA
ATOM     25  H4  UNL     1       6.901   3.076  -0.941  1.00  0.00     0.220 HD
ENDBRANCH  22  24
ENDBRANCH  17  18
ENDBRANCH  15  16
ENDBRANCH  14  15
ENDBRANCH  12  13
ENDBRANCH   9  11
BRANCH   5  26
HETATM   26  O3  UNL     1      -5.900   0.535  -1.444  1.00  0.00    -0.393 OA
ATOM     27  H3  UNL     1      -5.642   0.850  -2.302  1.00  0.00     0.210 HD
ENDBRANCH   5  26
BRANCH   4  28
HETATM   28  O1  UNL     1      -6.883   0.633   0.783  1.00  0.00    -0.231 OA
BRANCH  28  29
HETATM   29  O2  UNL     1      -7.459   1.346   1.695  1.00  0.00    -0.250 OA
ATOM     30  H2  UNL     1      -8.407   1.289   1.668  1.00  0.00     0.253 HD
ENDBRANCH  28  29
ENDBRANCH   4  28
TORSDOF 9
