REMARK  5 active torsions:
REMARK  status: ('A' for Active; 'I' for Inactive)
REMARK    1  A    between atoms: C2_5  and  S1_6 
REMARK    2  A    between atoms: S1_6  and  C3_7 
REMARK    3  A    between atoms: C3_7  and  C4_8 
REMARK    4  A    between atoms: C4_8  and  C5_9 
REMARK    5  A    between atoms: C11_18  and  N3_19 
ROOT
HETATM    1  S1  UNL     1      -0.194   0.026  -1.252  1.00  0.00    -0.109 SA
ENDROOT
BRANCH   1   2
HETATM    2  C2  UNL     1       1.513   0.576  -1.079  1.00  0.00     0.106 A 
HETATM    3  N2  UNL     1       2.529   0.408  -1.942  1.00  0.00    -0.336 N 
HETATM    4  C1  UNL     1       3.643   0.983  -1.398  1.00  0.00     0.144 A 
ATOM      5  H2  UNL     1       2.478  -0.065  -2.844  1.00  0.00     0.168 HD
HETATM    6  N1  UNL     1       4.924   1.014  -2.013  1.00  0.00    -0.081 NA
HETATM    7  C12 UNL     1       3.318   1.524  -0.166  1.00  0.00     0.123 A 
HETATM    8  C11 UNL     1       1.985   1.259   0.015  1.00  0.00     0.163 A 
HETATM    9  N4  UNL     1       4.177   2.211   0.729  1.00  0.00    -0.096 NA
BRANCH   8  10
HETATM   10  N3  UNL     1       1.219   1.622   1.148  1.00  0.00    -0.111 N 
HETATM   11  O1  UNL     1       0.406   2.567   1.106  1.00  0.00    -0.532 OA
HETATM   12  O2  UNL     1       1.333   0.960   2.346  1.00  0.00    -0.532 OA
ENDBRANCH   8  10
ENDBRANCH   1   2
BRANCH   1  13
HETATM   13  C3  UNL     1      -0.296  -1.615  -0.527  1.00  0.00     0.085 C 
BRANCH  13  14
HETATM   14  C4  UNL     1      -1.674  -2.170  -0.577  1.00  0.00     0.053 C 
BRANCH  14  15
HETATM   15  C5  UNL     1      -2.711  -1.423   0.108  1.00  0.00    -0.014 A 
HETATM   16  C6  UNL     1      -3.467  -0.392  -0.363  1.00  0.00     0.043 A 
HETATM   17 CL1  UNL     1      -3.305   0.052  -2.061  1.00  0.00    -0.084 Cl
HETATM   18  C7  UNL     1      -4.402   0.316   0.373  1.00  0.00     0.048 A 
HETATM   19  C8  UNL     1      -4.604  -0.037   1.698  1.00  0.00     0.037 A 
HETATM   20 CL2  UNL     1      -5.756   0.801   2.715  1.00  0.00    -0.084 Cl
HETATM   21  C9  UNL     1      -3.860  -1.076   2.207  1.00  0.00     0.048 A 
HETATM   22  C10 UNL     1      -2.935  -1.765   1.455  1.00  0.00     0.043 A 
HETATM   23 CL3  UNL     1      -2.023  -3.058   2.188  1.00  0.00    -0.084 Cl
ENDBRANCH  14  15
ENDBRANCH  13  14
ENDBRANCH   1  13
TORSDOF 5
