REMARK  7 active torsions:
REMARK  status: ('A' for Active; 'I' for Inactive)
REMARK    1  A    between atoms: C3_3  and  C4_4 
REMARK    2  A    between atoms: C4_4  and  O1_5 
REMARK    3  A    between atoms: C4_4  and  C5_7 
REMARK    4  A    between atoms: C5_7  and  C6_8 
REMARK    5  A    between atoms: C6_8  and  N1_9 
REMARK    6  A    between atoms: C8_15  and  N2_16 
REMARK    7  A    between atoms: N2_16  and  C9_18 
ROOT
HETATM    1  C1  UNL     1      -1.104  -0.318  -1.231  1.00  0.00     0.052 C 
HETATM    2  C2  UNL     1      -0.337   0.480  -0.177  1.00  0.00    -0.019 A 
HETATM    3  C3  UNL     1       1.010   0.456  -0.115  1.00  0.00    -0.014 A 
HETATM    4  C7  UNL     1       1.616   1.224   0.849  1.00  0.00     0.062 A 
HETATM    5  S1  UNL     1       0.321   1.953   1.640  1.00  0.00    -0.083 SA
HETATM    6  C8  UNL     1      -1.000   1.263   0.723  1.00  0.00     0.081 A 
ENDROOT
BRANCH   6   7
HETATM    7  N2  UNL     1      -2.374   1.516   0.996  1.00  0.00    -0.347 N 
ATOM      8  H2  UNL     1      -2.560   2.208   1.722  1.00  0.00     0.167 HD
BRANCH   7   9
HETATM    9  C9  UNL     1      -3.523   0.932   0.390  1.00  0.00     0.086 A 
HETATM   10  C10 UNL     1      -4.098   1.485  -0.722  1.00  0.00     0.104 A 
HETATM   11 CL1  UNL     1      -3.537   2.923  -1.608  1.00  0.00    -0.074 Cl
HETATM   12  S2  UNL     1      -5.435   0.484  -1.031  1.00  0.00    -0.062 SA
HETATM   13  C11 UNL     1      -5.251  -0.619   0.249  1.00  0.00     0.100 A 
HETATM   14 CL2  UNL     1      -6.279  -2.015   0.631  1.00  0.00    -0.074 Cl
HETATM   15  C12 UNL     1      -4.137  -0.177   0.897  1.00  0.00     0.091 A 
HETATM   16 CL3  UNL     1      -3.559  -1.063   2.342  1.00  0.00    -0.079 Cl
ENDBRANCH   7   9
ENDBRANCH   6   7
BRANCH   3  17
HETATM   17  C4  UNL     1       1.869  -0.350  -1.086  1.00  0.00     0.154 C 
BRANCH  17  18
HETATM   18  O1  UNL     1       1.937   0.289  -2.323  1.00  0.00    -0.391 OA
ATOM     19  H1  UNL     1       2.472  -0.213  -2.927  1.00  0.00     0.210 HD
ENDBRANCH  17  18
BRANCH  17  20
HETATM   20  C5  UNL     1       3.247  -0.546  -0.558  1.00  0.00     0.064 C 
BRANCH  20  21
HETATM   21  C6  UNL     1       3.254  -1.322   0.708  1.00  0.00     0.232 C 
BRANCH  21  22
HETATM   22  N1  UNL     1       4.617  -1.485   1.188  1.00  0.00    -0.079 N 
ATOM     23  H13 UNL     1       5.223  -1.902   0.481  1.00  0.00     0.274 HD
ATOM     24  H12 UNL     1       5.096  -0.590   1.287  1.00  0.00     0.274 HD
ATOM     25  H11 UNL     1       4.622  -2.018   2.058  1.00  0.00     0.274 HD
ENDBRANCH  21  22
ENDBRANCH  20  21
ENDBRANCH  17  20
ENDBRANCH   3  17
TORSDOF 7
