REMARK  8 active torsions:
REMARK  status: ('A' for Active; 'I' for Inactive)
REMARK    1  A    between atoms: C2_2  and  C3_3 
REMARK    2  A    between atoms: C3_3  and  N1_5 
REMARK    3  A    between atoms: C5_6  and  O1_7 
REMARK    4  A    between atoms: C7_10  and  C8_11 
REMARK    5  A    between atoms: C8_11  and  O2_12 
REMARK    6  A    between atoms: C8_11  and  C9_14 
REMARK    7  A    between atoms: C9_14  and  C10_15 
REMARK    8  A    between atoms: C16_24  and  O3_25 
ROOT
HETATM    1  N1  UNL     1      -1.685  -0.213   0.521  1.00  0.00    -0.280 N 
HETATM    2  C5  UNL     1      -1.021   0.732  -0.198  1.00  0.00     0.149 A 
HETATM    3  C6  UNL     1       0.145   0.163  -0.649  1.00  0.00     0.070 A 
HETATM    4  C7  UNL     1       0.229  -1.133  -0.220  1.00  0.00     0.029 A 
HETATM    5  C16 UNL     1      -0.908  -1.337   0.491  1.00  0.00     0.158 A 
ENDROOT
BRANCH   4   6
HETATM    6  C8  UNL     1       1.291  -2.069  -0.629  1.00  0.00     0.179 C 
BRANCH   6   7
HETATM    7  O2  UNL     1       1.193  -2.418  -1.971  1.00  0.00    -0.387 OA
ATOM      8  H2  UNL     1       1.878  -3.021  -2.235  1.00  0.00     0.210 HD
ENDBRANCH   6   7
BRANCH   6   9
HETATM    9  C9  UNL     1       2.662  -1.678  -0.313  1.00  0.00     0.024 C 
BRANCH   9  10
HETATM   10  C10 UNL     1       3.319  -0.462  -0.653  1.00  0.00     0.006 A 
HETATM   11  C11 UNL     1       3.907  -0.130  -1.824  1.00  0.00     0.047 A 
HETATM   12 CL1  UNL     1       3.854  -1.279  -3.189  1.00  0.00    -0.083 Cl
HETATM   13  C12 UNL     1       4.538   1.117  -2.000  1.00  0.00     0.048 A 
HETATM   14  C13 UNL     1       4.592   2.039  -1.025  1.00  0.00     0.037 A 
HETATM   15 CL2  UNL     1       5.351   3.619  -1.211  1.00  0.00    -0.084 Cl
HETATM   16  C14 UNL     1       4.005   1.745   0.192  1.00  0.00     0.048 A 
HETATM   17  C15 UNL     1       3.395   0.519   0.344  1.00  0.00     0.047 A 
HETATM   18 CL3  UNL     1       2.731   0.212   1.967  1.00  0.00    -0.083 Cl
ENDBRANCH   9  10
ENDBRANCH   6   9
ENDBRANCH   4   6
BRANCH   5  19
HETATM   19  O3  UNL     1      -1.318  -2.508   1.150  1.00  0.00    -0.345 OA
ATOM     20  H3  UNL     1      -0.778  -3.289   1.129  1.00  0.00     0.219 HD
ENDBRANCH   5  19
BRANCH   2  21
HETATM   21  O1  UNL     1      -1.406   2.031  -0.445  1.00  0.00    -0.346 OA
ATOM     22  H1  UNL     1      -0.942   2.691  -0.947  1.00  0.00     0.219 HD
ENDBRANCH   2  21
BRANCH   1  23
HETATM   23  C3  UNL     1      -2.906  -0.062   1.272  1.00  0.00    -0.006 C 
HETATM   24  C4  UNL     1      -3.970  -1.067   1.007  1.00  0.00     0.064 C 
BRANCH  23  25
HETATM   25  C2  UNL     1      -3.333   1.302   1.625  1.00  0.00     0.048 C 
HETATM   26  C1  UNL     1      -4.222   2.045   0.682  1.00  0.00     0.011 C 
ENDBRANCH  23  25
ENDBRANCH   1  23
TORSDOF 8
