REMARK  10 active torsions:
REMARK  status: ('A' for Active; 'I' for Inactive)
REMARK    1  A    between atoms: C1_2  and  O2_3 
REMARK    2  A    between atoms: C1_2  and  C10_16 
REMARK    3  A    between atoms: O2_3  and  C2_4 
REMARK    4  A    between atoms: C2_4  and  C3_5 
REMARK    5  A    between atoms: C3_5  and  C4_6 
REMARK    6  A    between atoms: C4_6  and  C5_7 
REMARK    7  A    between atoms: C5_7  and  C6_8 
REMARK    8  A    between atoms: C9_13  and  O4_14 
REMARK    9  A    between atoms: C11_17  and  O5_18 
REMARK   10  A    between atoms: C13_21  and  O6_22 
ROOT
HETATM    1  O1  UNL     1      -1.464   1.255  -1.379  1.00  0.00    -0.259 OA
HETATM    2  C1  UNL     1      -2.027   0.565  -0.501  1.00  0.00     0.297 C 
ENDROOT
BRANCH   2   3
HETATM    3  O2  UNL     1      -1.145  -0.036   0.407  1.00  0.00    -0.317 OA
BRANCH   3   4
HETATM    4  C2  UNL     1       0.258   0.152   0.296  1.00  0.00     0.179 C 
BRANCH   4   5
HETATM    5  C3  UNL     1       1.007  -0.579   1.371  1.00  0.00     0.027 C 
BRANCH   5   6
HETATM    6  C4  UNL     1       2.497  -0.358   1.228  1.00  0.00     0.007 C 
BRANCH   6   7
HETATM    7  C5  UNL     1       3.038  -0.840  -0.083  1.00  0.00     0.044 C 
BRANCH   7   8
HETATM    8  C6  UNL     1       4.509  -0.564  -0.100  1.00  0.00     0.004 A 
HETATM    9  C7  UNL     1       5.561  -1.434   0.077  1.00  0.00     0.062 A 
HETATM   10  C8  UNL     1       6.729  -0.690  -0.030  1.00  0.00     0.148 A 
HETATM   11 CL1  UNL     1       8.365  -1.298   0.113  1.00  0.00    -0.056 Cl
HETATM   12  O3  UNL     1       6.379   0.550  -0.257  1.00  0.00    -0.275 OA
HETATM   13  C9  UNL     1       5.077   0.677  -0.308  1.00  0.00     0.191 A 
BRANCH  13  14
HETATM   14  O4  UNL     1       4.332   1.838  -0.529  1.00  0.00    -0.340 OA
ATOM     15  H4  UNL     1       4.723   2.692  -0.672  1.00  0.00     0.220 HD
ENDBRANCH  13  14
ENDBRANCH   7   8
ENDBRANCH   6   7
ENDBRANCH   5   6
ENDBRANCH   4   5
ENDBRANCH   3   4
ENDBRANCH   2   3
BRANCH   2  16
HETATM   16  C10 UNL     1      -3.453   0.394  -0.419  1.00  0.00     0.096 A 
HETATM   17  C11 UNL     1      -4.279   1.000  -1.327  1.00  0.00     0.086 A 
HETATM   18  C12 UNL     1      -5.672   0.797  -1.200  1.00  0.00     0.076 A 
HETATM   19  C13 UNL     1      -6.209   0.019  -0.204  1.00  0.00     0.091 A 
HETATM   20  C14 UNL     1      -5.366  -0.578   0.695  1.00  0.00     0.090 A 
HETATM   21 CL2  UNL     1      -6.073  -1.564   1.955  1.00  0.00    -0.080 Cl
HETATM   22  C15 UNL     1      -4.008  -0.382   0.574  1.00  0.00     0.077 A 
HETATM   23 CL3  UNL     1      -2.940  -1.162   1.745  1.00  0.00    -0.081 Cl
BRANCH  17  24
HETATM   24  O5  UNL     1      -3.912   1.797  -2.367  1.00  0.00    -0.359 OA
ATOM     25  H5  UNL     1      -4.485   2.218  -2.997  1.00  0.00     0.217 HD
ENDBRANCH  17  24
BRANCH  19  26
HETATM   26  O6  UNL     1      -7.605  -0.148  -0.126  1.00  0.00    -0.359 OA
ATOM     27  H6  UNL     1      -7.977  -0.686   0.563  1.00  0.00     0.217 HD
ENDBRANCH  19  26
ENDBRANCH   2  16
TORSDOF 10
