REMARK  9 active torsions:
REMARK  status: ('A' for Active; 'I' for Inactive)
REMARK    1  A    between atoms: O1_1  and  C1_3 
REMARK    2  A    between atoms: C3_9  and  S3_10 
REMARK    3  A    between atoms: S3_10  and  C4_11 
REMARK    4  A    between atoms: C4_11  and  C5_12 
REMARK    5  A    between atoms: C5_12  and  C6_13 
REMARK    6  A    between atoms: C6_13  and  C7_14 
REMARK    7  A    between atoms: C7_14  and  N2_15 
REMARK    8  A    between atoms: C12_20  and  O2_21 
REMARK    9  A    between atoms: C12_20  and  C13_23 
ROOT
HETATM    1  C6  UNL     1       0.125   0.068   0.821  1.00  0.00     0.031 C 
ENDROOT
BRANCH   1   2
HETATM    2  C5  UNL     1       1.084  -1.099   1.053  1.00  0.00     0.012 C 
BRANCH   2   3
HETATM    3  C4  UNL     1       2.507  -0.675   0.917  1.00  0.00     0.080 C 
BRANCH   3   4
HETATM    4  S3  UNL     1       2.941   0.036  -0.669  1.00  0.00    -0.118 SA
BRANCH   4   5
HETATM    5  C3  UNL     1       4.699   0.466  -0.567  1.00  0.00     0.095 A 
HETATM    6  C1  UNL     1       5.776  -0.308  -0.906  1.00  0.00     0.166 A 
HETATM    7  N1  UNL     1       6.972   0.215  -0.729  1.00  0.00    -0.321 N 
HETATM    8  C2  UNL     1       7.059   1.446  -0.238  1.00  0.00     0.146 A 
ATOM      9  H1  UNL     1       7.812  -0.313  -0.964  1.00  0.00     0.169 HD
HETATM   10  S1  UNL     1       8.437   2.314   0.074  1.00  0.00    -0.052 SA
HETATM   11  S2  UNL     1       5.435   1.897  -0.015  1.00  0.00    -0.049 SA
BRANCH   6  12
HETATM   12  O1  UNL     1       5.572  -1.627  -1.430  1.00  0.00    -0.345 OA
ATOM     13  H1  UNL     1       4.709  -2.004  -1.558  1.00  0.00     0.219 HD
ENDBRANCH   6  12
ENDBRANCH   4   5
ENDBRANCH   3   4
ENDBRANCH   2   3
ENDBRANCH   1   2
BRANCH   1  14
HETATM   14  C7  UNL     1      -1.267  -0.467   1.032  1.00  0.00     0.277 C 
BRANCH  14  15
HETATM   15  N2  UNL     1      -2.328   0.466   0.860  1.00  0.00     0.133 N 
HETATM   16  C8  UNL     1      -3.540  -0.143   1.391  1.00  0.00     0.277 C 
HETATM   17  C9  UNL     1      -3.929  -1.365   0.607  1.00  0.00     0.030 C 
HETATM   18  C10 UNL     1      -4.297  -0.897  -0.785  1.00  0.00     0.007 C 
HETATM   19  C11 UNL     1      -3.983   0.566  -0.964  1.00  0.00     0.082 C 
HETATM   20  C12 UNL     1      -2.561   0.904  -0.485  1.00  0.00     0.356 C 
BRANCH  20  21
HETATM   21  O2  UNL     1      -1.714   0.340  -1.408  1.00  0.00    -0.356 OA
ATOM     22  H2  UNL     1      -1.868   0.630  -2.299  1.00  0.00     0.213 HD
ENDBRANCH  20  21
BRANCH  20  23
HETATM   23  C13 UNL     1      -2.484   2.431  -0.570  1.00  0.00     0.448 C 
HETATM   24  F1  UNL     1      -3.435   3.023   0.243  1.00  0.00    -0.166 F 
HETATM   25  F2  UNL     1      -1.257   2.907  -0.179  1.00  0.00    -0.166 F 
HETATM   26  F3  UNL     1      -2.788   2.808  -1.873  1.00  0.00    -0.166 F 
ENDBRANCH  20  23
ENDBRANCH  14  15
ENDBRANCH   1  14
TORSDOF 9
