REMARK  10 active torsions:
REMARK  status: ('A' for Active; 'I' for Inactive)
REMARK    1  A    between atoms: O1_1  and  C1_3 
REMARK    2  A    between atoms: C6_10  and  C7_11 
REMARK    3  A    between atoms: C7_11  and  N1_12 
REMARK    4  A    between atoms: N1_12  and  N2_14 
REMARK    5  A    between atoms: N2_14  and  C8_16 
REMARK    6  A    between atoms: C10_19  and  O3_20 
REMARK    7  A    between atoms: N3_22  and  C11_23 
REMARK    8  A    between atoms: C11_23  and  C12_24 
REMARK    9  A    between atoms: C12_24  and  C13_25 
REMARK   10  A    between atoms: C13_25  and  C14_26 
ROOT
HETATM    1  N2  UNL     1      -0.409  -1.294   0.027  1.00  0.00    -0.265 N 
ATOM      2  H2  UNL     1       0.073  -1.936  -0.602  1.00  0.00     0.190 HD
ENDROOT
BRANCH   1   3
HETATM    3  N1  UNL     1      -1.736  -0.937  -0.230  1.00  0.00    -0.308 N 
ATOM      4  H1  UNL     1      -2.397  -1.669  -0.490  1.00  0.00     0.186 HD
BRANCH   3   5
HETATM    5  C7  UNL     1      -2.161   0.279  -0.152  1.00  0.00     0.121 C 
BRANCH   5   6
HETATM    6  C6  UNL     1      -3.568   0.528  -0.443  1.00  0.00     0.016 A 
HETATM    7  C1  UNL     1      -4.117   1.789  -0.387  1.00  0.00     0.079 A 
HETATM    8  C2  UNL     1      -5.465   2.010  -0.669  1.00  0.00     0.063 A 
HETATM    9  C3  UNL     1      -6.228   0.937  -1.003  1.00  0.00     0.058 A 
HETATM   10 CL1  UNL     1      -7.922   1.175  -1.363  1.00  0.00    -0.082 Cl
HETATM   11  C4  UNL     1      -5.737  -0.349  -1.077  1.00  0.00     0.056 A 
HETATM   12 CL2  UNL     1      -6.779  -1.695  -1.516  1.00  0.00    -0.083 Cl
HETATM   13  C5  UNL     1      -4.409  -0.519  -0.792  1.00  0.00     0.041 A 
BRANCH   7  14
HETATM   14  O1  UNL     1      -3.346   2.863  -0.051  1.00  0.00    -0.360 OA
ATOM     15  H1  UNL     1      -2.428   2.712   0.141  1.00  0.00     0.217 HD
ENDBRANCH   7  14
ENDBRANCH   5   6
ENDBRANCH   3   5
ENDBRANCH   1   3
BRANCH   1  16
HETATM   16  C8  UNL     1       0.211  -0.818   1.054  1.00  0.00     0.247 A 
HETATM   17  O2  UNL     1      -0.266   0.008   1.946  1.00  0.00    -0.286 OA
HETATM   18  C9  UNL     1       0.641   0.283   2.855  1.00  0.00     0.202 A 
HETATM   19  C10 UNL     1       1.797  -0.405   2.546  1.00  0.00     0.168 A 
HETATM   20  N3  UNL     1       1.498  -1.087   1.411  1.00  0.00    -0.291 N 
BRANCH  19  21
HETATM   21  O3  UNL     1       3.003  -0.391   3.259  1.00  0.00    -0.344 OA
ATOM     22  H3  UNL     1       3.799  -0.865   3.046  1.00  0.00     0.219 HD
ENDBRANCH  19  21
BRANCH  20  23
HETATM   23  C11 UNL     1       2.379  -1.958   0.707  1.00  0.00     0.135 C 
BRANCH  23  24
HETATM   24  C12 UNL     1       3.131  -1.221  -0.374  1.00  0.00     0.021 C 
BRANCH  24  25
HETATM   25  C13 UNL     1       3.969  -0.090   0.116  1.00  0.00     0.013 C 
BRANCH  25  26
HETATM   26  C14 UNL     1       4.712   0.605  -1.021  1.00  0.00     0.086 C 
HETATM   27  S1  UNL     1       5.809  -0.555  -1.875  1.00  0.00    -0.098 SA
ENDBRANCH  25  26
ENDBRANCH  24  25
ENDBRANCH  23  24
ENDBRANCH  20  23
ENDBRANCH   1  16
TORSDOF 10
