REMARK  19 active torsions:
REMARK  status: ('A' for Active; 'I' for Inactive)
REMARK    1  A    between atoms: O1_2  and  C2_3 
REMARK    2  A    between atoms: C3_4  and  O2_5 
REMARK    3  A    between atoms: O2_5  and  C4_6 
REMARK    4  A    between atoms: C5_7  and  N1_8 
REMARK    5  A    between atoms: C8_14  and  O3_15 
REMARK    6  A    between atoms: O3_15  and  C9_16 
REMARK    7  A    between atoms: C10_18  and  N2_19 
REMARK    8  A    between atoms: N2_19  and  N3_20 
REMARK    9  A    between atoms: C11_25  and  O5_26 
REMARK   10  A    between atoms: C12_28  and  N5_29 
REMARK   11  A    between atoms: C14_35  and  C15_36 
REMARK   12  A    between atoms: C15_36  and  O7_37 
REMARK   13  A    between atoms: O7_37  and  C16_38 
REMARK   14  A    between atoms: C17_39  and  N6_40 
REMARK   15  A    between atoms: C19_45  and  N7_46 
REMARK   16  A    between atoms: C20_50  and  O8_51 
REMARK   17  A    between atoms: C21_53  and  O9_54 
REMARK   18  A    between atoms: C22_56  and  O10_57 
REMARK   19  A    between atoms: O10_57  and  N8_58 
ROOT
HETATM    1  C2  UNL     1       0.239  -1.286   0.686  1.00  0.00     0.186 C 
HETATM    2  C3  UNL     1       0.323   0.120   0.102  1.00  0.00     0.177 C 
HETATM    3  C13 UNL     1      -1.055   0.771   0.192  1.00  0.00     0.203 C 
HETATM    4  O6  UNL     1      -1.856   0.054   1.080  1.00  0.00    -0.378 OA
HETATM    5  C14 UNL     1      -2.201  -1.159   0.582  1.00  0.00     0.179 C 
HETATM    6  C22 UNL     1      -1.008  -1.906   0.072  1.00  0.00     0.221 C 
ENDROOT
BRANCH   2   7
HETATM    7  O2  UNL     1       1.184   0.849   0.905  1.00  0.00    -0.370 OA
BRANCH   7   8
HETATM    8  C4  UNL     1       2.300   1.305   0.216  1.00  0.00     0.189 C 
HETATM    9  C5  UNL     1       2.289   2.831   0.394  1.00  0.00     0.237 C 
HETATM   10  C6  UNL     1       2.703   2.955   1.819  1.00  0.00     0.007 C 
HETATM   11  C7  UNL     1       3.410   1.896   2.196  1.00  0.00     0.006 C 
HETATM   12  C8  UNL     1       3.527   0.954   1.019  1.00  0.00     0.178 C 
BRANCH   9  13
HETATM   13  N1  UNL     1       3.216   3.459  -0.514  1.00  0.00    -0.069 N 
ATOM     14  H13 UNL     1       4.156   3.075  -0.419  1.00  0.00     0.275 HD
ATOM     15  H12 UNL     1       3.037   3.191  -1.482  1.00  0.00     0.275 HD
ATOM     16  H11 UNL     1       3.209   4.472  -0.396  1.00  0.00     0.275 HD
ENDBRANCH   9  13
BRANCH  12  17
HETATM   17  O3  UNL     1       4.703   1.278   0.350  1.00  0.00    -0.347 OA
BRANCH  17  18
HETATM   18  C9  UNL     1       5.505   0.168   0.292  1.00  0.00     0.299 C 
HETATM   19  O4  UNL     1       5.842  -0.236  -0.987  1.00  0.00    -0.319 OA
HETATM   20  C10 UNL     1       6.384  -1.502  -0.970  1.00  0.00     0.340 C 
HETATM   21  N4  UNL     1       6.773  -1.954   0.333  1.00  0.00    -0.355 N 
HETATM   22  C11 UNL     1       7.472  -0.995   1.123  1.00  0.00     0.252 C 
ATOM     23  H4  UNL     1       6.565  -2.894   0.671  1.00  0.00     0.159 HD
HETATM   24  C12 UNL     1       6.830   0.382   1.037  1.00  0.00     0.286 C 
BRANCH  20  25
HETATM   25  N2  UNL     1       7.475  -1.681  -1.900  1.00  0.00    -0.095 NA
BRANCH  25  26
HETATM   26  N3  UNL     1       6.984  -1.430  -3.186  1.00  0.00    -0.344 N 
ATOM     27  H32 UNL     1       6.024  -1.168  -3.411  1.00  0.00     0.172 HD
ATOM     28  H31 UNL     1       7.754  -1.556  -3.843  1.00  0.00     0.172 HD
ENDBRANCH  25  26
ENDBRANCH  20  25
BRANCH  22  29
HETATM   29  O5  UNL     1       8.831  -0.963   0.866  1.00  0.00    -0.375 OA
ATOM     30  H5  UNL     1       9.297  -0.324   1.392  1.00  0.00     0.212 HD
ENDBRANCH  22  29
BRANCH  24  31
HETATM   31  N5  UNL     1       7.695   1.203   0.222  1.00  0.00    -0.066 N 
ATOM     32  H53 UNL     1       7.831   0.817  -0.712  1.00  0.00     0.275 HD
ATOM     33  H52 UNL     1       7.255   2.082  -0.050  1.00  0.00     0.275 HD
ATOM     34  H51 UNL     1       8.575   1.345   0.717  1.00  0.00     0.275 HD
ENDBRANCH  24  31
ENDBRANCH  17  18
ENDBRANCH  12  17
ENDBRANCH   7   8
ENDBRANCH   2   7
BRANCH   1  35
HETATM   35  O1  UNL     1      -0.022  -1.176   2.046  1.00  0.00    -0.385 OA
HETATM   36  C1  UNL     1       0.961  -1.814   2.761  1.00  0.00     0.202 C 
ENDBRANCH   1  35
BRANCH   6  37
HETATM   37  O10 UNL     1      -0.908  -1.656  -1.332  1.00  0.00    -0.210 OA
BRANCH  37  38
HETATM   38  N8  UNL     1      -0.881  -2.624  -2.265  1.00  0.00     0.005 N 
HETATM   39  O11 UNL     1      -0.602  -3.790  -1.955  1.00  0.00    -0.511 OA
HETATM   40  O12 UNL     1      -1.162  -2.336  -3.570  1.00  0.00    -0.511 OA
ENDBRANCH  37  38
ENDBRANCH   6  37
BRANCH   5  41
HETATM   41  C15 UNL     1      -3.318  -1.094  -0.449  1.00  0.00     0.203 C 
BRANCH  41  42
HETATM   42  O7  UNL     1      -4.414  -0.550   0.168  1.00  0.00    -0.379 OA
BRANCH  42  43
HETATM   43  C16 UNL     1      -5.526  -0.412  -0.614  1.00  0.00     0.183 C 
HETATM   44  C17 UNL     1      -6.677  -1.244  -0.087  1.00  0.00     0.217 C 
HETATM   45  C18 UNL     1      -7.923  -1.022  -0.885  1.00  0.00     0.071 C 
HETATM   46  C19 UNL     1      -8.211   0.402  -1.218  1.00  0.00     0.216 C 
HETATM   47  C20 UNL     1      -7.320   1.348  -0.463  1.00  0.00     0.179 C 
HETATM   48  C21 UNL     1      -5.861   1.058  -0.699  1.00  0.00     0.179 C 
BRANCH  44  49
HETATM   49  N6  UNL     1      -6.929  -1.002   1.302  1.00  0.00    -0.072 N 
ATOM     50  H63 UNL     1      -6.087  -1.143   1.860  1.00  0.00     0.274 HD
ATOM     51  H62 UNL     1      -7.079  -0.009   1.482  1.00  0.00     0.274 HD
ATOM     52  H61 UNL     1      -7.704  -1.562   1.657  1.00  0.00     0.274 HD
ENDBRANCH  44  49
BRANCH  46  53
HETATM   53  N7  UNL     1      -9.583   0.741  -0.854  1.00  0.00    -0.072 N 
ATOM     54  H73 UNL     1     -10.258   0.107  -1.282  1.00  0.00     0.274 HD
ATOM     55  H72 UNL     1      -9.779   0.532   0.125  1.00  0.00     0.274 HD
ATOM     56  H71 UNL     1      -9.780   1.715  -1.082  1.00  0.00     0.274 HD
ENDBRANCH  46  53
BRANCH  47  57
HETATM   57  O8  UNL     1      -7.558   2.636  -1.000  1.00  0.00    -0.391 OA
ATOM     58  H8  UNL     1      -6.995   3.234  -0.523  1.00  0.00     0.210 HD
ENDBRANCH  47  57
BRANCH  48  59
HETATM   59  O9  UNL     1      -5.140   1.758   0.266  1.00  0.00    -0.390 OA
ATOM     60  H9  UNL     1      -5.351   2.683   0.213  1.00  0.00     0.210 HD
ENDBRANCH  48  59
ENDBRANCH  42  43
ENDBRANCH  41  42
ENDBRANCH   5  41
TORSDOF 19
