REMARK  17 active torsions:
REMARK  status: ('A' for Active; 'I' for Inactive)
REMARK    1  A    between atoms: C4_9  and  C5_10 
REMARK       I    between atoms: C5_10  and  N3_12 
REMARK    2  A    between atoms: N3_12  and  C6_14 
REMARK    3  A    between atoms: C6_14  and  C7_15 
REMARK    4  A    between atoms: C6_14  and  C8_18 
REMARK    5  A    between atoms: C8_18  and  C9_19 
REMARK    6  A    between atoms: C8_18  and  S2_35 
REMARK    7  A    between atoms: C9_19  and  S1_20 
REMARK    8  A    between atoms: S1_20  and  C10_21 
REMARK    9  A    between atoms: C11_23  and  O7_24 
REMARK   10  A    between atoms: C11_23  and  C12_26 
REMARK   11  A    between atoms: C12_26  and  O8_27 
REMARK   12  A    between atoms: C13_29  and  O9_30 
REMARK   13  A    between atoms: C14_32  and  O10_33 
REMARK   14  A    between atoms: S2_35  and  N4_36 
REMARK   15  A    between atoms: C17_45  and  N5_46 
REMARK   16  A    between atoms: N5_46  and  C18_48 
REMARK   17  A    between atoms: C18_48  and  O15_49 
ROOT
HETATM    1  C6  UNL     1      -0.237   2.672  -1.215  1.00  0.00     0.207 C 
ENDROOT
BRANCH   1   2
HETATM    2  N3  UNL     1       0.929   1.796  -1.209  1.00  0.00    -0.340 N 
HETATM    3  C5  UNL     1       1.795   1.861  -0.092  1.00  0.00     0.275 C 
HETATM    4  O3  UNL     1       1.583   2.642   0.880  1.00  0.00    -0.266 OA
ATOM      5  H3  UNL     1       1.114   1.158  -1.983  1.00  0.00     0.163 HD
BRANCH   3   6
HETATM    6  C4  UNL     1       2.971   0.987  -0.082  1.00  0.00     0.177 A 
HETATM    7  N2  UNL     1       3.245   0.168  -1.124  1.00  0.00    -0.340 N 
HETATM    8  C3  UNL     1       4.348  -0.592  -1.015  1.00  0.00     0.146 A 
ATOM      9  H2  UNL     1       2.646   0.130  -1.949  1.00  0.00     0.167 HD
HETATM   10  C2  UNL     1       4.741  -1.472  -2.012  1.00  0.00     0.319 A 
HETATM   11  C16 UNL     1       5.175  -0.546   0.111  1.00  0.00     0.142 A 
HETATM   12  O1  UNL     1       5.821  -2.215  -1.904  1.00  0.00    -0.256 OA
HETATM   13  O2  UNL     1       4.063  -1.586  -3.064  1.00  0.00    -0.257 OA
HETATM   14  C1  UNL     1       6.610  -2.194  -0.868  1.00  0.00     0.190 A 
HETATM   15  N1  UNL     1       7.777  -2.995  -0.750  1.00  0.00    -0.072 NA
HETATM   16  C17 UNL     1       6.307  -1.350   0.181  1.00  0.00     0.115 A 
HETATM   17  O14 UNL     1       4.858   0.263   1.080  1.00  0.00    -0.269 OA
HETATM   18  C15 UNL     1       3.797   1.026   1.030  1.00  0.00     0.321 A 
HETATM   19  O13 UNL     1       3.541   1.788   1.998  1.00  0.00    -0.257 OA
BRANCH  16  20
HETATM   20  N5  UNL     1       7.139  -1.301   1.320  1.00  0.00    -0.363 N 
ATOM     21  H5  UNL     1       7.915  -0.639   1.354  1.00  0.00     0.162 HD
BRANCH  20  22
HETATM   22  C18 UNL     1       6.899  -2.179   2.433  1.00  0.00     0.287 C 
BRANCH  22  23
HETATM   23  O15 UNL     1       5.629  -1.995   2.989  1.00  0.00    -0.382 OA
ATOM     24  H15 UNL     1       5.470  -2.575   3.724  1.00  0.00     0.211 HD
ENDBRANCH  22  23
ENDBRANCH  20  22
ENDBRANCH  16  20
ENDBRANCH   3   6
ENDBRANCH   1   2
BRANCH   1  25
HETATM   25  C7  UNL     1       0.012   3.436  -2.513  1.00  0.00     0.198 C 
HETATM   26  O4  UNL     1       1.190   3.878  -2.696  1.00  0.00    -0.646 OA
HETATM   27  O5  UNL     1      -0.993   3.611  -3.417  1.00  0.00    -0.646 OA
ENDBRANCH   1  25
BRANCH   1  28
HETATM   28  C8  UNL     1      -1.549   1.896  -1.475  1.00  0.00     0.171 C 
BRANCH  28  29
HETATM   29  C9  UNL     1      -1.649   0.769  -0.522  1.00  0.00     0.101 C 
BRANCH  29  30
HETATM   30  S1  UNL     1      -3.013  -0.309  -0.645  1.00  0.00    -0.133 SA
BRANCH  30  31
HETATM   31  C10 UNL     1      -4.585   0.112   0.027  1.00  0.00     0.218 C 
HETATM   32  O6  UNL     1      -5.549  -0.852  -0.324  1.00  0.00    -0.332 OA
HETATM   33  C11 UNL     1      -5.534  -1.876   0.564  1.00  0.00     0.213 C 
HETATM   34  C13 UNL     1      -4.653  -1.511   1.710  1.00  0.00     0.214 C 
HETATM   35  C14 UNL     1      -4.481  -0.039   1.556  1.00  0.00     0.191 C 
BRANCH  33  36
HETATM   36  O7  UNL     1      -5.018  -3.059  -0.016  1.00  0.00    -0.362 OA
ATOM     37  H7  UNL     1      -5.007  -3.777   0.606  1.00  0.00     0.213 HD
ENDBRANCH  33  36
BRANCH  33  38
HETATM   38  C12 UNL     1      -6.945  -2.255   1.036  1.00  0.00     0.235 C 
BRANCH  38  39
HETATM   39  O8  UNL     1      -7.571  -1.193   1.655  1.00  0.00    -0.395 OA
ATOM     40  H8  UNL     1      -8.444  -1.428   1.947  1.00  0.00     0.209 HD
ENDBRANCH  38  39
ENDBRANCH  33  38
BRANCH  34  41
HETATM   41  O9  UNL     1      -3.383  -2.098   1.514  1.00  0.00    -0.387 OA
ATOM     42  H9  UNL     1      -2.822  -1.865   2.244  1.00  0.00     0.210 HD
ENDBRANCH  34  41
BRANCH  35  43
HETATM   43  O10 UNL     1      -5.468   0.726   2.132  1.00  0.00    -0.389 OA
ATOM     44  H10 UNL     1      -5.404   0.633   3.075  1.00  0.00     0.210 HD
ENDBRANCH  35  43
ENDBRANCH  30  31
ENDBRANCH  29  30
ENDBRANCH  28  29
BRANCH  28  45
HETATM   45  S2  UNL     1      -2.808   3.120  -1.078  1.00  0.00     0.231 S 
HETATM   46  O11 UNL     1      -4.027   2.996  -1.858  1.00  0.00    -0.206 OA
HETATM   47  O12 UNL     1      -2.172   4.501  -1.388  1.00  0.00    -0.206 OA
BRANCH  45  48
HETATM   48  N4  UNL     1      -3.016   3.239   0.655  1.00  0.00    -0.328 N 
ATOM     49  H42 UNL     1      -2.490   2.686   1.332  1.00  0.00     0.168 HD
ATOM     50  H41 UNL     1      -3.729   3.933   0.880  1.00  0.00     0.168 HD
ENDBRANCH  45  48
ENDBRANCH  28  45
ENDBRANCH   1  28
TORSDOF 17
