REMARK  16 active torsions:
REMARK  status: ('A' for Active; 'I' for Inactive)
REMARK       I    between atoms: C2_2  and  N1_4 
REMARK    1  A    between atoms: N1_4  and  C3_6 
REMARK    2  A    between atoms: C4_7  and  O2_8 
REMARK    3  A    between atoms: C6_11  and  N2_12 
REMARK    4  A    between atoms: C7_17  and  C8_18 
REMARK    5  A    between atoms: C8_18  and  N5_19 
REMARK       I    between atoms: N5_19  and  C9_20 
REMARK    6  A    between atoms: C9_20  and  C10_22 
REMARK    7  A    between atoms: C10_22  and  C11_23 
REMARK    8  A    between atoms: C11_23  and  C12_24 
REMARK       I    between atoms: C12_24  and  N6_26 
REMARK    9  A    between atoms: N6_26  and  C13_28 
REMARK   10  A    between atoms: N8_31  and  N9_32 
REMARK   11  A    between atoms: C15_38  and  N11_39 
REMARK   12  A    between atoms: C16_44  and  N13_45 
REMARK   13  A    between atoms: C19_51  and  O6_52 
REMARK   14  A    between atoms: C20_55  and  C21_56 
REMARK   15  A    between atoms: C21_56  and  O8_57 
REMARK   16  A    between atoms: C21_56  and  O9_59 
ROOT
HETATM    1  N5  UNL     1      -0.800   0.352   1.862  1.00  0.00    -0.381 NA
HETATM    2  C9  UNL     1      -1.894   0.991   1.455  1.00  0.00     0.291 C 
HETATM    3  O3  UNL     1      -2.539   0.777   0.385  1.00  0.00    -0.257 OA
ENDROOT
BRANCH   2   4
HETATM    4  C10 UNL     1      -2.460   2.127   2.348  1.00  0.00     0.128 C 
BRANCH   4   5
HETATM    5  C11 UNL     1      -3.510   2.804   1.554  1.00  0.00     0.113 C 
BRANCH   5   6
HETATM    6  C12 UNL     1      -4.628   1.900   1.237  1.00  0.00     0.223 C 
HETATM    7  O4  UNL     1      -4.829   0.862   1.879  1.00  0.00    -0.273 OA
HETATM    8  N6  UNL     1      -5.512   2.231   0.138  1.00  0.00    -0.309 N 
ATOM      9  H6  UNL     1      -5.374   3.104  -0.372  1.00  0.00     0.170 HD
BRANCH   8  10
HETATM   10  C13 UNL     1      -6.547   1.376  -0.233  1.00  0.00     0.176 A 
HETATM   11  N7  UNL     1      -6.772   0.195   0.322  1.00  0.00    -0.259 N 
HETATM   12  N8  UNL     1      -7.741  -0.591  -0.071  1.00  0.00    -0.183 N 
ATOM     13  H7  UNL     1      -6.168  -0.113   1.084  1.00  0.00     0.191 HD
HETATM   14  C14 UNL     1      -8.587  -0.234  -1.087  1.00  0.00     0.178 A 
HETATM   15  N10 UNL     1      -9.573  -1.072  -1.466  1.00  0.00    -0.172 N 
HETATM   16  C17 UNL     1      -8.406   0.991  -1.711  1.00  0.00     0.110 A 
HETATM   17  C15 UNL     1     -10.404  -0.706  -2.478  1.00  0.00     0.679 A 
ATOM     18  H10 UNL     1      -9.694  -1.971  -0.999  1.00  0.00     0.186 HD
HETATM   19  N12 UNL     1     -10.267   0.456  -3.099  1.00  0.00    -0.176 N 
HETATM   20  C16 UNL     1      -9.270   1.339  -2.741  1.00  0.00     0.133 A 
ATOM     21  H12 UNL     1     -10.908   0.701  -3.853  1.00  0.00     0.186 HD
HETATM   22  C18 UNL     1      -7.391   1.777  -1.279  1.00  0.00     0.234 A 
HETATM   23  O5  UNL     1      -7.192   2.894  -1.826  1.00  0.00    -0.283 OA
BRANCH  12  24
HETATM   24  N9  UNL     1      -7.951  -1.850   0.519  1.00  0.00    -0.322 N 
ATOM     25  H92 UNL     1      -7.321  -2.116   1.276  1.00  0.00     0.179 HD
ATOM     26  H91 UNL     1      -8.707  -2.463   0.213  1.00  0.00     0.179 HD
ENDBRANCH  12  24
BRANCH  17  27
HETATM   27  N11 UNL     1     -11.321  -1.514  -2.873  1.00  0.00    -0.234 N 
ATOM     28 2H11 UNL     1     -11.426  -2.409  -2.395  1.00  0.00     0.174 HD
ATOM     29 1H11 UNL     1     -11.944  -1.239  -3.632  1.00  0.00     0.174 HD
ENDBRANCH  17  27
BRANCH  20  30
HETATM   30  N13 UNL     1      -9.193   2.391  -3.355  1.00  0.00    -0.384 N 
ATOM     31 2H13 UNL     1      -9.828   2.647  -4.112  1.00  0.00     0.157 HD
ATOM     32 1H13 UNL     1      -8.456   3.044  -3.090  1.00  0.00     0.157 HD
ENDBRANCH  20  30
ENDBRANCH   8  10
ENDBRANCH   5   6
ENDBRANCH   4   5
ENDBRANCH   2   4
BRANCH   1  33
HETATM   33  C8  UNL     1       0.334  -0.322   2.266  1.00  0.00     0.221 C 
BRANCH  33  34
HETATM   34  C7  UNL     1       1.448   0.009   1.320  1.00  0.00     0.130 A 
HETATM   35  N4  UNL     1       1.335   0.817   0.259  1.00  0.00    -0.280 N 
HETATM   36  N3  UNL     1       2.478   0.868  -0.328  1.00  0.00    -0.235 N 
ATOM     37  H4  UNL     1       0.489   1.307  -0.033  1.00  0.00     0.189 HD
HETATM   38  N2  UNL     1       3.400   0.082   0.336  1.00  0.00    -0.225 N 
ATOM     39  H3  UNL     1       2.676   1.413  -1.167  1.00  0.00     0.208 HD
HETATM   40  C19 UNL     1       2.726  -0.432   1.350  1.00  0.00     0.192 A 
BRANCH  38  41
HETATM   41  C6  UNL     1       4.759  -0.045  -0.106  1.00  0.00     0.251 C 
HETATM   42  C5  UNL     1       5.638   0.998   0.536  1.00  0.00     0.089 C 
HETATM   43  C4  UNL     1       7.064   0.900   0.173  1.00  0.00     0.147 C 
HETATM   44  C3  UNL     1       7.481  -0.421  -0.360  1.00  0.00     0.147 C 
HETATM   45  C20 UNL     1       6.496  -1.504  -0.394  1.00  0.00     0.204 C 
HETATM   46  O7  UNL     1       5.290  -1.279   0.268  1.00  0.00    -0.352 OA
BRANCH  43  47
HETATM   47  O2  UNL     1       7.766   1.194   1.391  1.00  0.00    -0.393 OA
ATOM     48  H2  UNL     1       7.499   2.040   1.732  1.00  0.00     0.210 HD
ENDBRANCH  43  47
BRANCH  44  49
HETATM   49  N1  UNL     1       8.751  -0.816   0.261  1.00  0.00    -0.352 N 
HETATM   50  C2  UNL     1       9.793  -1.583  -0.223  1.00  0.00     0.214 C 
HETATM   51  C1  UNL     1      11.007  -1.794   0.653  1.00  0.00     0.117 C 
HETATM   52  O1  UNL     1       9.837  -2.123  -1.328  1.00  0.00    -0.274 OA
ATOM     53  H1  UNL     1       8.887  -0.465   1.209  1.00  0.00     0.163 HD
ENDBRANCH  44  49
BRANCH  45  54
HETATM   54  C21 UNL     1       6.089  -1.948  -1.795  1.00  0.00     0.284 C 
BRANCH  54  55
HETATM   55  O8  UNL     1       7.043  -1.891  -2.756  1.00  0.00    -0.369 OA
ATOM     56  H8  UNL     1       6.789  -2.168  -3.629  1.00  0.00     0.212 HD
ENDBRANCH  54  55
BRANCH  54  57
HETATM   57  O9  UNL     1       5.422  -3.207  -1.700  1.00  0.00    -0.369 OA
ATOM     58  H9  UNL     1       5.168  -3.484  -2.573  1.00  0.00     0.212 HD
ENDBRANCH  54  57
ENDBRANCH  45  54
ENDBRANCH  38  41
BRANCH  40  59
HETATM   59  O6  UNL     1       3.233  -1.299   2.319  1.00  0.00    -0.343 OA
ATOM     60  H6  UNL     1       2.749  -1.668   3.048  1.00  0.00     0.219 HD
ENDBRANCH  40  59
ENDBRANCH  33  34
ENDBRANCH   1  33
TORSDOF 16
