REMARK  21 active torsions:
REMARK  status: ('A' for Active; 'I' for Inactive)
REMARK    1  A    between atoms: N1_1  and  C1_4 
REMARK    2  A    between atoms: C4_7  and  C5_8 
REMARK    3  A    between atoms: C5_8  and  N2_9 
REMARK    4  A    between atoms: N2_9  and  C6_12 
REMARK    5  A    between atoms: C6_12  and  C7_13 
REMARK    6  A    between atoms: N3_15  and  C9_16 
REMARK    7  A    between atoms: C9_16  and  C10_17 
REMARK    8  A    between atoms: C10_17  and  O1_18 
REMARK    9  A    between atoms: C10_17  and  C11_20 
REMARK   10  A    between atoms: C11_20  and  O2_21 
REMARK   11  A    between atoms: C11_20  and  C12_23 
REMARK   12  A    between atoms: C12_23  and  O3_24 
REMARK   13  A    between atoms: C13_26  and  C14_27 
REMARK   14  A    between atoms: C14_27  and  O4_28 
REMARK   15  A    between atoms: C15_31  and  N4_32 
REMARK   16  A    between atoms: C16_33  and  O6_34 
REMARK   17  A    between atoms: C18_38  and  N5_39 
REMARK       I    between atoms: N5_39  and  C19_41 
REMARK   18  A    between atoms: C19_41  and  C20_43 
REMARK   19  A    between atoms: C20_43  and  N6_44 
REMARK   20  A    between atoms: C20_43  and  N7_48 
REMARK   21  A    between atoms: C21_52  and  O8_53 
ROOT
HETATM    1  C12 UNL     1      -1.815  -0.076  -0.024  1.00  0.00     0.144 C 
HETATM    2  C13 UNL     1      -1.420   1.275  -0.316  1.00  0.00     0.187 C 
HETATM    3  O5  UNL     1      -2.480   2.007   0.300  1.00  0.00    -0.353 OA
HETATM    4  C15 UNL     1      -3.599   1.236   0.340  1.00  0.00     0.264 C 
HETATM    5  C21 UNL     1      -3.304  -0.048  -0.377  1.00  0.00     0.207 C 
ENDROOT
BRANCH   1   6
HETATM    6  C11 UNL     1      -1.079  -1.298  -0.094  1.00  0.00     0.191 C 
BRANCH   6   7
HETATM    7  C10 UNL     1      -0.615  -2.030  -1.261  1.00  0.00     0.190 C 
BRANCH   7   8
HETATM    8  C9  UNL     1       0.591  -1.550  -2.024  1.00  0.00     0.124 C 
BRANCH   8   9
HETATM    9  N3  UNL     1       1.718  -1.176  -1.285  1.00  0.00    -0.264 N 
HETATM   10  C8  UNL     1       2.725  -1.997  -0.847  1.00  0.00     0.145 A 
HETATM   11  C7  UNL     1       3.650  -1.249  -0.191  1.00  0.00     0.070 A 
HETATM   12  N9  UNL     1       3.212   0.026  -0.224  1.00  0.00    -0.287 N 
HETATM   13  N8  UNL     1       2.083   0.016  -0.871  1.00  0.00    -0.237 N 
ATOM     14  H9  UNL     1       3.676   0.840   0.180  1.00  0.00     0.188 HD
ATOM     15  H8  UNL     1       1.532   0.857  -1.041  1.00  0.00     0.209 HD
BRANCH  11  16
HETATM   16  C6  UNL     1       4.954  -1.643   0.441  1.00  0.00     0.292 C 
BRANCH  16  17
HETATM   17  N2  UNL     1       5.623  -0.525   1.083  1.00  0.00    -0.066 N 
ATOM     18  H22 UNL     1       5.067  -0.106   1.829  1.00  0.00     0.277 HD
ATOM     19  H21 UNL     1       5.685   0.297   0.483  1.00  0.00     0.277 HD
BRANCH  17  20
HETATM   20  C5  UNL     1       6.924  -0.990   1.541  1.00  0.00     0.272 C 
BRANCH  20  21
HETATM   21  C4  UNL     1       7.948  -0.086   0.940  1.00  0.00    -0.017 A 
HETATM   22  C3  UNL     1       7.942   1.274   0.936  1.00  0.00     0.014 A 
HETATM   23  C2  UNL     1       8.894   1.977   0.205  1.00  0.00     0.048 A 
HETATM   24  C1  UNL     1       9.842   1.250  -0.510  1.00  0.00     0.098 A 
HETATM   25  N10 UNL     1       9.855  -0.080  -0.502  1.00  0.00    -0.352 N 
HETATM   26  C22 UNL     1       8.948  -0.744   0.198  1.00  0.00     0.098 A 
ATOM     27  H10 UNL     1      10.562  -0.587  -1.034  1.00  0.00     0.166 HD
BRANCH  24  28
HETATM   28  N1  UNL     1      10.699   1.920  -1.156  1.00  0.00    -0.385 N 
ATOM     29  H12 UNL     1      10.689   2.940  -1.162  1.00  0.00     0.157 HD
ATOM     30  H11 UNL     1      11.394   1.387  -1.680  1.00  0.00     0.157 HD
ENDBRANCH  24  28
ENDBRANCH  20  21
ENDBRANCH  17  20
ENDBRANCH  16  17
ENDBRANCH  11  16
ENDBRANCH   8   9
ENDBRANCH   7   8
BRANCH   7  31
HETATM   31  O1  UNL     1      -1.581  -2.339  -2.210  1.00  0.00    -0.388 OA
ATOM     32  H1  UNL     1      -2.342  -2.642  -1.729  1.00  0.00     0.210 HD
ENDBRANCH   7  31
ENDBRANCH   6   7
BRANCH   6  33
HETATM   33  O2  UNL     1       0.052  -1.133   0.764  1.00  0.00    -0.389 OA
ATOM     34  H2  UNL     1      -0.251  -0.655   1.527  1.00  0.00     0.210 HD
ENDBRANCH   6  33
ENDBRANCH   1   6
BRANCH   1  35
HETATM   35  O3  UNL     1      -1.997   0.010   1.438  1.00  0.00    -0.382 OA
ATOM     36  H3  UNL     1      -2.487   0.823   1.485  1.00  0.00     0.211 HD
ENDBRANCH   1  35
BRANCH   2  37
HETATM   37  C14 UNL     1      -1.315   1.853  -1.666  1.00  0.00     0.199 C 
BRANCH  37  38
HETATM   38  O4  UNL     1      -0.992   3.226  -1.468  1.00  0.00    -0.398 OA
ATOM     39  H4  UNL     1      -0.924   3.599  -2.339  1.00  0.00     0.209 HD
ENDBRANCH  37  38
ENDBRANCH   2  37
BRANCH   5  40
HETATM   40  O8  UNL     1      -3.552  -0.018  -1.700  1.00  0.00    -0.388 OA
ATOM     41  H8  UNL     1      -4.476  -0.001  -1.919  1.00  0.00     0.210 HD
ENDBRANCH   5  40
BRANCH   4  42
HETATM   42  N4  UNL     1      -4.825   1.910  -0.083  1.00  0.00    -0.277 N 
HETATM   43  C16 UNL     1      -4.890   3.215  -0.253  1.00  0.00     0.153 A 
HETATM   44  C17 UNL     1      -6.057   3.760  -0.668  1.00  0.00     0.109 A 
HETATM   45  S1  UNL     1      -7.063   2.398  -0.811  1.00  0.00    -0.061 SA
HETATM   46  C18 UNL     1      -5.924   1.184  -0.327  1.00  0.00     0.157 A 
BRANCH  43  47
HETATM   47  O6  UNL     1      -3.789   4.123  -0.015  1.00  0.00    -0.345 OA
ATOM     48  H6  UNL     1      -3.836   5.064  -0.138  1.00  0.00     0.219 HD
ENDBRANCH  43  47
BRANCH  46  49
HETATM   49  N5  UNL     1      -6.086  -0.089  -0.193  1.00  0.00    -0.304 N 
HETATM   50  C19 UNL     1      -7.320  -0.687  -0.497  1.00  0.00     0.281 C 
HETATM   51  O7  UNL     1      -7.480  -1.126  -1.709  1.00  0.00    -0.269 OA
ATOM     52  H5  UNL     1      -5.312  -0.666   0.136  1.00  0.00     0.171 HD
BRANCH  50  53
HETATM   53  C20 UNL     1      -8.445  -0.873   0.428  1.00  0.00     0.468 C 
BRANCH  53  54
HETATM   54  N6  UNL     1      -9.196  -2.056  -0.031  1.00  0.00    -0.042 N 
ATOM     55  H63 UNL     1      -9.487  -1.991  -1.006  1.00  0.00     0.277 HD
ATOM     56  H62 UNL     1      -8.613  -2.888  -0.124  1.00  0.00     0.277 HD
ATOM     57  H61 UNL     1      -9.978  -2.185   0.612  1.00  0.00     0.277 HD
ENDBRANCH  53  54
BRANCH  53  58
HETATM   58  N7  UNL     1      -8.114  -0.886   1.801  1.00  0.00    -0.042 N 
ATOM     59  H73 UNL     1      -7.397  -1.589   1.979  1.00  0.00     0.277 HD
ATOM     60  H72 UNL     1      -7.601  -0.038   2.043  1.00  0.00     0.277 HD
ATOM     61  H71 UNL     1      -8.896  -1.015   2.444  1.00  0.00     0.277 HD
ENDBRANCH  53  58
ENDBRANCH  50  53
ENDBRANCH  46  49
ENDBRANCH   4  42
TORSDOF 21
