REMARK  21 active torsions:
REMARK  status: ('A' for Active; 'I' for Inactive)
REMARK    1  A    between atoms: N1_1  and  C1_5 
REMARK    2  A    between atoms: C1_5  and  C2_6 
REMARK    3  A    between atoms: C4_8  and  C5_9 
REMARK    4  A    between atoms: C5_9  and  O1_10 
REMARK    5  A    between atoms: C6_12  and  O2_13 
REMARK    6  A    between atoms: C7_15  and  O3_16 
REMARK    7  A    between atoms: O3_16  and  C8_17 
REMARK    8  A    between atoms: C9_18  and  O4_19 
REMARK    9  A    between atoms: O4_19  and  C10_20 
REMARK   10  A    between atoms: C12_22  and  N2_23 
REMARK   11  A    between atoms: C12_22  and  C13_27 
REMARK   12  A    between atoms: C13_27  and  O5_28 
REMARK   13  A    between atoms: C15_32  and  N3_33 
REMARK   14  A    between atoms: C18_39  and  N4_40 
REMARK   15  A    between atoms: C19_44  and  O7_45 
REMARK   16  A    between atoms: O7_45  and  C20_46 
REMARK   17  A    between atoms: C21_48  and  C22_49 
REMARK   18  A    between atoms: C22_49  and  N5_50 
REMARK   19  A    between atoms: C23_54  and  O9_55 
REMARK   20  A    between atoms: C24_57  and  N6_58 
REMARK   21  A    between atoms: C25_62  and  O10_63 
ROOT
HETATM    1  C8  UNL     1       0.080   0.148  -0.390  1.00  0.00     0.186 C 
HETATM    2  C9  UNL     1      -0.329   1.552  -0.523  1.00  0.00     0.186 C 
HETATM    3  C15 UNL     1       0.808   2.552  -0.579  1.00  0.00     0.215 C 
HETATM    4  C16 UNL     1       1.330   2.760  -1.981  1.00  0.00     0.037 C 
HETATM    5  C17 UNL     1       2.090   1.603  -2.515  1.00  0.00     0.037 C 
HETATM    6  C18 UNL     1       1.340   0.311  -2.581  1.00  0.00     0.215 C 
HETATM    7  C19 UNL     1       1.195  -0.335  -1.257  1.00  0.00     0.186 C 
ENDROOT
BRANCH   7   8
HETATM    8  O7  UNL     1       2.444  -0.359  -0.639  1.00  0.00    -0.349 OA
BRANCH   8   9
HETATM    9  C20 UNL     1       2.998  -1.604  -0.492  1.00  0.00     0.291 C 
HETATM   10  O8  UNL     1       2.993  -1.981   0.848  1.00  0.00    -0.349 OA
HETATM   11  C21 UNL     1       3.902  -1.292   1.625  1.00  0.00     0.181 C 
HETATM   12  C23 UNL     1       5.041  -0.717   0.859  1.00  0.00     0.182 C 
HETATM   13  C24 UNL     1       5.472  -1.779  -0.160  1.00  0.00     0.247 C 
HETATM   14  C25 UNL     1       4.309  -1.831  -1.162  1.00  0.00     0.206 C 
BRANCH  11  15
HETATM   15  C22 UNL     1       4.431  -2.279   2.640  1.00  0.00     0.264 C 
BRANCH  15  16
HETATM   16  N5  UNL     1       5.390  -1.737   3.549  1.00  0.00    -0.077 N 
ATOM     17  H53 UNL     1       6.160  -1.306   3.038  1.00  0.00     0.274 HD
ATOM     18  H52 UNL     1       5.010  -0.915   4.018  1.00  0.00     0.274 HD
ATOM     19  H51 UNL     1       5.747  -2.403   4.234  1.00  0.00     0.274 HD
ENDBRANCH  15  16
ENDBRANCH  11  15
BRANCH  12  20
HETATM   20  O9  UNL     1       6.081  -0.325   1.679  1.00  0.00    -0.391 OA
ATOM     21  H9  UNL     1       6.808   0.042   1.190  1.00  0.00     0.210 HD
ENDBRANCH  12  20
BRANCH  13  22
HETATM   22  N6  UNL     1       6.682  -1.389  -0.845  1.00  0.00    -0.070 N 
ATOM     23  H63 UNL     1       6.587  -0.471  -1.279  1.00  0.00     0.274 HD
ATOM     24  H62 UNL     1       7.432  -1.175  -0.188  1.00  0.00     0.274 HD
ATOM     25  H61 UNL     1       6.969  -2.095  -1.523  1.00  0.00     0.274 HD
ENDBRANCH  13  22
BRANCH  14  26
HETATM   26  O10 UNL     1       4.635  -0.944  -2.162  1.00  0.00    -0.388 OA
ATOM     27  H10 UNL     1       5.471  -1.089  -2.589  1.00  0.00     0.210 HD
ENDBRANCH  14  26
ENDBRANCH   8   9
ENDBRANCH   7   8
BRANCH   1  28
HETATM   28  O3  UNL     1      -1.019  -0.699  -0.518  1.00  0.00    -0.348 OA
BRANCH  28  29
HETATM   29  C7  UNL     1      -1.335  -1.437   0.584  1.00  0.00     0.289 C 
HETATM   30  C6  UNL     1      -1.272  -2.935   0.391  1.00  0.00     0.179 C 
HETATM   31  C4  UNL     1      -2.198  -3.316  -0.749  1.00  0.00     0.045 C 
HETATM   32  C3  UNL     1      -3.606  -3.023  -0.213  1.00  0.00     0.043 C 
HETATM   33  C2  UNL     1      -3.618  -1.587   0.207  1.00  0.00     0.150 C 
HETATM   34  O11 UNL     1      -2.626  -1.217   1.082  1.00  0.00    -0.352 OA
BRANCH  30  35
HETATM   35  O2  UNL     1      -0.028  -3.476   0.321  1.00  0.00    -0.390 OA
ATOM     36  H2  UNL     1       0.552  -3.237   1.035  1.00  0.00     0.210 HD
ENDBRANCH  30  35
BRANCH  31  37
HETATM   37  C5  UNL     1      -2.065  -4.811  -0.973  1.00  0.00     0.171 C 
BRANCH  37  38
HETATM   38  O1  UNL     1      -2.252  -5.511   0.193  1.00  0.00    -0.400 OA
ATOM     39  H1  UNL     1      -2.169  -6.447   0.053  1.00  0.00     0.209 HD
ENDBRANCH  37  38
ENDBRANCH  31  37
BRANCH  33  40
HETATM   40  C1  UNL     1      -4.946  -1.354   0.935  1.00  0.00     0.261 C 
BRANCH  40  41
HETATM   41  N1  UNL     1      -4.929  -2.184   2.120  1.00  0.00    -0.077 N 
ATOM     42  H13 UNL     1      -4.750  -3.168   1.918  1.00  0.00     0.274 HD
ATOM     43  H12 UNL     1      -4.114  -2.022   2.711  1.00  0.00     0.274 HD
ATOM     44  H11 UNL     1      -5.813  -2.029   2.605  1.00  0.00     0.274 HD
ENDBRANCH  40  41
ENDBRANCH  33  40
ENDBRANCH  28  29
ENDBRANCH   1  28
BRANCH   6  45
HETATM   45  N4  UNL     1       0.109   0.407  -3.335  1.00  0.00    -0.072 N 
ATOM     46  H43 UNL     1      -0.483   1.153  -2.970  1.00  0.00     0.274 HD
ATOM     47  H42 UNL     1       0.283   0.774  -4.270  1.00  0.00     0.274 HD
ATOM     48  H41 UNL     1      -0.403  -0.474  -3.380  1.00  0.00     0.274 HD
ENDBRANCH   6  45
BRANCH   2  49
HETATM   49  O4  UNL     1      -1.113   1.958   0.558  1.00  0.00    -0.351 OA
BRANCH  49  50
HETATM   50  C10 UNL     1      -2.298   2.554   0.137  1.00  0.00     0.262 C 
HETATM   51  C11 UNL     1      -2.349   4.018   0.542  1.00  0.00     0.104 C 
HETATM   52  C12 UNL     1      -3.831   4.303   0.416  1.00  0.00     0.170 C 
HETATM   53  C14 UNL     1      -4.421   2.957   0.739  1.00  0.00     0.212 C 
HETATM   54  O6  UNL     1      -3.445   2.016   0.630  1.00  0.00    -0.359 OA
BRANCH  52  55
HETATM   55  N2  UNL     1      -4.226   4.663  -0.916  1.00  0.00    -0.066 N 
ATOM     56  H23 UNL     1      -3.675   5.450  -1.258  1.00  0.00     0.275 HD
ATOM     57  H22 UNL     1      -3.935   3.951  -1.586  1.00  0.00     0.275 HD
ATOM     58  H21 UNL     1      -5.224   4.855  -1.001  1.00  0.00     0.275 HD
ENDBRANCH  52  55
BRANCH  52  59
HETATM   59  C13 UNL     1      -4.253   5.347   1.431  1.00  0.00     0.205 C 
BRANCH  59  60
HETATM   60  O5  UNL     1      -5.646   5.464   1.388  1.00  0.00    -0.398 OA
ATOM     61  H5  UNL     1      -5.910   6.118   2.024  1.00  0.00     0.209 HD
ENDBRANCH  59  60
ENDBRANCH  52  59
ENDBRANCH  49  50
ENDBRANCH   2  49
BRANCH   3  62
HETATM   62  N3  UNL     1       1.819   2.365   0.409  1.00  0.00    -0.072 N 
ATOM     63  H33 UNL     1       1.404   2.354   1.341  1.00  0.00     0.274 HD
ATOM     64  H32 UNL     1       2.183   1.413   0.366  1.00  0.00     0.274 HD
ATOM     65  H31 UNL     1       2.584   3.038   0.371  1.00  0.00     0.274 HD
ENDBRANCH   3  62
TORSDOF 21
