REMARK  21 active torsions:
REMARK  status: ('A' for Active; 'I' for Inactive)
REMARK    1  A    between atoms: C3_4  and  O2_5 
REMARK    2  A    between atoms: O2_5  and  C4_6 
REMARK    3  A    between atoms: C5_8  and  O4_9 
REMARK    4  A    between atoms: O4_9  and  C6_10 
REMARK    5  A    between atoms: C8_12  and  O5_13 
REMARK    6  A    between atoms: O5_13  and  C9_14 
REMARK    7  A    between atoms: C10_16  and  O7_17 
REMARK    8  A    between atoms: O7_17  and  C11_18 
REMARK    9  A    between atoms: C11_18  and  C12_19 
REMARK   10  A    between atoms: C11_18  and  C13_22 
REMARK   11  A    between atoms: C12_19  and  O8_20 
REMARK   12  A    between atoms: C13_22  and  O9_23 
REMARK   13  A    between atoms: C14_25  and  O10_26 
REMARK   14  A    between atoms: C15_28  and  O11_29 
REMARK   15  A    between atoms: C16_31  and  N1_32 
REMARK   16  A    between atoms: C18_37  and  N2_38 
REMARK   17  A    between atoms: C19_42  and  N3_43 
REMARK   18  A    between atoms: C21_48  and  N4_49 
REMARK   19  A    between atoms: C22_53  and  O12_54 
REMARK   20  A    between atoms: C23_56  and  O13_57 
REMARK   21  A    between atoms: C24_59  and  N5_60 
ROOT
HETATM    1  C6  UNL     1       0.019   0.535  -0.251  1.00  0.00     0.157 C 
HETATM    2  C7  UNL     1       1.438   0.158   0.086  1.00  0.00     0.068 C 
HETATM    3  C8  UNL     1       2.476   0.586  -0.888  1.00  0.00     0.157 C 
HETATM    4  C16 UNL     1       1.918   0.587  -2.280  1.00  0.00     0.214 C 
HETATM    5  C17 UNL     1       0.775   1.543  -2.419  1.00  0.00     0.070 C 
HETATM    6  C18 UNL     1      -0.027   1.721  -1.157  1.00  0.00     0.214 C 
ENDROOT
BRANCH   1   7
HETATM    7  O4  UNL     1      -0.647  -0.566  -0.653  1.00  0.00    -0.352 OA
BRANCH   7   8
HETATM    8  C5  UNL     1      -1.659  -1.051   0.104  1.00  0.00     0.293 C 
HETATM    9  O3  UNL     1      -2.853  -0.836  -0.639  1.00  0.00    -0.327 OA
HETATM   10  C4  UNL     1      -3.935  -1.091   0.197  1.00  0.00     0.296 C 
HETATM   11  C21 UNL     1      -4.052  -2.585   0.387  1.00  0.00     0.240 C 
HETATM   12  C20 UNL     1      -2.839  -3.236  -0.214  1.00  0.00     0.075 C 
HETATM   13  C19 UNL     1      -1.622  -2.519   0.375  1.00  0.00     0.240 C 
BRANCH  10  14
HETATM   14  O2  UNL     1      -5.125  -0.595  -0.319  1.00  0.00    -0.327 OA
BRANCH  14  15
HETATM   15  C3  UNL     1      -5.675   0.381   0.511  1.00  0.00     0.294 C 
HETATM   16  O1  UNL     1      -6.895  -0.040   1.017  1.00  0.00    -0.351 OA
HETATM   17  C2  UNL     1      -7.876   0.919   0.971  1.00  0.00     0.153 C 
HETATM   18  C1  UNL     1      -9.012   0.457   1.893  1.00  0.00     0.042 C 
HETATM   19  C24 UNL     1      -7.435   2.264   1.513  1.00  0.00     0.243 C 
HETATM   20  C23 UNL     1      -6.179   2.748   0.818  1.00  0.00     0.184 C 
HETATM   21  C22 UNL     1      -5.834   1.696  -0.223  1.00  0.00     0.204 C 
BRANCH  19  22
HETATM   22  N5  UNL     1      -8.493   3.205   1.201  1.00  0.00    -0.070 N 
ATOM     23  H53 UNL     1      -8.732   3.229   0.210  1.00  0.00     0.274 HD
ATOM     24  H52 UNL     1      -9.407   2.912   1.545  1.00  0.00     0.274 HD
ATOM     25  H51 UNL     1      -8.196   4.110   1.566  1.00  0.00     0.274 HD
ENDBRANCH  19  22
BRANCH  20  26
HETATM   26  O13 UNL     1      -6.361   4.006   0.244  1.00  0.00    -0.391 OA
ATOM     27  H13 UNL     1      -6.577   4.664   0.895  1.00  0.00     0.210 HD
ENDBRANCH  20  26
BRANCH  21  28
HETATM   28  O12 UNL     1      -4.595   1.993  -0.789  1.00  0.00    -0.388 OA
ATOM     29  H12 UNL     1      -4.695   2.818  -1.249  1.00  0.00     0.210 HD
ENDBRANCH  21  28
ENDBRANCH  14  15
ENDBRANCH  10  14
BRANCH  11  30
HETATM   30  N4  UNL     1      -5.235  -3.075  -0.330  1.00  0.00    -0.070 N 
ATOM     31  H43 UNL     1      -6.085  -2.583  -0.055  1.00  0.00     0.274 HD
ATOM     32  H42 UNL     1      -5.227  -2.810  -1.315  1.00  0.00     0.274 HD
ATOM     33  H41 UNL     1      -5.314  -4.084  -0.202  1.00  0.00     0.274 HD
ENDBRANCH  11  30
BRANCH  13  34
HETATM   34  N3  UNL     1      -0.467  -3.200  -0.136  1.00  0.00    -0.070 N 
ATOM     35  H33 UNL     1      -0.368  -3.024  -1.136  1.00  0.00     0.274 HD
ATOM     36  H32 UNL     1       0.385  -2.757   0.208  1.00  0.00     0.274 HD
ATOM     37  H31 UNL     1      -0.442  -4.203   0.049  1.00  0.00     0.274 HD
ENDBRANCH  13  34
ENDBRANCH   7   8
ENDBRANCH   1   7
BRANCH   6  38
HETATM   38  N2  UNL     1       0.511   2.863  -0.437  1.00  0.00    -0.072 N 
ATOM     39  H23 UNL     1       0.036   3.027   0.451  1.00  0.00     0.274 HD
ATOM     40  H22 UNL     1       1.444   2.689  -0.064  1.00  0.00     0.274 HD
ATOM     41  H21 UNL     1       0.480   3.673  -1.056  1.00  0.00     0.274 HD
ENDBRANCH   6  38
BRANCH   3  42
HETATM   42  O5  UNL     1       3.507  -0.361  -0.861  1.00  0.00    -0.351 OA
BRANCH  42  43
HETATM   43  C9  UNL     1       4.740   0.164  -0.535  1.00  0.00     0.294 C 
HETATM   44  O6  UNL     1       5.310  -0.483   0.557  1.00  0.00    -0.326 OA
HETATM   45  C10 UNL     1       6.678  -0.164   0.518  1.00  0.00     0.295 C 
HETATM   46  C14 UNL     1       7.024  -0.040  -0.948  1.00  0.00     0.207 C 
HETATM   47  C15 UNL     1       5.691  -0.217  -1.645  1.00  0.00     0.207 C 
BRANCH  45  48
HETATM   48  O7  UNL     1       7.324  -1.164   1.179  1.00  0.00    -0.349 OA
BRANCH  48  49
HETATM   49  C11 UNL     1       8.019  -0.868   2.299  1.00  0.00     0.171 C 
BRANCH  49  50
HETATM   50  C12 UNL     1       7.633  -1.576   3.551  1.00  0.00     0.198 C 
BRANCH  50  51
HETATM   51  O8  UNL     1       6.281  -1.270   3.838  1.00  0.00    -0.398 OA
ATOM     52  H8  UNL     1       6.035  -1.722   4.637  1.00  0.00     0.209 HD
ENDBRANCH  50  51
ENDBRANCH  49  50
BRANCH  49  53
HETATM   53  C13 UNL     1       9.484  -1.159   2.039  1.00  0.00     0.198 C 
BRANCH  53  54
HETATM   54  O9  UNL     1      10.016  -0.432   1.003  1.00  0.00    -0.398 OA
ATOM     55  H9  UNL     1      10.934  -0.614   0.840  1.00  0.00     0.209 HD
ENDBRANCH  53  54
ENDBRANCH  49  53
ENDBRANCH  48  49
ENDBRANCH  45  48
BRANCH  46  56
HETATM   56  O10 UNL     1       7.459   1.252  -1.281  1.00  0.00    -0.388 OA
ATOM     57  H10 UNL     1       7.676   1.330  -2.202  1.00  0.00     0.210 HD
ENDBRANCH  46  56
BRANCH  47  58
HETATM   58  O11 UNL     1       5.481  -1.550  -2.033  1.00  0.00    -0.388 OA
ATOM     59  H11 UNL     1       6.079  -1.790  -2.731  1.00  0.00     0.210 HD
ENDBRANCH  47  58
ENDBRANCH  42  43
ENDBRANCH   3  42
BRANCH   4  60
HETATM   60  N1  UNL     1       1.601  -0.772  -2.646  1.00  0.00    -0.072 N 
ATOM     61  H13 UNL     1       2.397  -1.401  -2.544  1.00  0.00     0.274 HD
ATOM     62  H12 UNL     1       0.979  -1.224  -1.975  1.00  0.00     0.274 HD
ATOM     63  H11 UNL     1       1.221  -0.771  -3.593  1.00  0.00     0.274 HD
ENDBRANCH   4  60
TORSDOF 21
