REMARK  18 active torsions:
REMARK  status: ('A' for Active; 'I' for Inactive)
REMARK    1  A    between atoms: C2_2  and  C3_3 
REMARK    2  A    between atoms: C3_3  and  N1_4 
REMARK    3  A    between atoms: C5_6  and  C6_7 
REMARK       I    between atoms: C6_7  and  N2_9 
REMARK    4  A    between atoms: N2_9  and  C7_11 
REMARK    5  A    between atoms: C8_12  and  C9_13 
REMARK    6  A    between atoms: C9_13  and  C10_14 
REMARK    7  A    between atoms: C10_14  and  N3_15 
REMARK    8  A    between atoms: C10_14  and  N4_19 
REMARK    9  A    between atoms: C11_24  and  O3_25 
REMARK   10  A    between atoms: O3_25  and  C12_26 
REMARK   11  A    between atoms: C12_26  and  C13_27 
REMARK   12  A    between atoms: N5_29  and  C15_30 
REMARK   13  A    between atoms: C16_31  and  N6_32 
REMARK   14  A    between atoms: C18_37  and  N7_38 
REMARK   15  A    between atoms: C19_42  and  O4_43 
REMARK   16  A    between atoms: C20_45  and  O5_46 
REMARK   17  A    between atoms: C22_57  and  N13_58 
REMARK   18  A    between atoms: C23_63  and  N15_64 
ROOT
HETATM    1  C7  UNL     1      -0.323   1.789  -1.176  1.00  0.00     0.169 C 
HETATM    2  C8  UNL     1       0.194   1.237  -2.421  1.00  0.00     0.155 C 
HETATM    3  O2  UNL     1       1.348   0.805  -1.744  1.00  0.00    -0.351 OA
HETATM    4  C11 UNL     1       0.704   0.881  -0.512  1.00  0.00     0.285 C 
ENDROOT
BRANCH   1   5
HETATM    5  N2  UNL     1      -1.675   1.553  -0.753  1.00  0.00    -0.344 N 
HETATM    6  C6  UNL     1      -2.516   2.485  -0.155  1.00  0.00     0.271 C 
HETATM    7  O1  UNL     1      -2.102   3.645   0.053  1.00  0.00    -0.266 OA
ATOM      8  H2  UNL     1      -2.052   0.618  -0.905  1.00  0.00     0.163 HD
BRANCH   6   9
HETATM    9  C5  UNL     1      -3.872   2.142   0.237  1.00  0.00     0.134 A 
HETATM   10  C4  UNL     1      -4.672   3.012   0.804  1.00  0.00     0.151 A 
HETATM   11  N1  UNL     1      -6.019   2.766   1.223  1.00  0.00    -0.164 N 
HETATM   12  C21 UNL     1      -6.532   1.480   1.012  1.00  0.00     0.739 A 
HETATM   13  N11 UNL     1      -5.746   0.516   0.422  1.00  0.00     0.092 N 
HETATM   14  N12 UNL     1      -7.773   1.205   1.398  1.00  0.00    -0.019 N 
HETATM   15  N10 UNL     1      -4.439   0.835   0.039  1.00  0.00    -0.258 N 
HETATM   16  C23 UNL     1      -6.256  -0.706   0.241  1.00  0.00     0.727 A 
ATOM     17  H10 UNL     1      -3.866   0.113  -0.398  1.00  0.00     0.189 HD
HETATM   18  N14 UNL     1      -7.538  -0.951   0.650  1.00  0.00    -0.020 N 
HETATM   19  C22 UNL     1      -8.296  -0.008   1.225  1.00  0.00     0.705 A 
ATOM     20  H14 UNL     1      -7.930  -1.883   0.513  1.00  0.00     0.203 HD
ATOM     21  H12 UNL     1      -8.335   1.935   1.835  1.00  0.00     0.203 HD
BRANCH  11  22
HETATM   22  C3  UNL     1      -6.779   3.827   1.847  1.00  0.00     0.114 C 
BRANCH  22  23
HETATM   23  C2  UNL     1      -8.166   3.566   2.152  1.00  0.00     0.008 C 
HETATM   24  C1  UNL     1      -8.577   3.598   3.414  1.00  0.00     0.013 C 
ENDBRANCH  22  23
ENDBRANCH  11  22
BRANCH  16  25
HETATM   25  N15 UNL     1      -5.621  -1.681  -0.298  1.00  0.00    -0.232 N 
ATOM     26 2H15 UNL     1      -4.665  -1.498  -0.603  1.00  0.00     0.174 HD
ATOM     27 1H15 UNL     1      -6.010  -2.614  -0.436  1.00  0.00     0.174 HD
ENDBRANCH  16  25
BRANCH  19  28
HETATM   28  N13 UNL     1      -9.522  -0.269   1.611  1.00  0.00    -0.234 N 
ATOM     29 2H13 UNL     1     -10.099   0.449   2.049  1.00  0.00     0.174 HD
ATOM     30 1H13 UNL     1      -9.922  -1.198   1.479  1.00  0.00     0.174 HD
ENDBRANCH  19  28
ENDBRANCH   6   9
ENDBRANCH   1   5
BRANCH   2  31
HETATM   31  C9  UNL     1      -0.470   0.086  -3.081  1.00  0.00     0.096 C 
BRANCH  31  32
HETATM   32  C10 UNL     1       0.304  -0.247  -4.342  1.00  0.00     0.380 C 
BRANCH  32  33
HETATM   33  N3  UNL     1      -0.261  -1.362  -5.068  1.00  0.00    -0.050 N 
ATOM     34  H33 UNL     1      -0.351  -2.181  -4.467  1.00  0.00     0.276 HD
ATOM     35  H32 UNL     1      -1.246  -1.201  -5.276  1.00  0.00     0.276 HD
ATOM     36  H31 UNL     1       0.260  -1.586  -5.916  1.00  0.00     0.276 HD
ENDBRANCH  32  33
BRANCH  32  37
HETATM   37  N4  UNL     1       0.455   0.927  -5.198  1.00  0.00    -0.050 N 
ATOM     38  H43 UNL     1      -0.447   1.351  -5.414  1.00  0.00     0.276 HD
ATOM     39  H42 UNL     1       0.878   1.706  -4.694  1.00  0.00     0.276 HD
ATOM     40  H41 UNL     1       0.976   0.703  -6.046  1.00  0.00     0.276 HD
ENDBRANCH  32  37
ENDBRANCH  31  32
ENDBRANCH   2  31
BRANCH   4  41
HETATM   41  O3  UNL     1       0.186  -0.298  -0.025  1.00  0.00    -0.353 OA
BRANCH  41  42
HETATM   42  C12 UNL     1       0.544  -0.626   1.253  1.00  0.00     0.230 C 
BRANCH  42  43
HETATM   43  C13 UNL     1       1.983  -0.795   1.490  1.00  0.00     0.064 A 
HETATM   44  C14 UNL     1       2.736  -1.867   1.121  1.00  0.00     0.137 A 
HETATM   45  N5  UNL     1       3.982  -1.616   1.535  1.00  0.00    -0.276 N 
HETATM   46  N8  UNL     1       4.015  -0.426   2.144  1.00  0.00    -0.020 NA
HETATM   47  N9  UNL     1       2.787   0.078   2.115  1.00  0.00    -0.285 N 
ATOM     48  H9  UNL     1       2.503   0.978   2.503  1.00  0.00     0.184 HD
BRANCH  45  49
HETATM   49  C15 UNL     1       5.173  -2.454   1.388  1.00  0.00     0.167 C 
HETATM   50  C16 UNL     1       6.215  -2.042   2.374  1.00  0.00     0.212 C 
HETATM   51  C17 UNL     1       7.152  -0.979   1.920  1.00  0.00     0.070 C 
HETATM   52  C18 UNL     1       7.599  -1.095   0.483  1.00  0.00     0.216 C 
HETATM   53  C19 UNL     1       7.066  -2.291  -0.226  1.00  0.00     0.179 C 
HETATM   54  C20 UNL     1       5.589  -2.432  -0.042  1.00  0.00     0.175 C 
BRANCH  50  55
HETATM   55  N6  UNL     1       6.897  -3.213   2.947  1.00  0.00    -0.073 N 
ATOM     56  H63 UNL     1       6.233  -3.871   3.355  1.00  0.00     0.274 HD
ATOM     57  H62 UNL     1       7.285  -3.814   2.220  1.00  0.00     0.274 HD
ATOM     58  H61 UNL     1       7.609  -2.931   3.621  1.00  0.00     0.274 HD
ENDBRANCH  50  55
BRANCH  52  59
HETATM   59  N7  UNL     1       9.017  -1.012   0.331  1.00  0.00    -0.072 N 
ATOM     60  H73 UNL     1       9.380  -0.159   0.757  1.00  0.00     0.274 HD
ATOM     61  H72 UNL     1       9.487  -1.703   0.915  1.00  0.00     0.274 HD
ATOM     62  H71 UNL     1       9.319  -1.090  -0.640  1.00  0.00     0.274 HD
ENDBRANCH  52  59
BRANCH  53  63
HETATM   63  O4  UNL     1       7.749  -3.461   0.065  1.00  0.00    -0.391 OA
ATOM     64  H4  UNL     1       7.409  -4.224  -0.387  1.00  0.00     0.210 HD
ENDBRANCH  53  63
BRANCH  54  65
HETATM   65  O5  UNL     1       4.900  -1.476  -0.792  1.00  0.00    -0.391 OA
ATOM     66  H5  UNL     1       5.165  -1.462  -1.704  1.00  0.00     0.210 HD
ENDBRANCH  54  65
ENDBRANCH  45  49
ENDBRANCH  42  43
ENDBRANCH  41  42
ENDBRANCH   4  41
TORSDOF 18
