REMARK  1 active torsions:
REMARK  status: ('A' for Active; 'I' for Inactive)
REMARK    1  A    between atoms: C5_5  and  C6_6 
ROOT
HETATM    1  C1  UNL     1       3.370   0.396   1.216  1.00  0.00     0.031 C 
HETATM    2  C2  UNL     1       2.797  -0.297   0.006  1.00  0.00     0.072 C 
HETATM    3  C3  UNL     1       2.033  -1.502   0.451  1.00  0.00     0.025 C 
HETATM    4  C4  UNL     1       0.589  -1.250   0.728  1.00  0.00     0.010 C 
HETATM    5  C5  UNL     1       0.025  -0.472  -0.444  1.00  0.00     0.034 C 
HETATM    6  C10 UNL     1       0.724   0.865  -0.435  1.00  0.00     0.120 C 
HETATM    7  N2  UNL     1       2.098   0.608  -0.826  1.00  0.00    -0.417 N 
ATOM      8  H2  UNL     1       2.527   1.047  -1.640  1.00  0.00     0.153 HD
ENDROOT
BRANCH   5   9
HETATM    9  C6  UNL     1      -1.457  -0.379  -0.430  1.00  0.00     0.191 C 
HETATM   10  C7  UNL     1      -2.066   0.290   0.751  1.00  0.00     0.035 C 
HETATM   11  C8  UNL     1      -3.316   0.924   0.128  1.00  0.00     0.029 C 
HETATM   12  C9  UNL     1      -3.357   0.388  -1.310  1.00  0.00     0.233 C 
HETATM   13  N1  UNL     1      -1.910   0.353  -1.597  1.00  0.00    -0.070 N 
ATOM     14  H12 UNL     1      -1.463   1.255  -1.763  1.00  0.00     0.277 HD
ATOM     15  H11 UNL     1      -1.641  -0.033  -2.502  1.00  0.00     0.277 HD
ENDBRANCH   5   9
TORSDOF 1
