REMARK  3 active torsions:
REMARK  status: ('A' for Active; 'I' for Inactive)
REMARK    1  A    between atoms: N1_1  and  C1_4 
REMARK    2  A    between atoms: C3_9  and  S1_10 
REMARK    3  A    between atoms: S1_10  and  N4_11 
ROOT
HETATM    1  C1  UNL     1      -2.348  -0.312   0.171  1.00  0.00     0.680 A 
HETATM    2  N2  UNL     1      -1.682   0.855   0.364  1.00  0.00    -0.177 N 
ATOM      3  H2  UNL     1      -2.194   1.671   0.700  1.00  0.00     0.185 HD
HETATM    4  C2  UNL     1      -0.366   0.961   0.123  1.00  0.00     0.160 A 
HETATM    5  N3  UNL     1       0.351   2.181   0.320  1.00  0.00    -0.080 NA
HETATM    6  C3  UNL     1       0.351  -0.125  -0.332  1.00  0.00     0.189 A 
HETATM    7  C4  UNL     1      -0.313  -1.304  -0.529  1.00  0.00     0.286 A 
HETATM    8  O3  UNL     1       0.315  -2.322  -0.946  1.00  0.00    -0.266 OA
HETATM    9  N5  UNL     1      -1.634  -1.362  -0.273  1.00  0.00    -0.155 N 
ATOM     10  H5  UNL     1      -2.118  -2.247  -0.423  1.00  0.00     0.187 HD
ENDROOT
BRANCH   6  11
HETATM   11  S1  UNL     1       2.068   0.020  -0.644  1.00  0.00     0.265 S 
HETATM   12  O1  UNL     1       2.396   1.454  -1.016  1.00  0.00    -0.200 OA
HETATM   13  O2  UNL     1       2.507  -0.862  -1.774  1.00  0.00    -0.200 OA
BRANCH  11  14
HETATM   14  N4  UNL     1       2.957  -0.362   0.773  1.00  0.00    -0.324 N 
ATOM     15  H42 UNL     1       2.533  -0.632   1.660  1.00  0.00     0.169 HD
ATOM     16  H41 UNL     1       3.957  -0.278   0.591  1.00  0.00     0.169 HD
ENDBRANCH  11  14
ENDBRANCH   6  11
BRANCH   1  17
HETATM   17  N1  UNL     1      -3.613  -0.402   0.406  1.00  0.00    -0.234 N 
ATOM     18  H12 UNL     1      -4.154   0.394   0.743  1.00  0.00     0.174 HD
ATOM     19  H11 UNL     1      -4.113  -1.279   0.261  1.00  0.00     0.174 HD
ENDBRANCH   1  17
TORSDOF 3
