REMARK  1 active torsions:
REMARK  status: ('A' for Active; 'I' for Inactive)
REMARK    1  A    between atoms: N1_1  and  C1_4 
ROOT
HETATM    1  C1  UNL     1      -2.078  -0.183  -0.007  1.00  0.00     0.694 A 
HETATM    2  N2  UNL     1      -1.995   1.158   0.202  1.00  0.00    -0.152 N 
ATOM      3  H2  UNL     1      -2.839   1.723   0.300  1.00  0.00     0.188 HD
HETATM    4  C2  UNL     1      -0.783   1.722   0.277  1.00  0.00     0.306 A 
HETATM    5  O1  UNL     1      -0.643   2.966   0.470  1.00  0.00    -0.263 OA
HETATM    6  C3  UNL     1       0.318   0.903   0.138  1.00  0.00     0.205 A 
HETATM    7  N3  UNL     1       1.571   1.391   0.201  1.00  0.00    -0.288 N 
ATOM      8  H3  UNL     1       1.686   2.393   0.356  1.00  0.00     0.172 HD
HETATM    9  C4  UNL     1       2.671   0.648   0.074  1.00  0.00     0.330 A 
HETATM   10  O2  UNL     1       3.844   1.098   0.132  1.00  0.00    -0.246 OA
HETATM   11  N4  UNL     1       2.535  -0.674  -0.131  1.00  0.00    -0.259 N 
ATOM     12  H4  UNL     1       3.358  -1.269  -0.232  1.00  0.00     0.175 HD
HETATM   13  C5  UNL     1       1.301  -1.201  -0.201  1.00  0.00     0.351 A 
HETATM   14  O3  UNL     1       1.200  -2.436  -0.393  1.00  0.00    -0.244 OA
HETATM   15  N5  UNL     1       0.189  -0.421  -0.068  1.00  0.00    -0.168 N 
HETATM   16  N6  UNL     1      -0.998  -0.966  -0.141  1.00  0.00    -0.120 N 
ATOM     17  H6  UNL     1      -1.100  -1.969  -0.297  1.00  0.00     0.206 HD
ENDROOT
BRANCH   1  18
HETATM   18  N1  UNL     1      -3.252  -0.717  -0.079  1.00  0.00    -0.233 N 
ATOM     19  H12 UNL     1      -4.074  -0.121   0.023  1.00  0.00     0.174 HD
ATOM     20  H11 UNL     1      -3.314  -1.723  -0.236  1.00  0.00     0.174 HD
ENDBRANCH   1  18
TORSDOF 1
