REMARK  5 active torsions:
REMARK  status: ('A' for Active; 'I' for Inactive)
REMARK    1  A    between atoms: O1_2  and  C2_3 
REMARK    2  A    between atoms: C3_6  and  N2_7 
REMARK    3  A    between atoms: N2_7  and  N3_9 
REMARK    4  A    between atoms: C4_12  and  N4_13 
REMARK    5  A    between atoms: N4_13  and  N5_15 
ROOT
HETATM    1  C2  UNL     1      -0.659  -1.001  -0.277  1.00  0.00     0.182 A 
HETATM    2  N1  UNL     1       0.347  -0.896   0.629  1.00  0.00    -0.316 N 
ATOM      3  H1  UNL     1       0.470  -1.626   1.331  1.00  0.00     0.169 HD
HETATM    4  C3  UNL     1       1.184   0.157   0.614  1.00  0.00     0.168 A 
HETATM    5  C4  UNL     1       0.995   1.133  -0.349  1.00  0.00     0.167 A 
HETATM    6  N6  UNL     1      -0.014   1.028  -1.258  1.00  0.00    -0.326 N 
ATOM      7  H6  UNL     1      -0.139   1.757  -1.961  1.00  0.00     0.168 HD
HETATM    8  C5  UNL     1      -0.849  -0.029  -1.238  1.00  0.00     0.167 A 
HETATM    9  C6  UNL     1      -1.920  -0.200  -2.155  1.00  0.00     0.122 C 
HETATM   10  N7  UNL     1      -2.793  -0.323  -2.915  1.00  0.00    -0.190 NA
ENDROOT
BRANCH   1  11
HETATM   11  O1  UNL     1      -1.505  -2.100  -0.234  1.00  0.00    -0.339 OA
HETATM   12  C1  UNL     1      -2.601  -2.026   0.659  1.00  0.00     0.211 C 
ENDBRANCH   1  11
BRANCH   5  13
HETATM   13  N4  UNL     1       1.787   2.146  -0.377  1.00  0.00    -0.289 N 
ATOM     14  H4  UNL     1       2.544   2.228   0.302  1.00  0.00     0.188 HD
BRANCH  13  15
HETATM   15  N5  UNL     1       1.601   3.123  -1.338  1.00  0.00    -0.344 N 
ATOM     16  H52 UNL     1       0.840   3.026  -2.010  1.00  0.00     0.176 HD
ATOM     17  H51 UNL     1       2.229   3.926  -1.360  1.00  0.00     0.176 HD
ENDBRANCH  13  15
ENDBRANCH   5  13
BRANCH   4  18
HETATM   18  N2  UNL     1       2.159   0.323   1.440  1.00  0.00    -0.289 N 
ATOM     19  H2  UNL     1       2.735   1.159   1.341  1.00  0.00     0.188 HD
BRANCH  18  20
HETATM   20  N3  UNL     1       2.473  -0.574   2.462  1.00  0.00    -0.344 N 
ATOM     21  H32 UNL     1       1.887  -1.404   2.546  1.00  0.00     0.176 HD
ATOM     22  H31 UNL     1       3.245  -0.443   3.116  1.00  0.00     0.176 HD
ENDBRANCH  18  20
ENDBRANCH   4  18
TORSDOF 5
