REMARK  3 active torsions:
REMARK  status: ('A' for Active; 'I' for Inactive)
REMARK    1  A    between atoms: C4_9  and  C5_10 
REMARK    2  A    between atoms: C5_10  and  N4_11 
REMARK    3  A    between atoms: C6_15  and  N5_16 
ROOT
HETATM    1  C1  UNL     1      -3.470   0.128   0.305  1.00  0.00     0.164 C 
HETATM    2  N1  UNL     1      -2.116  -0.053  -0.153  1.00  0.00    -0.269 N 
HETATM    3  C2  UNL     1      -1.753  -1.363  -0.312  1.00  0.00     0.330 C 
HETATM    4  O1  UNL     1      -2.647  -2.200  -0.409  1.00  0.00    -0.246 OA
HETATM    5  N2  UNL     1      -0.469  -1.798  -0.364  1.00  0.00    -0.296 N 
ATOM      6  H2  UNL     1      -0.364  -2.771  -0.650  1.00  0.00     0.171 HD
HETATM    7  C3  UNL     1       0.685  -1.167  -0.104  1.00  0.00     0.130 C 
HETATM    8  N3  UNL     1       1.909  -1.918  -0.019  1.00  0.00    -0.082 NA
HETATM    9  C4  UNL     1       0.928   0.215   0.003  1.00  0.00     0.040 C 
HETATM   10  C6  UNL     1       0.023   1.202  -0.342  1.00  0.00     0.106 C 
HETATM   11  C7  UNL     1      -1.344   1.030  -0.380  1.00  0.00     0.278 C 
HETATM   12  O2  UNL     1      -2.018   2.063  -0.674  1.00  0.00    -0.265 OA
ENDROOT
BRANCH   9  13
HETATM   13  C5  UNL     1       2.148   0.504   0.746  1.00  0.00     0.274 C 
BRANCH  13  14
HETATM   14  N4  UNL     1       3.252   1.009   0.002  1.00  0.00    -0.075 N 
ATOM     15  H43 UNL     1       3.464   0.373  -0.767  1.00  0.00     0.274 HD
ATOM     16  H42 UNL     1       2.963   1.840  -0.515  1.00  0.00     0.274 HD
ATOM     17  H41 UNL     1       4.106   1.211   0.522  1.00  0.00     0.274 HD
ENDBRANCH  13  14
ENDBRANCH   9  13
BRANCH  10  18
HETATM   18  N5  UNL     1       0.507   2.339  -0.650  1.00  0.00    -0.394 N 
ATOM     19  H52 UNL     1       1.519   2.466  -0.622  1.00  0.00     0.156 HD
ATOM     20  H51 UNL     1      -0.161   3.067  -0.904  1.00  0.00     0.156 HD
ENDBRANCH  10  18
TORSDOF 3
