REMARK  4 active torsions:
REMARK  status: ('A' for Active; 'I' for Inactive)
REMARK       I    between atoms: C1_2  and  N1_3 
REMARK    1  A    between atoms: C1_2  and  C8_17 
REMARK    2  A    between atoms: N1_3  and  C2_5 
REMARK    3  A    between atoms: C2_5  and  N2_7 
REMARK    4  A    between atoms: N2_7  and  C3_9 
ROOT
HETATM    1  C2  UNL     1       0.034  -0.350   0.602  1.00  0.00     0.174 C 
HETATM    2  S1  UNL     1      -0.644  -1.294   1.804  1.00  0.00    -0.041 SA
ENDROOT
BRANCH   1   3
HETATM    3  N1  UNL     1       1.431  -0.221   0.523  1.00  0.00    -0.300 N 
HETATM    4  C1  UNL     1       2.213   0.494  -0.370  1.00  0.00     0.257 C 
HETATM    5  O1  UNL     1       1.823   1.203  -1.324  1.00  0.00    -0.267 OA
ATOM      6  H1  UNL     1       1.951  -0.734   1.235  1.00  0.00     0.171 HD
BRANCH   4   7
HETATM    7  C8  UNL     1       3.685   0.452  -0.225  1.00  0.00     0.032 A 
HETATM    8  C9  UNL     1       4.256  -0.660   0.332  1.00  0.00     0.017 A 
HETATM    9  C10 UNL     1       5.650  -0.709   0.485  1.00  0.00     0.001 A 
HETATM   10  C11 UNL     1       6.401   0.363   0.072  1.00  0.00     0.000 A 
HETATM   11  C12 UNL     1       5.838   1.489  -0.490  1.00  0.00     0.001 A 
HETATM   12  C13 UNL     1       4.467   1.514  -0.631  1.00  0.00     0.017 A 
ENDBRANCH   4   7
ENDBRANCH   1   3
BRANCH   1  13
HETATM   13  N2  UNL     1      -0.816   0.303  -0.311  1.00  0.00    -0.361 N 
ATOM     14  H2  UNL     1      -0.381   0.876  -1.034  1.00  0.00     0.162 HD
BRANCH  13  15
HETATM   15  C3  UNL     1      -2.267   0.222  -0.301  1.00  0.00     0.098 C 
HETATM   16  C4  UNL     1      -2.907   0.695   0.958  1.00  0.00     0.027 C 
HETATM   17  C5  UNL     1      -4.097  -0.154   1.364  1.00  0.00     0.017 C 
HETATM   18  C6  UNL     1      -5.116  -0.062   0.219  1.00  0.00     0.140 C 
HETATM   19  S2  UNL     1      -4.422  -1.068  -1.102  1.00  0.00     0.146 S 
HETATM   20  O2  UNL     1      -5.042  -2.419  -1.142  1.00  0.00    -0.228 OA
HETATM   21  O3  UNL     1      -4.536  -0.360  -2.414  1.00  0.00    -0.228 OA
HETATM   22  C7  UNL     1      -2.661  -1.168  -0.728  1.00  0.00     0.165 C 
ENDBRANCH  13  15
ENDBRANCH   1  13
TORSDOF 4
