REMARK  3 active torsions:
REMARK  status: ('A' for Active; 'I' for Inactive)
REMARK    1  A    between atoms: C1_2  and  C2_4 
REMARK    2  A    between atoms: C10_14  and  C11_15 
REMARK       I    between atoms: C11_15  and  N1_17 
REMARK    3  A    between atoms: N1_17  and  C12_19 
ROOT
HETATM    1  C2  UNL     1      -0.705   1.277  -1.048  1.00  0.00     0.250 C 
HETATM    2  O3  UNL     1      -1.752   0.421  -1.423  1.00  0.00    -0.333 OA
HETATM    3  C3  UNL     1      -2.479  -0.384  -0.563  1.00  0.00     0.084 A 
HETATM    4  C4  UNL     1      -3.767  -0.784  -0.807  1.00  0.00     0.038 A 
HETATM    5  C5  UNL     1      -4.423  -1.594   0.114  1.00  0.00     0.003 A 
HETATM    6  C6  UNL     1      -3.822  -2.015   1.273  1.00  0.00     0.001 A 
HETATM    7  C7  UNL     1      -2.528  -1.608   1.511  1.00  0.00     0.018 A 
HETATM    8  C8  UNL     1      -1.863  -0.798   0.598  1.00  0.00     0.044 A 
HETATM    9  C9  UNL     1      -0.492  -0.357   0.831  1.00  0.00     0.178 C 
HETATM   10  O4  UNL     1       0.270  -1.106   1.499  1.00  0.00    -0.291 OA
HETATM   11  C10 UNL     1      -0.069   0.945   0.272  1.00  0.00     0.193 C 
ENDROOT
BRANCH  11  12
HETATM   12  C11 UNL     1       1.410   1.073   0.230  1.00  0.00     0.238 C 
HETATM   13  O5  UNL     1       2.017   1.874   0.987  1.00  0.00    -0.272 OA
HETATM   14  N1  UNL     1       2.190   0.297  -0.665  1.00  0.00    -0.306 N 
ATOM     15  H1  UNL     1       1.811   0.032  -1.574  1.00  0.00     0.171 HD
BRANCH  14  16
HETATM   16  C12 UNL     1       3.407  -0.083  -0.322  1.00  0.00     0.150 A 
HETATM   17  N2  UNL     1       4.258  -0.808  -1.043  1.00  0.00    -0.346 N 
HETATM   18  C13 UNL     1       5.428  -1.085  -0.530  1.00  0.00     0.097 A 
ATOM     19  H2  UNL     1       4.004  -1.140  -1.973  1.00  0.00     0.167 HD
HETATM   20  C14 UNL     1       5.707  -0.611   0.722  1.00  0.00     0.070 A 
HETATM   21  S1  UNL     1       4.270   0.219   1.116  1.00  0.00    -0.064 SA
ENDBRANCH  14  16
ENDBRANCH  11  12
BRANCH   1  22
HETATM   22  C1  UNL     1      -1.254   2.664  -1.063  1.00  0.00     0.205 C 
HETATM   23  O1  UNL     1      -0.495   3.606  -0.758  1.00  0.00    -0.646 OA
HETATM   24  O2  UNL     1      -2.568   2.951  -1.399  1.00  0.00    -0.646 OA
ENDBRANCH   1  22
TORSDOF 3
