REMARK  2 active torsions:
REMARK  status: ('A' for Active; 'I' for Inactive)
REMARK    1  A    between atoms: C2_2  and  N1_3 
REMARK       I    between atoms: N1_3  and  C3_5 
REMARK       I    between atoms: C3_5  and  N2_7 
REMARK    2  A    between atoms: N2_7  and  C4_9 
ROOT
HETATM    1  N1  UNL     1      -2.352  -0.226   0.021  1.00  0.00    -0.332 N 
ATOM      2  H1  UNL     1      -2.143  -1.205  -0.174  1.00  0.00     0.165 HD
HETATM    3  C3  UNL     1      -1.282   0.643   0.291  1.00  0.00     0.317 C 
HETATM    4  O1  UNL     1      -1.499   1.846   0.534  1.00  0.00    -0.247 OA
HETATM    5  N2  UNL     1       0.041   0.168   0.291  1.00  0.00    -0.329 N 
ATOM      6  H2  UNL     1       0.198  -0.820   0.090  1.00  0.00     0.165 HD
ENDROOT
BRANCH   5   7
HETATM    7  C4  UNL     1       1.197   1.004   0.561  1.00  0.00     0.189 C 
HETATM    8  C5  UNL     1       2.143   0.857  -0.602  1.00  0.00     0.074 C 
HETATM    9  C6  UNL     1       3.067  -0.214  -0.153  1.00  0.00     0.073 C 
HETATM   10  C7  UNL     1       4.489   0.305   0.093  1.00  0.00     0.039 C 
HETATM   11  C10 UNL     1       3.301  -1.308  -1.123  1.00  0.00     0.039 C 
HETATM   12  O2  UNL     1       2.611  -0.693   1.096  1.00  0.00    -0.308 OA
HETATM   13  C8  UNL     1       5.146  -1.041   0.430  1.00  0.00     0.003 C 
HETATM   14  C9  UNL     1       4.615  -1.911  -0.676  1.00  0.00     0.003 C 
HETATM   15  C11 UNL     1       1.938   0.369   1.682  1.00  0.00     0.282 C 
HETATM   16  O3  UNL     1       1.933   0.744   2.906  1.00  0.00    -0.263 OA
ENDBRANCH   5   7
BRANCH   1  17
HETATM   17  C2  UNL     1      -3.738   0.199   0.005  1.00  0.00     0.056 C 
HETATM   18  C1  UNL     1      -4.118   0.748   1.354  1.00  0.00     0.040 C 
HETATM   19  C12 UNL     1      -4.092   1.114  -1.150  1.00  0.00     0.171 C 
HETATM   20  S1  UNL     1      -5.702   0.374  -1.268  1.00  0.00     0.149 S 
HETATM   21  O4  UNL     1      -6.171   0.096  -2.645  1.00  0.00    -0.228 OA
HETATM   22  O5  UNL     1      -6.695   0.900  -0.302  1.00  0.00    -0.228 OA
HETATM   23  C13 UNL     1      -4.628  -0.853  -0.571  1.00  0.00     0.171 C 
ENDBRANCH   1  17
TORSDOF 2
