REMARK  11 active torsions:
REMARK  status: ('A' for Active; 'I' for Inactive)
REMARK    1  A    between atoms: O1_2  and  C2_3 
REMARK    2  A    between atoms: C2_3  and  C3_4 
REMARK    3  A    between atoms: C3_4  and  C4_5 
REMARK    4  A    between atoms: C3_4  and  N3_13 
REMARK    5  A    between atoms: C4_5  and  C5_6 
REMARK    6  A    between atoms: N3_13  and  N4_21 
REMARK    7  A    between atoms: C8_14  and  C9_15 
REMARK       I    between atoms: N4_21  and  C15_23 
REMARK    8  A    between atoms: C15_23  and  C16_25 
REMARK    9  A    between atoms: C16_25  and  N5_26 
REMARK   10  A    between atoms: C16_25  and  C17_30 
REMARK   11  A    between atoms: C17_30  and  C18_31 
ROOT
HETATM    1  N3  UNL     1      -0.491   0.839   0.530  1.00  0.00    -0.293 N 
HETATM    2  C8  UNL     1      -0.822   2.080   0.083  1.00  0.00     0.122 C 
ENDROOT
BRANCH   1   3
HETATM    3  C3  UNL     1      -1.232  -0.371   0.276  1.00  0.00     0.137 C 
BRANCH   3   4
HETATM    4  C2  UNL     1      -2.557  -0.341   0.920  1.00  0.00     0.194 C 
BRANCH   4   5
HETATM    5  O1  UNL     1      -3.246  -1.549   0.892  1.00  0.00    -0.394 OA
HETATM    6  C1  UNL     1      -2.625  -2.550   1.659  1.00  0.00     0.201 C 
ENDBRANCH   4   5
ENDBRANCH   3   4
BRANCH   3   7
HETATM    7  C4  UNL     1      -1.338  -0.551  -1.219  1.00  0.00     0.088 C 
BRANCH   7   8
HETATM    8  C5  UNL     1      -1.988  -1.765  -1.652  1.00  0.00     0.027 A 
HETATM    9  C6  UNL     1      -3.290  -2.050  -2.012  1.00  0.00     0.114 A 
HETATM   10  N1  UNL     1      -3.388  -3.339  -2.365  1.00  0.00    -0.360 N 
HETATM   11  C7  UNL     1      -2.177  -3.893  -2.242  1.00  0.00     0.180 A 
ATOM     12  H1  UNL     1      -4.237  -3.814  -2.673  1.00  0.00     0.166 HD
HETATM   13  N2  UNL     1      -1.329  -2.962  -1.815  1.00  0.00    -0.355 N 
ATOM     14  H2  UNL     1      -0.336  -3.113  -1.635  1.00  0.00     0.166 HD
ENDBRANCH   7   8
ENDBRANCH   3   7
ENDBRANCH   1   3
BRANCH   1  15
HETATM   15  N4  UNL     1       0.863   0.588   0.647  1.00  0.00    -0.266 N 
HETATM   16  C15 UNL     1       1.891   1.116  -0.159  1.00  0.00     0.267 C 
HETATM   17  O2  UNL     1       1.696   1.909  -1.114  1.00  0.00    -0.269 OA
ATOM     18  H4  UNL     1       1.148  -0.045   1.394  1.00  0.00     0.190 HD
BRANCH  16  19
HETATM   19  C16 UNL     1       3.333   0.748   0.085  1.00  0.00     0.282 C 
BRANCH  19  20
HETATM   20  N5  UNL     1       4.218   1.422  -0.814  1.00  0.00    -0.066 N 
ATOM     21  H53 UNL     1       3.954   1.258  -1.785  1.00  0.00     0.275 HD
ATOM     22  H52 UNL     1       4.083   2.432  -0.778  1.00  0.00     0.275 HD
ATOM     23  H51 UNL     1       5.193   1.173  -0.649  1.00  0.00     0.275 HD
ENDBRANCH  19  20
BRANCH  19  24
HETATM   24  C17 UNL     1       3.393  -0.749  -0.205  1.00  0.00     0.099 C 
BRANCH  24  25
HETATM   25  C18 UNL     1       4.745  -1.292  -0.021  1.00  0.00     0.011 A 
HETATM   26  C19 UNL     1       5.714  -1.366  -0.993  1.00  0.00     0.026 A 
HETATM   27  C20 UNL     1       6.843  -1.935  -0.428  1.00  0.00     0.019 A 
HETATM   28  C21 UNL     1       6.518  -2.191   0.886  1.00  0.00     0.088 A 
HETATM   29  N6  UNL     1       5.248  -1.796   1.112  1.00  0.00    -0.369 N 
ATOM     30  H6  UNL     1       4.753  -1.869   2.001  1.00  0.00     0.165 HD
ENDBRANCH  24  25
ENDBRANCH  19  24
ENDBRANCH  16  19
ENDBRANCH   1  15
BRANCH   2  31
HETATM   31  C9  UNL     1      -2.040   2.782   0.494  1.00  0.00    -0.019 A 
HETATM   32  C10 UNL     1      -2.362   3.037   1.805  1.00  0.00     0.013 A 
HETATM   33  C11 UNL     1      -3.508   3.735   2.147  1.00  0.00     0.001 A 
HETATM   34  C12 UNL     1      -4.364   4.198   1.173  1.00  0.00     0.000 A 
HETATM   35  C13 UNL     1      -4.055   3.950  -0.147  1.00  0.00     0.001 A 
HETATM   36  C14 UNL     1      -2.914   3.256  -0.469  1.00  0.00     0.013 A 
ENDBRANCH   2  31
TORSDOF 11
