REMARK  11 active torsions:
REMARK  status: ('A' for Active; 'I' for Inactive)
REMARK       I    between atoms: C1_2  and  N2_3 
REMARK    1  A    between atoms: N3_6  and  C2_8 
REMARK    2  A    between atoms: C2_8  and  C3_9 
REMARK    3  A    between atoms: C3_9  and  C4_10 
REMARK    4  A    between atoms: C6_12  and  C7_13 
REMARK    5  A    between atoms: C7_13  and  N4_14 
REMARK    6  A    between atoms: N4_14  and  C8_16 
REMARK    7  A    between atoms: C8_16  and  C9_17 
REMARK    8  A    between atoms: C13_24  and  O1_25 
REMARK    9  A    between atoms: O1_25  and  C14_26 
REMARK   10  A    between atoms: C14_26  and  C15_27 
REMARK   11  A    between atoms: C15_27  and  C16_28 
ROOT
HETATM    1  C4  UNL     1       0.476   1.914  -0.497  1.00  0.00    -0.053 A 
HETATM    2  C5  UNL     1      -0.766   1.215  -0.585  1.00  0.00     0.020 A 
HETATM    3  C6  UNL     1      -0.927  -0.141  -0.400  1.00  0.00    -0.018 A 
HETATM    4  C12 UNL     1       0.168  -0.914  -0.131  1.00  0.00     0.049 A 
HETATM    5  C13 UNL     1       1.430  -0.249  -0.040  1.00  0.00     0.070 A 
HETATM    6  C21 UNL     1       1.490   1.058  -0.215  1.00  0.00     0.044 A 
ENDROOT
BRANCH   3   7
HETATM    7  C7  UNL     1      -2.339  -0.692  -0.375  1.00  0.00     0.098 C 
BRANCH   7   8
HETATM    8  N4  UNL     1      -2.777  -1.092   0.903  1.00  0.00    -0.378 N 
ATOM      9  H4  UNL     1      -2.104  -1.352   1.624  1.00  0.00     0.164 HD
BRANCH   8  10
HETATM   10  C8  UNL     1      -4.127  -1.126   1.161  1.00  0.00     0.068 C 
BRANCH  10  11
HETATM   11  C9  UNL     1      -5.201  -1.886   0.627  1.00  0.00     0.075 C 
HETATM   12  C10 UNL     1      -5.548  -1.820  -0.840  1.00  0.00     0.243 C 
HETATM   13  N5  UNL     1      -6.327  -3.110  -0.564  1.00  0.00    -0.074 N 
HETATM   14  C11 UNL     1      -5.184  -3.341   0.387  1.00  0.00     0.243 C 
ATOM     15  H52 UNL     1      -7.308  -3.130  -0.285  1.00  0.00     0.277 HD
ATOM     16  H51 UNL     1      -6.602  -3.772  -1.290  1.00  0.00     0.277 HD
ENDBRANCH  10  11
ENDBRANCH   8  10
ENDBRANCH   7   8
ENDBRANCH   3   7
BRANCH   1  17
HETATM   17  C3  UNL     1       0.450   3.370  -0.484  1.00  0.00     0.058 C 
BRANCH  17  18
HETATM   18  C2  UNL     1      -0.409   4.013  -1.625  1.00  0.00     0.127 C 
BRANCH  18  19
HETATM   19  N3  UNL     1      -0.527   5.348  -1.173  1.00  0.00    -0.365 N 
HETATM   20  C1  UNL     1      -1.269   6.168  -0.748  1.00  0.00     0.181 C 
HETATM   21  N1  UNL     1      -0.179   7.406  -0.622  1.00  0.00    -0.064 NA
HETATM   22  N2  UNL     1      -2.435   6.724  -0.279  1.00  0.00    -0.374 N 
ATOM     23  H22 UNL     1      -3.074   7.430   0.087  1.00  0.00     0.158 HD
ATOM     24  H21 UNL     1      -3.107   5.961  -0.357  1.00  0.00     0.158 HD
ATOM     25  H3  UNL     1       0.396   5.776  -1.240  1.00  0.00     0.162 HD
ENDBRANCH  18  19
ENDBRANCH  17  18
ENDBRANCH   1  17
BRANCH   5  26
HETATM   26  O1  UNL     1       2.474  -1.039   0.225  1.00  0.00    -0.351 OA
BRANCH  26  27
HETATM   27  C14 UNL     1       3.463  -1.685   0.471  1.00  0.00     0.180 C 
BRANCH  27  28
HETATM   28  C15 UNL     1       3.449  -3.272   0.483  1.00  0.00     0.062 C 
BRANCH  28  29
HETATM   29  C16 UNL     1       4.959  -3.455   0.698  1.00  0.00    -0.060 A 
HETATM   30  C17 UNL     1       5.789  -3.070  -0.213  1.00  0.00     0.006 A 
HETATM   31  C18 UNL     1       7.145  -2.808  -0.255  1.00  0.00     0.017 A 
HETATM   32  C19 UNL     1       7.677  -3.087   1.098  1.00  0.00     0.083 A 
HETATM   33  N6  UNL     1       6.926  -3.493   2.039  1.00  0.00    -0.395 N 
HETATM   34  C20 UNL     1       5.513  -3.727   2.000  1.00  0.00     0.153 A 
ATOM     35  H6  UNL     1       7.385  -3.675   2.931  1.00  0.00     0.159 HD
ENDBRANCH  28  29
ENDBRANCH  27  28
ENDBRANCH  26  27
ENDBRANCH   5  26
TORSDOF 11
