REMARK  12 active torsions:
REMARK  status: ('A' for Active; 'I' for Inactive)
REMARK    1  A    between atoms: N1_2  and  C2_4 
REMARK    2  A    between atoms: C3_7  and  C4_8 
REMARK    3  A    between atoms: C4_8  and  C5_9 
REMARK    4  A    between atoms: C5_9  and  C6_10 
REMARK    5  A    between atoms: C6_10  and  N3_11 
REMARK    6  A    between atoms: N3_11  and  C7_13 
REMARK    7  A    between atoms: N5_17  and  C9_18 
REMARK    8  A    between atoms: C9_18  and  C10_19 
REMARK    9  A    between atoms: C11_20  and  C12_21 
REMARK   10  A    between atoms: C12_21  and  C13_22 
REMARK   11  A    between atoms: C13_22  and  O1_23 
REMARK   12  A    between atoms: C16_27  and  N7_28 
ROOT
HETATM    1  C7  UNL     1      -0.735  -0.539   0.388  1.00  0.00     0.132 A 
HETATM    2  N4  UNL     1      -0.055   0.646   0.669  1.00  0.00    -0.337 N 
ATOM      3  H4  UNL     1      -0.569   1.432   1.066  1.00  0.00     0.168 HD
HETATM    4  C8  UNL     1       1.254   0.776   0.430  1.00  0.00     0.186 A 
HETATM    5  N5  UNL     1       1.976  -0.210  -0.084  1.00  0.00    -0.326 N 
HETATM    6  C15 UNL     1       1.385  -1.366  -0.373  1.00  0.00     0.150 A 
HETATM    7  N6  UNL     1       2.111  -2.456  -0.926  1.00  0.00    -0.080 NA
HETATM    8  C16 UNL     1       0.006  -1.559  -0.142  1.00  0.00     0.114 A 
ENDROOT
BRANCH   1   9
HETATM    9  N3  UNL     1      -1.959  -0.556   0.640  1.00  0.00    -0.374 N 
ATOM     10  H3  UNL     1      -2.288   0.329   1.027  1.00  0.00     0.161 HD
BRANCH   9  11
HETATM   11  C6  UNL     1      -2.964  -1.479   0.521  1.00  0.00     0.121 C 
BRANCH  11  12
HETATM   12  C5  UNL     1      -4.376  -0.856   0.552  1.00  0.00     0.026 C 
BRANCH  12  13
HETATM   13  C4  UNL     1      -4.533   0.124  -0.589  1.00  0.00     0.059 C 
BRANCH  13  14
HETATM   14  C3  UNL     1      -5.944   0.664  -0.454  1.00  0.00     0.018 A 
HETATM   15  N2  UNL     1      -6.215   1.727   0.254  1.00  0.00    -0.340 N 
HETATM   16  C2  UNL     1      -7.482   2.137   0.322  1.00  0.00     0.144 A 
ATOM     17  H2  UNL     1      -5.476   2.231   0.743  1.00  0.00     0.168 HD
HETATM   18  S1  UNL     1      -8.311   0.997  -0.633  1.00  0.00    -0.064 SA
HETATM   19  C18 UNL     1      -6.976   0.031  -1.085  1.00  0.00     0.078 A 
BRANCH  16  20
HETATM   20  N1  UNL     1      -7.983   3.168   0.966  1.00  0.00    -0.375 N 
HETATM   21  C1  UNL     1      -7.103   4.016   1.722  1.00  0.00     0.148 C 
ATOM     22  H1  UNL     1      -8.983   3.363   0.929  1.00  0.00     0.161 HD
ENDBRANCH  16  20
ENDBRANCH  13  14
ENDBRANCH  12  13
ENDBRANCH  11  12
ENDBRANCH   9  11
ENDBRANCH   1   9
BRANCH   8  23
HETATM   23  N7  UNL     1      -0.566  -2.808  -0.453  1.00  0.00    -0.389 N 
HETATM   24  C17 UNL     1      -0.592  -3.954   0.451  1.00  0.00     0.146 C 
ATOM     25  H7  UNL     1      -0.991  -2.919  -1.373  1.00  0.00     0.159 HD
ENDBRANCH   8  23
BRANCH   5  26
HETATM   26  C9  UNL     1       3.433  -0.058  -0.345  1.00  0.00     0.158 C 
BRANCH  26  27
HETATM   27  C10 UNL     1       4.199  -0.464   0.846  1.00  0.00    -0.011 C 
HETATM   28  C11 UNL     1       5.631  -0.572   0.941  1.00  0.00    -0.027 C 
BRANCH  28  29
HETATM   29  C12 UNL     1       6.625   0.472   0.752  1.00  0.00     0.053 C 
BRANCH  29  30
HETATM   30  C13 UNL     1       6.819   1.041  -0.585  1.00  0.00     0.170 C 
BRANCH  30  31
HETATM   31  O1  UNL     1       5.811   1.714  -1.177  1.00  0.00    -0.396 OA
HETATM   32  C14 UNL     1       6.132   2.191  -2.423  1.00  0.00     0.201 C 
ENDBRANCH  30  31
ENDBRANCH  29  30
ENDBRANCH  28  29
ENDBRANCH  26  27
ENDBRANCH   5  26
TORSDOF 12
