REMARK  0 active torsions:
REMARK  status: ('A' for Active; 'I' for Inactive)
ROOT
HETATM    1  F1  UNL     1      -2.307   1.714   0.806  1.00  0.00    -0.206 F 
HETATM    2  C1  UNL     1      -1.718   0.704   0.027  1.00  0.00     0.245 C 
HETATM    3  F2  UNL     1      -2.749   0.308  -0.842  1.00  0.00    -0.206 F 
HETATM    4  C2  UNL     1      -0.672   1.338  -0.798  1.00  0.00     0.089 C 
HETATM    5  C3  UNL     1       0.560   0.439  -0.950  1.00  0.00     0.038 C 
HETATM    6  C4  UNL     1       0.166  -0.945  -1.398  1.00  0.00     0.011 C 
HETATM    7  C5  UNL     1       0.285  -1.842  -0.184  1.00  0.00     0.011 C 
HETATM    8  C6  UNL     1       0.090  -0.810   0.939  1.00  0.00     0.038 C 
HETATM    9  C7  UNL     1      -1.343  -0.397   0.912  1.00  0.00     0.089 C 
HETATM   10  C8  UNL     1       1.022   0.252   0.470  1.00  0.00     0.003 C 
HETATM   11  N1  UNL     1       1.960   0.871   1.038  1.00  0.00    -0.327 N 
ATOM     12  H1  UNL     1       2.190   0.663   2.010  1.00  0.00     0.174 HD
HETATM   13  S1  UNL     1       2.865   2.080   0.173  1.00  0.00     0.042 SA
ENDROOT
TORSDOF 0
