REMARK  1 active torsions:
REMARK  status: ('A' for Active; 'I' for Inactive)
REMARK    1  A    between atoms: C9_12  and  O1_13 
ROOT
HETATM    1  N1  UNL     1       2.003  -2.286   1.630  1.00  0.00    -0.197 NA
HETATM    2  C1  UNL     1       1.841  -1.398   0.918  1.00  0.00     0.065 C 
HETATM    3  C2  UNL     1       1.642  -0.308   0.013  1.00  0.00     0.115 C 
HETATM    4  C3  UNL     1       1.900   1.082   0.589  1.00  0.00     0.100 C 
HETATM    5  C4  UNL     1       0.867   1.544  -0.451  1.00  0.00     0.256 C 
HETATM    6  F1  UNL     1       0.073   2.568  -0.052  1.00  0.00    -0.205 F 
HETATM    7  F2  UNL     1       1.410   1.617  -1.707  1.00  0.00    -0.205 F 
HETATM    8  C5  UNL     1       0.258   0.145  -0.267  1.00  0.00     0.068 C 
HETATM    9  C6  UNL     1      -0.388  -0.368  -1.518  1.00  0.00     0.019 C 
HETATM   10  C7  UNL     1      -1.787  -0.747  -1.163  1.00  0.00     0.004 C 
HETATM   11  C8  UNL     1      -1.949  -0.607   0.317  1.00  0.00     0.033 C 
HETATM   12  C9  UNL     1      -0.732   0.149   0.827  1.00  0.00     0.134 C 
ENDROOT
BRANCH  12  13
HETATM   13  O1  UNL     1      -0.303  -0.381   2.023  1.00  0.00    -0.395 OA
ATOM     14  H1  UNL     1      -0.940  -0.378   2.727  1.00  0.00     0.210 HD
ENDBRANCH  12  13
TORSDOF 1
