REMARK  2 active torsions:
REMARK  status: ('A' for Active; 'I' for Inactive)
REMARK    1  A    between atoms: C2_2  and  C4_4 
REMARK    2  A    between atoms: C6_6  and  N1_7 
ROOT
HETATM    1  C4  UNL     1      -0.386  -0.579  -0.093  1.00  0.00     0.086 C 
HETATM    2  C5  UNL     1       0.686   0.150  -0.837  1.00  0.00     0.058 C 
HETATM    3  C6  UNL     1       1.750   0.734   0.084  1.00  0.00     0.190 C 
HETATM    4  C7  UNL     1       2.276  -0.484   0.847  1.00  0.00     0.077 C 
HETATM    5  C8  UNL     1       1.173  -0.911   1.748  1.00  0.00     0.058 C 
HETATM    6  N2  UNL     1      -0.108  -1.003   1.202  1.00  0.00    -0.397 N 
ATOM      7  H2  UNL     1      -0.862  -1.392   1.769  1.00  0.00     0.159 HD
ENDROOT
BRANCH   3   8
HETATM    8  N1  UNL     1       2.762   1.372  -0.693  1.00  0.00    -0.075 N 
ATOM      9  H13 UNL     1       3.161   0.746  -1.392  1.00  0.00     0.274 HD
ATOM     10  H12 UNL     1       2.376   2.072  -1.326  1.00  0.00     0.274 HD
ATOM     11  H11 UNL     1       3.474   1.763  -0.076  1.00  0.00     0.274 HD
ENDBRANCH   3   8
BRANCH   1  12
HETATM   12  C2  UNL     1      -1.639   0.302  -0.202  1.00  0.00     0.000 C 
HETATM   13  C1  UNL     1      -1.992   0.473  -1.659  1.00  0.00     0.011 C 
HETATM   14  C3  UNL     1      -2.790  -0.265   0.561  1.00  0.00     0.011 C 
ENDBRANCH   1  12
TORSDOF 2
