REMARK  4 active torsions:
REMARK  status: ('A' for Active; 'I' for Inactive)
REMARK    1  A    between atoms: N1_1  and  N2_4 
REMARK    2  A    between atoms: N2_4  and  N3_5 
REMARK    3  A    between atoms: N4_8  and  C3_9 
REMARK    4  A    between atoms: N6_16  and  O1_17 
ROOT
HETATM    1  N3  UNL     1      -2.220  -0.545  -0.206  1.00  0.00    -0.309 N 
HETATM    2  C1  UNL     1      -1.542   0.162  -1.226  1.00  0.00     0.160 C 
HETATM    3  C2  UNL     1      -0.473   1.040  -0.567  1.00  0.00     0.162 C 
HETATM    4  N4  UNL     1       0.324   0.157   0.312  1.00  0.00    -0.212 N 
HETATM    5  C7  UNL     1      -0.381  -0.608   1.322  1.00  0.00     0.162 C 
HETATM    6  C8  UNL     1      -1.876  -0.285   1.124  1.00  0.00     0.160 C 
ENDROOT
BRANCH   4   7
HETATM    7  C3  UNL     1       1.722   0.129   0.097  1.00  0.00     0.706 A 
HETATM    8  N5  UNL     1       2.290   0.891  -0.880  1.00  0.00    -0.198 N 
HETATM    9  C4  UNL     1       3.610   0.896  -1.119  1.00  0.00     0.131 A 
ATOM     10  H5  UNL     1       1.687   1.481  -1.453  1.00  0.00     0.183 HD
HETATM   11  C5  UNL     1       4.426   0.098  -0.347  1.00  0.00     0.068 A 
HETATM   12 CL1  UNL     1       6.164   0.086  -0.640  1.00  0.00    -0.081 Cl
HETATM   13  C6  UNL     1       3.840  -0.657   0.626  1.00  0.00     0.167 A 
HETATM   14  N6  UNL     1       2.495  -0.649   0.855  1.00  0.00    -0.062 N 
BRANCH  14  15
HETATM   15  O1  UNL     1       1.985  -1.456   1.873  1.00  0.00    -0.270 OA
ATOM     16  H1  UNL     1       2.536  -2.010   2.413  1.00  0.00     0.245 HD
ENDBRANCH  14  15
ENDBRANCH   4   7
BRANCH   1  17
HETATM   17  N2  UNL     1      -3.489  -0.968  -0.477  1.00  0.00    -0.032 NA
BRANCH  17  18
HETATM   18  N1  UNL     1      -4.251   0.125  -0.913  1.00  0.00    -0.329 N 
ATOM     19  H12 UNL     1      -3.899   1.078  -1.007  1.00  0.00     0.174 HD
ATOM     20  H11 UNL     1      -5.199  -0.191  -1.116  1.00  0.00     0.174 HD
ENDBRANCH  17  18
ENDBRANCH   1  17
TORSDOF 4
