REMARK  3 active torsions:
REMARK  status: ('A' for Active; 'I' for Inactive)
REMARK    1  A    between atoms: N1_2  and  N2_3 
REMARK       I    between atoms: N2_3  and  C2_5 
REMARK    2  A    between atoms: C2_5  and  C3_7 
REMARK    3  A    between atoms: N4_13  and  O3_14 
ROOT
HETATM    1  C3  UNL     1       1.671  -0.070  -0.071  1.00  0.00     0.194 A 
HETATM    2  C4  UNL     1       2.626   0.705   0.557  1.00  0.00     0.140 A 
HETATM    3 BR1  UNL     1       2.587   2.594   0.817  1.00  0.00    -0.026 Br
HETATM    4  N3  UNL     1       3.618  -0.117   0.955  1.00  0.00    -0.230 N 
ATOM      5  H3  UNL     1       4.469   0.154   1.448  1.00  0.00     0.197 HD
HETATM    6  O2  UNL     1       3.282  -1.333   0.588  1.00  0.00    -0.127 OA
HETATM    7  N4  UNL     1       2.141  -1.341  -0.022  1.00  0.00    -0.094 N 
ENDROOT
BRANCH   1   8
HETATM    8  C2  UNL     1       0.421   0.361  -0.656  1.00  0.00     0.291 C 
HETATM    9  N2  UNL     1      -0.780   0.433   0.096  1.00  0.00    -0.269 N 
ATOM     10  H2  UNL     1      -0.754   0.162   1.079  1.00  0.00     0.185 HD
HETATM   11  O1  UNL     1       0.343   0.700  -1.885  1.00  0.00    -0.264 OA
BRANCH   9  12
HETATM   12  N1  UNL     1      -1.993   0.855  -0.442  1.00  0.00    -0.143 NA
HETATM   13  C1  UNL     1      -2.901  -0.252  -0.691  1.00  0.00     0.159 C 
ENDBRANCH   9  12
ENDBRANCH   1   8
BRANCH   7  14
HETATM   14  O3  UNL     1       1.563  -2.476  -0.528  1.00  0.00    -0.261 OA
ATOM     15  H3  UNL     1       1.892  -3.366  -0.494  1.00  0.00     0.247 HD
ENDBRANCH   7  14
TORSDOF 3
