REMARK  4 active torsions:
REMARK  status: ('A' for Active; 'I' for Inactive)
REMARK    1  A    between atoms: N1_3  and  N2_5 
REMARK    2  A    between atoms: C3_7  and  C4_8 
REMARK    3  A    between atoms: N4_13  and  O1_14 
REMARK    4  A    between atoms: N5_18  and  O2_19 
ROOT
HETATM    1  C1  UNL     1       5.034  -0.943  -0.107  1.00  0.00     0.124 C 
HETATM    2  C2  UNL     1       4.226  -0.033  -0.008  1.00  0.00    -0.059 C 
HETATM    3  N1  UNL     1       3.316   1.026   0.110  1.00  0.00    -0.270 N 
ATOM      4  H1  UNL     1       3.678   1.969   0.252  1.00  0.00     0.196 HD
ENDROOT
BRANCH   3   5
HETATM    5  N2  UNL     1       1.939   0.842   0.041  1.00  0.00    -0.303 N 
HETATM    6  C3  UNL     1       1.344  -0.259   0.291  1.00  0.00     0.140 C 
ATOM      7  H2  UNL     1       1.366   1.642  -0.228  1.00  0.00     0.186 HD
BRANCH   6   8
HETATM    8  C4  UNL     1      -0.069  -0.525   0.242  1.00  0.00     0.091 A 
HETATM    9  C5  UNL     1      -0.970   0.442  -0.100  1.00  0.00     0.012 A 
HETATM   10  C6  UNL     1      -0.548   1.807  -0.438  1.00  0.00     0.054 C 
HETATM   11  C7  UNL     1      -2.351   0.164  -0.143  1.00  0.00     0.155 A 
HETATM   12  N3  UNL     1      -3.286   1.173  -0.500  1.00  0.00    -0.080 NA
HETATM   13  N4  UNL     1      -2.766  -1.072   0.160  1.00  0.00    -0.180 N 
HETATM   14  C8  UNL     1      -1.885  -2.029   0.498  1.00  0.00     0.234 A 
HETATM   15 CL1  UNL     1      -2.393  -3.651   0.898  1.00  0.00    -0.040 Cl
HETATM   16  N5  UNL     1      -0.569  -1.758   0.536  1.00  0.00    -0.193 N 
BRANCH  13  17
HETATM   17  O1  UNL     1      -4.104  -1.376   0.128  1.00  0.00    -0.279 OA
ATOM     18  H1  UNL     1      -4.399  -2.253   0.343  1.00  0.00     0.245 HD
ENDBRANCH  13  17
BRANCH  16  19
HETATM   19  O2  UNL     1       0.363  -2.720   0.880  1.00  0.00    -0.280 OA
ATOM     20  H2  UNL     1       0.014  -3.580   1.085  1.00  0.00     0.245 HD
ENDBRANCH  16  19
ENDBRANCH   6   8
ENDBRANCH   3   5
TORSDOF 4
