REMARK  1 active torsions:
REMARK  status: ('A' for Active; 'I' for Inactive)
REMARK    1  A    between atoms: C2_3  and  C3_5 
ROOT
HETATM    1  C3  UNL     1      -1.370   0.232  -0.107  1.00  0.00     0.251 C 
HETATM    2  C4  UNL     1      -0.483   0.232  -1.363  1.00  0.00     0.057 C 
HETATM    3  C5  UNL     1       0.756   0.799  -0.799  1.00  0.00     0.080 C 
HETATM    4  S1  UNL     1       2.303   0.181  -1.481  1.00  0.00    -0.162 SA
HETATM    5  C6  UNL     1       3.131  -0.068   0.153  1.00  0.00     0.076 C 
HETATM    6  C7  UNL     1       2.042   0.427   1.125  1.00  0.00     0.044 C 
HETATM    7  C8  UNL     1       0.811  -0.045   0.496  1.00  0.00     0.201 C 
HETATM    8  N1  UNL     1      -0.444   0.253   1.037  1.00  0.00    -0.059 N 
ATOM      9  H11 UNL     1      -0.720  -0.362   1.802  1.00  0.00     0.278 HD
ATOM     10  H12 UNL     1      -0.467   1.122   1.571  1.00  0.00     0.278 HD
ENDROOT
BRANCH   1  11
HETATM   11  C2  UNL     1      -2.284  -0.906  -0.069  1.00  0.00     0.151 C 
HETATM   12  C1  UNL     1      -3.593  -0.678  -0.037  1.00  0.00     0.228 C 
HETATM   13  F1  UNL     1      -4.098   0.600  -0.038  1.00  0.00    -0.216 F 
HETATM   14  F2  UNL     1      -1.892  -2.204  -0.065  1.00  0.00    -0.206 F 
ENDBRANCH   1  11
TORSDOF 1
