REMARK  2 active torsions:
REMARK  status: ('A' for Active; 'I' for Inactive)
REMARK       I    between atoms: N1_2  and  C2_4 
REMARK    1  A    between atoms: C2_4  and  O2_6 
REMARK    2  A    between atoms: O2_6  and  C3_7 
ROOT
HETATM    1  C1  UNL     1      -2.225  -0.488  -0.867  1.00  0.00     0.151 C 
HETATM    2  N1  UNL     1      -0.990  -0.907  -0.235  1.00  0.00    -0.341 N 
ATOM      3  H1  UNL     1      -0.862  -1.894  -0.012  1.00  0.00     0.164 HD
HETATM    4  C2  UNL     1       0.051   0.009   0.086  1.00  0.00     0.363 C 
HETATM    5  O1  UNL     1      -0.068   1.250  -0.174  1.00  0.00    -0.238 OA
ENDROOT
BRANCH   4   6
HETATM    6  O2  UNL     1       1.236  -0.370   0.689  1.00  0.00    -0.247 OA
BRANCH   6   7
HETATM    7  C3  UNL     1       2.258   0.574   0.997  1.00  0.00     0.306 C 
HETATM    8 CL1  UNL     1       1.648   1.820   2.117  1.00  0.00    -0.053 Cl
HETATM    9 CL2  UNL     1       3.588  -0.302   1.768  1.00  0.00    -0.053 Cl
HETATM   10 CL3  UNL     1       2.880   1.385  -0.436  1.00  0.00    -0.053 Cl
ENDBRANCH   6   7
ENDBRANCH   4   6
TORSDOF 2
