REMARK  1 active torsions:
REMARK  status: ('A' for Active; 'I' for Inactive)
REMARK    1  A    between atoms: C2_2  and  O1_3 
ROOT
HETATM    1  C1  UNL     1       1.945   0.826   1.169  1.00  0.00     0.053 C 
HETATM    2  C2  UNL     1       1.529   0.260  -0.166  1.00  0.00     0.128 C 
HETATM    3  C3  UNL     1       0.637   1.245  -0.836  1.00  0.00     0.117 C 
HETATM    4  S1  UNL     1      -0.577   1.996   0.267  1.00  0.00    -0.166 SA
HETATM    5  C4  UNL     1      -2.044   0.987   0.496  1.00  0.00     0.074 C 
HETATM    6  C5  UNL     1      -2.140  -0.060  -0.555  1.00  0.00     0.010 C 
HETATM    7  C6  UNL     1      -1.514  -1.364  -0.217  1.00  0.00     0.007 C 
HETATM    8  C7  UNL     1      -0.295  -1.258   0.660  1.00  0.00     0.082 C 
HETATM    9  C8  UNL     1       0.983  -1.129  -0.082  1.00  0.00     0.274 C 
HETATM   10  F1  UNL     1       1.959  -1.913   0.537  1.00  0.00    -0.203 F 
HETATM   11  F2  UNL     1       0.873  -1.621  -1.374  1.00  0.00    -0.203 F 
ENDROOT
BRANCH   2  12
HETATM   12  O1  UNL     1       2.713   0.182  -0.940  1.00  0.00    -0.383 OA
ATOM     13  H1  UNL     1       2.451  -0.174  -1.781  1.00  0.00     0.210 HD
ENDBRANCH   2  12
TORSDOF 1
