REMARK  1 active torsions:
REMARK  status: ('A' for Active; 'I' for Inactive)
REMARK    1  A    between atoms: C4_4  and  O1_5 
ROOT
HETATM    1  C1  UNL     1      -2.359  -0.635   0.479  1.00  0.00     0.039 C 
HETATM    2  C2  UNL     1      -1.280  -0.155  -0.440  1.00  0.00     0.120 C 
HETATM    3  C3  UNL     1      -0.703   1.181  -0.046  1.00  0.00     0.065 C 
HETATM    4  C4  UNL     1       0.787   0.914  -0.303  1.00  0.00     0.149 C 
HETATM    5  C5  UNL     1       0.836  -0.546   0.172  1.00  0.00     0.146 C 
HETATM    6  C6  UNL     1       2.119  -1.208  -0.190  1.00  0.00     0.042 C 
HETATM    7  O2  UNL     1      -0.263  -1.073  -0.453  1.00  0.00    -0.379 OA
ENDROOT
BRANCH   4   8
HETATM    8  O1  UNL     1       1.598   1.709   0.462  1.00  0.00    -0.393 OA
ATOM      9  H1  UNL     1       2.520   1.544   0.303  1.00  0.00     0.210 HD
ENDBRANCH   4   8
TORSDOF 1
