REMARK  13 active torsions:
REMARK  status: ('A' for Active; 'I' for Inactive)
REMARK    1  A    between atoms: S1_2  and  C2_3 
REMARK    2  A    between atoms: C2_3  and  C3_4 
REMARK    3  A    between atoms: C3_4  and  C4_5 
REMARK    4  A    between atoms: C3_4  and  C9_10 
REMARK    5  A    between atoms: C4_5  and  C5_6 
REMARK    6  A    between atoms: C5_6  and  C6_7 
REMARK    7  A    between atoms: C9_10  and  N1_11 
REMARK    8  A    between atoms: C11_13  and  C12_14 
REMARK    9  A    between atoms: C12_14  and  O1_15 
REMARK   10  A    between atoms: O1_15  and  C13_16 
REMARK   11  A    between atoms: C13_16  and  C14_17 
REMARK   12  A    between atoms: C14_17  and  O2_18 
REMARK   13  A    between atoms: O2_18  and  C15_19 
ROOT
HETATM    1  N1  UNL     1      -0.985  -0.968   2.426  1.00  0.00    -0.287 N 
HETATM    2  C10 UNL     1       0.007  -1.782   2.022  1.00  0.00     0.140 A 
HETATM    3  C11 UNL     1       1.126  -1.488   2.737  1.00  0.00     0.068 A 
HETATM    4  N2  UNL     1       0.803  -0.489   3.579  1.00  0.00    -0.287 N 
ATOM      5  H2  UNL     1       1.427  -0.043   4.251  1.00  0.00     0.188 HD
HETATM    6  N3  UNL     1      -0.451  -0.193   3.381  1.00  0.00    -0.241 N 
ATOM      7  H3  UNL     1      -0.959   0.533   3.886  1.00  0.00     0.208 HD
ENDROOT
BRANCH   3   8
HETATM    8  C12 UNL     1       2.440  -2.147   2.606  1.00  0.00     0.227 C 
BRANCH   8   9
HETATM    9  O1  UNL     1       3.347  -1.348   1.935  1.00  0.00    -0.383 OA
BRANCH   9  10
HETATM   10  C13 UNL     1       2.874  -1.081   0.674  1.00  0.00     0.194 C 
BRANCH  10  11
HETATM   11  C14 UNL     1       3.829  -0.216  -0.126  1.00  0.00     0.201 C 
BRANCH  11  12
HETATM   12  O2  UNL     1       5.091  -0.861  -0.272  1.00  0.00    -0.349 OA
BRANCH  12  13
HETATM   13  C15 UNL     1       6.095  -0.210  -0.986  1.00  0.00     0.068 A 
HETATM   14  C16 UNL     1       7.322  -0.794  -1.148  1.00  0.00     0.037 A 
HETATM   15  C17 UNL     1       8.304  -0.123  -1.865  1.00  0.00     0.003 A 
HETATM   16  C18 UNL     1       8.062   1.116  -2.411  1.00  0.00     0.000 A 
HETATM   17  C19 UNL     1       6.832   1.719  -2.257  1.00  0.00     0.003 A 
HETATM   18  C20 UNL     1       5.873   1.036  -1.543  1.00  0.00     0.037 A 
ENDBRANCH  12  13
ENDBRANCH  11  12
ENDBRANCH  10  11
ENDBRANCH   9  10
ENDBRANCH   8   9
ENDBRANCH   3   8
BRANCH   1  19
HETATM   19  C9  UNL     1      -2.313  -0.985   1.913  1.00  0.00     0.155 C 
BRANCH  19  20
HETATM   20  C3  UNL     1      -2.515  -0.066   0.695  1.00  0.00     0.015 C 
BRANCH  20  21
HETATM   21  C2  UNL     1      -2.195   1.309   1.124  1.00  0.00     0.079 C 
BRANCH  21  22
HETATM   22  S1  UNL     1      -2.353   2.592  -0.116  1.00  0.00    -0.173 SA
HETATM   23  C1  UNL     1      -1.910   4.180   0.630  1.00  0.00     0.089 C 
ENDBRANCH  21  22
ENDBRANCH  20  21
BRANCH  20  24
HETATM   24  C4  UNL     1      -3.872  -0.366   0.204  1.00  0.00     0.007 C 
BRANCH  24  25
HETATM   25  C5  UNL     1      -4.388   0.348  -0.983  1.00  0.00     0.004 C 
BRANCH  25  26
HETATM   26  C6  UNL     1      -5.804  -0.234  -1.219  1.00  0.00    -0.023 C 
HETATM   27  C7  UNL     1      -6.450   0.407  -2.404  1.00  0.00     0.009 C 
HETATM   28  C8  UNL     1      -5.734  -1.724  -1.294  1.00  0.00     0.009 C 
ENDBRANCH  25  26
ENDBRANCH  24  25
ENDBRANCH  20  24
ENDBRANCH  19  20
ENDBRANCH   1  19
TORSDOF 13
