REMARK  14 active torsions:
REMARK  status: ('A' for Active; 'I' for Inactive)
REMARK    1  A    between atoms: C2_2  and  C3_3 
REMARK    2  A    between atoms: C2_2  and  C8_16 
REMARK    3  A    between atoms: C3_3  and  C4_4 
REMARK    4  A    between atoms: C4_4  and  O1_5 
REMARK    5  A    between atoms: O1_5  and  C5_6 
REMARK    6  A    between atoms: C5_6  and  C6_7 
REMARK    7  A    between atoms: C6_7  and  N1_8 
REMARK    8  A    between atoms: C8_16  and  C9_17 
REMARK    9  A    between atoms: C9_17  and  C10_18 
REMARK   10  A    between atoms: C10_18  and  C11_19 
REMARK   11  A    between atoms: C12_20  and  C13_21 
REMARK   12  A    between atoms: C13_21  and  C14_22 
REMARK   13  A    between atoms: C15_23  and  C16_24 
REMARK   14  A    between atoms: C16_24  and  C17_25 
ROOT
HETATM    1  C8  UNL     1       2.046   0.805   1.080  1.00  0.00     0.034 C 
ENDROOT
BRANCH   1   2
HETATM    2  C2  UNL     1       3.338   0.178   0.755  1.00  0.00    -0.086 C 
HETATM    3  C1  UNL     1       3.837  -0.955   1.554  1.00  0.00     0.043 C 
BRANCH   2   4
HETATM    4  C3  UNL     1       4.063   0.625  -0.254  1.00  0.00     0.001 C 
BRANCH   4   5
HETATM    5  C4  UNL     1       5.377   0.053  -0.652  1.00  0.00     0.195 C 
BRANCH   5   6
HETATM    6  O1  UNL     1       6.393   0.975  -0.587  1.00  0.00    -0.386 OA
BRANCH   6   7
HETATM    7  C5  UNL     1       7.627   0.504  -0.948  1.00  0.00     0.189 C 
BRANCH   7   8
HETATM    8  C6  UNL     1       8.121  -0.648  -0.090  1.00  0.00     0.177 C 
BRANCH   8   9
HETATM    9  N1  UNL     1       9.438  -1.070  -0.555  1.00  0.00    -0.269 N 
HETATM   10  C7  UNL     1       9.707  -2.011  -1.493  1.00  0.00     0.219 A 
HETATM   11  N2  UNL     1      11.038  -2.060  -1.591  1.00  0.00    -0.279 N 
HETATM   12  N3  UNL     1      11.539  -1.176  -0.735  1.00  0.00    -0.227 N 
ATOM     13  H2  UNL     1      11.574  -2.667  -2.211  1.00  0.00     0.189 HD
HETATM   14  N4  UNL     1      10.560  -0.575  -0.107  1.00  0.00    -0.225 N 
ATOM     15  H3  UNL     1      12.532  -0.994  -0.590  1.00  0.00     0.210 HD
ATOM     16  H4  UNL     1      10.656   0.150   0.604  1.00  0.00     0.210 HD
ENDBRANCH   8   9
ENDBRANCH   7   8
ENDBRANCH   6   7
ENDBRANCH   5   6
ENDBRANCH   4   5
ENDBRANCH   2   4
ENDBRANCH   1   2
BRANCH   1  17
HETATM   17  C9  UNL     1       1.714   1.945   0.149  1.00  0.00     0.008 C 
BRANCH  17  18
HETATM   18  C10 UNL     1       0.357   2.510   0.585  1.00  0.00     0.027 C 
BRANCH  18  19
HETATM   19  C11 UNL     1      -0.676   1.460   0.499  1.00  0.00    -0.030 C 
HETATM   20  C12 UNL     1      -1.342   1.095   1.576  1.00  0.00    -0.027 C 
BRANCH  20  21
HETATM   21  C13 UNL     1      -2.395   0.031   1.513  1.00  0.00     0.053 C 
BRANCH  21  22
HETATM   22  C14 UNL     1      -3.659   0.623   1.945  1.00  0.00    -0.027 C 
HETATM   23  C15 UNL     1      -4.753   0.717   1.247  1.00  0.00    -0.027 C 
BRANCH  23  24
HETATM   24  C16 UNL     1      -4.885   0.224  -0.126  1.00  0.00     0.062 C 
BRANCH  24  25
HETATM   25  C17 UNL     1      -5.990  -0.823  -0.123  1.00  0.00     0.149 C 
HETATM   26  C18 UNL     1      -6.204  -1.387  -1.473  1.00  0.00     0.004 C 
HETATM   27  C19 UNL     1      -7.487  -1.258  -1.742  1.00  0.00     0.008 C 
HETATM   28  C20 UNL     1      -8.168  -0.606  -0.585  1.00  0.00     0.072 C 
HETATM   29  C21 UNL     1      -9.012   0.563  -1.055  1.00  0.00     0.050 C 
HETATM   30  C22 UNL     1      -9.048  -1.594   0.122  1.00  0.00     0.050 C 
HETATM   31  O2  UNL     1      -7.162  -0.224   0.268  1.00  0.00    -0.368 OA
ENDBRANCH  24  25
ENDBRANCH  23  24
ENDBRANCH  21  22
ENDBRANCH  20  21
ENDBRANCH  18  19
ENDBRANCH  17  18
ENDBRANCH   1  17
TORSDOF 14
