REMARK  19 active torsions:
REMARK  status: ('A' for Active; 'I' for Inactive)
REMARK    1  A    between atoms: N1_1  and  C1_4 
REMARK    2  A    between atoms: N5_15  and  C6_16 
REMARK    3  A    between atoms: C8_19  and  O2_20 
REMARK    4  A    between atoms: O2_20  and  C9_21 
REMARK    5  A    between atoms: C9_21  and  C10_22 
REMARK    6  A    between atoms: C9_21  and  C17_47 
REMARK    7  A    between atoms: C10_22  and  O3_23 
REMARK    8  A    between atoms: C10_22  and  C11_25 
REMARK    9  A    between atoms: C11_25  and  O4_26 
REMARK   10  A    between atoms: N6_28  and  C12_30 
REMARK   11  A    between atoms: C15_34  and  S1_35 
REMARK   12  A    between atoms: S1_35  and  N8_36 
REMARK   13  A    between atoms: N9_43  and  N10_44 
REMARK   14  A    between atoms: C17_47  and  O8_48 
REMARK   15  A    between atoms: C17_47  and  C18_50 
REMARK   16  A    between atoms: C18_50  and  O9_51 
REMARK   17  A    between atoms: C18_50  and  C19_53 
REMARK   18  A    between atoms: C19_53  and  O10_54 
REMARK   19  A    between atoms: C20_56  and  O11_57 
ROOT
HETATM    1  C9  UNL     1       0.086  -2.706   0.733  1.00  0.00     0.190 C 
ENDROOT
BRANCH   1   2
HETATM    2  O2  UNL     1       0.676  -1.745  -0.087  1.00  0.00    -0.370 OA
BRANCH   2   3
HETATM    3  C8  UNL     1       1.639  -0.966   0.427  1.00  0.00     0.179 C 
HETATM    4  C7  UNL     1       3.023  -1.208  -0.167  1.00  0.00     0.205 C 
HETATM    5  O1  UNL     1       3.709  -0.066   0.315  1.00  0.00    -0.361 OA
HETATM    6  C6  UNL     1       2.900   0.921  -0.243  1.00  0.00     0.261 C 
HETATM    7  C20 UNL     1       1.480   0.501   0.162  1.00  0.00     0.198 C 
BRANCH   6   8
HETATM    8  N5  UNL     1       3.139   2.242   0.280  1.00  0.00    -0.297 N 
HETATM    9  C2  UNL     1       4.357   2.796   0.461  1.00  0.00     0.154 A 
HETATM   10  N2  UNL     1       5.603   2.362   0.246  1.00  0.00    -0.174 N 
HETATM   11  C3  UNL     1       4.190   4.064   0.969  1.00  0.00     0.094 A 
HETATM   12  C1  UNL     1       6.671   3.127   0.513  1.00  0.00     0.677 A 
ATOM     13  H2  UNL     1       5.745   1.425  -0.131  1.00  0.00     0.186 HD
HETATM   14  N3  UNL     1       6.480   4.359   1.009  1.00  0.00    -0.200 N 
HETATM   15  C4  UNL     1       5.271   4.883   1.258  1.00  0.00     0.139 A 
ATOM     16  H3  UNL     1       7.302   4.930   1.208  1.00  0.00     0.183 HD
HETATM   17  N4  UNL     1       2.870   4.264   1.092  1.00  0.00    -0.348 N 
HETATM   18  C5  UNL     1       2.250   3.152   0.670  1.00  0.00     0.188 A 
ATOM     19  H4  UNL     1       2.419   5.109   1.443  1.00  0.00     0.167 HD
BRANCH  12  20
HETATM   20  N1  UNL     1       7.884   2.704   0.306  1.00  0.00    -0.234 N 
ATOM     21  H12 UNL     1       8.029   1.767  -0.071  1.00  0.00     0.174 HD
ATOM     22  H11 UNL     1       8.697   3.286   0.509  1.00  0.00     0.174 HD
ENDBRANCH  12  20
ENDBRANCH   6   8
BRANCH   7  23
HETATM   23  O11 UNL     1       0.706   0.753  -0.975  1.00  0.00    -0.388 OA
ATOM     24  H11 UNL     1      -0.173   0.493  -0.724  1.00  0.00     0.210 HD
ENDBRANCH   7  23
ENDBRANCH   2   3
ENDBRANCH   1   2
BRANCH   1  25
HETATM   25  C10 UNL     1      -1.414  -2.326   0.778  1.00  0.00     0.224 C 
BRANCH  25  26
HETATM   26  O3  UNL     1      -2.086  -3.261   1.577  1.00  0.00    -0.385 OA
ATOM     27  H3  UNL     1      -3.007  -3.028   1.605  1.00  0.00     0.210 HD
ENDBRANCH  25  26
BRANCH  25  28
HETATM   28  C11 UNL     1      -1.585  -1.060   1.466  1.00  0.00     0.149 C 
HETATM   29  N6  UNL     1      -2.076   0.148   1.096  1.00  0.00    -0.323 N 
ATOM     30  H6  UNL     1      -1.838   0.854   1.793  1.00  0.00     0.169 HD
BRANCH  28  31
HETATM   31  O4  UNL     1      -1.154  -1.137   2.715  1.00  0.00    -0.347 OA
ATOM     32  H4  UNL     1      -1.266  -0.308   3.165  1.00  0.00     0.219 HD
ENDBRANCH  28  31
BRANCH  29  33
HETATM   33  C12 UNL     1      -2.807   0.724   0.056  1.00  0.00     0.133 A 
HETATM   34  C13 UNL     1      -2.645   2.119  -0.143  1.00  0.00     0.079 A 
HETATM   35  C14 UNL     1      -3.346   2.842  -1.058  1.00  0.00     0.079 A 
HETATM   36  N7  UNL     1      -3.132   4.238  -1.201  1.00  0.00    -0.101 NA
HETATM   37  C15 UNL     1      -4.261   2.185  -1.830  1.00  0.00     0.173 A 
HETATM   38  C16 UNL     1      -4.443   0.842  -1.661  1.00  0.00     0.293 A 
HETATM   39  O7  UNL     1      -5.274   0.221  -2.355  1.00  0.00    -0.264 OA
HETATM   40  N9  UNL     1      -3.710   0.155  -0.720  1.00  0.00    -0.209 N 
BRANCH  37  41
HETATM   41  S1  UNL     1      -5.186   3.076  -3.026  1.00  0.00     0.264 S 
HETATM   42  O5  UNL     1      -4.355   4.191  -3.588  1.00  0.00    -0.200 OA
HETATM   43  O6  UNL     1      -5.525   2.155  -4.171  1.00  0.00    -0.200 OA
BRANCH  41  44
HETATM   44  N8  UNL     1      -6.638   3.693  -2.354  1.00  0.00    -0.324 N 
ATOM     45  H82 UNL     1      -6.914   3.552  -1.382  1.00  0.00     0.169 HD
ATOM     46  H81 UNL     1      -7.176   4.211  -3.049  1.00  0.00     0.169 HD
ENDBRANCH  41  44
ENDBRANCH  37  41
BRANCH  40  47
HETATM   47  N10 UNL     1      -4.062  -1.180  -0.563  1.00  0.00    -0.334 N 
ATOM     48 2H10 UNL     1      -3.519  -1.689   0.134  1.00  0.00     0.177 HD
ATOM     49 1H10 UNL     1      -4.760  -1.620  -1.163  1.00  0.00     0.177 HD
ENDBRANCH  40  47
ENDBRANCH  29  33
ENDBRANCH  25  28
ENDBRANCH   1  25
BRANCH   1  50
HETATM   50  C17 UNL     1       0.372  -4.016   0.093  1.00  0.00     0.180 C 
BRANCH  50  51
HETATM   51  O8  UNL     1      -0.163  -4.269  -1.136  1.00  0.00    -0.390 OA
ATOM     52  H8  UNL     1       0.020  -5.107  -1.545  1.00  0.00     0.210 HD
ENDBRANCH  50  51
BRANCH  50  53
HETATM   53  C18 UNL     1       0.523  -5.230   0.958  1.00  0.00     0.173 C 
BRANCH  53  54
HETATM   54  O9  UNL     1       1.463  -6.096   0.265  1.00  0.00    -0.391 OA
ATOM     55  H9  UNL     1       1.559  -6.866   0.813  1.00  0.00     0.210 HD
ENDBRANCH  53  54
BRANCH  53  56
HETATM   56  C19 UNL     1      -0.705  -6.113   1.046  1.00  0.00     0.198 C 
BRANCH  56  57
HETATM   57  O10 UNL     1      -1.220  -6.453  -0.182  1.00  0.00    -0.398 OA
ATOM     58  H10 UNL     1      -1.990  -7.007  -0.127  1.00  0.00     0.209 HD
ENDBRANCH  56  57
ENDBRANCH  53  56
ENDBRANCH  50  53
ENDBRANCH   1  50
TORSDOF 19
