REMARK  6 active torsions:
REMARK  status: ('A' for Active; 'I' for Inactive)
REMARK    1  A    between atoms: C2_2  and  C3_4 
REMARK    2  A    between atoms: C4_5  and  N1_6 
REMARK       I    between atoms: N1_6  and  C5_8 
REMARK    3  A    between atoms: C5_8  and  C6_10 
REMARK    4  A    between atoms: C6_10  and  S1_11 
REMARK    5  A    between atoms: S1_11  and  C7_12 
REMARK    6  A    between atoms: C16_27  and  C17_28 
ROOT
HETATM    1  C3  UNL     1       1.620   0.728  -0.080  1.00  0.00     0.055 A 
HETATM    2  C4  UNL     1       0.431   0.037   0.111  1.00  0.00     0.092 A 
HETATM    3  S2  UNL     1       0.944  -1.468   0.754  1.00  0.00    -0.071 SA
HETATM    4  C13 UNL     1       2.617  -1.200   0.768  1.00  0.00     0.021 A 
HETATM    5  C14 UNL     1       3.703  -2.003   1.172  1.00  0.00     0.062 A 
HETATM    6  C15 UNL     1       4.985  -1.530   1.077  1.00  0.00     0.124 A 
HETATM    7  F1  UNL     1       6.006  -2.328   1.473  1.00  0.00    -0.205 F 
HETATM    8  C16 UNL     1       5.143  -0.280   0.586  1.00  0.00    -0.011 A 
HETATM    9  C21 UNL     1       4.087   0.502   0.193  1.00  0.00     0.025 A 
HETATM   10  C22 UNL     1       2.755   0.064   0.271  1.00  0.00    -0.002 A 
ENDROOT
BRANCH   2  11
HETATM   11  N1  UNL     1      -0.935   0.407  -0.139  1.00  0.00    -0.320 N 
HETATM   12  C5  UNL     1      -1.934  -0.570   0.182  1.00  0.00     0.232 C 
HETATM   13  O2  UNL     1      -1.631  -1.689   0.657  1.00  0.00    -0.272 OA
ATOM     14  H1  UNL     1      -1.181   1.318  -0.525  1.00  0.00     0.169 HD
BRANCH  12  15
HETATM   15  C6  UNL     1      -3.345  -0.228  -0.060  1.00  0.00     0.185 C 
BRANCH  15  16
HETATM   16  S1  UNL     1      -4.387  -1.608   0.421  1.00  0.00    -0.085 SA
BRANCH  16  17
HETATM   17  C7  UNL     1      -6.110  -1.257   0.152  1.00  0.00     0.145 A 
HETATM   18  N2  UNL     1      -6.513  -0.080  -0.353  1.00  0.00    -0.341 N 
HETATM   19  C8  UNL     1      -7.797   0.183  -0.554  1.00  0.00     0.009 A 
ATOM     20  H2  UNL     1      -5.816   0.627  -0.587  1.00  0.00     0.167 HD
HETATM   21  C9  UNL     1      -8.231   1.481  -1.111  1.00  0.00     0.068 C 
HETATM   22  C10 UNL     1      -8.731  -0.798  -0.227  1.00  0.00     0.049 A 
HETATM   23  C11 UNL     1      -8.314  -2.011   0.295  1.00  0.00     0.009 A 
HETATM   24  C12 UNL     1      -9.305  -3.076   0.652  1.00  0.00     0.068 C 
HETATM   25  N3  UNL     1      -7.002  -2.225   0.478  1.00  0.00    -0.341 N 
ATOM     26  H3  UNL     1      -6.677  -3.113   0.861  1.00  0.00     0.167 HD
ENDBRANCH  16  17
ENDBRANCH  15  16
ENDBRANCH  12  15
ENDBRANCH   2  11
BRANCH   1  27
HETATM   27  C2  UNL     1       1.527   2.103  -0.637  1.00  0.00     0.159 C 
HETATM   28  C1  UNL     1       2.632   3.016  -0.931  1.00  0.00     0.097 C 
HETATM   29  O1  UNL     1       0.374   2.606  -0.915  1.00  0.00    -0.293 OA
ENDBRANCH   1  27
BRANCH   8  30
HETATM   30  C17 UNL     1       6.553   0.222   0.488  1.00  0.00    -0.021 C 
HETATM   31  C18 UNL     1       7.384  -0.662  -0.417  1.00  0.00     0.019 C 
HETATM   32  C19 UNL     1       7.206   0.307   1.852  1.00  0.00     0.019 C 
HETATM   33  C20 UNL     1       6.579   1.618  -0.100  1.00  0.00     0.019 C 
ENDBRANCH   8  30
TORSDOF 6
