REMARK  8 active torsions:
REMARK  status: ('A' for Active; 'I' for Inactive)
REMARK    1  A    between atoms: C2_2  and  O1_3 
REMARK    2  A    between atoms: O1_3  and  C3_4 
REMARK    3  A    between atoms: C3_4  and  C4_6 
REMARK    4  A    between atoms: C5_8  and  O4_9 
REMARK    5  A    between atoms: C7_13  and  O5_14 
REMARK    6  A    between atoms: O5_14  and  C8_15 
REMARK    7  A    between atoms: C16_23  and  C17_24 
REMARK    8  A    between atoms: C17_24  and  C18_25 
ROOT
HETATM    1  C8  UNL     1       0.772  -0.905  -0.094  1.00  0.00     0.138 C 
HETATM    2  C9  UNL     1       1.197  -2.281   0.433  1.00  0.00     0.036 C 
HETATM    3  C10 UNL     1       0.389  -2.541   1.705  1.00  0.00     0.040 C 
HETATM    4  C11 UNL     1      -1.066  -2.279   1.378  1.00  0.00     0.058 C 
HETATM    5  C12 UNL     1      -1.815  -3.536   1.856  1.00  0.00     0.046 C 
HETATM    6  C13 UNL     1      -1.330  -2.186  -0.077  1.00  0.00     0.050 C 
HETATM    7  C14 UNL     1      -0.562  -1.111  -0.828  1.00  0.00    -0.011 C 
HETATM    8  C15 UNL     1      -0.387  -1.699  -2.203  1.00  0.00     0.018 C 
HETATM    9  C16 UNL     1      -1.261   0.205  -0.877  1.00  0.00    -0.000 C 
HETATM   10  C22 UNL     1      -1.884   0.711   0.360  1.00  0.00     0.008 C 
HETATM   11  C23 UNL     1      -3.082   0.088   0.924  1.00  0.00     0.027 C 
HETATM   12  C24 UNL     1      -2.847  -0.951   1.998  1.00  0.00     0.168 C 
HETATM   13  O6  UNL     1      -1.512  -1.222   2.121  1.00  0.00    -0.381 OA
ENDROOT
BRANCH   1  14
HETATM   14  O5  UNL     1       1.695  -0.115  -0.552  1.00  0.00    -0.340 OA
BRANCH  14  15
HETATM   15  C7  UNL     1       2.590   0.707  -0.982  1.00  0.00     0.136 A 
HETATM   16  C4  UNL     1       3.763   1.065  -0.299  1.00  0.00     0.188 A 
HETATM   17  O3  UNL     1       4.428   1.912  -1.046  1.00  0.00    -0.277 OA
HETATM   18  C5  UNL     1       3.822   2.155  -2.147  1.00  0.00     0.209 A 
HETATM   19  C6  UNL     1       2.654   1.431  -2.179  1.00  0.00     0.128 A 
HETATM   20 CL1  UNL     1       1.482   1.443  -3.492  1.00  0.00    -0.076 Cl
BRANCH  16  21
HETATM   21  C3  UNL     1       4.254   0.637   1.010  1.00  0.00     0.320 C 
HETATM   22  O2  UNL     1       3.687  -0.132   1.793  1.00  0.00    -0.257 OA
BRANCH  21  23
HETATM   23  O1  UNL     1       5.489   1.134   1.446  1.00  0.00    -0.316 OA
BRANCH  23  24
HETATM   24  C2  UNL     1       6.023   0.755   2.713  1.00  0.00     0.175 C 
HETATM   25  C1  UNL     1       7.351   1.471   2.852  1.00  0.00     0.034 C 
ENDBRANCH  23  24
ENDBRANCH  21  23
ENDBRANCH  16  21
BRANCH  18  26
HETATM   26  O4  UNL     1       4.248   3.004  -3.162  1.00  0.00    -0.339 OA
ATOM     27  H4  UNL     1       3.798   3.184  -3.979  1.00  0.00     0.220 HD
ENDBRANCH  18  26
ENDBRANCH  14  15
ENDBRANCH   1  14
BRANCH   9  28
HETATM   28  C17 UNL     1      -2.112   0.452  -2.077  1.00  0.00     0.033 C 
BRANCH  28  29
HETATM   29  C18 UNL     1      -2.718   1.804  -1.953  1.00  0.00    -0.024 C 
HETATM   30  C19 UNL     1      -3.976   2.121  -2.016  1.00  0.00    -0.091 C 
HETATM   31  C20 UNL     1      -5.054   1.120  -2.236  1.00  0.00     0.042 C 
HETATM   32  C21 UNL     1      -4.407   3.544  -1.868  1.00  0.00     0.042 C 
ENDBRANCH  28  29
ENDBRANCH   9  28
TORSDOF 8
