REMARK  6 active torsions:
REMARK  status: ('A' for Active; 'I' for Inactive)
REMARK    1  A    between atoms: C2_2  and  C3_4 
REMARK    2  A    between atoms: C3_4  and  C4_5 
REMARK    3  A    between atoms: C5_7  and  C6_8 
REMARK    4  A    between atoms: C6_8  and  C7_9 
REMARK    5  A    between atoms: C16_19  and  O4_21 
REMARK    6  A    between atoms: C19_25  and  O6_26 
ROOT
HETATM    1  C4  UNL     1       1.689  -0.208  -1.195  1.00  0.00     0.166 C 
HETATM    2  O2  UNL     1       0.815   0.813  -0.947  1.00  0.00    -0.346 OA
HETATM    3  C5  UNL     1       0.131   0.649   0.248  1.00  0.00     0.065 C 
HETATM    4  C10 UNL     1      -0.888  -0.361   0.074  1.00  0.00     0.131 C 
HETATM    5  C11 UNL     1      -1.612  -0.681   1.326  1.00  0.00     0.181 C 
HETATM    6  O3  UNL     1      -2.081  -0.045   2.201  1.00  0.00    -0.293 OA
HETATM    7  C12 UNL     1      -1.643  -2.156   1.267  1.00  0.00     0.119 C 
HETATM    8  C13 UNL     1      -2.005  -2.705   2.601  1.00  0.00     0.055 C 
HETATM    9  C14 UNL     1      -2.626  -2.487   0.178  1.00  0.00     0.049 C 
HETATM   10  C15 UNL     1      -2.705  -1.608  -0.979  1.00  0.00     0.042 C 
HETATM   11  C16 UNL     1      -1.948  -0.284  -0.968  1.00  0.00     0.078 C 
HETATM   12  C17 UNL     1      -1.443  -0.110  -2.386  1.00  0.00     0.047 C 
HETATM   13  O5  UNL     1      -0.329  -2.440   0.911  1.00  0.00    -0.363 OA
HETATM   14  C18 UNL     1      -0.149  -1.680  -0.270  1.00  0.00     0.180 C 
HETATM   15  C19 UNL     1       1.275  -1.526  -0.626  1.00  0.00     0.178 C 
ENDROOT
BRANCH   1  16
HETATM   16  C3  UNL     1       3.025   0.190  -0.624  1.00  0.00     0.113 C 
BRANCH  16  17
HETATM   17  C2  UNL     1       4.109  -0.771  -0.834  1.00  0.00     0.125 C 
HETATM   18  C1  UNL     1       5.438  -0.568  -0.205  1.00  0.00     0.091 C 
HETATM   19  O1  UNL     1       3.934  -1.750  -1.529  1.00  0.00    -0.298 OA
ENDBRANCH  16  17
ENDBRANCH   1  16
BRANCH  15  20
HETATM   20  O6  UNL     1       2.019  -1.958   0.473  1.00  0.00    -0.390 OA
ATOM     21  H6  UNL     1       1.756  -2.796   0.835  1.00  0.00     0.210 HD
ENDBRANCH  15  20
BRANCH   3  22
HETATM   22  C6  UNL     1      -0.020   1.876   1.038  1.00  0.00     0.011 C 
BRANCH  22  23
HETATM   23  C7  UNL     1      -0.714   3.064   0.537  1.00  0.00     0.002 C 
HETATM   24  C8  UNL     1      -0.656   4.156   1.641  1.00  0.00     0.013 C 
HETATM   25  C9  UNL     1      -0.130   3.718  -0.676  1.00  0.00     0.013 C 
ENDBRANCH  22  23
ENDBRANCH   3  22
BRANCH  11  26
HETATM   26  O4  UNL     1      -2.896   0.709  -0.784  1.00  0.00    -0.389 OA
ATOM     27  H4  UNL     1      -3.573   0.758  -1.449  1.00  0.00     0.210 HD
ENDBRANCH  11  26
TORSDOF 6
