REMARK  8 active torsions:
REMARK  status: ('A' for Active; 'I' for Inactive)
REMARK    1  A    between atoms: C2_2  and  C3_3 
REMARK    2  A    between atoms: C3_3  and  O1_4 
REMARK    3  A    between atoms: C5_7  and  C19_26 
REMARK    4  A    between atoms: C6_8  and  C7_9 
REMARK    5  A    between atoms: C7_9  and  C8_10 
REMARK    6  A    between atoms: C12_16  and  C14_18 
REMARK    7  A    between atoms: C14_18  and  C16_21 
REMARK    8  A    between atoms: C16_21  and  O5_22 
ROOT
HETATM    1  C3  UNL     1      -0.984   1.775  -0.524  1.00  0.00     0.094 C 
HETATM    2  C4  UNL     1       0.289   1.224  -0.872  1.00  0.00     0.054 C 
HETATM    3  C5  UNL     1       0.749  -0.189  -0.674  1.00  0.00     0.023 C 
HETATM    4  C6  UNL     1       1.635  -0.204   0.561  1.00  0.00     0.006 C 
HETATM    5  C10 UNL     1       1.079   0.594   1.712  1.00  0.00     0.089 C 
HETATM    6  C11 UNL     1      -0.312   0.255   2.064  1.00  0.00     0.159 C 
HETATM    7  O3  UNL     1      -0.361  -0.110   3.241  1.00  0.00    -0.293 OA
HETATM    8  C12 UNL     1      -1.672   0.213   1.447  1.00  0.00     0.029 C 
HETATM    9  C13 UNL     1      -1.936   1.273   0.465  1.00  0.00     0.029 C 
ENDROOT
BRANCH   1  10
HETATM   10  C2  UNL     1      -0.733   3.242  -0.220  1.00  0.00     0.004 C 
HETATM   11  C1  UNL     1      -0.948   4.222  -1.064  1.00  0.00     0.010 C 
ENDBRANCH   1  10
BRANCH   1  12
HETATM   12  O1  UNL     1      -1.750   1.982  -1.728  1.00  0.00    -0.382 OA
ATOM     13  H1  UNL     1      -1.907   1.065  -1.918  1.00  0.00     0.211 HD
ENDBRANCH   1  12
BRANCH   3  14
HETATM   14  C19 UNL     1      -0.230  -1.220  -0.560  1.00  0.00     0.130 C 
HETATM   15  C18 UNL     1      -0.325  -2.441  -1.457  1.00  0.00     0.038 C 
HETATM   16  C17 UNL     1      -1.678  -2.877  -0.790  1.00  0.00     0.075 C 
HETATM   17  C16 UNL     1      -2.284  -1.550  -0.307  1.00  0.00     0.200 C 
HETATM   18  O6  UNL     1      -1.434  -0.713  -0.984  1.00  0.00    -0.346 OA
BRANCH  17  19
HETATM   19  C14 UNL     1      -2.144  -1.188   1.110  1.00  0.00     0.168 A 
HETATM   20  C15 UNL     1      -2.170  -2.209   2.145  1.00  0.00     0.218 A 
HETATM   21  O4  UNL     1      -3.394  -1.625   1.797  1.00  0.00    -0.364 OA
ENDBRANCH  17  19
BRANCH  17  22
HETATM   22  O5  UNL     1      -3.583  -1.411  -0.812  1.00  0.00    -0.363 OA
ATOM     23  H5  UNL     1      -3.674  -1.645  -1.728  1.00  0.00     0.213 HD
ENDBRANCH  17  22
ENDBRANCH   3  14
BRANCH   4  24
HETATM   24  C7  UNL     1       3.039   0.215   0.337  1.00  0.00     0.083 C 
BRANCH  24  25
HETATM   25  C8  UNL     1       3.829  -0.616  -0.586  1.00  0.00     0.123 C 
HETATM   26  C9  UNL     1       5.208  -0.216  -1.000  1.00  0.00     0.091 C 
HETATM   27  O2  UNL     1       3.393  -1.642  -1.037  1.00  0.00    -0.298 OA
ENDBRANCH  24  25
ENDBRANCH   4  24
TORSDOF 8
