REMARK  7 active torsions:
REMARK  status: ('A' for Active; 'I' for Inactive)
REMARK    1  A    between atoms: C2_2  and  C3_3 
REMARK    2  A    between atoms: C4_4  and  C5_5 
REMARK    3  A    between atoms: C5_5  and  O1_6 
REMARK    4  A    between atoms: C16_22  and  C17_23 
REMARK    5  A    between atoms: C17_23  and  C18_24 
REMARK    6  A    between atoms: C18_24  and  C19_25 
REMARK    7  A    between atoms: C19_25  and  O6_26 
ROOT
HETATM    1  C5  UNL     1      -1.800   0.522   0.863  1.00  0.00     0.235 C 
HETATM    2  O2  UNL     1      -1.000   1.493   1.375  1.00  0.00    -0.336 OA
HETATM    3  C6  UNL     1       0.241   0.908   1.600  1.00  0.00     0.159 C 
HETATM    4  C7  UNL     1       1.315   1.913   1.826  1.00  0.00     0.201 C 
HETATM    5  O3  UNL     1       2.221   1.814   0.766  1.00  0.00    -0.377 OA
HETATM    6  C8  UNL     1       2.755   0.537   0.688  1.00  0.00     0.189 A 
HETATM    7  C9  UNL     1       1.700  -0.518   0.302  1.00  0.00     0.031 A 
HETATM    8  C10 UNL     1       2.161  -1.085  -1.021  1.00  0.00     0.013 A 
HETATM    9  C11 UNL     1       3.460  -0.461  -1.392  1.00  0.00     0.072 A 
HETATM   10  C12 UNL     1       3.820   0.526  -0.341  1.00  0.00     0.195 A 
HETATM   11  O4  UNL     1       5.131   0.467   0.128  1.00  0.00    -0.328 OA
HETATM   12  C13 UNL     1       5.252   1.831  -0.123  1.00  0.00     0.345 C 
HETATM   13  O5  UNL     1       4.135   1.767  -0.923  1.00  0.00    -0.328 OA
HETATM   14  C14 UNL     1       0.399   0.143   0.270  1.00  0.00     0.000 C 
HETATM   15  C15 UNL     1       0.419   1.163  -0.879  1.00  0.00     0.019 C 
HETATM   16  C16 UNL     1      -0.877  -0.552   0.205  1.00  0.00     0.073 C 
ENDROOT
BRANCH   1  17
HETATM   17  C4  UNL     1      -2.672   0.992  -0.214  1.00  0.00    -0.038 C 
HETATM   18  C3  UNL     1      -3.417   1.390  -1.101  1.00  0.00    -0.102 C 
BRANCH  18  19
HETATM   19  C2  UNL     1      -4.329   1.859  -2.147  1.00  0.00     0.089 C 
HETATM   20  C1  UNL     1      -5.325   2.866  -1.568  1.00  0.00     0.018 C 
ENDBRANCH  18  19
ENDBRANCH   1  17
BRANCH   1  21
HETATM   21  O1  UNL     1      -2.551  -0.035   1.894  1.00  0.00    -0.355 OA
ATOM     22  H1  UNL     1      -1.985  -0.340   2.593  1.00  0.00     0.214 HD
ENDBRANCH   1  21
BRANCH  16  23
HETATM   23  C17 UNL     1      -1.201  -1.790   0.907  1.00  0.00     0.014 C 
BRANCH  23  24
HETATM   24  C18 UNL     1      -0.537  -3.069   0.504  1.00  0.00     0.027 C 
BRANCH  24  25
HETATM   25  C19 UNL     1      -1.061  -4.239   1.346  1.00  0.00     0.164 C 
BRANCH  25  26
HETATM   26  O6  UNL     1      -2.431  -4.332   1.132  1.00  0.00    -0.401 OA
ATOM     27  H6  UNL     1      -2.756  -5.057   1.654  1.00  0.00     0.209 HD
ENDBRANCH  25  26
ENDBRANCH  24  25
ENDBRANCH  23  24
ENDBRANCH  16  23
TORSDOF 7
