REMARK  6 active torsions:
REMARK  status: ('A' for Active; 'I' for Inactive)
REMARK    1  A    between atoms: C2_2  and  C4_4 
REMARK    2  A    between atoms: C4_4  and  O2_6 
REMARK    3  A    between atoms: O2_6  and  C5_7 
REMARK    4  A    between atoms: C16_20  and  O5_21 
REMARK    5  A    between atoms: C16_20  and  C17_23 
REMARK    6  A    between atoms: C17_23  and  C18_24 
ROOT
HETATM    1  C5  UNL     1       0.718   0.546  -0.553  1.00  0.00     0.185 C 
HETATM    2  C6  UNL     1      -0.564  -0.159  -0.928  1.00  0.00     0.127 C 
HETATM    3  C7  UNL     1      -0.324  -1.303  -1.857  1.00  0.00     0.266 C 
HETATM    4  O3  UNL     1       0.330  -1.207  -2.926  1.00  0.00    -0.265 OA
HETATM    5  O4  UNL     1      -0.899  -2.519  -1.435  1.00  0.00    -0.315 OA
HETATM    6  C8  UNL     1      -2.251  -2.605  -1.018  1.00  0.00     0.141 A 
HETATM    7  C9  UNL     1      -2.648  -2.820   0.369  1.00  0.00     0.045 A 
HETATM    8  C10 UNL     1      -2.513  -1.436  -0.097  1.00  0.00    -0.007 A 
HETATM    9  C11 UNL     1      -3.675  -0.573  -0.459  1.00  0.00     0.018 C 
HETATM   10  C12 UNL     1      -1.230  -0.731   0.278  1.00  0.00     0.035 C 
HETATM   11  C13 UNL     1      -1.549   0.355   1.221  1.00  0.00    -0.015 C 
HETATM   12  C14 UNL     1      -0.728   1.395   1.287  1.00  0.00    -0.050 C 
HETATM   13  C15 UNL     1      -1.089   2.490   2.272  1.00  0.00     0.046 C 
HETATM   14  C16 UNL     1       0.491   1.586   0.510  1.00  0.00     0.117 C 
ENDROOT
BRANCH   1  15
HETATM   15  O2  UNL     1       1.702  -0.361  -0.099  1.00  0.00    -0.308 OA
BRANCH  15  16
HETATM   16  C4  UNL     1       2.926  -0.538  -0.696  1.00  0.00     0.288 C 
HETATM   17  O1  UNL     1       3.181   0.153  -1.707  1.00  0.00    -0.260 OA
BRANCH  16  18
HETATM   18  C2  UNL     1       3.920  -1.486  -0.203  1.00  0.00     0.004 C 
HETATM   19  C1  UNL     1       5.072  -1.617  -0.809  1.00  0.00     0.024 C 
HETATM   20  C3  UNL     1       3.663  -2.330   0.993  1.00  0.00     0.054 C 
ENDBRANCH  16  18
ENDBRANCH  15  16
ENDBRANCH   1  15
BRANCH  14  21
HETATM   21  O5  UNL     1       1.562   1.522   1.445  1.00  0.00    -0.382 OA
ATOM     22  H5  UNL     1       1.419   2.179   2.116  1.00  0.00     0.211 HD
ENDBRANCH  14  21
BRANCH  14  23
HETATM   23  C17 UNL     1       0.533   2.990  -0.027  1.00  0.00     0.158 C 
BRANCH  23  24
HETATM   24  C18 UNL     1      -0.462   3.263  -1.076  1.00  0.00     0.175 C 
HETATM   25  O6  UNL     1      -0.132   3.022  -2.281  1.00  0.00    -0.648 OA
HETATM   26  O7  UNL     1      -1.732   3.760  -0.892  1.00  0.00    -0.648 OA
ENDBRANCH  23  24
ENDBRANCH  14  23
TORSDOF 6
