REMARK  7 active torsions:
REMARK  status: ('A' for Active; 'I' for Inactive)
REMARK    1  A    between atoms: C4_4  and  O1_5 
REMARK    2  A    between atoms: O1_5  and  C5_6 
REMARK       I    between atoms: C5_6  and  N1_8 
REMARK    3  A    between atoms: N1_8  and  C6_10 
REMARK    4  A    between atoms: C13_19  and  N4_20 
REMARK    5  A    between atoms: N4_20  and  N5_22 
REMARK    6  A    between atoms: N5_22  and  N6_23 
REMARK    7  A    between atoms: C14_26  and  C15_27 
ROOT
HETATM    1  C6  UNL     1       4.586  -0.796  -0.184  1.00  0.00     0.124 C 
HETATM    2  C7  UNL     1       5.073  -0.585   1.184  1.00  0.00     0.091 C 
HETATM    3  N2  UNL     1       5.442  -0.413   2.249  1.00  0.00    -0.195 NA
HETATM    4  C8  UNL     1       5.401  -1.812  -0.911  1.00  0.00     0.047 C 
HETATM    5  C9  UNL     1       5.573  -0.851  -2.068  1.00  0.00     0.007 C 
HETATM    6  C10 UNL     1       5.077   0.257  -1.175  1.00  0.00     0.047 C 
ENDROOT
BRANCH   1   7
HETATM    7  N1  UNL     1       3.160  -0.910  -0.276  1.00  0.00    -0.314 N 
HETATM    8  C5  UNL     1       2.355   0.172   0.156  1.00  0.00     0.366 C 
HETATM    9  O2  UNL     1       2.874   1.233   0.620  1.00  0.00    -0.238 OA
ATOM     10  H1  UNL     1       2.731  -1.758  -0.647  1.00  0.00     0.166 HD
BRANCH   8  11
HETATM   11  O1  UNL     1       0.971   0.153   0.105  1.00  0.00    -0.272 OA
BRANCH  11  12
HETATM   12  C4  UNL     1       0.191   1.224   0.533  1.00  0.00     0.177 C 
HETATM   13  C3  UNL     1      -1.126   1.157   0.464  1.00  0.00     0.062 C 
HETATM   14  C2  UNL     1      -2.199   2.072   0.818  1.00  0.00    -0.016 C 
HETATM   15  N3  UNL     1      -2.104   0.242   0.046  1.00  0.00    -0.353 N 
HETATM   16  C1  UNL     1      -2.313   3.363   0.904  1.00  0.00     0.023 C 
HETATM   17  C11 UNL     1      -3.015   0.882   1.010  1.00  0.00     0.122 C 
HETATM   18  C12 UNL     1      -4.357   0.842   0.352  1.00  0.00     0.060 C 
HETATM   19  C13 UNL     1      -4.198  -0.064  -0.824  1.00  0.00     0.150 C 
HETATM   20  C14 UNL     1      -2.915  -0.796  -0.556  1.00  0.00     0.211 C 
BRANCH  19  21
HETATM   21  N4  UNL     1      -5.323  -0.946  -1.025  1.00  0.00    -0.245 N 
ATOM     22  H4  UNL     1      -5.189  -1.942  -1.197  1.00  0.00     0.197 HD
BRANCH  21  23
HETATM   23  N5  UNL     1      -6.453  -0.450  -0.981  1.00  0.00    -0.248 NA
BRANCH  23  24
HETATM   24  N6  UNL     1      -7.605  -0.006  -1.144  1.00  0.00    -0.261 N 
ATOM     25  H62 UNL     1      -7.557  -0.315  -2.115  1.00  0.00     0.193 HD
ATOM     26  H61 UNL     1      -8.538   0.404  -1.108  1.00  0.00     0.193 HD
ENDBRANCH  23  24
ENDBRANCH  21  23
ENDBRANCH  19  21
BRANCH  20  27
HETATM   27  C15 UNL     1      -3.081  -1.939   0.353  1.00  0.00     0.199 C 
HETATM   28  O3  UNL     1      -3.762  -2.923  -0.012  1.00  0.00    -0.646 OA
HETATM   29  O4  UNL     1      -2.496  -1.932   1.588  1.00  0.00    -0.646 OA
ENDBRANCH  20  27
ENDBRANCH  11  12
ENDBRANCH   8  11
ENDBRANCH   1   7
TORSDOF 7
