REMARK  8 active torsions:
REMARK  status: ('A' for Active; 'I' for Inactive)
REMARK    1  A    between atoms: O1_2  and  C2_3 
REMARK    2  A    between atoms: C2_3  and  C3_5 
REMARK    3  A    between atoms: C3_5  and  N1_6 
REMARK    4  A    between atoms: N1_6  and  S1_8 
REMARK    5  A    between atoms: S1_8  and  C4_11 
REMARK    6  A    between atoms: C7_14  and  O5_15 
REMARK    7  A    between atoms: C9_17  and  N2_18 
REMARK       I    between atoms: N2_18  and  C10_19 
REMARK    8  A    between atoms: C10_19  and  C11_21 
ROOT
HETATM    1  C4  UNL     1      -0.645   0.686  -0.873  1.00  0.00     0.083 A 
HETATM    2  C5  UNL     1      -0.685  -0.481  -1.566  1.00  0.00     0.028 A 
HETATM    3  C6  UNL     1       0.463  -1.192  -1.810  1.00  0.00     0.042 A 
HETATM    4  C7  UNL     1       1.654  -0.721  -1.353  1.00  0.00     0.108 A 
HETATM    5  C9  UNL     1       1.769   0.507  -0.612  1.00  0.00     0.145 A 
HETATM    6  C16 UNL     1       0.576   1.140  -0.419  1.00  0.00     0.073 A 
ENDROOT
BRANCH   1   7
HETATM    7  S1  UNL     1      -2.127   1.570  -0.601  1.00  0.00     0.260 S 
HETATM    8  O3  UNL     1      -2.766   1.707  -1.931  1.00  0.00    -0.200 OA
HETATM    9  O4  UNL     1      -1.698   2.981  -0.200  1.00  0.00    -0.200 OA
BRANCH   7  10
HETATM   10  N1  UNL     1      -2.952   0.890   0.633  1.00  0.00    -0.296 N 
ATOM     11  H1  UNL     1      -2.504   0.897   1.549  1.00  0.00     0.173 HD
BRANCH  10  12
HETATM   12  C3  UNL     1      -4.205   0.304   0.550  1.00  0.00     0.128 C 
HETATM   13  C17 UNL     1      -4.607  -0.151   1.942  1.00  0.00     0.042 C 
HETATM   14  C18 UNL     1      -4.778  -1.643   1.861  1.00  0.00     0.003 C 
HETATM   15  C19 UNL     1      -5.376  -1.807   0.497  1.00  0.00     0.003 C 
HETATM   16  C20 UNL     1      -4.505  -0.833  -0.312  1.00  0.00     0.042 C 
BRANCH  12  17
HETATM   17  C2  UNL     1      -5.160   1.406   0.201  1.00  0.00     0.287 C 
HETATM   18  O2  UNL     1      -4.795   2.596   0.058  1.00  0.00    -0.262 OA
BRANCH  17  19
HETATM   19  O1  UNL     1      -6.517   1.105   0.029  1.00  0.00    -0.325 OA
HETATM   20  C1  UNL     1      -7.392   2.191  -0.296  1.00  0.00     0.213 C 
ENDBRANCH  17  19
ENDBRANCH  12  17
ENDBRANCH  10  12
ENDBRANCH   7  10
ENDBRANCH   1   7
BRANCH   5  21
HETATM   21  N2  UNL     1       3.036   0.810  -0.252  1.00  0.00    -0.367 NA
HETATM   22  C10 UNL     1       4.298   1.114   0.109  1.00  0.00     0.296 C 
HETATM   23  O6  UNL     1       4.674   2.153   0.739  1.00  0.00    -0.257 OA
BRANCH  22  24
HETATM   24  C11 UNL     1       5.487   0.203  -0.209  1.00  0.00     0.093 C 
HETATM   25  C12 UNL     1       6.757   0.959   0.014  1.00  0.00     0.015 C 
HETATM   26  C13 UNL     1       7.309   0.582   1.347  1.00  0.00     0.001 C 
HETATM   27  C14 UNL     1       6.609  -0.667   1.781  1.00  0.00     0.001 C 
HETATM   28  C15 UNL     1       5.512  -0.901   0.800  1.00  0.00     0.015 C 
ENDBRANCH  22  24
ENDBRANCH   5  21
BRANCH   4  29
HETATM   29  O5  UNL     1       2.823  -1.416  -1.585  1.00  0.00    -0.353 OA
HETATM   30  C8  UNL     1       2.749  -2.629  -2.311  1.00  0.00     0.210 C 
ENDBRANCH   4  29
TORSDOF 8
