REMARK  11 active torsions:
REMARK  status: ('A' for Active; 'I' for Inactive)
REMARK    1  A    between atoms: O1_2  and  C2_3 
REMARK    2  A    between atoms: C2_3  and  C3_5 
REMARK    3  A    between atoms: C9_11  and  C10_12 
REMARK    4  A    between atoms: C10_12  and  C11_13 
REMARK    5  A    between atoms: C10_12  and  C12_16 
REMARK    6  A    between atoms: C11_13  and  O3_14 
REMARK    7  A    between atoms: C12_16  and  C13_17 
REMARK    8  A    between atoms: C13_17  and  O4_18 
REMARK    9  A    between atoms: O4_18  and  C14_19 
REMARK   10  A    between atoms: C14_19  and  C15_21 
REMARK   11  A    between atoms: C23_30  and  O7_31 
ROOT
HETATM    1  C3  UNL     1      -3.317   1.138   0.507  1.00  0.00     0.080 C 
HETATM    2  C4  UNL     1      -2.177   2.011   0.035  1.00  0.00     0.023 C 
HETATM    3  C5  UNL     1      -1.680   1.589  -1.285  1.00  0.00     0.009 C 
HETATM    4  C6  UNL     1      -1.836   0.162  -1.672  1.00  0.00     0.020 C 
HETATM    5  C7  UNL     1      -0.705  -0.194  -2.595  1.00  0.00     0.010 C 
HETATM    6  C8  UNL     1       0.290  -1.154  -1.992  1.00  0.00     0.033 C 
HETATM    7  C9  UNL     1       0.219  -1.008  -0.500  1.00  0.00     0.128 C 
HETATM    8  O6  UNL     1      -0.982  -1.516  -0.114  1.00  0.00    -0.374 OA
HETATM    9  C18 UNL     1      -2.110  -0.818  -0.576  1.00  0.00     0.066 C 
HETATM   10  C19 UNL     1      -3.012  -1.921  -1.112  1.00  0.00     0.047 C 
HETATM   11  C20 UNL     1      -2.749  -0.232   0.616  1.00  0.00     0.041 C 
HETATM   12  C21 UNL     1      -3.791  -0.974   1.335  1.00  0.00     0.011 C 
HETATM   13  C22 UNL     1      -4.175   0.022   2.441  1.00  0.00     0.033 C 
HETATM   14  C23 UNL     1      -3.554   1.365   2.025  1.00  0.00     0.137 C 
ENDROOT
BRANCH   7  15
HETATM   15  C10 UNL     1       1.333  -1.691   0.246  1.00  0.00     0.040 C 
BRANCH  15  16
HETATM   16  C11 UNL     1       1.431  -3.157   0.048  1.00  0.00     0.171 C 
BRANCH  16  17
HETATM   17  O3  UNL     1       1.652  -3.566  -1.256  1.00  0.00    -0.400 OA
ATOM     18  H3  UNL     1       1.715  -4.505  -1.383  1.00  0.00     0.209 HD
ENDBRANCH  16  17
ENDBRANCH  15  16
BRANCH  15  19
HETATM   19  C12 UNL     1       2.626  -0.939  -0.004  1.00  0.00     0.036 C 
BRANCH  19  20
HETATM   20  C13 UNL     1       3.810  -1.540   0.700  1.00  0.00     0.179 C 
BRANCH  20  21
HETATM   21  O4  UNL     1       5.018  -0.862   0.496  1.00  0.00    -0.321 OA
BRANCH  21  22
HETATM   22  C14 UNL     1       5.293   0.433   0.849  1.00  0.00     0.262 C 
HETATM   23  O5  UNL     1       4.425   1.123   1.413  1.00  0.00    -0.265 OA
BRANCH  22  24
HETATM   24  C15 UNL     1       6.660   0.965   0.531  1.00  0.00     0.077 C 
HETATM   25  C16 UNL     1       6.755   2.396   0.999  1.00  0.00     0.020 C 
HETATM   26  C17 UNL     1       7.700   0.077   1.129  1.00  0.00     0.020 C 
ENDBRANCH  22  24
ENDBRANCH  21  22
ENDBRANCH  20  21
ENDBRANCH  19  20
ENDBRANCH  15  19
ENDBRANCH   7  15
BRANCH   1  27
HETATM   27  C2  UNL     1      -4.545   1.345  -0.213  1.00  0.00     0.270 C 
HETATM   28  O2  UNL     1      -5.147   0.454  -0.823  1.00  0.00    -0.264 OA
BRANCH  27  29
HETATM   29  O1  UNL     1      -5.102   2.617  -0.234  1.00  0.00    -0.326 OA
HETATM   30  C1  UNL     1      -6.308   2.900  -0.919  1.00  0.00     0.213 C 
ENDBRANCH  27  29
ENDBRANCH   1  27
BRANCH  14  31
HETATM   31  O7  UNL     1      -2.315   1.511   2.616  1.00  0.00    -0.394 OA
ATOM     32  H7  UNL     1      -2.460   1.650   3.545  1.00  0.00     0.210 HD
ENDBRANCH  14  31
TORSDOF 11
