REMARK  7 active torsions:
REMARK  status: ('A' for Active; 'I' for Inactive)
REMARK    1  A    between atoms: N1_8  and  C6_9 
REMARK    2  A    between atoms: C6_9  and  C7_10 
REMARK       I    between atoms: C7_10  and  N2_12 
REMARK    3  A    between atoms: N2_12  and  C8_14 
REMARK    4  A    between atoms: C11_18  and  C12_19 
REMARK       I    between atoms: C12_19  and  N3_21 
REMARK    5  A    between atoms: N3_21  and  C13_23 
REMARK    6  A    between atoms: C13_23  and  C14_24 
REMARK    7  A    between atoms: C14_24  and  C15_25 
ROOT
HETATM    1  C8  UNL     1      -0.445  -1.726  -0.871  1.00  0.00     0.165 A 
HETATM    2  O4  UNL     1      -0.891  -2.867  -1.379  1.00  0.00    -0.305 OA
HETATM    3  C9  UNL     1       0.065  -3.656  -1.734  1.00  0.00     0.145 A 
HETATM    4  C10 UNL     1       1.238  -3.029  -1.457  1.00  0.00     0.046 A 
HETATM    5  C11 UNL     1       0.911  -1.787  -0.901  1.00  0.00     0.085 A 
ENDROOT
BRANCH   1   6
HETATM    6  N2  UNL     1      -1.250  -0.649  -0.389  1.00  0.00    -0.305 N 
HETATM    7  C7  UNL     1      -2.655  -0.807  -0.413  1.00  0.00     0.241 C 
HETATM    8  O3  UNL     1      -3.148  -1.869  -0.842  1.00  0.00    -0.271 OA
ATOM      9  H2  UNL     1      -0.824   0.209  -0.038  1.00  0.00     0.171 HD
BRANCH   7  10
HETATM   10  C6  UNL     1      -3.509   0.296   0.071  1.00  0.00     0.220 C 
BRANCH  10  11
HETATM   11  N1  UNL     1      -4.881  -0.052  -0.009  1.00  0.00    -0.400 N 
HETATM   12  C5  UNL     1      -5.360  -1.045   0.880  1.00  0.00     0.151 C 
HETATM   13  C4  UNL     1      -6.862  -0.881   0.977  1.00  0.00     0.164 C 
HETATM   14  O2  UNL     1      -7.299  -0.867   2.307  1.00  0.00    -0.309 OA
HETATM   15  C22 UNL     1      -7.145   0.488   0.401  1.00  0.00     0.032 C 
HETATM   16  C3  UNL     1      -7.626   0.402   2.689  1.00  0.00     0.289 C 
HETATM   17  C2  UNL     1      -7.714   1.265   1.505  1.00  0.00     0.020 C 
HETATM   18  O1  UNL     1      -7.827   0.804   3.852  1.00  0.00    -0.260 OA
HETATM   19  C1  UNL     1      -8.201   2.485   1.436  1.00  0.00     0.026 C 
HETATM   20  C21 UNL     1      -5.815   1.017  -0.089  1.00  0.00     0.134 C 
HETATM   21  C23 UNL     1      -8.092   0.414  -0.776  1.00  0.00     0.025 C 
ENDBRANCH  10  11
ENDBRANCH   7  10
ENDBRANCH   1   6
BRANCH   5  22
HETATM   22  C12 UNL     1       1.869  -0.791  -0.447  1.00  0.00     0.256 C 
HETATM   23  O5  UNL     1       1.554   0.312   0.056  1.00  0.00    -0.268 OA
HETATM   24  N3  UNL     1       3.285  -1.039  -0.558  1.00  0.00    -0.356 N 
ATOM     25  H3  UNL     1       3.613  -1.916  -0.963  1.00  0.00     0.162 HD
BRANCH  24  26
HETATM   26  C13 UNL     1       4.245  -0.059  -0.101  1.00  0.00     0.127 C 
BRANCH  26  27
HETATM   27  C14 UNL     1       5.611  -0.625  -0.354  1.00  0.00     0.053 C 
BRANCH  27  28
HETATM   28  C15 UNL     1       6.730   0.248   0.060  1.00  0.00    -0.082 C 
HETATM   29  C16 UNL     1       6.612   1.426   0.605  1.00  0.00    -0.024 C 
HETATM   30  C17 UNL     1       7.742   2.299   1.020  1.00  0.00     0.027 C 
HETATM   31  C18 UNL     1       9.080   1.845   0.544  1.00  0.00     0.004 C 
HETATM   32  C19 UNL     1       8.982   0.866  -0.616  1.00  0.00     0.005 C 
HETATM   33  C20 UNL     1       8.105  -0.300  -0.179  1.00  0.00     0.034 C 
ENDBRANCH  27  28
ENDBRANCH  26  27
ENDBRANCH  24  26
ENDBRANCH   5  22
TORSDOF 7
