REMARK  9 active torsions:
REMARK  status: ('A' for Active; 'I' for Inactive)
REMARK    1  A    between atoms: C2_2  and  O2_4 
REMARK    2  A    between atoms: O2_4  and  C3_5 
REMARK    3  A    between atoms: C17_20  and  C18_21 
REMARK    4  A    between atoms: C18_21  and  C20_23 
REMARK    5  A    between atoms: C20_23  and  C21_24 
REMARK    6  A    between atoms: C21_24  and  C22_25 
REMARK    7  A    between atoms: C22_25  and  C23_27 
REMARK    8  A    between atoms: C25_30  and  S1_31 
REMARK    9  A    between atoms: S1_31  and  C26_32 
ROOT
HETATM    1  C3  UNL     1       4.511   1.277   0.212  1.00  0.00     0.137 C 
HETATM    2  C4  UNL     1       4.013   1.390  -1.210  1.00  0.00     0.068 C 
HETATM    3  C5  UNL     1       2.991   0.310  -1.291  1.00  0.00    -0.062 C 
HETATM    4  C6  UNL     1       1.942   0.130  -2.060  1.00  0.00    -0.022 C 
HETATM    5  C7  UNL     1       1.067  -1.044  -1.937  1.00  0.00     0.033 C 
HETATM    6  C8  UNL     1       1.061  -1.723  -0.617  1.00  0.00     0.000 C 
HETATM    7  C9  UNL     1       1.882  -1.043   0.427  1.00  0.00     0.014 C 
HETATM    8  C10 UNL     1       1.188   0.172   0.886  1.00  0.00     0.007 C 
HETATM    9  C11 UNL     1      -0.295   0.231   0.611  1.00  0.00     0.011 C 
HETATM   10  C12 UNL     1      -1.012  -1.056   0.702  1.00  0.00    -0.025 C 
HETATM   11  C13 UNL     1      -1.007  -1.540   2.194  1.00  0.00     0.016 C 
HETATM   12  C14 UNL     1      -0.311  -2.095  -0.142  1.00  0.00     0.006 C 
HETATM   13  C15 UNL     1      -1.242  -2.478  -1.241  1.00  0.00     0.084 C 
HETATM   14  C16 UNL     1      -2.380  -1.526  -1.173  1.00  0.00     0.136 C 
HETATM   15  O3  UNL     1      -3.097  -1.151  -2.029  1.00  0.00    -0.297 OA
HETATM   16  C17 UNL     1      -2.403  -1.142   0.284  1.00  0.00     0.092 C 
HETATM   17  C25 UNL     1       3.239  -0.741  -0.268  1.00  0.00     0.044 C 
HETATM   18  C27 UNL     1       4.232  -0.134   0.651  1.00  0.00     0.058 C 
ENDROOT
BRANCH  16  19
HETATM   19  C18 UNL     1      -3.426  -0.110   0.564  1.00  0.00    -0.075 C 
HETATM   20  C19 UNL     1      -3.321   1.233   0.026  1.00  0.00     0.044 C 
BRANCH  19  21
HETATM   21  C20 UNL     1      -4.777  -0.749   0.529  1.00  0.00    -0.016 C 
BRANCH  21  22
HETATM   22  C21 UNL     1      -6.008   0.006   0.714  1.00  0.00     0.107 C 
BRANCH  22  23
HETATM   23  C22 UNL     1      -6.420   0.858  -0.390  1.00  0.00     0.148 C 
HETATM   24  O4  UNL     1      -5.927   0.832  -1.481  1.00  0.00    -0.296 OA
BRANCH  23  25
HETATM   25  C23 UNL     1      -7.545   1.838  -0.153  1.00  0.00     0.148 C 
HETATM   26  C24 UNL     1      -7.141   2.775   0.938  1.00  0.00     0.034 C 
HETATM   27 CL1  UNL     1      -9.015   0.974   0.353  1.00  0.00    -0.117 Cl
ENDBRANCH  23  25
ENDBRANCH  22  23
ENDBRANCH  21  22
ENDBRANCH  19  21
ENDBRANCH  16  19
BRANCH  17  28
HETATM   28  S1  UNL     1       3.739  -2.328  -0.930  1.00  0.00    -0.088 SA
BRANCH  28  29
HETATM   29  C26 UNL     1       5.289  -2.491  -1.657  1.00  0.00     0.150 C 
HETATM   30  N1  UNL     1       5.641  -3.738  -2.265  1.00  0.00    -0.082 NA
HETATM   31  S2  UNL     1       6.408  -1.331  -1.690  1.00  0.00    -0.056 SA
ENDBRANCH  28  29
ENDBRANCH  17  28
BRANCH   1  32
HETATM   32  O2  UNL     1       5.835   1.683   0.313  1.00  0.00    -0.316 OA
BRANCH  32  33
HETATM   33  C2  UNL     1       6.276   2.778   1.036  1.00  0.00     0.255 C 
HETATM   34  C1  UNL     1       7.712   3.120   1.076  1.00  0.00     0.126 C 
HETATM   35  O1  UNL     1       5.424   3.466   1.651  1.00  0.00    -0.266 OA
ENDBRANCH  32  33
ENDBRANCH   1  32
TORSDOF 9
