REMARK  4 active torsions:
REMARK  status: ('A' for Active; 'I' for Inactive)
REMARK    1  A    between atoms: C2_2  and  O1_3 
REMARK    2  A    between atoms: C2_2  and  C3_5 
REMARK    3  A    between atoms: C3_5  and  C5_7 
REMARK    4  A    between atoms: C11_13  and  O2_14 
ROOT
HETATM    1  C5  UNL     1       1.125   0.733   0.089  1.00  0.00    -0.031 C 
HETATM    2  C6  UNL     1       1.721   1.637  -0.967  1.00  0.00     0.016 C 
HETATM    3  C7  UNL     1       0.478   1.766   1.050  1.00  0.00     0.011 C 
HETATM    4  C8  UNL     1      -0.711   2.222   0.274  1.00  0.00     0.007 C 
HETATM    5  C9  UNL     1      -1.079   1.049  -0.593  1.00  0.00     0.002 C 
HETATM    6  C10 UNL     1      -2.491   0.693  -0.402  1.00  0.00     0.027 C 
HETATM    7  C11 UNL     1      -3.128   0.921   0.939  1.00  0.00     0.124 C 
HETATM    8  C12 UNL     1      -3.782  -0.454   0.862  1.00  0.00     0.041 C 
HETATM    9  C13 UNL     1      -2.884  -0.718  -0.352  1.00  0.00    -0.035 C 
HETATM   10  C14 UNL     1      -3.809  -1.232  -1.465  1.00  0.00     0.016 C 
HETATM   11  C15 UNL     1      -1.827  -1.698  -0.033  1.00  0.00     0.010 C 
HETATM   12  C16 UNL     1      -0.570  -1.050   0.571  1.00  0.00     0.011 C 
HETATM   13  C17 UNL     1      -0.029  -0.022  -0.375  1.00  0.00    -0.032 C 
HETATM   14  C18 UNL     1       0.099  -0.757  -1.692  1.00  0.00     0.016 C 
ENDROOT
BRANCH   1  15
HETATM   15  C3  UNL     1       2.231   0.146   0.830  1.00  0.00     0.020 C 
HETATM   16  C4  UNL     1       1.958  -0.548   2.143  1.00  0.00     0.013 C 
BRANCH  15  17
HETATM   17  C2  UNL     1       3.246  -0.689   0.096  1.00  0.00     0.139 C 
HETATM   18  C1  UNL     1       4.536  -0.798   0.964  1.00  0.00     0.041 C 
BRANCH  17  19
HETATM   19  O1  UNL     1       3.718  -0.134  -1.086  1.00  0.00    -0.303 OA
HETATM   20  S1  UNL     1       3.940  -1.252  -2.342  1.00  0.00     0.093 SA
ENDBRANCH  17  19
ENDBRANCH  15  17
ENDBRANCH   1  15
BRANCH   7  21
HETATM   21  O2  UNL     1      -4.101   1.920   0.991  1.00  0.00    -0.395 OA
ATOM     22  H2  UNL     1      -4.504   2.064   1.839  1.00  0.00     0.210 HD
ENDBRANCH   7  21
TORSDOF 4
