REMARK  4 active torsions:
REMARK  status: ('A' for Active; 'I' for Inactive)
REMARK    1  A    between atoms: C2_2  and  C3_3 
REMARK    2  A    between atoms: C10_10  and  C11_11 
REMARK    3  A    between atoms: C11_11  and  O1_14 
REMARK    4  A    between atoms: C20_23  and  O3_24 
ROOT
HETATM    1  C3  UNL     1       2.808  -0.442   0.057  1.00  0.00    -0.001 C 
HETATM    2  C4  UNL     1       2.751  -0.224   1.541  1.00  0.00     0.022 C 
HETATM    3  C5  UNL     1       2.250   0.730  -0.734  1.00  0.00     0.017 C 
HETATM    4  C6  UNL     1       1.215   1.489   0.016  1.00  0.00     0.015 C 
HETATM    5  C7  UNL     1      -0.190   1.310  -0.426  1.00  0.00    -0.010 C 
HETATM    6  C8  UNL     1      -0.211   1.448  -1.934  1.00  0.00     0.021 C 
HETATM    7  C9  UNL     1      -0.767  -0.021  -0.075  1.00  0.00     0.002 C 
HETATM    8  C10 UNL     1      -2.065  -0.278  -0.103  1.00  0.00    -0.036 C 
HETATM    9  C14 UNL     1      -2.836   0.982  -0.563  1.00  0.00     0.038 C 
HETATM   10  C15 UNL     1      -2.418   2.095   0.317  1.00  0.00     0.010 C 
HETATM   11  C16 UNL     1      -0.991   2.465   0.121  1.00  0.00    -0.005 C 
HETATM   12  C17 UNL     1      -0.452   2.940   1.461  1.00  0.00     0.011 C 
HETATM   13  C18 UNL     1      -0.153  -1.255   0.389  1.00  0.00     0.159 C 
HETATM   14  O2  UNL     1      -0.957  -1.645   1.307  1.00  0.00    -0.293 OA
HETATM   15  C19 UNL     1       0.964  -2.175   0.231  1.00  0.00     0.116 C 
HETATM   16  C20 UNL     1       2.194  -1.698  -0.422  1.00  0.00     0.137 C 
ENDROOT
BRANCH   8  17
HETATM   17  C11 UNL     1      -2.616  -1.563   0.226  1.00  0.00     0.075 C 
HETATM   18  C12 UNL     1      -2.564  -2.760  -0.767  1.00  0.00     0.050 C 
HETATM   19  C13 UNL     1      -3.609  -1.803   1.347  1.00  0.00     0.050 C 
BRANCH  17  20
HETATM   20  O1  UNL     1      -3.728  -1.135  -0.695  1.00  0.00    -0.386 OA
ATOM     21  H1  UNL     1      -4.092  -1.985  -0.477  1.00  0.00     0.211 HD
ENDBRANCH  17  20
ENDBRANCH   8  17
BRANCH  16  22
HETATM   22  O3  UNL     1       1.994  -1.640  -1.792  1.00  0.00    -0.394 OA
ATOM     23  H3  UNL     1       1.599  -2.447  -2.100  1.00  0.00     0.210 HD
ENDBRANCH  16  22
BRANCH   1  24
HETATM   24  C2  UNL     1       4.283  -0.494  -0.286  1.00  0.00    -0.025 C 
HETATM   25  C1  UNL     1       5.058   0.541  -0.018  1.00  0.00     0.008 C 
ENDBRANCH   1  24
TORSDOF 4
