REMARK  9 active torsions:
REMARK  status: ('A' for Active; 'I' for Inactive)
REMARK    1  A    between atoms: C2_2  and  O1_3 
REMARK    2  A    between atoms: C2_2  and  C3_5 
REMARK    3  A    between atoms: C3_5  and  C5_8 
REMARK    4  A    between atoms: C5_8  and  C7_10 
REMARK    5  A    between atoms: C7_10  and  C9_12 
REMARK    6  A    between atoms: C9_12  and  C10_13 
REMARK    7  A    between atoms: C10_13  and  C11_14 
REMARK    8  A    between atoms: C13_19  and  C14_20 
REMARK    9  A    between atoms: C14_20  and  C15_21 
REMARK       I    between atoms: C15_21  and  N3_23 
ROOT
HETATM    1  C3  UNL     1       4.695  -0.569   0.875  1.00  0.00     0.125 C 
HETATM    2  C4  UNL     1       4.617  -2.025   1.022  1.00  0.00     0.067 C 
HETATM    3  N1  UNL     1       4.578  -3.199   1.164  1.00  0.00    -0.197 NA
ENDROOT
BRANCH   1   4
HETATM    4  C2  UNL     1       6.166  -0.264   1.101  1.00  0.00     0.132 C 
HETATM    5  C1  UNL     1       7.045  -0.968   0.088  1.00  0.00     0.040 C 
BRANCH   4   6
HETATM    6  O1  UNL     1       6.448   1.063   1.242  1.00  0.00    -0.395 OA
ATOM      7  H1  UNL     1       5.897   1.505   1.877  1.00  0.00     0.210 HD
ENDBRANCH   4   6
ENDBRANCH   1   4
BRANCH   1   8
HETATM    8  C5  UNL     1       4.215  -0.167  -0.464  1.00  0.00     0.005 C 
HETATM    9  C6  UNL     1       4.406   1.333  -0.722  1.00  0.00     0.011 C 
BRANCH   8  10
HETATM   10  C7  UNL     1       2.771  -0.417  -0.753  1.00  0.00    -0.013 C 
HETATM   11  C8  UNL     1       2.289  -1.816  -0.710  1.00  0.00     0.010 C 
BRANCH  10  12
HETATM   12  C9  UNL     1       1.854   0.446   0.089  1.00  0.00     0.007 C 
BRANCH  12  13
HETATM   13  C10 UNL     1       0.424   0.115  -0.275  1.00  0.00     0.026 C 
BRANCH  13  14
HETATM   14  C11 UNL     1      -0.551   0.970   0.538  1.00  0.00     0.098 C 
HETATM   15  N2  UNL     1      -0.382   2.389   0.326  1.00  0.00    -0.355 N 
HETATM   16  C12 UNL     1      -1.798   2.515   0.382  1.00  0.00     0.224 C 
ATOM     17  H2  UNL     1       0.406   3.022   0.194  1.00  0.00     0.162 HD
HETATM   18  O2  UNL     1      -2.583   3.424   0.750  1.00  0.00    -0.273 OA
HETATM   19  C13 UNL     1      -1.887   1.142  -0.169  1.00  0.00     0.109 C 
BRANCH  19  20
HETATM   20  C14 UNL     1      -3.023   0.384   0.435  1.00  0.00     0.119 C 
BRANCH  20  21
HETATM   21  C15 UNL     1      -4.239   0.654  -0.361  1.00  0.00     0.220 C 
HETATM   22  O3  UNL     1      -4.239   1.413  -1.372  1.00  0.00    -0.273 OA
HETATM   23  N3  UNL     1      -5.450   0.039   0.025  1.00  0.00    -0.348 N 
HETATM   24  C16 UNL     1      -5.534  -0.842   1.171  1.00  0.00     0.152 C 
HETATM   25  C19 UNL     1      -6.695   0.259  -0.713  1.00  0.00     0.152 C 
HETATM   26  C17 UNL     1      -6.769  -1.698   0.984  1.00  0.00     0.187 C 
HETATM   27  O4  UNL     1      -7.926  -0.933   0.990  1.00  0.00    -0.388 OA
HETATM   28  C18 UNL     1      -7.837   0.228   0.265  1.00  0.00     0.187 C 
ENDBRANCH  20  21
ENDBRANCH  19  20
ENDBRANCH  13  14
ENDBRANCH  12  13
ENDBRANCH  10  12
ENDBRANCH   8  10
ENDBRANCH   1   8
TORSDOF 9
