REMARK  7 active torsions:
REMARK  status: ('A' for Active; 'I' for Inactive)
REMARK    1  A    between atoms: S1_2  and  C2_3 
REMARK    2  A    between atoms: C2_3  and  C3_4 
REMARK    3  A    between atoms: C3_4  and  C4_5 
REMARK    4  A    between atoms: C4_5  and  N1_6 
REMARK    5  A    between atoms: C4_5  and  C11_17 
REMARK       I    between atoms: N1_6  and  C5_8 
REMARK    6  A    between atoms: C5_8  and  C6_10 
REMARK       I    between atoms: C11_17  and  N3_19 
REMARK    7  A    between atoms: N3_19  and  C12_21 
ROOT
HETATM    1  C4  UNL     1       0.185   1.343   0.042  1.00  0.00     0.177 C 
ENDROOT
BRANCH   1   2
HETATM    2  C3  UNL     1      -0.266   2.339   1.047  1.00  0.00     0.045 C 
BRANCH   2   3
HETATM    3  C2  UNL     1       0.759   3.457   1.076  1.00  0.00     0.076 C 
BRANCH   3   4
HETATM    4  S1  UNL     1       0.842   4.190  -0.567  1.00  0.00    -0.173 SA
HETATM    5  C1  UNL     1      -0.719   4.990  -0.993  1.00  0.00     0.089 C 
ENDBRANCH   3   4
ENDBRANCH   2   3
ENDBRANCH   1   2
BRANCH   1   6
HETATM    6  N1  UNL     1       1.473   0.787   0.368  1.00  0.00    -0.346 N 
HETATM    7  C5  UNL     1       2.605   0.720  -0.467  1.00  0.00     0.249 C 
HETATM    8  O1  UNL     1       2.594   1.161  -1.632  1.00  0.00    -0.271 OA
ATOM      9  H1  UNL     1       1.577   0.400   1.306  1.00  0.00     0.163 HD
BRANCH   7  10
HETATM   10  C6  UNL     1       3.855   0.111   0.048  1.00  0.00     0.241 C 
HETATM   11  C7  UNL     1       3.505  -1.330   0.442  1.00  0.00     0.313 C 
HETATM   12  N2  UNL     1       4.685  -2.142   0.469  1.00  0.00     0.089 N 
HETATM   13  C8  UNL     1       4.825  -2.734  -0.846  1.00  0.00     0.310 C 
HETATM   14  C9  UNL     1       5.804  -1.279   0.809  1.00  0.00     0.298 C 
HETATM   15  C10 UNL     1       6.028  -0.312  -0.333  1.00  0.00     0.199 C 
HETATM   16  O2  UNL     1       4.859   0.148  -0.886  1.00  0.00    -0.373 OA
ENDBRANCH   7  10
ENDBRANCH   1   6
BRANCH   1  17
HETATM   17  C11 UNL     1      -0.770   0.211  -0.166  1.00  0.00     0.240 C 
HETATM   18  O3  UNL     1      -0.244  -0.935  -0.348  1.00  0.00    -0.271 OA
HETATM   19  N3  UNL     1      -2.179   0.371  -0.160  1.00  0.00    -0.354 N 
ATOM     20  H3  UNL     1      -2.602   1.287  -0.011  1.00  0.00     0.162 HD
BRANCH  19  21
HETATM   21  C12 UNL     1      -3.000  -0.803  -0.372  1.00  0.00     0.088 C 
HETATM   22  C13 UNL     1      -4.058  -0.445  -1.349  1.00  0.00     0.025 C 
HETATM   23  C14 UNL     1      -5.114  -1.497  -1.558  1.00  0.00     0.002 C 
HETATM   24  C15 UNL     1      -4.693  -2.726  -0.823  1.00  0.00     0.001 C 
HETATM   25  C16 UNL     1      -4.422  -2.504   0.635  1.00  0.00     0.006 C 
HETATM   26  C17 UNL     1      -3.508  -1.356   0.940  1.00  0.00     0.004 C 
HETATM   27  C18 UNL     1      -4.099  -0.285   1.792  1.00  0.00     0.012 C 
ENDBRANCH  19  21
ENDBRANCH   1  17
TORSDOF 7
