REMARK  9 active torsions:
REMARK  status: ('A' for Active; 'I' for Inactive)
REMARK    1  A    between atoms: O1_2  and  C2_3 
REMARK    2  A    between atoms: C2_3  and  C3_4 
REMARK    3  A    between atoms: C2_3  and  N3_24 
REMARK       I    between atoms: C3_4  and  N1_6 
REMARK    4  A    between atoms: N1_6  and  C4_8 
REMARK    5  A    between atoms: C4_8  and  C5_9 
REMARK    6  A    between atoms: C4_8  and  C13_21 
REMARK    7  A    between atoms: C5_9  and  O3_10 
REMARK    8  A    between atoms: C5_9  and  N2_12 
REMARK    9  A    between atoms: N2_12  and  C6_14 
ROOT
HETATM    1  C4  UNL     1      -0.171  -0.447  -0.901  1.00  0.00     0.162 C 
ENDROOT
BRANCH   1   2
HETATM    2  N1  UNL     1       1.022   0.219  -0.361  1.00  0.00    -0.345 N 
HETATM    3  C3  UNL     1       2.323  -0.285  -0.425  1.00  0.00     0.267 C 
HETATM    4  O2  UNL     1       2.533  -1.386  -0.986  1.00  0.00    -0.269 OA
ATOM      5  H1  UNL     1       0.890   1.121   0.097  1.00  0.00     0.163 HD
BRANCH   3   6
HETATM    6  C2  UNL     1       3.501   0.433   0.150  1.00  0.00     0.315 C 
BRANCH   6   7
HETATM    7  O1  UNL     1       3.094   1.611   0.785  1.00  0.00    -0.362 OA
HETATM    8  C1  UNL     1       3.221   1.574   2.147  1.00  0.00     0.204 C 
ENDBRANCH   6   7
BRANCH   6   9
HETATM    9  N3  UNL     1       4.517   0.707  -0.769  1.00  0.00    -0.356 N 
HETATM   10  C16 UNL     1       5.617   1.436  -0.295  1.00  0.00     0.087 C 
HETATM   11  C17 UNL     1       6.436   2.183  -1.316  1.00  0.00     0.212 C 
HETATM   12  O4  UNL     1       6.031   2.074  -2.610  1.00  0.00    -0.385 OA
HETATM   13  C18 UNL     1       4.675   1.978  -2.760  1.00  0.00     0.188 C 
HETATM   14  C19 UNL     1       4.277   0.624  -2.151  1.00  0.00     0.151 C 
ENDBRANCH   6   9
ENDBRANCH   3   6
ENDBRANCH   1   2
BRANCH   1  15
HETATM   15  C5  UNL     1      -1.150  -0.661   0.177  1.00  0.00     0.135 C 
BRANCH  15  16
HETATM   16  O3  UNL     1      -0.824  -0.100   1.306  1.00  0.00    -0.348 OA
ATOM     17  H3  UNL     1      -1.456  -0.238   2.002  1.00  0.00     0.219 HD
ENDBRANCH  15  16
BRANCH  15  18
HETATM   18  N2  UNL     1      -2.354  -1.375   0.142  1.00  0.00    -0.368 N 
ATOM     19  H2  UNL     1      -2.633  -1.831  -0.726  1.00  0.00     0.161 HD
BRANCH  18  20
HETATM   20  C6  UNL     1      -3.214  -1.485   1.301  1.00  0.00     0.087 C 
HETATM   21  C7  UNL     1      -3.342  -2.913   1.774  1.00  0.00     0.025 C 
HETATM   22  C8  UNL     1      -3.828  -2.835   3.220  1.00  0.00     0.002 C 
HETATM   23  C9  UNL     1      -5.192  -2.182   3.238  1.00  0.00     0.001 C 
HETATM   24  C10 UNL     1      -5.224  -0.872   2.528  1.00  0.00     0.006 C 
HETATM   25  C11 UNL     1      -4.570  -0.901   1.148  1.00  0.00     0.004 C 
HETATM   26  C12 UNL     1      -4.475   0.535   0.680  1.00  0.00     0.012 C 
ENDBRANCH  18  20
ENDBRANCH  15  18
ENDBRANCH   1  15
BRANCH   1  27
HETATM   27  C13 UNL     1      -0.796   0.481  -1.940  1.00  0.00     0.008 C 
HETATM   28  C14 UNL     1      -2.004  -0.143  -2.577  1.00  0.00     0.012 C 
HETATM   29  C15 UNL     1       0.178   0.841  -3.045  1.00  0.00     0.012 C 
ENDBRANCH   1  27
TORSDOF 9
