REMARK  6 active torsions:
REMARK  status: ('A' for Active; 'I' for Inactive)
REMARK    1  A    between atoms: C2_2  and  C3_3 
REMARK    2  A    between atoms: N2_8  and  C7_9 
REMARK    3  A    between atoms: C7_9  and  C8_10 
REMARK       I    between atoms: C8_10  and  N3_12 
REMARK    4  A    between atoms: N3_12  and  C9_14 
REMARK    5  A    between atoms: C14_19  and  C15_20 
REMARK    6  A    between atoms: C17_24  and  C18_25 
ROOT
HETATM    1  C18 UNL     1      -3.480  -0.400   1.726  1.00  0.00     0.178 C 
HETATM    2  C19 UNL     1      -2.515  -0.331   2.868  1.00  0.00     0.065 C 
HETATM    3  N4  UNL     1      -1.774  -0.299   3.748  1.00  0.00    -0.197 NA
ENDROOT
BRANCH   1   4
HETATM    4  C17 UNL     1      -2.892   0.199   0.507  1.00  0.00     0.030 C 
HETATM    5  N1  UNL     1      -3.595   0.259  -0.685  1.00  0.00    -0.357 N 
HETATM    6  C3  UNL     1      -4.469  -0.591  -1.238  1.00  0.00    -0.015 C 
HETATM    7  C5  UNL     1      -3.167   1.406  -1.434  1.00  0.00     0.158 C 
HETATM    8  C4  UNL     1      -4.566  -2.024  -0.799  1.00  0.00     0.063 C 
HETATM    9  C6  UNL     1      -1.714   1.666  -1.196  1.00  0.00     0.293 C 
HETATM   10  N2  UNL     1      -0.886   0.577  -0.804  1.00  0.00     0.104 N 
HETATM   11  C16 UNL     1      -1.416  -0.200   0.289  1.00  0.00     0.326 C 
BRANCH   6  12
HETATM   12  C2  UNL     1      -5.867  -0.123  -1.437  1.00  0.00     0.048 C 
HETATM   13  C1  UNL     1      -6.113   1.274  -1.879  1.00  0.00     0.011 C 
ENDBRANCH   6  12
BRANCH  10  14
HETATM   14  C7  UNL     1       0.427   1.094  -0.549  1.00  0.00     0.375 C 
BRANCH  14  15
HETATM   15  C8  UNL     1       1.418   0.119  -0.132  1.00  0.00     0.246 C 
HETATM   16  O1  UNL     1       1.244  -1.106   0.016  1.00  0.00    -0.272 OA
HETATM   17  N3  UNL     1       2.745   0.599   0.143  1.00  0.00    -0.354 N 
ATOM     18  H3  UNL     1       2.932   1.596   0.033  1.00  0.00     0.162 HD
BRANCH  17  19
HETATM   19  C9  UNL     1       3.813  -0.247   0.561  1.00  0.00     0.098 C 
HETATM   20  C10 UNL     1       4.148   0.056   2.017  1.00  0.00     0.026 C 
HETATM   21  C11 UNL     1       5.093  -0.989   2.555  1.00  0.00     0.002 C 
HETATM   22  C12 UNL     1       5.523  -1.972   1.492  1.00  0.00     0.001 C 
HETATM   23  C13 UNL     1       6.016  -1.278   0.239  1.00  0.00     0.017 C 
HETATM   24  C14 UNL     1       5.024  -0.270  -0.302  1.00  0.00     0.109 C 
BRANCH  24  25
HETATM   25  C15 UNL     1       5.688   1.007  -0.530  1.00  0.00     0.179 C 
HETATM   26  O2  UNL     1       5.325   2.116  -0.093  1.00  0.00    -0.648 OA
HETATM   27  O3  UNL     1       6.848   1.009  -1.313  1.00  0.00    -0.648 OA
ENDBRANCH  24  25
ENDBRANCH  17  19
ENDBRANCH  14  15
ENDBRANCH  10  14
ENDBRANCH   1   4
TORSDOF 6
