REMARK  7 active torsions:
REMARK  status: ('A' for Active; 'I' for Inactive)
REMARK    1  A    between atoms: C2_2  and  N1_3 
REMARK    2  A    between atoms: C2_2  and  C11_15 
REMARK    3  A    between atoms: N1_3  and  C3_5 
REMARK    4  A    between atoms: C3_5  and  C4_6 
REMARK    5  A    between atoms: C4_6  and  O1_7 
REMARK    6  A    between atoms: C4_6  and  C5_9 
REMARK       I    between atoms: C11_15  and  N2_17 
REMARK    7  A    between atoms: N2_17  and  C12_19 
ROOT
HETATM    1  N1  UNL     1       0.001  -1.403  -1.418  1.00  0.00    -0.407 N 
ATOM      2  H1  UNL     1       0.397  -1.535  -2.349  1.00  0.00     0.154 HD
ENDROOT
BRANCH   1   3
HETATM    3  C2  UNL     1      -1.392  -1.527  -1.172  1.00  0.00     0.165 C 
HETATM    4  C1  UNL     1      -1.745  -2.644  -0.205  1.00  0.00     0.042 C 
BRANCH   3   5
HETATM    5  C11 UNL     1      -2.100  -0.300  -0.801  1.00  0.00     0.240 C 
HETATM    6  O2  UNL     1      -1.524   0.832  -0.710  1.00  0.00    -0.271 OA
HETATM    7  N2  UNL     1      -3.488  -0.338  -0.525  1.00  0.00    -0.351 N 
ATOM      8  H2  UNL     1      -3.976  -1.231  -0.595  1.00  0.00     0.163 HD
BRANCH   7   9
HETATM    9  C12 UNL     1      -4.244   0.836  -0.148  1.00  0.00     0.022 C 
HETATM   10  C13 UNL     1      -4.203   1.945  -1.145  1.00  0.00     0.037 C 
HETATM   11  C14 UNL     1      -3.790   1.306   1.201  1.00  0.00     0.037 C 
HETATM   12  C15 UNL     1      -5.720   0.421  -0.020  1.00  0.00     0.037 C 
ENDBRANCH   7   9
ENDBRANCH   3   5
ENDBRANCH   1   3
BRANCH   1  13
HETATM   13  C3  UNL     1       0.816  -1.084  -0.293  1.00  0.00     0.146 C 
BRANCH  13  14
HETATM   14  C4  UNL     1       2.289  -0.980  -0.667  1.00  0.00     0.139 C 
BRANCH  14  15
HETATM   15  O1  UNL     1       2.754  -2.184  -1.183  1.00  0.00    -0.394 OA
ATOM     16  H1  UNL     1       3.673  -2.119  -1.416  1.00  0.00     0.210 HD
ENDBRANCH  14  15
BRANCH  14  17
HETATM   17  C5  UNL     1       3.078  -0.547   0.558  1.00  0.00     0.016 C 
HETATM   18  C6  UNL     1       2.554   0.785   1.001  1.00  0.00     0.007 C 
HETATM   19  C7  UNL     1       3.665   1.498   1.740  1.00  0.00     0.000 C 
HETATM   20  C8  UNL     1       4.672   1.917   0.692  1.00  0.00     0.000 C 
HETATM   21  C9  UNL     1       5.099   0.760  -0.175  1.00  0.00     0.000 C 
HETATM   22  C10 UNL     1       4.553  -0.559   0.287  1.00  0.00     0.007 C 
ENDBRANCH  14  17
ENDBRANCH  13  14
ENDBRANCH   1  13
TORSDOF 7
