REMARK  5 active torsions:
REMARK  status: ('A' for Active; 'I' for Inactive)
REMARK    1  A    between atoms: S1_2  and  C2_3 
REMARK    2  A    between atoms: C2_3  and  C3_4 
REMARK    3  A    between atoms: C3_4  and  N1_5 
REMARK       I    between atoms: N1_5  and  C4_7 
REMARK       I    between atoms: C4_7  and  N3_12 
REMARK    4  A    between atoms: N2_8  and  O1_10 
REMARK    5  A    between atoms: N3_12  and  C5_14 
ROOT
HETATM    1  N1  UNL     1       2.453  -1.487   0.213  1.00  0.00    -0.224 N 
ATOM      2  H1  UNL     1       2.846  -2.428   0.197  1.00  0.00     0.177 HD
HETATM    3  C4  UNL     1       1.090  -1.318   0.579  1.00  0.00     0.694 C 
HETATM    4  N2  UNL     1       0.667  -2.079   1.511  1.00  0.00    -0.099 N 
ATOM      5  H2  UNL     1      -0.305  -1.994   1.809  1.00  0.00     0.213 HD
HETATM    6  N3  UNL     1       0.293  -0.345  -0.086  1.00  0.00    -0.219 N 
ATOM      7  H3  UNL     1       0.559  -0.122  -1.045  1.00  0.00     0.178 HD
ENDROOT
BRANCH   6   8
HETATM    8  C5  UNL     1      -0.824   0.347   0.430  1.00  0.00     0.107 C 
HETATM    9  C6  UNL     1      -1.370   1.270  -0.636  1.00  0.00     0.010 C 
HETATM   10  C7  UNL     1      -2.441   2.194  -0.141  1.00  0.00     0.011 C 
HETATM   11  C11 UNL     1      -1.971   0.399  -1.727  1.00  0.00     0.011 C 
HETATM   12  C8  UNL     1      -3.558   1.383   0.453  1.00  0.00    -0.013 C 
HETATM   13  C9  UNL     1      -4.203   0.547  -0.606  1.00  0.00     0.009 C 
HETATM   14  C14 UNL     1      -2.983   0.509   1.516  1.00  0.00     0.011 C 
HETATM   15  C10 UNL     1      -3.152  -0.360  -1.208  1.00  0.00    -0.013 C 
HETATM   16  C12 UNL     1      -2.664  -1.271  -0.100  1.00  0.00     0.011 C 
HETATM   17  C13 UNL     1      -1.954  -0.473   0.950  1.00  0.00     0.010 C 
ENDBRANCH   6   8
BRANCH   1  18
HETATM   18  C3  UNL     1       3.301  -0.372  -0.137  1.00  0.00     0.148 C 
BRANCH  18  19
HETATM   19  C2  UNL     1       4.680  -0.909  -0.485  1.00  0.00     0.093 C 
BRANCH  19  20
HETATM   20  S1  UNL     1       5.832   0.389  -0.942  1.00  0.00    -0.172 SA
HETATM   21  C1  UNL     1       6.171   1.434   0.484  1.00  0.00     0.089 C 
ENDBRANCH  19  20
ENDBRANCH  18  19
ENDBRANCH   1  18
BRANCH   4  22
HETATM   22  O1  UNL     1       1.462  -3.002   2.126  1.00  0.00    -0.276 OA
ATOM     23  H1  UNL     1       1.147  -3.569   2.820  1.00  0.00     0.245 HD
ENDBRANCH   4  22
TORSDOF 5
