REMARK  5 active torsions:
REMARK  status: ('A' for Active; 'I' for Inactive)
REMARK    1  A    between atoms: N1_2  and  C2_4 
REMARK    2  A    between atoms: C2_4  and  N2_6 
REMARK    3  A    between atoms: N3_9  and  C5_10 
REMARK    4  A    between atoms: C5_10  and  C6_11 
REMARK    5  A    between atoms: C6_11  and  N4_13 
ROOT
HETATM    1  C5  UNL     1       0.386   0.258  -0.015  1.00  0.00     0.307 C 
ENDROOT
BRANCH   1   2
HETATM    2  N3  UNL     1       1.739   0.159   0.400  1.00  0.00     0.093 N 
HETATM    3  C4  UNL     1       2.266   1.533   0.287  1.00  0.00     0.292 C 
HETATM    4  C3  UNL     1       3.337   1.681  -0.738  1.00  0.00     0.155 C 
HETATM    5  N2  UNL     1       4.433   0.753  -0.397  1.00  0.00    -0.355 N 
HETATM    6  C16 UNL     1       4.015  -0.603  -0.276  1.00  0.00     0.155 C 
HETATM    7  C15 UNL     1       2.495  -0.746  -0.385  1.00  0.00     0.292 C 
BRANCH   5   8
HETATM    8  C2  UNL     1       5.733   1.241  -0.228  1.00  0.00     0.169 C 
HETATM    9  S1  UNL     1       5.978   2.891  -0.444  1.00  0.00    -0.041 SA
BRANCH   8  10
HETATM   10  N1  UNL     1       6.854   0.479   0.102  1.00  0.00    -0.371 N 
HETATM   11  C1  UNL     1       6.953  -0.923   0.344  1.00  0.00     0.148 C 
ATOM     12  H1  UNL     1       7.728   0.999   0.182  1.00  0.00     0.161 HD
ENDBRANCH   8  10
ENDBRANCH   5   8
ENDBRANCH   1   2
BRANCH   1  13
HETATM   13  C6  UNL     1      -0.561  -0.860   0.180  1.00  0.00     0.247 C 
HETATM   14  C7  UNL     1      -0.227  -2.139  -0.506  1.00  0.00     0.045 C 
BRANCH  13  15
HETATM   15  N4  UNL     1      -1.846  -0.396  -0.344  1.00  0.00     0.095 N 
HETATM   16  C8  UNL     1      -2.890  -1.387  -0.297  1.00  0.00     0.278 C 
HETATM   17  C9  UNL     1      -4.124  -0.540  -0.320  1.00  0.00     0.023 C 
HETATM   18  C10 UNL     1      -5.370  -1.128   0.213  1.00  0.00     0.026 C 
HETATM   19  C13 UNL     1      -3.753   0.559   0.655  1.00  0.00     0.037 C 
HETATM   20  C11 UNL     1      -6.425  -0.017   0.170  1.00  0.00     0.114 C 
HETATM   21  N5  UNL     1      -6.007   1.233   0.675  1.00  0.00    -0.421 N 
HETATM   22  C12 UNL     1      -4.686   1.680   0.288  1.00  0.00     0.120 C 
ATOM     23  H5  UNL     1      -6.606   1.793   1.282  1.00  0.00     0.153 HD
HETATM   24  C14 UNL     1      -2.318   0.762   0.393  1.00  0.00     0.279 C 
ENDBRANCH  13  15
ENDBRANCH   1  13
TORSDOF 5
