REMARK  3 active torsions:
REMARK  status: ('A' for Active; 'I' for Inactive)
REMARK       I    between atoms: N1_2  and  C2_4 
REMARK    1  A    between atoms: C2_4  and  C3_6 
REMARK       I    between atoms: N2_10  and  C7_11 
REMARK       I    between atoms: C7_11  and  N3_13 
REMARK    2  A    between atoms: N3_13  and  C8_15 
REMARK    3  A    between atoms: C8_15  and  C9_16 
REMARK       I    between atoms: C9_16  and  N4_18 
ROOT
HETATM    1  C3  UNL     1       4.169  -0.211  -0.828  1.00  0.00     0.040 C 
HETATM    2  C4  UNL     1       5.062  -0.426  -2.056  1.00  0.00     0.025 C 
HETATM    3  C5  UNL     1       3.202   0.914  -1.070  1.00  0.00     0.039 C 
HETATM    4  C6  UNL     1       1.953   0.793  -0.217  1.00  0.00     0.129 C 
HETATM    5  N2  UNL     1       1.325  -0.459  -0.532  1.00  0.00    -0.334 N 
HETATM    6  C7  UNL     1      -0.009  -0.697  -0.118  1.00  0.00     0.318 C 
HETATM    7  O2  UNL     1      -0.502  -1.811  -0.424  1.00  0.00    -0.247 OA
HETATM    8  N3  UNL     1      -0.697   0.309   0.601  1.00  0.00    -0.334 N 
ATOM      9  H3  UNL     1      -0.220   1.186   0.811  1.00  0.00     0.164 HD
HETATM   10  C15 UNL     1       2.107  -1.430  -1.272  1.00  0.00     0.129 C 
HETATM   11  C16 UNL     1       3.464  -1.502  -0.572  1.00  0.00     0.039 C 
ENDROOT
BRANCH   8  12
HETATM   12  C8  UNL     1      -2.043   0.126   1.039  1.00  0.00     0.227 C 
BRANCH  12  13
HETATM   13  C9  UNL     1      -2.979  -0.080  -0.084  1.00  0.00     0.237 C 
HETATM   14  O3  UNL     1      -2.585  -0.074  -1.270  1.00  0.00    -0.272 OA
HETATM   15  N4  UNL     1      -4.343  -0.288   0.183  1.00  0.00    -0.351 N 
HETATM   16  C10 UNL     1      -5.257  -0.489  -0.912  1.00  0.00     0.126 C 
HETATM   17  C14 UNL     1      -4.830  -0.301   1.540  1.00  0.00     0.126 C 
HETATM   18  C11 UNL     1      -6.581  -0.920  -0.316  1.00  0.00     0.020 C 
HETATM   19  C12 UNL     1      -7.064   0.226   0.569  1.00  0.00     0.003 C 
HETATM   20  C13 UNL     1      -6.055   0.590   1.610  1.00  0.00     0.020 C 
ENDBRANCH  12  13
ENDBRANCH   8  12
BRANCH   1  21
HETATM   21  C2  UNL     1       5.075   0.174   0.278  1.00  0.00     0.225 C 
HETATM   22  N1  UNL     1       5.899   1.330   0.213  1.00  0.00    -0.365 N 
HETATM   23  C1  UNL     1       6.787   1.698   1.308  1.00  0.00     0.149 C 
ATOM     24  H1  UNL     1       5.868   1.917  -0.621  1.00  0.00     0.161 HD
HETATM   25  O1  UNL     1       5.084  -0.588   1.304  1.00  0.00    -0.273 OA
ENDBRANCH   1  21
TORSDOF 3
