REMARK  6 active torsions:
REMARK  status: ('A' for Active; 'I' for Inactive)
REMARK    1  A    between atoms: C2_3  and  O1_4 
REMARK    2  A    between atoms: O1_4  and  N2_5 
REMARK    3  A    between atoms: N2_5  and  C3_7 
REMARK    4  A    between atoms: C3_7  and  N3_8 
REMARK    5  A    between atoms: N3_8  and  C4_10 
REMARK    6  A    between atoms: C8_22  and  N8_23 
ROOT
HETATM    1  N1  UNL     1       6.835  -1.610   0.054  1.00  0.00    -0.195 NA
HETATM    2  C1  UNL     1       5.882  -0.960  -0.154  1.00  0.00     0.087 C 
HETATM    3  C2  UNL     1       4.704  -0.129  -0.412  1.00  0.00     0.324 C 
ENDROOT
BRANCH   3   4
HETATM    4  O1  UNL     1       3.567  -0.866  -0.039  1.00  0.00    -0.266 OA
BRANCH   4   5
HETATM    5  N2  UNL     1       2.282  -0.402  -0.141  1.00  0.00    -0.261 N 
ATOM      6  H2  UNL     1       1.841  -0.415  -1.060  1.00  0.00     0.195 HD
BRANCH   5   7
HETATM    7  C3  UNL     1       1.601   0.047   0.844  1.00  0.00     0.205 C 
BRANCH   7   8
HETATM    8  N3  UNL     1       0.277   0.496   0.588  1.00  0.00    -0.336 N 
ATOM      9  H3  UNL     1       0.089   1.498   0.551  1.00  0.00     0.168 HD
BRANCH   8  10
HETATM   10  C4  UNL     1      -0.692  -0.333   0.402  1.00  0.00     0.124 A 
HETATM   11  N4  UNL     1      -0.515  -1.665   0.438  1.00  0.00    -0.338 N 
HETATM   12  C5  UNL     1      -1.531  -2.525   0.243  1.00  0.00     0.183 A 
ATOM     13  H4  UNL     1       0.418  -2.035   0.619  1.00  0.00     0.168 HD
HETATM   14  N5  UNL     1      -2.751  -2.007   0.006  1.00  0.00    -0.338 N 
HETATM   15  C6  UNL     1      -2.981  -0.682  -0.040  1.00  0.00     0.124 A 
ATOM     16  H5  UNL     1      -3.533  -2.645  -0.145  1.00  0.00     0.168 HD
HETATM   17  N6  UNL     1      -4.199  -0.158  -0.277  1.00  0.00    -0.338 N 
HETATM   18  C9  UNL     1      -1.946   0.208   0.158  1.00  0.00     0.096 A 
HETATM   19  C7  UNL     1      -4.364   1.184  -0.311  1.00  0.00     0.183 A 
ATOM     20  H6  UNL     1      -4.998  -0.774  -0.431  1.00  0.00     0.168 HD
HETATM   21  N7  UNL     1      -3.342   2.039  -0.115  1.00  0.00    -0.338 N 
HETATM   22  C8  UNL     1      -2.109   1.570   0.125  1.00  0.00     0.117 A 
ATOM     23  H7  UNL     1      -3.506   3.045  -0.149  1.00  0.00     0.168 HD
BRANCH  22  24
HETATM   24  N8  UNL     1      -1.084   2.362   0.322  1.00  0.00    -0.385 N 
ATOM     25  H82 UNL     1      -1.205   3.374   0.297  1.00  0.00     0.157 HD
ATOM     26  H81 UNL     1      -0.146   2.005   0.505  1.00  0.00     0.157 HD
ENDBRANCH  22  24
ENDBRANCH   8  10
ENDBRANCH   7   8
ENDBRANCH   5   7
ENDBRANCH   4   5
ENDBRANCH   3   4
TORSDOF 6
