REMARK  3 active torsions:
REMARK  status: ('A' for Active; 'I' for Inactive)
REMARK    1  A    between atoms: N1_1  and  C1_4 
REMARK    2  A    between atoms: N3_8  and  C3_10 
REMARK    3  A    between atoms: C3_10  and  C4_11 
ROOT
HETATM    1  C1  UNL     1      -2.442   1.945   0.745  1.00  0.00     0.693 A 
HETATM    2  N2  UNL     1      -1.226   1.423   0.516  1.00  0.00    -0.172 N 
ATOM      3  H2  UNL     1      -0.424   2.050   0.450  1.00  0.00     0.186 HD
HETATM    4  C2  UNL     1      -1.030   0.091   0.370  1.00  0.00     0.165 A 
HETATM    5  N3  UNL     1       0.132  -0.427   0.150  1.00  0.00    -0.367 N 
ATOM      6  H3  UNL     1       0.256  -1.434   0.044  1.00  0.00     0.161 HD
HETATM    7  C8  UNL     1      -2.157  -0.707   0.470  1.00  0.00     0.191 A 
HETATM    8  N5  UNL     1      -2.291  -2.043   0.374  1.00  0.00    -0.332 N 
ATOM      9  H5  UNL     1      -1.547  -2.720   0.203  1.00  0.00     0.168 HD
HETATM   10  C9  UNL     1      -3.598  -2.311   0.547  1.00  0.00     0.201 A 
HETATM   11  N6  UNL     1      -4.229  -1.153   0.743  1.00  0.00    -0.273 N 
ATOM     12  H6  UNL     1      -5.232  -1.055   0.902  1.00  0.00     0.190 HD
HETATM   13  N7  UNL     1      -3.360  -0.141   0.701  1.00  0.00    -0.161 N 
HETATM   14  N8  UNL     1      -3.527   1.162   0.840  1.00  0.00    -0.109 N 
ATOM     15  H8  UNL     1      -4.450   1.559   1.014  1.00  0.00     0.208 HD
ENDROOT
BRANCH   5  16
HETATM   16  C3  UNL     1       1.253   0.488   0.061  1.00  0.00     0.178 C 
BRANCH  16  17
HETATM   17  C4  UNL     1       2.505  -0.221  -0.328  1.00  0.00     0.026 A 
HETATM   18  C5  UNL     1       3.741   0.367  -0.497  1.00  0.00     0.028 A 
HETATM   19  C6  UNL     1       4.666  -0.602  -0.858  1.00  0.00     0.019 A 
HETATM   20  C7  UNL     1       3.945  -1.779  -0.898  1.00  0.00     0.088 A 
HETATM   21  N4  UNL     1       2.662  -1.527  -0.579  1.00  0.00    -0.368 N 
ATOM     22  H4  UNL     1       1.920  -2.226  -0.535  1.00  0.00     0.165 HD
ENDBRANCH  16  17
ENDBRANCH   5  16
BRANCH   1  23
HETATM   23  N1  UNL     1      -2.596   3.214   0.879  1.00  0.00    -0.233 N 
ATOM     24  H12 UNL     1      -1.771   3.809   0.807  1.00  0.00     0.174 HD
ATOM     25  H11 UNL     1      -3.520   3.610   1.053  1.00  0.00     0.174 HD
ENDBRANCH   1  23
TORSDOF 3
