REMARK  5 active torsions:
REMARK  status: ('A' for Active; 'I' for Inactive)
REMARK    1  A    between atoms: C3_3  and  N1_4 
REMARK    2  A    between atoms: C6_9  and  N3_10 
REMARK    3  A    between atoms: N3_10  and  N4_12 
REMARK    4  A    between atoms: N4_12  and  C7_14 
REMARK    5  A    between atoms: C9_19  and  N7_20 
ROOT
HETATM    1  C1  UNL     1       5.579   1.598  -0.844  1.00  0.00     0.014 C 
HETATM    2  C2  UNL     1       5.056   0.709  -0.215  1.00  0.00    -0.096 C 
HETATM    3  C3  UNL     1       4.441  -0.388   0.553  1.00  0.00     0.241 C 
ENDROOT
BRANCH   3   4
HETATM    4  N1  UNL     1       3.001  -0.397   0.418  1.00  0.00    -0.289 N 
HETATM    5  C4  UNL     1       2.274  -1.046  -0.508  1.00  0.00     0.143 A 
HETATM    6  C5  UNL     1       0.942  -0.776  -0.263  1.00  0.00     0.098 A 
HETATM    7  N2  UNL     1      -0.193  -1.157  -0.867  1.00  0.00    -0.186 N 
HETATM    8  C10 UNL     1       0.917   0.066   0.856  1.00  0.00     0.121 A 
HETATM    9  C6  UNL     1      -1.377  -0.737  -0.411  1.00  0.00     0.698 A 
ATOM     10  H2  UNL     1      -0.152  -1.772  -1.680  1.00  0.00     0.184 HD
HETATM   11  N6  UNL     1      -1.428   0.082   0.674  1.00  0.00    -0.173 N 
HETATM   12  C9  UNL     1      -0.313   0.481   1.302  1.00  0.00     0.145 A 
ATOM     13  H6  UNL     1      -2.335   0.399   1.017  1.00  0.00     0.186 HD
HETATM   14  N8  UNL     1       2.190   0.261   1.225  1.00  0.00    -0.292 N 
ATOM     15  H8  UNL     1       2.489   0.834   2.014  1.00  0.00     0.187 HD
BRANCH   9  16
HETATM   16  N3  UNL     1      -2.458  -1.115  -1.007  1.00  0.00    -0.135 N 
ATOM     17  H3  UNL     1      -2.379  -1.729  -1.818  1.00  0.00     0.205 HD
BRANCH  16  18
HETATM   18  N4  UNL     1      -3.713  -0.726  -0.597  1.00  0.00    -0.309 N 
ATOM     19  H4  UNL     1      -4.238  -1.353   0.012  1.00  0.00     0.181 HD
BRANCH  18  20
HETATM   20  C7  UNL     1      -4.330   0.534  -0.987  1.00  0.00     0.263 C 
HETATM   21  C8  UNL     1      -5.661   0.674  -0.401  1.00  0.00     0.080 C 
HETATM   22  N5  UNL     1      -6.727   0.767   0.070  1.00  0.00    -0.196 NA
ENDBRANCH  18  20
ENDBRANCH  16  18
ENDBRANCH   9  16
BRANCH  12  23
HETATM   23  N7  UNL     1      -0.356   1.256   2.329  1.00  0.00    -0.383 N 
ATOM     24  H72 UNL     1      -1.270   1.564   2.660  1.00  0.00     0.157 HD
ATOM     25  H71 UNL     1       0.492   1.560   2.807  1.00  0.00     0.157 HD
ENDBRANCH  12  23
ENDBRANCH   3   4
TORSDOF 5
