REMARK  5 active torsions:
REMARK  status: ('A' for Active; 'I' for Inactive)
REMARK    1  A    between atoms: N1_1  and  C1_4 
REMARK    2  A    between atoms: C5_14  and  C6_15 
REMARK    3  A    between atoms: C6_15  and  N5_16 
REMARK       I    between atoms: N5_16  and  C7_18 
REMARK    4  A    between atoms: C7_18  and  C8_20 
REMARK    5  A    between atoms: C8_20  and  N6_21 
ROOT
HETATM    1  C1  UNL     1      -2.293   0.568   1.267  1.00  0.00     0.130 A 
HETATM    2  N2  UNL     1      -3.537   0.178   1.573  1.00  0.00    -0.337 N 
ATOM      3  H2  UNL     1      -3.933   0.440   2.476  1.00  0.00     0.168 HD
HETATM    4  C2  UNL     1      -4.280  -0.554   0.716  1.00  0.00     0.183 A 
HETATM    5  N3  UNL     1      -3.829  -0.936  -0.490  1.00  0.00    -0.337 N 
ATOM      6  H3  UNL     1      -4.410  -1.488  -1.121  1.00  0.00     0.168 HD
HETATM    7  C3  UNL     1      -2.569  -0.560  -0.840  1.00  0.00     0.137 A 
HETATM    8  N4  UNL     1      -2.101  -0.937  -2.051  1.00  0.00    -0.348 N 
ATOM      9  H4  UNL     1      -2.664  -1.489  -2.698  1.00  0.00     0.167 HD
HETATM   10  C4  UNL     1      -0.837  -0.538  -2.358  1.00  0.00     0.116 A 
HETATM   11  C5  UNL     1      -0.069   0.207  -1.492  1.00  0.00     0.043 A 
HETATM   12  N7  UNL     1      -0.564   0.570  -0.287  1.00  0.00    -0.351 N 
ATOM     13  H7  UNL     1      -0.003   1.122   0.362  1.00  0.00     0.166 HD
HETATM   14  C9  UNL     1      -1.807   0.188   0.036  1.00  0.00     0.121 A 
ENDROOT
BRANCH  11  15
HETATM   15  C6  UNL     1       1.305   0.643  -1.835  1.00  0.00     0.181 C 
BRANCH  15  16
HETATM   16  N5  UNL     1       2.069   0.992  -0.658  1.00  0.00    -0.354 N 
HETATM   17  C7  UNL     1       2.579  -0.046   0.135  1.00  0.00     0.243 C 
HETATM   18  O1  UNL     1       2.382  -1.236  -0.163  1.00  0.00    -0.272 OA
ATOM     19  H5  UNL     1       2.233   1.968  -0.411  1.00  0.00     0.162 HD
BRANCH  17  20
HETATM   20  C8  UNL     1       3.362   0.285   1.342  1.00  0.00     0.332 C 
BRANCH  20  21
HETATM   21  N6  UNL     1       3.831  -0.886   2.047  1.00  0.00    -0.071 N 
ATOM     22  H63 UNL     1       3.056  -1.509   2.274  1.00  0.00     0.274 HD
ATOM     23  H62 UNL     1       4.360  -1.498   1.426  1.00  0.00     0.274 HD
ATOM     24  H61 UNL     1       4.372  -0.657   2.881  1.00  0.00     0.274 HD
ENDBRANCH  20  21
ENDBRANCH  17  20
ENDBRANCH  15  16
ENDBRANCH  11  15
BRANCH   1  25
HETATM   25  N1  UNL     1      -1.604   1.272   2.109  1.00  0.00    -0.383 N 
ATOM     26  H12 UNL     1      -1.964   1.553   3.021  1.00  0.00     0.157 HD
ATOM     27  H11 UNL     1      -0.656   1.569   1.876  1.00  0.00     0.157 HD
ENDBRANCH   1  25
TORSDOF 5
