REMARK  5 active torsions:
REMARK  status: ('A' for Active; 'I' for Inactive)
REMARK    1  A    between atoms: N1_2  and  N2_4 
REMARK    2  A    between atoms: N2_4  and  C2_6 
REMARK    3  A    between atoms: C4_10  and  C5_11 
REMARK    4  A    between atoms: N4_12  and  N5_14 
REMARK    5  A    between atoms: C9_20  and  N7_21 
ROOT
HETATM    1  C2  UNL     1      -2.393   0.489   0.154  1.00  0.00     0.698 A 
HETATM    2  N3  UNL     1      -2.028  -0.785  -0.007  1.00  0.00    -0.199 N 
ATOM      3  H3  UNL     1      -2.744  -1.506  -0.096  1.00  0.00     0.183 HD
HETATM    4  C3  UNL     1      -0.742  -1.129  -0.053  1.00  0.00     0.122 A 
HETATM    5  C4  UNL     1       0.228  -0.159   0.066  1.00  0.00     0.041 A 
HETATM    6  C9  UNL     1      -0.140   1.173   0.234  1.00  0.00     0.127 A 
HETATM    7  N8  UNL     1      -1.452   1.436   0.270  1.00  0.00    -0.175 N 
ATOM      8  H8  UNL     1      -1.750   2.404   0.392  1.00  0.00     0.186 HD
ENDROOT
BRANCH   5   9
HETATM    9  C5  UNL     1       1.623  -0.554   0.013  1.00  0.00     0.124 C 
HETATM   10  N4  UNL     1       2.534   0.371   0.126  1.00  0.00    -0.304 N 
ATOM     11  H4  UNL     1       2.282   1.352   0.249  1.00  0.00     0.186 HD
BRANCH  10  12
HETATM   12  N5  UNL     1       3.866  -0.035   0.072  1.00  0.00    -0.262 N 
HETATM   13  C6  UNL     1       4.830   0.087   1.007  1.00  0.00     0.134 A 
HETATM   14  C7  UNL     1       5.968  -0.465   0.479  1.00  0.00     0.108 A 
HETATM   15  N6  UNL     1       5.674  -0.906  -0.750  1.00  0.00    -0.359 N 
HETATM   16  C8  UNL     1       4.374  -0.653  -1.033  1.00  0.00     0.205 A 
ATOM     17  H6  UNL     1       6.332  -1.365  -1.380  1.00  0.00     0.166 HD
ENDBRANCH  10  12
ENDBRANCH   5   9
BRANCH   6  18
HETATM   18  N7  UNL     1       0.777   2.068   0.344  1.00  0.00    -0.384 N 
ATOM     19  H72 UNL     1       1.777   1.868   0.317  1.00  0.00     0.157 HD
ATOM     20  H71 UNL     1       0.507   3.044   0.467  1.00  0.00     0.157 HD
ENDBRANCH   6  18
BRANCH   1  21
HETATM   21  N2  UNL     1      -3.666   0.829   0.200  1.00  0.00    -0.137 N 
ATOM     22  H2  UNL     1      -3.951   1.801   0.323  1.00  0.00     0.205 HD
BRANCH  21  23
HETATM   23  N1  UNL     1      -4.609  -0.194   0.074  1.00  0.00    -0.327 N 
HETATM   24  C1  UNL     1      -5.624  -0.031  -0.950  1.00  0.00     0.168 C 
ATOM     25  H1  UNL     1      -4.585  -1.018   0.675  1.00  0.00     0.180 HD
ENDBRANCH  21  23
ENDBRANCH   1  21
TORSDOF 5
