REMARK  3 active torsions:
REMARK  status: ('A' for Active; 'I' for Inactive)
REMARK    1  A    between atoms: C2_2  and  C5_15 
REMARK    2  A    between atoms: N1_3  and  N2_5 
REMARK    3  A    between atoms: N2_5  and  C3_7 
ROOT
HETATM    1  C1  UNL     1       0.531   0.793  -1.243  1.00  0.00     0.071 C 
HETATM    2  C2  UNL     1      -0.115  -0.215  -0.381  1.00  0.00     0.039 C 
HETATM    3  N1  UNL     1       0.499  -1.297  -0.079  1.00  0.00    -0.303 N 
ATOM      4  H1  UNL     1       0.005  -1.959   0.520  1.00  0.00     0.186 HD
ENDROOT
BRANCH   2   5
HETATM    5  C5  UNL     1      -1.449   0.024   0.123  1.00  0.00     0.071 A 
HETATM    6  C6  UNL     1      -2.154   1.172  -0.173  1.00  0.00     0.111 A 
HETATM    7  N6  UNL     1      -3.378   1.307   0.336  1.00  0.00    -0.318 N 
HETATM    8  C7  UNL     1      -3.960   0.386   1.120  1.00  0.00     0.327 A 
ATOM      9  H6  UNL     1      -3.901   2.155   0.118  1.00  0.00     0.170 HD
HETATM   10  O1  UNL     1      -5.118   0.559   1.576  1.00  0.00    -0.247 OA
HETATM   11  N7  UNL     1      -3.295  -0.739   1.421  1.00  0.00    -0.275 N 
HETATM   12  C8  UNL     1      -2.049  -0.919   0.927  1.00  0.00     0.262 A 
ATOM     13  H7  UNL     1      -3.723  -1.449   2.015  1.00  0.00     0.173 HD
HETATM   14  O2  UNL     1      -1.475  -1.994   1.244  1.00  0.00    -0.267 OA
ENDBRANCH   2   5
BRANCH   3  15
HETATM   15  N2  UNL     1       1.763  -1.648  -0.488  1.00  0.00    -0.283 N 
ATOM     16  H2  UNL     1       1.880  -2.369  -1.200  1.00  0.00     0.188 HD
BRANCH  15  17
HETATM   17  C3  UNL     1       2.906  -1.020   0.068  1.00  0.00     0.152 A 
HETATM   18  C4  UNL     1       2.914  -0.020   1.047  1.00  0.00     0.159 A 
HETATM   19  N3  UNL     1       4.188   0.318   1.313  1.00  0.00    -0.294 N 
HETATM   20  N4  UNL     1       4.932  -0.424   0.546  1.00  0.00    -0.241 N 
ATOM     21  H3  UNL     1       4.508   1.017   1.983  1.00  0.00     0.187 HD
HETATM   22  N5  UNL     1       4.209  -1.232  -0.208  1.00  0.00    -0.269 N 
ATOM     23  H4  UNL     1       5.951  -0.386   0.529  1.00  0.00     0.208 HD
ATOM     24  H5  UNL     1       4.574  -1.903  -0.884  1.00  0.00     0.190 HD
ENDBRANCH  15  17
ENDBRANCH   3  15
TORSDOF 3
