REMARK  4 active torsions:
REMARK  status: ('A' for Active; 'I' for Inactive)
REMARK    1  A    between atoms: C1_4  and  C2_6 
REMARK    2  A    between atoms: C5_9  and  C6_10 
REMARK    3  A    between atoms: N3_11  and  N4_13 
REMARK    4  A    between atoms: N4_13  and  C7_15 
ROOT
HETATM    1  C6  UNL     1       1.561  -0.571  -0.312  1.00  0.00     0.137 C 
HETATM    2  N3  UNL     1       2.053   0.323  -1.086  1.00  0.00    -0.295 N 
ATOM      3  H3  UNL     1       1.414   0.981  -1.532  1.00  0.00     0.186 HD
ENDROOT
BRANCH   1   4
HETATM    4  C5  UNL     1       0.142  -0.654  -0.072  1.00  0.00     0.049 A 
HETATM    5  C4  UNL     1      -0.695   0.253  -0.692  1.00  0.00     0.032 A 
HETATM    6  C3  UNL     1      -2.044   0.150  -0.443  1.00  0.00     0.018 A 
HETATM    7  C2  UNL     1      -2.528  -0.824   0.394  1.00  0.00     0.020 A 
HETATM    8  C8  UNL     1      -1.658  -1.704   0.988  1.00  0.00     0.103 A 
HETATM    9  N9  UNL     1      -0.355  -1.601   0.744  1.00  0.00    -0.364 N 
ATOM     10  H9  UNL     1       0.286  -2.259   1.188  1.00  0.00     0.165 HD
BRANCH   7  11
HETATM   11  C1  UNL     1      -3.981  -0.897   0.631  1.00  0.00     0.121 C 
HETATM   12  N1  UNL     1      -4.439  -1.809   1.414  1.00  0.00    -0.387 N 
ATOM     13  H12 UNL     1      -5.444  -1.860   1.578  1.00  0.00     0.157 HD
ATOM     14  H11 UNL     1      -3.816  -2.476   1.869  1.00  0.00     0.157 HD
HETATM   15  N2  UNL     1      -4.846   0.030  -0.001  1.00  0.00    -0.082 NA
ENDBRANCH   7  11
ENDBRANCH   1   4
BRANCH   2  16
HETATM   16  N4  UNL     1       3.417   0.443  -1.350  1.00  0.00    -0.130 N 
ATOM     17  H4  UNL     1       3.798   0.175  -2.258  1.00  0.00     0.205 HD
BRANCH  16  18
HETATM   18  C7  UNL     1       4.183   0.898  -0.425  1.00  0.00     0.728 A 
HETATM   19  N5  UNL     1       5.495   1.074  -0.511  1.00  0.00    -0.114 N 
HETATM   20  N6  UNL     1       5.914   1.558   0.643  1.00  0.00    -0.213 N 
ATOM     21  H5  UNL     1       6.076   0.871  -1.324  1.00  0.00     0.207 HD
HETATM   22  N7  UNL     1       4.877   1.686   1.449  1.00  0.00    -0.213 N 
ATOM     23  H6  UNL     1       6.879   1.794   0.874  1.00  0.00     0.210 HD
HETATM   24  N8  UNL     1       3.808   1.284   0.803  1.00  0.00    -0.114 N 
ATOM     25  H7  UNL     1       4.902   2.036   2.407  1.00  0.00     0.210 HD
ATOM     26  H8  UNL     1       2.857   1.268   1.171  1.00  0.00     0.207 HD
ENDBRANCH  16  18
ENDBRANCH   2  16
TORSDOF 4
