REMARK  3 active torsions:
REMARK  status: ('A' for Active; 'I' for Inactive)
REMARK       I    between atoms: C2_2  and  N1_4 
REMARK    1  A    between atoms: N1_4  and  C3_6 
REMARK    2  A    between atoms: C5_12  and  C6_13 
REMARK    3  A    between atoms: N4_14  and  C7_16 
ROOT
HETATM    1  C3  UNL     1       1.710  -0.909  -0.562  1.00  0.00     0.137 A 
HETATM    2  N2  UNL     1       2.337  -1.811  -1.327  1.00  0.00    -0.337 N 
ATOM      3  H2  UNL     1       3.348  -1.946  -1.357  1.00  0.00     0.168 HD
HETATM    4  C4  UNL     1       1.447  -2.514  -2.050  1.00  0.00     0.182 A 
HETATM    5  N3  UNL     1       0.226  -2.051  -1.740  1.00  0.00    -0.348 N 
ATOM      6  H3  UNL     1      -0.656  -2.387  -2.127  1.00  0.00     0.167 HD
HETATM    7  C5  UNL     1       0.366  -1.052  -0.816  1.00  0.00     0.093 A 
ENDROOT
BRANCH   7   8
HETATM    8  C6  UNL     1      -0.705  -0.279  -0.209  1.00  0.00     0.139 C 
HETATM    9  N4  UNL     1      -1.930  -0.539  -0.559  1.00  0.00    -0.198 N 
ATOM     10  H4  UNL     1      -2.092  -1.276  -1.246  1.00  0.00     0.183 HD
BRANCH   9  11
HETATM   11  C7  UNL     1      -3.045   0.146  -0.037  1.00  0.00     0.700 A 
HETATM   12  N5  UNL     1      -3.918  -0.302   0.868  1.00  0.00    -0.128 N 
HETATM   13  N6  UNL     1      -4.832   0.631   1.108  1.00  0.00    -0.237 N 
ATOM     14  H5  UNL     1      -3.888  -1.222   1.308  1.00  0.00     0.205 HD
HETATM   15  C8  UNL     1      -4.509   1.677   0.328  1.00  0.00     0.353 A 
ATOM     16  H6  UNL     1      -5.619   0.567   1.753  1.00  0.00     0.192 HD
HETATM   17  O2  UNL     1      -5.188   2.748   0.315  1.00  0.00    -0.245 OA
HETATM   18  N7  UNL     1      -3.414   1.383  -0.375  1.00  0.00    -0.139 N 
ATOM     19  H7  UNL     1      -2.946   1.991  -1.047  1.00  0.00     0.189 HD
ENDBRANCH   9  11
ENDBRANCH   7   8
BRANCH   1  20
HETATM   20  N1  UNL     1       2.269   0.041   0.356  1.00  0.00    -0.311 N 
HETATM   21  C2  UNL     1       3.670   0.134   0.568  1.00  0.00     0.219 C 
HETATM   22  C1  UNL     1       4.217   1.126   1.523  1.00  0.00     0.117 C 
HETATM   23  O1  UNL     1       4.493  -0.607  -0.031  1.00  0.00    -0.274 OA
ATOM     24  H1  UNL     1       1.645   0.664   0.869  1.00  0.00     0.170 HD
ENDBRANCH   1  20
TORSDOF 3
