REMARK  4 active torsions:
REMARK  status: ('A' for Active; 'I' for Inactive)
REMARK    1  A    between atoms: C3_3  and  O1_4 
REMARK    2  A    between atoms: O1_4  and  C4_5 
REMARK    3  A    between atoms: C4_5  and  N1_6 
REMARK    4  A    between atoms: C7_11  and  N3_12 
ROOT
HETATM    1  C1  UNL     1       5.457   0.518  -0.672  1.00  0.00     0.014 C 
HETATM    2  C2  UNL     1       4.740  -0.107   0.077  1.00  0.00    -0.091 C 
HETATM    3  C3  UNL     1       3.884  -0.863   0.990  1.00  0.00     0.262 C 
ENDROOT
BRANCH   3   4
HETATM    4  O1  UNL     1       2.559  -0.441   0.938  1.00  0.00    -0.360 OA
BRANCH   4   5
HETATM    5  C4  UNL     1       2.017  -0.590  -0.341  1.00  0.00     0.302 C 
BRANCH   5   6
HETATM    6  N1  UNL     1       0.645  -0.125  -0.280  1.00  0.00    -0.306 N 
HETATM    7  C5  UNL     1       0.424   1.171  -0.564  1.00  0.00     0.187 A 
HETATM    8  N2  UNL     1      -0.808   1.694  -0.543  1.00  0.00    -0.347 N 
HETATM    9  C6  UNL     1      -1.844   0.927  -0.237  1.00  0.00     0.109 A 
ATOM     10  H2  UNL     1      -0.949   2.680  -0.762  1.00  0.00     0.167 HD
HETATM   11  C7  UNL     1      -3.123   1.485  -0.219  1.00  0.00     0.144 A 
HETATM   12  C9  UNL     1      -1.696  -0.407   0.065  1.00  0.00     0.123 A 
HETATM   13  N4  UNL     1      -4.131   0.653   0.099  1.00  0.00    -0.175 N 
HETATM   14  C8  UNL     1      -3.957  -0.647   0.390  1.00  0.00     0.678 A 
ATOM     15  H4  UNL     1      -5.079   1.029   0.120  1.00  0.00     0.186 HD
HETATM   16  N5  UNL     1      -4.984  -1.366   0.683  1.00  0.00    -0.234 N 
HETATM   17  N6  UNL     1      -2.709  -1.207   0.376  1.00  0.00    -0.186 N 
ATOM     18  H52 UNL     1      -5.915  -0.948   0.693  1.00  0.00     0.174 HD
ATOM     19  H51 UNL     1      -4.852  -2.353   0.904  1.00  0.00     0.174 HD
ATOM     20  H6  UNL     1      -2.564  -2.193   0.594  1.00  0.00     0.184 HD
HETATM   21  C10 UNL     1      -0.387  -0.914   0.032  1.00  0.00     0.134 A 
HETATM   22  N7  UNL     1      -0.194  -2.150   0.316  1.00  0.00    -0.383 N 
ATOM     23  H72 UNL     1       0.757  -2.518   0.292  1.00  0.00     0.157 HD
ATOM     24  H71 UNL     1      -0.982  -2.752   0.554  1.00  0.00     0.157 HD
BRANCH  11  25
HETATM   25  N3  UNL     1      -3.337   2.727  -0.491  1.00  0.00    -0.383 N 
ATOM     26  H32 UNL     1      -2.573   3.358  -0.732  1.00  0.00     0.157 HD
ATOM     27  H31 UNL     1      -4.272   3.135  -0.478  1.00  0.00     0.157 HD
ENDBRANCH  11  25
ENDBRANCH   5   6
ENDBRANCH   4   5
ENDBRANCH   3   4
TORSDOF 4
