REMARK  3 active torsions:
REMARK  status: ('A' for Active; 'I' for Inactive)
REMARK    1  A    between atoms: N1_1  and  N2_4 
REMARK    2  A    between atoms: N2_4  and  N3_6 
REMARK       I    between atoms: N3_6  and  C1_8 
REMARK       I    between atoms: C1_8  and  N4_10 
REMARK    3  A    between atoms: C3_16  and  C4_17 
ROOT
HETATM    1  N3  UNL     1       1.761   0.904   0.448  1.00  0.00    -0.236 N 
ATOM      2  H3  UNL     1       1.698   1.918   0.360  1.00  0.00     0.193 HD
HETATM    3  C1  UNL     1       0.566   0.120   0.275  1.00  0.00     0.363 C 
HETATM    4  O1  UNL     1       0.704  -1.087   0.403  1.00  0.00    -0.243 OA
HETATM    5  N4  UNL     1      -0.672   0.766  -0.028  1.00  0.00    -0.181 N 
HETATM    6  N5  UNL     1      -0.741   2.120  -0.173  1.00  0.00    -0.284 N 
ATOM      7  H5  UNL     1       0.048   2.757  -0.058  1.00  0.00     0.188 HD
HETATM    8  C2  UNL     1      -1.971   2.495  -0.484  1.00  0.00     0.199 A 
HETATM    9  N6  UNL     1      -2.685   1.377  -0.537  1.00  0.00    -0.332 N 
ATOM     10  H6  UNL     1      -3.680   1.326  -0.755  1.00  0.00     0.168 HD
HETATM   11  C3  UNL     1      -1.872   0.287  -0.251  1.00  0.00     0.198 A 
ENDROOT
BRANCH  11  12
HETATM   12  C4  UNL     1      -2.378  -1.064  -0.179  1.00  0.00     0.300 C 
HETATM   13  N7  UNL     1      -1.826  -2.145   0.538  1.00  0.00    -0.054 NA
HETATM   14  O2  UNL     1      -3.464  -1.324  -0.838  1.00  0.00    -0.268 OA
ENDBRANCH  11  12
BRANCH   1  15
HETATM   15  N2  UNL     1       2.979   0.342   0.726  1.00  0.00    -0.245 N 
ATOM     16  H2  UNL     1       3.735   0.892   1.135  1.00  0.00     0.208 HD
BRANCH  15  17
HETATM   17  N1  UNL     1       3.143  -0.981   0.435  1.00  0.00    -0.331 N 
ATOM     18  H12 UNL     1       2.378  -1.517   0.026  1.00  0.00     0.178 HD
ATOM     19  H11 UNL     1       4.050  -1.399   0.642  1.00  0.00     0.178 HD
ENDBRANCH  15  17
ENDBRANCH   1  15
TORSDOF 3
