REMARK  4 active torsions:
REMARK  status: ('A' for Active; 'I' for Inactive)
REMARK    1  A    between atoms: N1_1  and  C1_4 
REMARK    2  A    between atoms: C2_9  and  S1_10 
REMARK    3  A    between atoms: S1_10  and  N4_11 
REMARK    4  A    between atoms: N5_16  and  N6_17 
ROOT
HETATM    1  C1  UNL     1      -1.847  -0.496   0.025  1.00  0.00     0.713 A 
HETATM    2  N2  UNL     1      -1.447  -1.405   0.917  1.00  0.00    -0.128 N 
ATOM      3  H2  UNL     1      -2.013  -2.159   1.306  1.00  0.00     0.205 HD
HETATM    4  N3  UNL     1      -0.193  -1.150   1.200  1.00  0.00    -0.258 N 
ATOM      5  H3  UNL     1       0.370  -1.690   1.857  1.00  0.00     0.190 HD
HETATM    6  C2  UNL     1       0.255  -0.086   0.514  1.00  0.00     0.276 A 
HETATM    7  N5  UNL     1      -0.800   0.305  -0.214  1.00  0.00    -0.061 N 
ENDROOT
BRANCH   6   8
HETATM    8  S1  UNL     1       1.866   0.599   0.588  1.00  0.00     0.292 S 
HETATM    9  O1  UNL     1       1.823   2.085   0.313  1.00  0.00    -0.198 OA
HETATM   10  O2  UNL     1       2.496   0.356   1.943  1.00  0.00    -0.198 OA
BRANCH   8  11
HETATM   11  N4  UNL     1       2.814  -0.181  -0.603  1.00  0.00    -0.322 N 
ATOM     12  H42 UNL     1       2.486  -0.912  -1.235  1.00  0.00     0.169 HD
ATOM     13  H41 UNL     1       3.752   0.218  -0.560  1.00  0.00     0.169 HD
ENDBRANCH   8  11
ENDBRANCH   6   8
BRANCH   7  14
HETATM   14  N6  UNL     1      -0.792   1.392  -1.091  1.00  0.00    -0.322 N 
ATOM     15  H62 UNL     1      -1.595   1.690  -1.645  1.00  0.00     0.178 HD
ATOM     16  H61 UNL     1       0.005   2.002  -1.273  1.00  0.00     0.178 HD
ENDBRANCH   7  14
BRANCH   1  17
HETATM   17  N1  UNL     1      -3.047  -0.401  -0.520  1.00  0.00    -0.231 N 
ATOM     18  H12 UNL     1      -3.844  -1.011  -0.338  1.00  0.00     0.174 HD
ATOM     19  H11 UNL     1      -3.353   0.294  -1.202  1.00  0.00     0.174 HD
ENDBRANCH   1  17
TORSDOF 4
