REMARK  3 active torsions:
REMARK  status: ('A' for Active; 'I' for Inactive)
REMARK    1  A    between atoms: N1_1  and  C1_5 
REMARK    2  A    between atoms: C3_10  and  N3_11 
REMARK    3  A    between atoms: N4_14  and  N5_15 
ROOT
HETATM    1  C1  UNL     1      -2.746  -0.512  -0.218  1.00  0.00     0.580 C 
HETATM    2  N2  UNL     1      -2.595   0.288   1.008  1.00  0.00    -0.018 N 
ATOM      3  H21 UNL     1      -2.972  -0.172   1.837  1.00  0.00     0.281 HD
ATOM      4  H22 UNL     1      -3.200   1.109   1.029  1.00  0.00     0.281 HD
HETATM    5  C2  UNL     1      -1.204   0.609   1.124  1.00  0.00     0.302 C 
HETATM    6  C3  UNL     1      -0.568  -0.274   0.074  1.00  0.00     0.451 C 
HETATM    7  N6  UNL     1      -1.535  -0.184  -0.992  1.00  0.00     0.012 N 
ATOM      8  H61 UNL     1      -1.554   0.691  -1.515  1.00  0.00     0.284 HD
ATOM      9  H62 UNL     1      -1.355  -0.756  -1.817  1.00  0.00     0.284 HD
ENDROOT
BRANCH   6  10
HETATM   10  N3  UNL     1       0.733   0.179  -0.225  1.00  0.00     0.137 N 
HETATM   11  C4  UNL     1       1.546   0.072   0.975  1.00  0.00     0.293 C 
HETATM   12  C5  UNL     1       2.690  -0.840   0.517  1.00  0.00     0.145 C 
HETATM   13  N4  UNL     1       2.830  -0.359  -0.866  1.00  0.00    -0.209 NA
HETATM   14  C6  UNL     1       1.425  -0.441  -1.294  1.00  0.00     0.388 C 
BRANCH  13  15
HETATM   15  N5  UNL     1       3.204   0.986  -0.747  1.00  0.00    -0.362 NA
ATOM     16  H52 UNL     1       4.178   1.043  -0.450  1.00  0.00     0.171 HD
ATOM     17  H51 UNL     1       3.301   1.320  -1.706  1.00  0.00     0.171 HD
ENDBRANCH  13  15
ENDBRANCH   6  10
BRANCH   1  18
HETATM   18  N1  UNL     1      -3.949  -0.145  -0.896  1.00  0.00    -0.026 N 
ATOM     19  H13 UNL     1      -4.766  -0.216  -0.290  1.00  0.00     0.278 HD
ATOM     20  H12 UNL     1      -3.991   0.856  -1.085  1.00  0.00     0.278 HD
ATOM     21  H11 UNL     1      -4.054  -0.699  -1.746  1.00  0.00     0.278 HD
ENDBRANCH   1  18
TORSDOF 3
