REMARK  1 active torsions:
REMARK  status: ('A' for Active; 'I' for Inactive)
REMARK    1  A    between atoms: C2_7  and  S1_8 
ROOT
HETATM    1  N1  UNL     1      -2.032  -2.060   0.108  1.00  0.00    -0.234 N 
ATOM      2  H11 UNL     1      -2.994  -1.752   0.251  1.00  0.00     0.174 HD
ATOM      3  H12 UNL     1      -1.799  -3.051   0.044  1.00  0.00     0.174 HD
HETATM    4  C1  UNL     1      -1.077  -1.189   0.004  1.00  0.00     0.680 A 
HETATM    5  N2  UNL     1       0.192  -1.595  -0.185  1.00  0.00    -0.165 N 
ATOM      6  H2  UNL     1       0.383  -2.595  -0.243  1.00  0.00     0.186 HD
HETATM    7  C2  UNL     1       1.218  -0.735  -0.300  1.00  0.00     0.235 A 
HETATM    8  N3  UNL     1       0.904   0.588  -0.213  1.00  0.00    -0.305 N 
ATOM      9  H3  UNL     1       1.643   1.286  -0.292  1.00  0.00     0.170 HD
HETATM   10  C3  UNL     1      -0.366   0.987  -0.024  1.00  0.00     0.208 A 
HETATM   11  N4  UNL     1      -0.651   2.374   0.061  1.00  0.00    -0.063 NA
HETATM   12  N5  UNL     1      -1.384   0.119   0.089  1.00  0.00    -0.163 N 
ATOM     13  H5  UNL     1      -2.343   0.435   0.232  1.00  0.00     0.187 HD
ENDROOT
BRANCH   7  14
HETATM   14  S1  UNL     1       2.840  -1.302  -0.543  1.00  0.00     0.321 S 
HETATM   15  O1  UNL     1       3.548  -1.524   0.958  1.00  0.00    -0.203 OA
HETATM   16  O2  UNL     1       3.699  -0.151  -1.390  1.00  0.00    -0.203 OA
ENDBRANCH   7  14
TORSDOF 1
