REMARK  4 active torsions:
REMARK  status: ('A' for Active; 'I' for Inactive)
REMARK    1  A    between atoms: N3_5  and  N4_6 
REMARK    2  A    between atoms: C2_9  and  C3_10 
REMARK    3  A    between atoms: C3_10  and  N6_14 
REMARK    4  A    between atoms: N6_14  and  N7_16 
ROOT
HETATM    1  C1  UNL     1       3.069   1.009  -1.310  1.00  0.00     0.180 C 
HETATM    2  N1  UNL     1       1.741   0.874  -0.783  1.00  0.00    -0.268 N 
HETATM    3  N2  UNL     1       0.899   1.762  -0.327  1.00  0.00    -0.218 N 
ATOM      4  H2  UNL     1       1.100   2.761  -0.284  1.00  0.00     0.210 HD
HETATM    5  N3  UNL     1      -0.221   1.236   0.065  1.00  0.00    -0.182 N 
HETATM    6  C2  UNL     1      -0.117  -0.107  -0.146  1.00  0.00     0.159 A 
HETATM    7  C4  UNL     1       1.109  -0.344  -0.678  1.00  0.00     0.166 A 
HETATM    8  C5  UNL     1       1.680  -1.590  -1.068  1.00  0.00     0.122 C 
HETATM    9  N8  UNL     1       2.174  -2.595  -1.397  1.00  0.00    -0.190 NA
ENDROOT
BRANCH   6  10
HETATM   10  C3  UNL     1      -1.168  -1.040   0.167  1.00  0.00     0.147 C 
HETATM   11  N5  UNL     1      -1.108  -2.278  -0.013  1.00  0.00    -0.382 N 
ATOM     12  H52 UNL     1      -0.246  -2.650  -0.412  1.00  0.00     0.157 HD
ATOM     13  H51 UNL     1      -1.853  -2.939   0.209  1.00  0.00     0.157 HD
BRANCH  10  14
HETATM   14  N6  UNL     1      -2.409  -0.504   0.741  1.00  0.00    -0.290 N 
ATOM     15  H6  UNL     1      -3.094  -0.018   0.163  1.00  0.00     0.188 HD
BRANCH  14  16
HETATM   16  N7  UNL     1      -2.609  -0.683   2.080  1.00  0.00    -0.344 N 
ATOM     17  H72 UNL     1      -1.914  -1.172   2.645  1.00  0.00     0.176 HD
ATOM     18  H71 UNL     1      -3.471  -0.311   2.479  1.00  0.00     0.176 HD
ENDBRANCH  14  16
ENDBRANCH  10  14
ENDBRANCH   6  10
BRANCH   5  19
HETATM   19  N4  UNL     1      -1.331   1.880   0.600  1.00  0.00    -0.322 N 
ATOM     20  H42 UNL     1      -1.409   2.885   0.758  1.00  0.00     0.179 HD
ATOM     21  H41 UNL     1      -2.211   1.467   0.908  1.00  0.00     0.179 HD
ENDBRANCH   5  19
TORSDOF 4
