REMARK  6 active torsions:
REMARK  status: ('A' for Active; 'I' for Inactive)
REMARK    1  A    between atoms: N1_1  and  C1_4 
REMARK    2  A    between atoms: C2_7  and  C3_8 
REMARK    3  A    between atoms: C3_8  and  C4_9 
REMARK    4  A    between atoms: C4_9  and  N3_11 
REMARK    5  A    between atoms: N3_11  and  C5_13 
REMARK    6  A    between atoms: C5_13  and  C6_14 
ROOT
HETATM    1  C3  UNL     1       1.833   0.185  -0.585  1.00  0.00     0.147 C 
ENDROOT
BRANCH   1   2
HETATM    2  C2  UNL     1       3.294   0.328  -0.453  1.00  0.00     0.111 A 
HETATM    3  N2  UNL     1       4.129  -0.668  -0.108  1.00  0.00    -0.309 N 
HETATM    4  C1  UNL     1       5.386  -0.188  -0.084  1.00  0.00     0.242 A 
ATOM      5  H2  UNL     1       3.855  -1.628   0.101  1.00  0.00     0.170 HD
HETATM    6  O1  UNL     1       5.290   1.074  -0.411  1.00  0.00    -0.200 OA
HETATM    7  N4  UNL     1       4.071   1.408  -0.635  1.00  0.00    -0.245 N 
ATOM      8  H4  UNL     1       3.747   2.337  -0.905  1.00  0.00     0.196 HD
BRANCH   4   9
HETATM    9  N1  UNL     1       6.433  -0.878   0.209  1.00  0.00    -0.364 N 
ATOM     10  H12 UNL     1       6.508  -1.863   0.464  1.00  0.00     0.159 HD
ATOM     11  H11 UNL     1       7.386  -0.514   0.227  1.00  0.00     0.159 HD
ENDBRANCH   4   9
ENDBRANCH   1   2
BRANCH   1  12
HETATM   12  C4  UNL     1       1.104   0.455   0.661  1.00  0.00     0.080 C 
HETATM   13  S1  UNL     1       1.900   0.864   2.012  1.00  0.00    -0.065 SA
BRANCH  12  14
HETATM   14  N3  UNL     1      -0.298   0.363   0.707  1.00  0.00    -0.380 N 
ATOM     15  H3  UNL     1      -0.803   0.550   1.573  1.00  0.00     0.160 HD
BRANCH  14  16
HETATM   16  C5  UNL     1      -1.009  -0.002  -0.496  1.00  0.00     0.158 C 
BRANCH  16  17
HETATM   17  C6  UNL     1      -2.452  -0.041  -0.236  1.00  0.00    -0.041 A 
HETATM   18  C7  UNL     1      -3.028  -1.224   0.186  1.00  0.00     0.009 A 
HETATM   19  C8  UNL     1      -4.364  -1.302   0.438  1.00  0.00     0.001 A 
HETATM   20  C9  UNL     1      -5.133  -0.166   0.262  1.00  0.00     0.000 A 
HETATM   21  C10 UNL     1      -4.594   1.038  -0.159  1.00  0.00     0.001 A 
HETATM   22  C11 UNL     1      -3.239   1.092  -0.408  1.00  0.00     0.009 A 
ENDBRANCH  16  17
ENDBRANCH  14  16
ENDBRANCH  12  14
ENDBRANCH   1  12
TORSDOF 6
