REMARK  6 active torsions:
REMARK  status: ('A' for Active; 'I' for Inactive)
REMARK    1  A    between atoms: C4_9  and  N4_10 
REMARK    2  A    between atoms: N4_10  and  C5_12 
REMARK    3  A    between atoms: C5_12  and  C6_13 
REMARK    4  A    between atoms: C6_13  and  C7_14 
REMARK    5  A    between atoms: C7_14  and  O1_15 
REMARK    6  A    between atoms: C7_14  and  C8_17 
ROOT
HETATM    1  N4  UNL     1       2.167  -1.164  -0.533  1.00  0.00    -0.375 N 
ATOM      2  H4  UNL     1       2.293  -1.837  -1.289  1.00  0.00     0.161 HD
ENDROOT
BRANCH   1   3
HETATM    3  C4  UNL     1       3.054  -0.295  -0.552  1.00  0.00     0.128 A 
HETATM    4  C1  UNL     1       3.151   0.737   0.331  1.00  0.00     0.105 A 
HETATM    5  N1  UNL     1       2.230   0.949   1.402  1.00  0.00    -0.097 NA
HETATM    6  C2  UNL     1       4.202   1.629   0.178  1.00  0.00     0.119 A 
HETATM    7  N2  UNL     1       5.125   1.529  -0.790  1.00  0.00    -0.360 N 
HETATM    8  C3  UNL     1       5.001   0.499  -1.645  1.00  0.00     0.181 A 
ATOM      9  H2  UNL     1       5.886   2.203  -0.874  1.00  0.00     0.166 HD
HETATM   10  N3  UNL     1       4.003  -0.382  -1.532  1.00  0.00    -0.337 N 
ATOM     11  H3  UNL     1       3.947  -1.149  -2.202  1.00  0.00     0.168 HD
ENDBRANCH   1   3
BRANCH   1  12
HETATM   12  C5  UNL     1       1.045  -1.474   0.237  1.00  0.00     0.124 C 
BRANCH  12  13
HETATM   13  C6  UNL     1      -0.255  -0.860  -0.304  1.00  0.00     0.056 C 
BRANCH  13  14
HETATM   14  C7  UNL     1      -1.391  -1.253   0.598  1.00  0.00     0.152 C 
BRANCH  14  15
HETATM   15  O1  UNL     1      -1.169  -0.790   1.909  1.00  0.00    -0.391 OA
ATOM     16  H1  UNL     1      -1.887  -1.038   2.479  1.00  0.00     0.210 HD
ENDBRANCH  14  15
BRANCH  14  17
HETATM   17  C8  UNL     1      -2.676  -0.624   0.171  1.00  0.00    -0.030 A 
HETATM   18  C9  UNL     1      -3.775  -0.602   1.022  1.00  0.00     0.010 A 
HETATM   19  C10 UNL     1      -4.978  -0.032   0.670  1.00  0.00     0.001 A 
HETATM   20  C11 UNL     1      -5.117   0.546  -0.574  1.00  0.00     0.000 A 
HETATM   21  C12 UNL     1      -4.056   0.548  -1.451  1.00  0.00     0.001 A 
HETATM   22  C13 UNL     1      -2.857  -0.036  -1.063  1.00  0.00     0.010 A 
ENDBRANCH  14  17
ENDBRANCH  13  14
ENDBRANCH  12  13
ENDBRANCH   1  12
TORSDOF 6
