REMARK  6 active torsions:
REMARK  status: ('A' for Active; 'I' for Inactive)
REMARK    1  A    between atoms: N1_1  and  C1_4 
REMARK    2  A    between atoms: N3_11  and  C6_12 
REMARK    3  A    between atoms: C6_12  and  C7_13 
REMARK    4  A    between atoms: C7_13  and  C8_14 
REMARK    5  A    between atoms: C8_14  and  C9_15 
REMARK    6  A    between atoms: C9_15  and  N4_16 
ROOT
HETATM    1  C1  UNL     1       2.487  -1.180   0.950  1.00  0.00     0.684 A 
HETATM    2  N2  UNL     1       1.252  -1.176   0.414  1.00  0.00    -0.175 N 
ATOM      3  H2  UNL     1       0.570  -1.863   0.736  1.00  0.00     0.186 HD
HETATM    4  C2  UNL     1       0.892  -0.295  -0.532  1.00  0.00     0.135 A 
HETATM    5  C3  UNL     1       1.851   0.614  -0.936  1.00  0.00     0.038 A 
HETATM    6  C4  UNL     1       1.224   1.386  -1.899  1.00  0.00     0.035 A 
HETATM    7  C5  UNL     1      -0.063   0.966  -2.076  1.00  0.00     0.093 A 
HETATM    8  N3  UNL     1      -0.257  -0.067  -1.231  1.00  0.00    -0.342 N 
HETATM    9  C10 UNL     1       3.109   0.590  -0.373  1.00  0.00     0.070 A 
HETATM   10  C11 UNL     1       4.229   1.366  -0.587  1.00  0.00     0.033 A 
HETATM   11  C12 UNL     1       5.257   0.946   0.233  1.00  0.00     0.020 A 
HETATM   12  C13 UNL     1       4.740  -0.107   0.957  1.00  0.00     0.115 A 
HETATM   13  N5  UNL     1       3.444  -0.308   0.579  1.00  0.00    -0.158 N 
ENDROOT
BRANCH   8  14
HETATM   14  C6  UNL     1      -1.494  -0.835  -1.075  1.00  0.00     0.130 C 
BRANCH  14  15
HETATM   15  C7  UNL     1      -2.307  -0.161  -0.016  1.00  0.00     0.022 C 
BRANCH  15  16
HETATM   16  C8  UNL     1      -3.612  -0.822   0.269  1.00  0.00     0.029 C 
BRANCH  16  17
HETATM   17  C9  UNL     1      -4.298   0.000   1.369  1.00  0.00     0.229 C 
BRANCH  17  18
HETATM   18  N4  UNL     1      -4.518   1.356   0.942  1.00  0.00    -0.079 N 
ATOM     19  H43 UNL     1      -3.653   1.796   0.629  1.00  0.00     0.274 HD
ATOM     20  H42 UNL     1      -5.038   1.394   0.065  1.00  0.00     0.274 HD
ATOM     21  H41 UNL     1      -4.974   1.902   1.673  1.00  0.00     0.274 HD
ENDBRANCH  17  18
ENDBRANCH  16  17
ENDBRANCH  15  16
ENDBRANCH  14  15
ENDBRANCH   8  14
BRANCH   1  22
HETATM   22  N1  UNL     1       2.829  -2.040   1.869  1.00  0.00    -0.234 N 
ATOM     23  H12 UNL     1       2.104  -2.700   2.150  1.00  0.00     0.174 HD
ATOM     24  H11 UNL     1       3.765  -2.043   2.275  1.00  0.00     0.174 HD
ENDBRANCH   1  22
TORSDOF 6
