REMARK  14 active torsions:
REMARK  status: ('A' for Active; 'I' for Inactive)
REMARK    1  A    between atoms: C2_2  and  C3_3 
REMARK    2  A    between atoms: C3_3  and  N1_4 
REMARK    3  A    between atoms: C3_3  and  C26_38 
REMARK       I    between atoms: N1_4  and  C4_6 
REMARK    4  A    between atoms: C4_6  and  C5_8 
REMARK       I    between atoms: N2_12  and  C9_13 
REMARK    5  A    between atoms: C9_13  and  C10_15 
REMARK    6  A    between atoms: C10_15  and  N3_16 
REMARK    7  A    between atoms: C10_15  and  C22_34 
REMARK       I    between atoms: N3_16  and  C11_18 
REMARK    8  A    between atoms: C11_18  and  C12_20 
REMARK    9  A    between atoms: C12_20  and  N4_21 
REMARK   10  A    between atoms: C12_20  and  C18_30 
REMARK       I    between atoms: N4_21  and  C13_23 
REMARK   11  A    between atoms: C13_23  and  O5_25 
REMARK   12  A    between atoms: O5_25  and  C14_26 
REMARK   13  A    between atoms: C18_30  and  C20_32 
REMARK   14  A    between atoms: C26_38  and  C27_40 
REMARK       I    between atoms: C27_40  and  N5_42 
ROOT
HETATM    1  C5  UNL     1      -2.135  -0.623   1.005  1.00  0.00     0.179 C 
HETATM    2  C6  UNL     1      -2.147  -1.272   2.362  1.00  0.00     0.037 C 
HETATM    3  C7  UNL     1      -1.727  -2.689   2.060  1.00  0.00     0.022 C 
HETATM    4  C8  UNL     1      -1.017  -2.599   0.700  1.00  0.00     0.127 C 
HETATM    5  N2  UNL     1      -0.959  -1.191   0.399  1.00  0.00    -0.337 N 
HETATM    6  C9  UNL     1       0.037  -0.487  -0.296  1.00  0.00     0.244 C 
HETATM    7  O2  UNL     1      -0.130   0.791  -0.395  1.00  0.00    -0.271 OA
ENDROOT
BRANCH   6   8
HETATM    8  C10 UNL     1       1.251  -1.028  -0.920  1.00  0.00     0.184 C 
BRANCH   8   9
HETATM    9  N3  UNL     1       2.307   0.003  -0.903  1.00  0.00    -0.345 N 
HETATM   10  C11 UNL     1       3.478  -0.138  -0.145  1.00  0.00     0.241 C 
HETATM   11  O3  UNL     1       3.551  -1.232   0.529  1.00  0.00    -0.271 OA
ATOM     12  H3  UNL     1       2.181   0.847  -1.462  1.00  0.00     0.163 HD
BRANCH  10  13
HETATM   13  C12 UNL     1       4.607   0.758  -0.008  1.00  0.00     0.182 C 
BRANCH  13  14
HETATM   14  N4  UNL     1       5.600   0.206   0.893  1.00  0.00    -0.323 N 
HETATM   15  C13 UNL     1       6.877  -0.217   0.433  1.00  0.00     0.362 C 
HETATM   16  O4  UNL     1       7.170  -0.119  -0.786  1.00  0.00    -0.238 OA
ATOM     17  H4  UNL     1       5.376   0.119   1.884  1.00  0.00     0.165 HD
BRANCH  15  18
HETATM   18  O5  UNL     1       7.823  -0.740   1.282  1.00  0.00    -0.294 OA
BRANCH  18  19
HETATM   19  C14 UNL     1       9.107  -1.184   0.920  1.00  0.00     0.061 C 
HETATM   20  C15 UNL     1       9.881  -1.701   2.117  1.00  0.00     0.046 C 
HETATM   21  C16 UNL     1       9.062  -2.286  -0.121  1.00  0.00     0.046 C 
HETATM   22  C17 UNL     1       9.886  -0.019   0.349  1.00  0.00     0.046 C 
ENDBRANCH  18  19
ENDBRANCH  15  18
ENDBRANCH  13  14
BRANCH  13  23
HETATM   23  C18 UNL     1       4.347   2.178   0.366  1.00  0.00     0.013 C 
HETATM   24  C19 UNL     1       3.483   2.950  -0.598  1.00  0.00     0.012 C 
BRANCH  23  25
HETATM   25  C20 UNL     1       3.837   2.349   1.776  1.00  0.00     0.002 C 
HETATM   26  C21 UNL     1       3.625   3.837   1.989  1.00  0.00     0.005 C 
ENDBRANCH  23  25
ENDBRANCH  13  23
ENDBRANCH  10  13
ENDBRANCH   8   9
BRANCH   8  27
HETATM   27  C22 UNL     1       1.019  -1.419  -2.330  1.00  0.00    -0.022 C 
HETATM   28  C23 UNL     1       2.328  -1.957  -2.967  1.00  0.00     0.017 C 
HETATM   29  C24 UNL     1       0.494  -0.287  -3.144  1.00  0.00     0.017 C 
HETATM   30  C25 UNL     1       0.062  -2.578  -2.490  1.00  0.00     0.017 C 
ENDBRANCH   8  27
ENDBRANCH   6   8
BRANCH   1  31
HETATM   31  C4  UNL     1      -3.402  -0.935   0.252  1.00  0.00     0.241 C 
HETATM   32  N1  UNL     1      -4.616  -0.502   0.769  1.00  0.00    -0.347 N 
ATOM     33  H1  UNL     1      -4.506   0.024   1.636  1.00  0.00     0.163 HD
HETATM   34  O1  UNL     1      -3.253  -1.576  -0.804  1.00  0.00    -0.271 OA
BRANCH  32  35
HETATM   35  C3  UNL     1      -5.967  -0.620   0.375  1.00  0.00     0.164 C 
BRANCH  35  36
HETATM   36  C2  UNL     1      -6.183  -1.439  -0.871  1.00  0.00     0.029 C 
HETATM   37  C1  UNL     1      -5.830  -2.884  -0.763  1.00  0.00     0.007 C 
ENDBRANCH  35  36
BRANCH  35  38
HETATM   38  C26 UNL     1      -6.698   0.646   0.297  1.00  0.00     0.239 C 
HETATM   39  O6  UNL     1      -6.025   1.722   0.384  1.00  0.00    -0.285 OA
BRANCH  38  40
HETATM   40  C27 UNL     1      -8.139   0.671   0.130  1.00  0.00     0.291 C 
HETATM   41  O7  UNL     1      -8.860  -0.335   0.108  1.00  0.00    -0.264 OA
HETATM   42  N5  UNL     1      -8.825   1.942  -0.027  1.00  0.00    -0.345 N 
HETATM   43  C28 UNL     1     -10.246   2.092  -0.170  1.00  0.00     0.126 C 
HETATM   44  C31 UNL     1      -8.168   3.198  -0.066  1.00  0.00     0.126 C 
HETATM   45  C29 UNL     1     -10.418   3.425  -0.825  1.00  0.00     0.021 C 
HETATM   46  C30 UNL     1      -9.230   4.232  -0.305  1.00  0.00     0.021 C 
ENDBRANCH  38  40
ENDBRANCH  35  38
ENDBRANCH  32  35
ENDBRANCH   1  31
TORSDOF 14
