REMARK  15 active torsions:
REMARK  status: ('A' for Active; 'I' for Inactive)
REMARK    1  A    between atoms: C2_2  and  O2_4 
REMARK    2  A    between atoms: O2_4  and  C3_5 
REMARK    3  A    between atoms: C3_5  and  C4_6 
REMARK    4  A    between atoms: C3_5  and  C8_10 
REMARK    5  A    between atoms: C4_6  and  C5_7 
REMARK    6  A    between atoms: C8_10  and  C9_12 
REMARK    7  A    between atoms: C9_12  and  N1_13 
REMARK       I    between atoms: N1_13  and  C10_15 
REMARK    8  A    between atoms: C10_15  and  C11_17 
REMARK    9  A    between atoms: C11_17  and  N2_18 
REMARK   10  A    between atoms: C11_17  and  C27_44 
REMARK   11  A    between atoms: N2_18  and  C12_20 
REMARK   12  A    between atoms: C14_22  and  C15_23 
REMARK   13  A    between atoms: C14_22  and  C21_32 
REMARK   14  A    between atoms: C15_23  and  C16_24 
REMARK   15  A    between atoms: C21_32  and  O7_33 
ROOT
HETATM    1  C12 UNL     1      -1.119   0.283   0.327  1.00  0.00     0.288 A 
HETATM    2  C13 UNL     1      -2.323   1.105   0.120  1.00  0.00     0.102 A 
HETATM    3  C14 UNL     1      -3.083  -0.291   0.235  1.00  0.00     0.195 A 
HETATM    4  N4  UNL     1      -1.856  -0.888   0.493  1.00  0.00    -0.038 N 
ATOM      5  H41 UNL     1      -1.748  -1.401   1.368  1.00  0.00     0.281 HD
ATOM      6  H42 UNL     1      -1.593  -1.701  -0.064  1.00  0.00     0.281 HD
ENDROOT
BRANCH   1   7
HETATM    7  N2  UNL     1      -0.084   0.247  -0.671  1.00  0.00    -0.361 N 
ATOM      8  H2  UNL     1       0.077  -0.598  -1.219  1.00  0.00     0.161 HD
BRANCH   7   9
HETATM    9  C11 UNL     1       0.699   1.387  -0.880  1.00  0.00     0.078 C 
BRANCH   9  10
HETATM   10  C10 UNL     1       2.136   1.154  -0.742  1.00  0.00     0.264 C 
HETATM   11  N1  UNL     1       2.836   0.953   0.517  1.00  0.00    -0.349 N 
ATOM     12  H1  UNL     1       2.286   0.910   1.375  1.00  0.00     0.163 HD
HETATM   13  O4  UNL     1       2.903   1.111  -1.753  1.00  0.00    -0.266 OA
BRANCH  11  14
HETATM   14  C9  UNL     1       4.247   0.814   0.613  1.00  0.00     0.208 C 
BRANCH  14  15
HETATM   15  C8  UNL     1       4.876  -0.243  -0.249  1.00  0.00     0.196 C 
HETATM   16  O3  UNL     1       4.174  -1.107  -0.687  1.00  0.00    -0.289 OA
BRANCH  15  17
HETATM   17  C3  UNL     1       6.352  -0.107  -0.498  1.00  0.00     0.104 C 
BRANCH  17  18
HETATM   18  O2  UNL     1       7.103   0.483   0.486  1.00  0.00    -0.280 OA
BRANCH  18  19
HETATM   19  C2  UNL     1       7.723   1.701   0.556  1.00  0.00     0.259 C 
HETATM   20  C1  UNL     1       8.502   2.151   1.743  1.00  0.00     0.126 C 
HETATM   21  O1  UNL     1       7.596   2.440  -0.475  1.00  0.00    -0.265 OA
ENDBRANCH  18  19
ENDBRANCH  17  18
BRANCH  17  22
HETATM   22  C4  UNL     1       6.981  -1.064  -1.422  1.00  0.00     0.073 C 
BRANCH  22  23
HETATM   23  C5  UNL     1       7.652  -2.271  -0.884  1.00  0.00    -0.017 C 
HETATM   24  C6  UNL     1       8.186  -3.030  -2.086  1.00  0.00     0.010 C 
HETATM   25  C7  UNL     1       8.879  -1.934  -0.057  1.00  0.00     0.010 C 
ENDBRANCH  22  23
ENDBRANCH  17  22
ENDBRANCH  15  17
ENDBRANCH  14  15
ENDBRANCH  11  14
ENDBRANCH   9  10
BRANCH   9  26
HETATM   26  C27 UNL     1       0.330   2.735  -0.404  1.00  0.00     0.033 C 
HETATM   27  C28 UNL     1       1.144   3.715  -1.324  1.00  0.00     0.016 C 
HETATM   28  C29 UNL     1       0.677   3.135   0.973  1.00  0.00     0.016 C 
ENDBRANCH   9  26
ENDBRANCH   7   9
ENDBRANCH   1   7
BRANCH   3  29
HETATM   29  C15 UNL     1      -4.108  -0.175   1.294  1.00  0.00     0.052 C 
BRANCH  29  30
HETATM   30  C16 UNL     1      -4.853  -1.404   1.738  1.00  0.00    -0.010 C 
HETATM   31  C17 UNL     1      -5.935  -0.824   2.694  1.00  0.00     0.019 C 
HETATM   32  C18 UNL     1      -6.897  -1.920   3.110  1.00  0.00     0.140 C 
HETATM   33  S1  UNL     1      -5.903  -2.892   4.276  1.00  0.00     0.144 S 
HETATM   34  O5  UNL     1      -6.678  -4.030   4.795  1.00  0.00    -0.228 OA
HETATM   35  O6  UNL     1      -5.486  -1.919   5.373  1.00  0.00    -0.228 OA
HETATM   36  C19 UNL     1      -4.447  -3.333   3.366  1.00  0.00     0.140 C 
HETATM   37  C20 UNL     1      -3.884  -2.133   2.686  1.00  0.00     0.019 C 
ENDBRANCH  29  30
ENDBRANCH   3  29
BRANCH   3  38
HETATM   38  C21 UNL     1      -3.603  -0.547  -1.163  1.00  0.00     0.151 C 
HETATM   39  N3  UNL     1      -4.770  -0.479  -1.801  1.00  0.00    -0.363 N 
HETATM   40  C22 UNL     1      -4.752  -0.659  -3.343  1.00  0.00     0.124 C 
HETATM   41  C26 UNL     1      -6.132  -0.325  -1.403  1.00  0.00     0.124 C 
HETATM   42  C23 UNL     1      -5.132   0.668  -3.888  1.00  0.00     0.020 C 
HETATM   43  C24 UNL     1      -5.651   1.630  -2.811  1.00  0.00     0.003 C 
HETATM   44  C25 UNL     1      -6.720   0.987  -1.960  1.00  0.00     0.020 C 
BRANCH  38  45
HETATM   45  O7  UNL     1      -2.575  -0.934  -1.937  1.00  0.00    -0.348 OA
ATOM     46  H7  UNL     1      -2.901  -1.095  -2.815  1.00  0.00     0.219 HD
ENDBRANCH  38  45
ENDBRANCH   3  38
TORSDOF 15
