REMARK  13 active torsions:
REMARK  status: ('A' for Active; 'I' for Inactive)
REMARK    1  A    between atoms: C2_2  and  C3_3 
REMARK    2  A    between atoms: C3_3  and  C4_4 
REMARK    3  A    between atoms: C4_4  and  N1_5 
REMARK    4  A    between atoms: C4_4  and  C11_22 
REMARK       I    between atoms: N1_5  and  C5_7 
REMARK    5  A    between atoms: C5_7  and  C6_9 
REMARK       I    between atoms: C6_9  and  N2_11 
REMARK    6  A    between atoms: C8_18  and  C9_19 
REMARK    7  A    between atoms: C11_22  and  C12_24 
REMARK    8  A    between atoms: C12_24  and  C13_26 
REMARK       I    between atoms: C13_26  and  N5_28 
REMARK    9  A    between atoms: C19_34  and  C20_35 
REMARK       I    between atoms: C20_35  and  N6_37 
REMARK   10  A    between atoms: N6_37  and  C21_39 
REMARK   11  A    between atoms: C21_39  and  C22_40 
REMARK   12  A    between atoms: C21_39  and  C26_44 
REMARK   13  A    between atoms: C22_40  and  C23_41 
ROOT
HETATM    1  C12 UNL     1       1.248  -0.801  -0.249  1.00  0.00     0.286 C 
HETATM    2  O4  UNL     1       1.724  -0.412   0.846  1.00  0.00    -0.278 OA
ENDROOT
BRANCH   1   3
HETATM    3  C11 UNL     1       2.185  -1.661  -1.016  1.00  0.00     0.227 C 
HETATM    4  O3  UNL     1       1.772  -2.049  -2.136  1.00  0.00    -0.286 OA
BRANCH   3   5
HETATM    5  C4  UNL     1       3.507  -2.034  -0.512  1.00  0.00     0.163 C 
BRANCH   5   6
HETATM    6  C3  UNL     1       3.393  -3.361   0.233  1.00  0.00     0.033 C 
BRANCH   6   7
HETATM    7  C2  UNL     1       4.707  -3.764   0.860  1.00  0.00    -0.002 C 
HETATM    8  C1  UNL     1       4.506  -5.078   1.587  1.00  0.00     0.005 C 
ENDBRANCH   6   7
ENDBRANCH   5   6
BRANCH   5   9
HETATM    9  N1  UNL     1       4.515  -2.213  -1.534  1.00  0.00    -0.341 N 
HETATM   10  C5  UNL     1       5.687  -1.402  -1.579  1.00  0.00     0.310 C 
HETATM   11  O1  UNL     1       5.788  -0.534  -0.695  1.00  0.00    -0.262 OA
ATOM     12  H1  UNL     1       4.384  -2.937  -2.240  1.00  0.00     0.163 HD
BRANCH  10  13
HETATM   13  C6  UNL     1       6.721  -1.551  -2.578  1.00  0.00     0.315 C 
HETATM   14  O2  UNL     1       6.492  -2.469  -3.467  1.00  0.00    -0.262 OA
HETATM   15  N2  UNL     1       7.903  -0.873  -2.725  1.00  0.00    -0.298 N 
HETATM   16  C7  UNL     1       8.694  -0.252  -1.937  1.00  0.00     0.168 A 
ATOM     17  H2  UNL     1       8.228  -0.861  -3.692  1.00  0.00     0.171 HD
HETATM   18  N3  UNL     1       9.837   0.363  -2.296  1.00  0.00    -0.279 N 
HETATM   19  S1  UNL     1       8.691   0.058  -0.240  1.00  0.00    -0.038 SA
HETATM   20  N4  UNL     1      10.526   0.936  -1.414  1.00  0.00    -0.296 N 
ATOM     21  H3  UNL     1      10.140   0.364  -3.270  1.00  0.00     0.189 HD
HETATM   22  C8  UNL     1      10.144   0.942  -0.145  1.00  0.00     0.069 A 
ATOM     23  H4  UNL     1      11.393   1.404  -1.679  1.00  0.00     0.187 HD
BRANCH  22  24
HETATM   24  C9  UNL     1      10.845   1.563   1.036  1.00  0.00     0.062 C 
HETATM   25  C10 UNL     1      10.359   2.976   1.155  1.00  0.00     0.012 C 
ENDBRANCH  22  24
ENDBRANCH  10  13
ENDBRANCH   5   9
ENDBRANCH   3   5
ENDBRANCH   1   3
BRANCH   1  26
HETATM   26  C13 UNL     1      -0.055  -0.467  -0.739  1.00  0.00     0.298 C 
HETATM   27  O5  UNL     1      -0.398  -1.073  -1.824  1.00  0.00    -0.264 OA
HETATM   28  N5  UNL     1      -1.007   0.430  -0.196  1.00  0.00    -0.332 N 
HETATM   29  C14 UNL     1      -0.696   1.219   0.954  1.00  0.00     0.127 C 
HETATM   30  C19 UNL     1      -2.319   0.462  -0.868  1.00  0.00     0.179 C 
HETATM   31  C15 UNL     1      -1.308   2.605   0.968  1.00  0.00     0.020 C 
HETATM   32  C16 UNL     1      -1.316   3.293  -0.351  1.00  0.00     0.002 C 
HETATM   33  C17 UNL     1      -2.537   2.968  -1.183  1.00  0.00     0.002 C 
HETATM   34  C18 UNL     1      -2.494   1.609  -1.776  1.00  0.00     0.035 C 
BRANCH  30  35
HETATM   35  C20 UNL     1      -3.411   0.172   0.067  1.00  0.00     0.241 C 
HETATM   36  O6  UNL     1      -3.158  -0.145   1.280  1.00  0.00    -0.271 OA
HETATM   37  N6  UNL     1      -4.785   0.214  -0.260  1.00  0.00    -0.354 N 
ATOM     38  H6  UNL     1      -5.037   0.457  -1.218  1.00  0.00     0.162 HD
BRANCH  37  39
HETATM   39  C21 UNL     1      -5.857  -0.062   0.666  1.00  0.00     0.092 C 
BRANCH  39  40
HETATM   40  C22 UNL     1      -6.838   1.064   0.766  1.00  0.00     0.029 C 
BRANCH  40  41
HETATM   41  C23 UNL     1      -6.220   2.352   1.227  1.00  0.00    -0.021 C 
HETATM   42  C24 UNL     1      -5.582   2.302   2.571  1.00  0.00     0.009 C 
HETATM   43  C25 UNL     1      -7.336   3.392   1.260  1.00  0.00     0.009 C 
ENDBRANCH  40  41
ENDBRANCH  39  40
BRANCH  39  44
HETATM   44  C26 UNL     1      -6.479  -1.378   0.336  1.00  0.00    -0.031 C 
HETATM   45  C27 UNL     1      -5.388  -2.452   0.468  1.00  0.00     0.016 C 
HETATM   46  C28 UNL     1      -6.948  -1.364  -1.100  1.00  0.00     0.016 C 
HETATM   47  C29 UNL     1      -7.587  -1.784   1.247  1.00  0.00     0.016 C 
ENDBRANCH  39  44
ENDBRANCH  37  39
ENDBRANCH  30  35
ENDBRANCH   1  26
TORSDOF 13
