REMARK  16 active torsions:
REMARK  status: ('A' for Active; 'I' for Inactive)
REMARK    1  A    between atoms: C2_2  and  N1_3 
REMARK    2  A    between atoms: C3_4  and  C4_5 
REMARK       I    between atoms: C4_5  and  N2_7 
REMARK    3  A    between atoms: N2_7  and  C5_8 
REMARK    4  A    between atoms: N2_7  and  C9_12 
REMARK    5  A    between atoms: C5_8  and  C6_9 
REMARK    6  A    between atoms: C9_12  and  C10_13 
REMARK    7  A    between atoms: C10_13  and  C11_14 
REMARK    8  A    between atoms: C10_13  and  C14_17 
REMARK    9  A    between atoms: C14_17  and  O2_18 
REMARK   10  A    between atoms: C14_17  and  N3_20 
REMARK       I    between atoms: N3_20  and  C15_22 
REMARK   11  A    between atoms: C15_22  and  C16_24 
REMARK   12  A    between atoms: C16_24  and  C17_25 
REMARK   13  A    between atoms: C16_24  and  N4_29 
REMARK   14  A    between atoms: C17_25  and  C18_26 
REMARK       I    between atoms: N4_29  and  C21_31 
REMARK   15  A    between atoms: C21_31  and  O5_33 
REMARK   16  A    between atoms: O5_33  and  C22_34 
ROOT
HETATM    1  C10 UNL     1      -1.363  -1.442   1.277  1.00  0.00    -0.013 C 
ENDROOT
BRANCH   1   2
HETATM    2  C9  UNL     1      -1.610  -0.484   0.178  1.00  0.00     0.101 C 
BRANCH   2   3
HETATM    3  N2  UNL     1      -2.051   0.837   0.296  1.00  0.00    -0.325 N 
HETATM    4  C4  UNL     1      -3.437   1.220   0.207  1.00  0.00     0.252 C 
HETATM    5  O1  UNL     1      -3.681   2.422   0.488  1.00  0.00    -0.270 OA
BRANCH   4   6
HETATM    6  C3  UNL     1      -4.573   0.391  -0.172  1.00  0.00     0.227 C 
HETATM    7  N1  UNL     1      -5.779   1.155  -0.114  1.00  0.00    -0.188 NA
HETATM    8  S2  UNL     1      -6.347   1.786  -1.578  1.00  0.00     0.213 S 
HETATM    9  C27 UNL     1      -6.928   0.518  -2.681  1.00  0.00     0.168 C 
HETATM   10  O6  UNL     1      -7.507   2.716  -1.267  1.00  0.00    -0.211 OA
HETATM   11  O7  UNL     1      -5.281   2.596  -2.246  1.00  0.00    -0.211 OA
HETATM   12  C26 UNL     1      -6.122  -0.742  -2.400  1.00  0.00     0.092 C 
HETATM   13  S1  UNL     1      -4.465  -0.330  -1.816  1.00  0.00    -0.138 SA
BRANCH   7  14
HETATM   14  C2  UNL     1      -6.789   0.531   0.704  1.00  0.00     0.104 C 
HETATM   15  C1  UNL     1      -7.378   1.560   1.669  1.00  0.00     0.022 C 
ENDBRANCH   7  14
ENDBRANCH   4   6
BRANCH   3  16
HETATM   16  C5  UNL     1      -1.094   1.905   0.556  1.00  0.00     0.135 C 
BRANCH  16  17
HETATM   17  C6  UNL     1      -0.528   2.616  -0.600  1.00  0.00    -0.004 C 
HETATM   18  C7  UNL     1      -1.538   3.328  -1.499  1.00  0.00     0.011 C 
HETATM   19  C8  UNL     1       0.491   1.908  -1.429  1.00  0.00     0.011 C 
ENDBRANCH  16  17
ENDBRANCH   3  16
ENDBRANCH   2   3
ENDBRANCH   1   2
BRANCH   1  20
HETATM   20  C11 UNL     1      -2.478  -1.764   2.197  1.00  0.00     0.012 C 
HETATM   21  C12 UNL     1      -2.169  -2.847   3.219  1.00  0.00     0.014 C 
HETATM   22  C13 UNL     1      -2.863  -0.563   3.094  1.00  0.00     0.014 C 
ENDBRANCH   1  20
BRANCH   1  23
HETATM   23  C14 UNL     1      -0.007  -1.285   1.915  1.00  0.00     0.252 C 
BRANCH  23  24
HETATM   24  O2  UNL     1       0.167  -2.223   2.923  1.00  0.00    -0.373 OA
ATOM     25  H2  UNL     1       1.022  -2.124   3.325  1.00  0.00     0.212 HD
ENDBRANCH  23  24
BRANCH  23  26
HETATM   26  N3  UNL     1       1.025  -1.679   0.919  1.00  0.00    -0.326 N 
HETATM   27  C15 UNL     1       2.197  -0.962   0.702  1.00  0.00     0.266 C 
HETATM   28  O3  UNL     1       2.334   0.088   1.451  1.00  0.00    -0.266 OA
ATOM     29  H3  UNL     1       0.865  -2.520   0.365  1.00  0.00     0.165 HD
BRANCH  27  30
HETATM   30  C16 UNL     1       3.304  -1.190  -0.219  1.00  0.00     0.082 C 
BRANCH  30  31
HETATM   31  C17 UNL     1       3.265  -2.353  -1.127  1.00  0.00     0.067 C 
BRANCH  31  32
HETATM   32  C18 UNL     1       2.183  -2.407  -2.147  1.00  0.00    -0.017 C 
HETATM   33  C19 UNL     1       2.328  -3.708  -2.951  1.00  0.00     0.010 C 
HETATM   34  C20 UNL     1       2.333  -1.301  -3.196  1.00  0.00     0.010 C 
ENDBRANCH  31  32
ENDBRANCH  30  31
BRANCH  30  35
HETATM   35  N4  UNL     1       4.624  -1.019   0.370  1.00  0.00    -0.301 N 
HETATM   36  C21 UNL     1       5.523   0.015   0.066  1.00  0.00     0.365 C 
HETATM   37  O4  UNL     1       5.216   0.887  -0.767  1.00  0.00    -0.238 OA
ATOM     38  H4  UNL     1       4.920  -1.708   1.061  1.00  0.00     0.171 HD
BRANCH  36  39
HETATM   39  O5  UNL     1       6.748   0.078   0.678  1.00  0.00    -0.294 OA
BRANCH  39  40
HETATM   40  C22 UNL     1       7.721   1.063   0.444  1.00  0.00     0.061 C 
HETATM   41  C23 UNL     1       8.963   0.855   1.254  1.00  0.00     0.046 C 
HETATM   42  C24 UNL     1       8.085   1.187  -1.012  1.00  0.00     0.046 C 
HETATM   43  C25 UNL     1       7.139   2.410   0.867  1.00  0.00     0.046 C 
ENDBRANCH  39  40
ENDBRANCH  36  39
ENDBRANCH  30  35
ENDBRANCH  27  30
ENDBRANCH  23  26
ENDBRANCH   1  23
TORSDOF 16
