REMARK  16 active torsions:
REMARK  status: ('A' for Active; 'I' for Inactive)
REMARK    1  A    between atoms: C2_2  and  C3_3 
REMARK    2  A    between atoms: C3_3  and  C4_4 
REMARK    3  A    between atoms: C3_3  and  C5_7 
REMARK    4  A    between atoms: C5_7  and  O3_8 
REMARK    5  A    between atoms: C5_7  and  C11_17 
REMARK    6  A    between atoms: O3_8  and  C6_9 
REMARK       I    between atoms: C6_9  and  N1_11 
REMARK    7  A    between atoms: C11_17  and  O6_18 
REMARK    8  A    between atoms: C11_17  and  C12_20 
REMARK    9  A    between atoms: C12_20  and  C13_21 
REMARK   10  A    between atoms: C12_20  and  C20_28 
REMARK   11  A    between atoms: C13_21  and  C14_22 
REMARK   12  A    between atoms: C20_28  and  O7_29 
REMARK   13  A    between atoms: C20_28  and  C21_31 
REMARK   14  A    between atoms: C21_31  and  C22_32 
REMARK   15  A    between atoms: C21_31  and  N2_35 
REMARK       I    between atoms: N3_38  and  C26_39 
REMARK   16  A    between atoms: C26_39  and  C27_41 
ROOT
HETATM    1  C12 UNL     1      -0.229   0.407  -0.238  1.00  0.00     0.049 C 
ENDROOT
BRANCH   1   2
HETATM    2  C11 UNL     1      -1.302  -0.474   0.200  1.00  0.00     0.155 C 
BRANCH   2   3
HETATM    3  C5  UNL     1      -2.742  -0.231  -0.037  1.00  0.00     0.177 C 
BRANCH   3   4
HETATM    4  C3  UNL     1      -3.280  -0.195  -1.398  1.00  0.00     0.118 C 
BRANCH   4   5
HETATM    5  C2  UNL     1      -4.799   0.051  -1.307  1.00  0.00     0.013 C 
HETATM    6  C1  UNL     1      -5.140   1.373  -0.717  1.00  0.00     0.006 C 
ENDBRANCH   4   5
BRANCH   4   7
HETATM    7  C4  UNL     1      -3.244  -1.564  -2.053  1.00  0.00     0.179 C 
HETATM    8  O1  UNL     1      -2.727  -2.540  -1.492  1.00  0.00    -0.648 OA
HETATM    9  O2  UNL     1      -3.804  -1.712  -3.300  1.00  0.00    -0.648 OA
ENDBRANCH   4   7
ENDBRANCH   3   4
BRANCH   3  10
HETATM   10  O3  UNL     1      -3.448  -1.358   0.588  1.00  0.00    -0.295 OA
BRANCH  10  11
HETATM   11  C6  UNL     1      -4.156  -1.260   1.744  1.00  0.00     0.363 C 
HETATM   12  O4  UNL     1      -4.204  -0.136   2.333  1.00  0.00    -0.238 OA
HETATM   13  N1  UNL     1      -4.831  -2.390   2.286  1.00  0.00    -0.324 N 
HETATM   14  C7  UNL     1      -4.773  -3.644   1.602  1.00  0.00     0.154 C 
HETATM   15  C10 UNL     1      -5.556  -2.268   3.520  1.00  0.00     0.154 C 
HETATM   16  C8  UNL     1      -6.173  -4.266   1.649  1.00  0.00     0.187 C 
HETATM   17  O5  UNL     1      -6.604  -4.293   2.958  1.00  0.00    -0.388 OA
HETATM   18  C9  UNL     1      -6.875  -2.991   3.377  1.00  0.00     0.187 C 
ENDBRANCH  10  11
ENDBRANCH   3  10
ENDBRANCH   2   3
BRANCH   2  19
HETATM   19  O6  UNL     1      -1.169  -0.572   1.633  1.00  0.00    -0.392 OA
ATOM     20  H6  UNL     1      -0.244  -0.728   1.785  1.00  0.00     0.210 HD
ENDBRANCH   2  19
ENDBRANCH   1   2
BRANCH   1  21
HETATM   21  C13 UNL     1      -0.084   1.792   0.248  1.00  0.00     0.014 C 
BRANCH  21  22
HETATM   22  C14 UNL     1      -1.101   2.829  -0.035  1.00  0.00    -0.014 C 
HETATM   23  C15 UNL     1      -1.198   3.072  -1.523  1.00  0.00     0.005 C 
HETATM   24  C16 UNL     1      -2.266   4.102  -1.848  1.00  0.00     0.000 C 
HETATM   25  C17 UNL     1      -2.612   4.923  -0.631  1.00  0.00     0.000 C 
HETATM   26  C18 UNL     1      -1.329   5.318   0.050  1.00  0.00     0.000 C 
HETATM   27  C19 UNL     1      -0.520   4.145   0.529  1.00  0.00     0.005 C 
ENDBRANCH  21  22
ENDBRANCH   1  21
BRANCH   1  28
HETATM   28  C20 UNL     1       1.141  -0.212  -0.428  1.00  0.00     0.165 C 
BRANCH  28  29
HETATM   29  O7  UNL     1       0.966  -1.256  -1.397  1.00  0.00    -0.392 OA
ATOM     30  H7  UNL     1       1.825  -1.644  -1.516  1.00  0.00     0.210 HD
ENDBRANCH  28  29
BRANCH  28  31
HETATM   31  C21 UNL     1       2.011  -0.588   0.652  1.00  0.00     0.320 C 
BRANCH  31  32
HETATM   32  C22 UNL     1       2.287   0.235   1.814  1.00  0.00     0.159 C 
HETATM   33  C23 UNL     1       3.243   1.353   1.976  1.00  0.00     0.093 C 
HETATM   34  O8  UNL     1       1.654   0.011   2.863  1.00  0.00    -0.296 OA
ENDBRANCH  31  32
BRANCH  31  35
HETATM   35  N2  UNL     1       3.322  -0.999   0.101  1.00  0.00     0.106 N 
HETATM   36  C24 UNL     1       3.400  -2.276  -0.472  1.00  0.00     0.293 C 
HETATM   37  C25 UNL     1       4.579  -2.321  -1.456  1.00  0.00     0.156 C 
HETATM   38  N3  UNL     1       5.648  -1.454  -1.057  1.00  0.00    -0.348 N 
HETATM   39  C26 UNL     1       6.938  -1.917  -0.757  1.00  0.00     0.223 C 
HETATM   40  C30 UNL     1       5.343  -0.044  -0.964  1.00  0.00     0.156 C 
HETATM   41  O9  UNL     1       7.151  -3.150  -0.847  1.00  0.00    -0.273 OA
HETATM   42  C31 UNL     1       3.835   0.045  -0.775  1.00  0.00     0.293 C 
BRANCH  39  43
HETATM   43  C27 UNL     1       8.047  -1.029  -0.346  1.00  0.00     0.070 C 
HETATM   44  C28 UNL     1       9.265  -1.876  -0.079  1.00  0.00     0.019 C 
HETATM   45  C29 UNL     1       8.356   0.038  -1.374  1.00  0.00     0.019 C 
ENDBRANCH  39  43
ENDBRANCH  31  35
ENDBRANCH  28  31
ENDBRANCH   1  28
TORSDOF 16
