REMARK  17 active torsions:
REMARK  status: ('A' for Active; 'I' for Inactive)
REMARK    1  A    between atoms: O1_2  and  C2_3 
REMARK    2  A    between atoms: C2_3  and  C3_4 
REMARK    3  A    between atoms: C3_4  and  N1_5 
REMARK       I    between atoms: N1_5  and  C5_7 
REMARK    4  A    between atoms: C5_7  and  C6_9 
REMARK    5  A    between atoms: C6_9  and  C7_10 
REMARK    6  A    between atoms: C7_10  and  C8_11 
REMARK    7  A    between atoms: C8_11  and  O3_12 
REMARK    8  A    between atoms: C8_11  and  C9_14 
REMARK    9  A    between atoms: C10_15  and  C11_16 
REMARK   10  A    between atoms: N2_24  and  C18_25 
REMARK   11  A    between atoms: C18_25  and  O4_26 
REMARK   12  A    between atoms: C18_25  and  C19_28 
REMARK   13  A    between atoms: C19_28  and  N3_29 
REMARK   14  A    between atoms: C19_28  and  C26_42 
REMARK       I    between atoms: N3_29  and  C20_31 
REMARK       I    between atoms: C20_31  and  N4_33 
REMARK       I    between atoms: N4_33  and  C21_35 
REMARK   15  A    between atoms: C21_35  and  O7_37 
REMARK   16  A    between atoms: O7_37  and  C22_38 
REMARK   17  A    between atoms: C22_38  and  C23_39 
ROOT
HETATM    1  C11 UNL     1       0.611  -1.661  -1.331  1.00  0.00     0.123 C 
HETATM    2  C12 UNL     1       1.813  -2.513  -1.261  1.00  0.00     0.082 C 
HETATM    3  S1  UNL     1       1.853  -4.016  -2.262  1.00  0.00    -0.152 SA
HETATM    4  C13 UNL     1       1.329  -4.585  -0.590  1.00  0.00     0.007 C 
HETATM    5  C14 UNL     1      -0.097  -4.987  -0.675  1.00  0.00     0.027 C 
HETATM    6  C15 UNL     1       2.157  -5.805  -0.144  1.00  0.00     0.027 C 
HETATM    7  C16 UNL     1       1.743  -3.313   0.010  1.00  0.00     0.037 C 
HETATM    8  C17 UNL     1       0.781  -2.483   0.817  1.00  0.00     0.133 C 
HETATM    9  N2  UNL     1      -0.127  -1.813  -0.044  1.00  0.00    -0.354 N 
ENDROOT
BRANCH   9  10
HETATM   10  C18 UNL     1      -1.409  -1.328   0.165  1.00  0.00     0.138 C 
BRANCH  10  11
HETATM   11  O4  UNL     1      -1.880  -0.750  -0.945  1.00  0.00    -0.348 OA
ATOM     12  H4  UNL     1      -2.758  -0.418  -0.802  1.00  0.00     0.219 HD
ENDBRANCH  10  11
BRANCH  10  13
HETATM   13  C19 UNL     1      -2.341  -1.280   1.262  1.00  0.00     0.168 C 
BRANCH  13  14
HETATM   14  N3  UNL     1      -3.405  -0.239   0.957  1.00  0.00    -0.330 N 
HETATM   15  C20 UNL     1      -3.498   0.954   1.703  1.00  0.00     0.325 C 
HETATM   16  O5  UNL     1      -2.604   1.069   2.623  1.00  0.00    -0.247 OA
HETATM   17  N4  UNL     1      -4.430   1.981   1.547  1.00  0.00    -0.255 N 
HETATM   18  C21 UNL     1      -5.496   2.055   0.631  1.00  0.00     0.368 C 
ATOM     19  H4  UNL     1      -4.326   2.778   2.175  1.00  0.00     0.175 HD
HETATM   20  O6  UNL     1      -5.731   1.166  -0.199  1.00  0.00    -0.238 OA
ATOM     21  H3  UNL     1      -4.065  -0.406   0.198  1.00  0.00     0.165 HD
BRANCH  18  22
HETATM   22  O7  UNL     1      -6.344   3.156   0.628  1.00  0.00    -0.303 OA
BRANCH  22  23
HETATM   23  C22 UNL     1      -7.423   3.273  -0.259  1.00  0.00     0.184 C 
BRANCH  23  24
HETATM   24  C23 UNL     1      -8.149   4.575  -0.033  1.00  0.00     0.002 C 
HETATM   25  C24 UNL     1      -7.180   5.729  -0.270  1.00  0.00     0.011 C 
HETATM   26  C25 UNL     1      -8.573   4.638   1.427  1.00  0.00     0.011 C 
ENDBRANCH  23  24
ENDBRANCH  22  23
ENDBRANCH  18  22
ENDBRANCH  13  14
BRANCH  13  27
HETATM   27  C26 UNL     1      -3.104  -2.479   1.692  1.00  0.00    -0.023 C 
HETATM   28  C27 UNL     1      -2.427  -3.678   2.188  1.00  0.00     0.017 C 
HETATM   29  C28 UNL     1      -4.156  -2.079   2.762  1.00  0.00     0.017 C 
HETATM   30  C29 UNL     1      -4.008  -2.973   0.519  1.00  0.00     0.017 C 
ENDBRANCH  13  27
ENDBRANCH  10  13
ENDBRANCH   9  10
BRANCH   1  31
HETATM   31  C10 UNL     1       0.910  -0.223  -1.546  1.00  0.00    -0.002 C 
HETATM   32  C9  UNL     1       2.042   0.264  -2.061  1.00  0.00     0.003 C 
BRANCH  32  33
HETATM   33  C8  UNL     1       2.258   1.707  -2.242  1.00  0.00     0.141 C 
BRANCH  33  34
HETATM   34  C7  UNL     1       2.981   2.411  -1.174  1.00  0.00     0.045 C 
BRANCH  34  35
HETATM   35  C6  UNL     1       4.399   2.124  -0.909  1.00  0.00     0.106 C 
BRANCH  35  36
HETATM   36  C5  UNL     1       4.823   0.823  -0.443  1.00  0.00     0.219 C 
HETATM   37  N1  UNL     1       6.154   0.356  -0.661  1.00  0.00    -0.354 N 
HETATM   38  C4  UNL     1       6.491  -0.989  -0.181  1.00  0.00     0.152 C 
HETATM   39  O2  UNL     1       4.048   0.051   0.173  1.00  0.00    -0.273 OA
BRANCH  37  40
HETATM   40  C3  UNL     1       7.196   1.094  -1.319  1.00  0.00     0.151 C 
BRANCH  40  41
HETATM   41  C2  UNL     1       8.000   1.931  -0.332  1.00  0.00     0.186 C 
BRANCH  41  42
HETATM   42  O1  UNL     1       8.980   2.612  -1.044  1.00  0.00    -0.394 OA
HETATM   43  C1  UNL     1       9.715   3.375  -0.113  1.00  0.00     0.201 C 
ENDBRANCH  41  42
ENDBRANCH  40  41
ENDBRANCH  37  40
ENDBRANCH  35  36
ENDBRANCH  34  35
ENDBRANCH  33  34
BRANCH  33  44
HETATM   44  O3  UNL     1       2.942   1.970  -3.454  1.00  0.00    -0.392 OA
ATOM     45  H3  UNL     1       2.475   1.515  -4.145  1.00  0.00     0.210 HD
ENDBRANCH  33  44
ENDBRANCH  32  33
ENDBRANCH   1  31
TORSDOF 17
