REMARK  16 active torsions:
REMARK  status: ('A' for Active; 'I' for Inactive)
REMARK    1  A    between atoms: C2_2  and  C3_3 
REMARK    2  A    between atoms: C3_3  and  C4_4 
REMARK    3  A    between atoms: C4_4  and  N1_5 
REMARK    4  A    between atoms: C4_4  and  C25_35 
REMARK       I    between atoms: N1_5  and  C5_7 
REMARK    5  A    between atoms: C5_7  and  C6_9 
REMARK    6  A    between atoms: N2_13  and  C10_14 
REMARK    7  A    between atoms: C10_14  and  O2_15 
REMARK    8  A    between atoms: C10_14  and  C11_17 
REMARK    9  A    between atoms: C11_17  and  N3_18 
REMARK   10  A    between atoms: C11_17  and  C19_29 
REMARK       I    between atoms: N3_18  and  C12_20 
REMARK   11  A    between atoms: C12_20  and  O4_22 
REMARK   12  A    between atoms: O4_22  and  C13_23 
REMARK   13  A    between atoms: C13_23  and  C15_25 
REMARK   14  A    between atoms: C25_35  and  C26_37 
REMARK       I    between atoms: C26_37  and  N4_39 
REMARK   15  A    between atoms: N4_39  and  C27_41 
REMARK   16  A    between atoms: C27_41  and  C28_42 
ROOT
HETATM    1  C6  UNL     1       0.870  -3.211   1.200  1.00  0.00     0.183 C 
HETATM    2  C7  UNL     1       1.538  -4.519   0.993  1.00  0.00     0.032 A 
HETATM    3  C8  UNL     1       1.270  -4.922  -0.387  1.00  0.00     0.019 A 
HETATM    4  C9  UNL     1       0.444  -3.795  -0.977  1.00  0.00     0.132 C 
HETATM    5  N2  UNL     1      -0.095  -3.030   0.084  1.00  0.00    -0.346 N 
HETATM    6  C22 UNL     1       0.832  -5.767   0.719  1.00  0.00    -0.036 A 
HETATM    7  C23 UNL     1       1.653  -7.057   0.888  1.00  0.00     0.016 C 
HETATM    8  C24 UNL     1      -0.597  -5.953   1.136  1.00  0.00     0.016 C 
ENDROOT
BRANCH   1   9
HETATM    9  C5  UNL     1       1.879  -2.144   1.245  1.00  0.00     0.241 C 
HETATM   10  N1  UNL     1       1.893  -0.969   0.451  1.00  0.00    -0.347 N 
ATOM     11  H1  UNL     1       1.145  -0.810  -0.224  1.00  0.00     0.163 HD
HETATM   12  O1  UNL     1       2.825  -2.296   2.074  1.00  0.00    -0.271 OA
BRANCH  10  13
HETATM   13  C4  UNL     1       2.964   0.019   0.585  1.00  0.00     0.164 C 
BRANCH  13  14
HETATM   14  C3  UNL     1       3.577   0.243  -0.774  1.00  0.00     0.033 C 
BRANCH  14  15
HETATM   15  C2  UNL     1       4.148  -1.074  -1.314  1.00  0.00    -0.002 C 
HETATM   16  C1  UNL     1       4.763  -0.870  -2.674  1.00  0.00     0.005 C 
ENDBRANCH  14  15
ENDBRANCH  13  14
BRANCH  13  17
HETATM   17  C25 UNL     1       2.460   1.305   1.105  1.00  0.00     0.238 C 
HETATM   18  O5  UNL     1       1.227   1.445   1.293  1.00  0.00    -0.285 OA
BRANCH  17  19
HETATM   19  C26 UNL     1       3.373   2.385   1.396  1.00  0.00     0.289 C 
HETATM   20  O6  UNL     1       4.611   2.269   1.215  1.00  0.00    -0.264 OA
HETATM   21  N4  UNL     1       2.943   3.649   1.905  1.00  0.00    -0.349 N 
ATOM     22  H4  UNL     1       1.948   3.804   2.068  1.00  0.00     0.163 HD
BRANCH  21  23
HETATM   23  C27 UNL     1       3.879   4.717   2.196  1.00  0.00     0.181 C 
BRANCH  23  24
HETATM   24  C28 UNL     1       4.377   5.406   1.011  1.00  0.00     0.042 A 
HETATM   25  C29 UNL     1       3.786   5.203  -0.209  1.00  0.00     0.114 A 
HETATM   26  N5  UNL     1       4.262   5.846  -1.302  1.00  0.00    -0.372 N 
HETATM   27  C30 UNL     1       5.309   6.686  -1.229  1.00  0.00     0.104 A 
ATOM     28  H5  UNL     1       3.814   5.689  -2.205  1.00  0.00     0.164 HD
HETATM   29  C31 UNL     1       5.895   6.878   0.014  1.00  0.00     0.105 A 
HETATM   30  N6  UNL     1       5.424   6.239   1.108  1.00  0.00    -0.365 N 
ATOM     31  H6  UNL     1       5.868   6.391   2.014  1.00  0.00     0.165 HD
ENDBRANCH  23  24
ENDBRANCH  21  23
ENDBRANCH  17  19
ENDBRANCH  13  17
ENDBRANCH  10  13
ENDBRANCH   1   9
BRANCH   5  32
HETATM   32  C10 UNL     1      -1.192  -2.198   0.188  1.00  0.00     0.162 C 
BRANCH  32  33
HETATM   33  O2  UNL     1      -1.220  -1.503   1.320  1.00  0.00    -0.345 OA
ATOM     34  H2  UNL     1      -1.975  -0.931   1.392  1.00  0.00     0.219 HD
ENDBRANCH  32  33
BRANCH  32  35
HETATM   35  C11 UNL     1      -2.337  -1.895  -0.660  1.00  0.00     0.068 C 
BRANCH  35  36
HETATM   36  N3  UNL     1      -2.600  -0.483  -0.818  1.00  0.00    -0.302 N 
HETATM   37  C12 UNL     1      -3.564   0.191  -0.056  1.00  0.00     0.365 C 
HETATM   38  O3  UNL     1      -4.269  -0.364   0.826  1.00  0.00    -0.238 OA
ATOM     39  H3  UNL     1      -2.065   0.042  -1.509  1.00  0.00     0.171 HD
BRANCH  37  40
HETATM   40  O4  UNL     1      -3.829   1.552  -0.210  1.00  0.00    -0.298 OA
BRANCH  40  41
HETATM   41  C13 UNL     1      -4.780   2.257   0.537  1.00  0.00     0.137 C 
HETATM   42  C14 UNL     1      -5.949   2.730  -0.298  1.00  0.00     0.041 C 
BRANCH  41  43
HETATM   43  C15 UNL     1      -4.177   3.376   1.347  1.00  0.00    -0.025 C 
HETATM   44  C16 UNL     1      -3.153   2.924   2.332  1.00  0.00     0.017 C 
HETATM   45  C17 UNL     1      -5.298   4.040   2.160  1.00  0.00     0.017 C 
HETATM   46  C18 UNL     1      -3.622   4.473   0.446  1.00  0.00     0.017 C 
ENDBRANCH  41  43
ENDBRANCH  40  41
ENDBRANCH  37  40
ENDBRANCH  35  36
BRANCH  35  47
HETATM   47  C19 UNL     1      -2.694  -2.753  -1.804  1.00  0.00     0.032 C 
HETATM   48  C20 UNL     1      -3.061  -4.178  -1.412  1.00  0.00     0.016 C 
HETATM   49  C21 UNL     1      -3.915  -2.229  -2.559  1.00  0.00     0.016 C 
ENDBRANCH  35  47
ENDBRANCH  32  35
ENDBRANCH   5  32
TORSDOF 16
