REMARK  15 active torsions:
REMARK  status: ('A' for Active; 'I' for Inactive)
REMARK    1  A    between atoms: S1_2  and  C2_3 
REMARK    2  A    between atoms: C2_3  and  C3_4 
REMARK    3  A    between atoms: C3_4  and  C4_5 
REMARK    4  A    between atoms: C4_5  and  N1_6 
REMARK    5  A    between atoms: C4_5  and  C28_42 
REMARK       I    between atoms: N1_6  and  C5_8 
REMARK    6  A    between atoms: C5_8  and  C6_10 
REMARK       I    between atoms: N3_16  and  C11_17 
REMARK    7  A    between atoms: C11_17  and  C12_19 
REMARK    8  A    between atoms: C12_19  and  N4_20 
REMARK    9  A    between atoms: C12_19  and  C24_38 
REMARK       I    between atoms: N4_20  and  C13_22 
REMARK   10  A    between atoms: C13_22  and  C14_24 
REMARK   11  A    between atoms: C14_24  and  C15_25 
REMARK   12  A    between atoms: C14_24  and  N5_29 
REMARK   13  A    between atoms: C15_25  and  C16_26 
REMARK       I    between atoms: N5_29  and  C19_31 
REMARK   14  A    between atoms: C19_31  and  O5_33 
REMARK   15  A    between atoms: O5_33  and  C20_34 
ROOT
HETATM    1  C12 UNL     1      -0.226  -2.415  -0.623  1.00  0.00     0.184 C 
ENDROOT
BRANCH   1   2
HETATM    2  C11 UNL     1       0.182  -2.397   0.833  1.00  0.00     0.245 C 
HETATM    3  N3  UNL     1       1.447  -2.045   1.310  1.00  0.00    -0.306 N 
HETATM    4  C6  UNL     1       2.647  -1.605   0.566  1.00  0.00     0.419 C 
HETATM    5  C9  UNL     1       1.891  -2.013   2.674  1.00  0.00     0.114 C 
HETATM    6  N2  UNL     1       3.719  -2.210   1.275  1.00  0.00     0.118 N 
HETATM    7  C7  UNL     1       4.375  -3.270   0.535  1.00  0.00     0.313 C 
HETATM    8  C8  UNL     1       3.271  -2.661   2.545  1.00  0.00     0.300 C 
HETATM    9  C10 UNL     1       1.030  -2.759   3.632  1.00  0.00     0.034 C 
HETATM   10  O2  UNL     1      -0.701  -2.725   1.653  1.00  0.00    -0.271 OA
BRANCH   4  11
HETATM   11  C5  UNL     1       2.749  -0.110   0.590  1.00  0.00     0.272 C 
HETATM   12  N1  UNL     1       3.660   0.584   1.436  1.00  0.00    -0.343 N 
ATOM     13  H1  UNL     1       4.265   0.052   2.062  1.00  0.00     0.163 HD
HETATM   14  O1  UNL     1       1.982   0.515  -0.183  1.00  0.00    -0.269 OA
BRANCH  12  15
HETATM   15  C4  UNL     1       3.746   2.040   1.426  1.00  0.00     0.186 C 
BRANCH  15  16
HETATM   16  C3  UNL     1       5.201   2.386   1.317  1.00  0.00     0.046 C 
BRANCH  16  17
HETATM   17  C2  UNL     1       5.490   3.860   1.284  1.00  0.00     0.076 C 
BRANCH  17  18
HETATM   18  S1  UNL     1       4.704   4.690  -0.125  1.00  0.00    -0.173 SA
HETATM   19  C1  UNL     1       5.448   4.108  -1.681  1.00  0.00     0.089 C 
ENDBRANCH  17  18
ENDBRANCH  16  17
ENDBRANCH  15  16
BRANCH  15  20
HETATM   20  C28 UNL     1       3.092   2.606   2.640  1.00  0.00     0.196 C 
HETATM   21  O6  UNL     1       2.591   1.844   3.503  1.00  0.00    -0.646 OA
HETATM   22  O7  UNL     1       3.012   3.962   2.862  1.00  0.00    -0.646 OA
ENDBRANCH  15  20
ENDBRANCH  12  15
ENDBRANCH   4  11
ENDBRANCH   1   2
BRANCH   1  23
HETATM   23  N4  UNL     1      -1.626  -1.913  -0.542  1.00  0.00    -0.345 N 
HETATM   24  C13 UNL     1      -2.022  -0.638  -0.953  1.00  0.00     0.241 C 
HETATM   25  O3  UNL     1      -1.123   0.121  -1.482  1.00  0.00    -0.271 OA
ATOM     26  H4  UNL     1      -2.338  -2.538  -0.164  1.00  0.00     0.163 HD
BRANCH  24  27
HETATM   27  C14 UNL     1      -3.381  -0.119  -0.797  1.00  0.00     0.179 C 
BRANCH  27  28
HETATM   28  C15 UNL     1      -4.538  -0.799  -1.386  1.00  0.00     0.038 C 
BRANCH  28  29
HETATM   29  C16 UNL     1      -4.676  -0.942  -2.844  1.00  0.00    -0.020 C 
HETATM   30  C17 UNL     1      -3.611  -1.694  -3.561  1.00  0.00     0.009 C 
HETATM   31  C18 UNL     1      -5.993  -1.711  -3.121  1.00  0.00     0.009 C 
ENDBRANCH  28  29
ENDBRANCH  27  28
BRANCH  27  32
HETATM   32  N5  UNL     1      -3.327   1.295  -1.211  1.00  0.00    -0.324 N 
HETATM   33  C19 UNL     1      -3.282   2.310  -0.228  1.00  0.00     0.362 C 
HETATM   34  O4  UNL     1      -3.289   1.980   1.007  1.00  0.00    -0.238 OA
ATOM     35  H5  UNL     1      -3.322   1.540  -2.201  1.00  0.00     0.165 HD
BRANCH  33  36
HETATM   36  O5  UNL     1      -3.228   3.652  -0.503  1.00  0.00    -0.294 OA
BRANCH  36  37
HETATM   37  C20 UNL     1      -3.174   4.654   0.502  1.00  0.00     0.061 C 
HETATM   38  C21 UNL     1      -4.348   4.636   1.434  1.00  0.00     0.046 C 
HETATM   39  C22 UNL     1      -3.244   5.990  -0.255  1.00  0.00     0.046 C 
HETATM   40  C23 UNL     1      -1.875   4.637   1.252  1.00  0.00     0.046 C 
ENDBRANCH  36  37
ENDBRANCH  33  36
ENDBRANCH  27  32
ENDBRANCH  24  27
ENDBRANCH   1  23
BRANCH   1  41
HETATM   41  C24 UNL     1      -0.285  -3.784  -1.171  1.00  0.00    -0.022 C 
HETATM   42  C25 UNL     1       1.018  -4.568  -1.067  1.00  0.00     0.017 C 
HETATM   43  C26 UNL     1      -1.391  -4.657  -0.687  1.00  0.00     0.017 C 
HETATM   44  C27 UNL     1      -0.465  -3.628  -2.699  1.00  0.00     0.017 C 
ENDBRANCH   1  41
TORSDOF 15
