REMARK  16 active torsions:
REMARK  status: ('A' for Active; 'I' for Inactive)
REMARK    1  A    between atoms: C2_2  and  O1_3 
REMARK    2  A    between atoms: O1_3  and  C3_4 
REMARK    3  A    between atoms: C3_4  and  C4_6 
REMARK    4  A    between atoms: C10_12  and  N1_13 
REMARK    5  A    between atoms: C10_12  and  C18_24 
REMARK       I    between atoms: N1_13  and  C11_15 
REMARK    6  A    between atoms: C11_15  and  C12_17 
REMARK    7  A    between atoms: C12_17  and  S1_18 
REMARK    8  A    between atoms: S1_18  and  C13_19 
REMARK    9  A    between atoms: C13_19  and  C14_20 
REMARK   10  A    between atoms: C18_24  and  O4_25 
REMARK   11  A    between atoms: C18_24  and  N2_27 
REMARK   12  A    between atoms: C20_29  and  N3_30 
REMARK       I    between atoms: N3_30  and  C21_32 
REMARK   13  A    between atoms: C21_32  and  C22_34 
REMARK   14  A    between atoms: C22_34  and  N4_36 
REMARK       I    between atoms: N4_36  and  C24_38 
REMARK   15  A    between atoms: C24_38  and  O7_40 
REMARK   16  A    between atoms: C26_42  and  C27_43 
ROOT
HETATM    1  C4  UNL     1       1.517  -0.033  -1.882  1.00  0.00     0.127 C 
HETATM    2  C5  UNL     1       1.872  -1.401  -1.406  1.00  0.00     0.018 A 
HETATM    3  C6  UNL     1       2.879  -0.483  -0.590  1.00  0.00     0.037 A 
HETATM    4  C7  UNL     1       3.119  -1.859  -0.811  1.00  0.00    -0.036 A 
HETATM    5  C8  UNL     1       4.082  -2.382  -1.907  1.00  0.00     0.015 C 
HETATM    6  C9  UNL     1       3.185  -2.756   0.412  1.00  0.00     0.015 C 
HETATM    7  C10 UNL     1       1.561   0.329  -0.451  1.00  0.00     0.115 C 
ENDROOT
BRANCH   7   8
HETATM    8  N1  UNL     1       1.920   1.724  -0.123  1.00  0.00    -0.342 N 
HETATM    9  C11 UNL     1       3.027   2.444  -0.484  1.00  0.00     0.228 C 
HETATM   10  O3  UNL     1       4.022   2.148  -1.179  1.00  0.00    -0.273 OA
ATOM     11  H1  UNL     1       1.245   2.223   0.457  1.00  0.00     0.163 HD
BRANCH   9  12
HETATM   12  C12 UNL     1       3.056   3.889   0.071  1.00  0.00     0.176 C 
BRANCH  12  13
HETATM   13  S1  UNL     1       3.417   3.811   1.801  1.00  0.00    -0.156 SA
BRANCH  13  14
HETATM   14  C13 UNL     1       5.018   3.324   2.332  1.00  0.00     0.101 C 
BRANCH  14  15
HETATM   15  C14 UNL     1       5.338   1.911   2.039  1.00  0.00    -0.015 C 
HETATM   16  C15 UNL     1       6.401   1.535   1.315  1.00  0.00    -0.091 C 
HETATM   17  C16 UNL     1       6.623   0.091   1.084  1.00  0.00     0.042 C 
HETATM   18  C17 UNL     1       7.351   2.516   0.752  1.00  0.00     0.042 C 
ENDBRANCH  14  15
ENDBRANCH  13  14
ENDBRANCH  12  13
ENDBRANCH   9  12
ENDBRANCH   7   8
BRANCH   7  19
HETATM   19  C18 UNL     1       0.756  -0.153   0.633  1.00  0.00     0.144 C 
BRANCH  19  20
HETATM   20  O4  UNL     1       1.332   0.036   1.789  1.00  0.00    -0.347 OA
ATOM     21  H4  UNL     1       0.799  -0.283   2.507  1.00  0.00     0.219 HD
ENDBRANCH  19  20
BRANCH  19  22
HETATM   22  N2  UNL     1      -0.489  -0.769   0.735  1.00  0.00    -0.354 N 
HETATM   23  C19 UNL     1      -1.577  -1.018  -0.238  1.00  0.00     0.152 C 
HETATM   24  C20 UNL     1      -2.538  -1.369   0.889  1.00  0.00     0.125 C 
HETATM   25  C26 UNL     1      -1.314  -1.494   1.679  1.00  0.00     0.114 C 
BRANCH  24  26
HETATM   26  N3  UNL     1      -3.437  -0.288   1.092  1.00  0.00    -0.351 N 
HETATM   27  C21 UNL     1      -4.690  -0.269   0.447  1.00  0.00     0.240 C 
HETATM   28  O5  UNL     1      -4.972  -1.247  -0.319  1.00  0.00    -0.271 OA
ATOM     29  H3  UNL     1      -3.174   0.480   1.709  1.00  0.00     0.163 HD
BRANCH  27  30
HETATM   30  C22 UNL     1      -5.700   0.820   0.604  1.00  0.00     0.174 C 
HETATM   31  C23 UNL     1      -5.173   2.050   1.246  1.00  0.00     0.042 C 
BRANCH  30  32
HETATM   32  N4  UNL     1      -6.355   0.985  -0.649  1.00  0.00    -0.324 N 
HETATM   33  C24 UNL     1      -7.665   0.598  -0.991  1.00  0.00     0.360 C 
HETATM   34  O6  UNL     1      -8.406   0.038  -0.147  1.00  0.00    -0.239 OA
ATOM     35  H4  UNL     1      -5.812   1.436  -1.385  1.00  0.00     0.165 HD
BRANCH  33  36
HETATM   36  O7  UNL     1      -8.198   0.810  -2.258  1.00  0.00    -0.309 OA
HETATM   37  C25 UNL     1      -9.510   0.414  -2.581  1.00  0.00     0.215 C 
ENDBRANCH  33  36
ENDBRANCH  30  32
ENDBRANCH  27  30
ENDBRANCH  24  26
BRANCH  25  38
HETATM   38  C27 UNL     1      -1.388  -1.215   3.112  1.00  0.00     0.002 C 
HETATM   39  C28 UNL     1      -0.154  -1.397   3.929  1.00  0.00     0.011 C 
HETATM   40  C29 UNL     1      -2.440  -2.194   3.689  1.00  0.00     0.011 C 
ENDBRANCH  25  38
ENDBRANCH  19  22
ENDBRANCH   7  19
BRANCH   1  41
HETATM   41  C3  UNL     1       0.352   0.116  -2.709  1.00  0.00     0.266 C 
HETATM   42  O2  UNL     1      -0.348   1.207  -2.713  1.00  0.00    -0.265 OA
BRANCH  41  43
HETATM   43  O1  UNL     1      -0.112  -0.863  -3.555  1.00  0.00    -0.321 OA
BRANCH  43  44
HETATM   44  C2  UNL     1      -1.249  -0.731  -4.373  1.00  0.00     0.174 C 
HETATM   45  C1  UNL     1      -1.428  -2.033  -5.139  1.00  0.00     0.034 C 
ENDBRANCH  43  44
ENDBRANCH  41  43
ENDBRANCH   1  41
TORSDOF 16
