REMARK  14 active torsions:
REMARK  status: ('A' for Active; 'I' for Inactive)
REMARK    1  A    between atoms: C2_2  and  C3_3 
REMARK    2  A    between atoms: C3_3  and  C4_4 
REMARK    3  A    between atoms: C4_4  and  N1_5 
REMARK    4  A    between atoms: C4_4  and  C13_18 
REMARK       I    between atoms: N1_5  and  C5_7 
REMARK    5  A    between atoms: C5_7  and  C6_9 
REMARK    6  A    between atoms: C6_9  and  N2_12 
REMARK       I    between atoms: C13_18  and  N3_20 
REMARK    7  A    between atoms: N3_20  and  C14_22 
REMARK    8  A    between atoms: C16_24  and  C17_25 
REMARK       I    between atoms: C17_25  and  N4_27 
REMARK    9  A    between atoms: N4_27  and  C18_29 
REMARK   10  A    between atoms: C18_29  and  C19_30 
REMARK   11  A    between atoms: C18_29  and  C22_33 
REMARK   12  A    between atoms: C22_33  and  C25_36 
REMARK   13  A    between atoms: C25_36  and  O5_37 
REMARK   14  A    between atoms: C25_36  and  N5_39 
ROOT
HETATM    1  C14 UNL     1       0.757  -1.122   0.090  1.00  0.00     0.052 A 
HETATM    2  C15 UNL     1      -0.416  -1.584   0.697  1.00  0.00     0.066 A 
HETATM    3  C16 UNL     1      -1.412  -0.649   0.576  1.00  0.00     0.104 A 
HETATM    4  N6  UNL     1      -0.906   0.392  -0.086  1.00  0.00    -0.354 N 
HETATM    5  C30 UNL     1      -1.540   1.669  -0.462  1.00  0.00     0.156 C 
HETATM    6  C31 UNL     1       0.402   0.115  -0.383  1.00  0.00     0.120 A 
ENDROOT
BRANCH   1   7
HETATM    7  N3  UNL     1       1.969  -1.853  -0.011  1.00  0.00    -0.324 N 
HETATM    8  C13 UNL     1       3.203  -1.210  -0.171  1.00  0.00     0.245 C 
HETATM    9  O3  UNL     1       3.225   0.061  -0.206  1.00  0.00    -0.271 OA
ATOM     10  H3  UNL     1       1.941  -2.872   0.034  1.00  0.00     0.169 HD
BRANCH   8  11
HETATM   11  C4  UNL     1       4.509  -1.959  -0.299  1.00  0.00     0.177 C 
BRANCH  11  12
HETATM   12  C3  UNL     1       4.447  -3.324   0.215  1.00  0.00     0.034 C 
BRANCH  12  13
HETATM   13  C2  UNL     1       5.610  -4.188  -0.154  1.00  0.00    -0.002 C 
HETATM   14  C1  UNL     1       6.944  -3.791   0.340  1.00  0.00     0.005 C 
ENDBRANCH  12  13
ENDBRANCH  11  12
BRANCH  11  15
HETATM   15  N1  UNL     1       5.592  -1.131   0.108  1.00  0.00    -0.346 N 
HETATM   16  C5  UNL     1       6.393  -0.329  -0.731  1.00  0.00     0.245 C 
HETATM   17  O1  UNL     1       6.150  -0.347  -1.957  1.00  0.00    -0.271 OA
ATOM     18  H1  UNL     1       5.810  -1.116   1.104  1.00  0.00     0.163 HD
BRANCH  16  19
HETATM   19  C6  UNL     1       7.465   0.502  -0.190  1.00  0.00     0.102 C 
HETATM   20  C7  UNL     1       6.820   1.360   0.915  1.00  0.00     0.048 C 
HETATM   21  C8  UNL     1       8.468  -0.361   0.536  1.00  0.00     0.048 C 
BRANCH  19  22
HETATM   22  N2  UNL     1       8.093   1.401  -1.097  1.00  0.00    -0.392 N 
HETATM   23  C9  UNL     1       8.787   0.859  -2.201  1.00  0.00     0.144 C 
HETATM   24  C10 UNL     1       8.633   1.792  -3.403  1.00  0.00     0.187 C 
HETATM   25  O2  UNL     1       8.998   3.086  -3.126  1.00  0.00    -0.388 OA
HETATM   26  C11 UNL     1       8.571   3.566  -1.895  1.00  0.00     0.187 C 
HETATM   27  C12 UNL     1       7.466   2.643  -1.350  1.00  0.00     0.144 C 
ENDBRANCH  19  22
ENDBRANCH  16  19
ENDBRANCH  11  15
ENDBRANCH   8  11
ENDBRANCH   1   7
BRANCH   3  28
HETATM   28  C17 UNL     1      -2.764  -0.799   1.158  1.00  0.00     0.268 C 
HETATM   29  O4  UNL     1      -2.710  -1.487   2.235  1.00  0.00    -0.266 OA
HETATM   30  N4  UNL     1      -3.857  -0.241   0.548  1.00  0.00    -0.350 N 
ATOM     31  H4  UNL     1      -3.641   0.234  -0.328  1.00  0.00     0.163 HD
BRANCH  30  32
HETATM   32  C18 UNL     1      -5.265  -0.195   0.908  1.00  0.00     0.103 C 
BRANCH  32  33
HETATM   33  C19 UNL     1      -5.518  -0.885   2.192  1.00  0.00     0.001 C 
HETATM   34  C20 UNL     1      -6.969  -0.971   2.636  1.00  0.00     0.011 C 
HETATM   35  C21 UNL     1      -4.940   0.072   3.295  1.00  0.00     0.011 C 
ENDBRANCH  32  33
BRANCH  32  36
HETATM   36  C22 UNL     1      -6.116  -0.409  -0.263  1.00  0.00     0.038 C 
HETATM   37  C23 UNL     1      -5.891  -1.764  -0.937  1.00  0.00     0.026 C 
HETATM   38  C24 UNL     1      -5.610   0.588  -1.340  1.00  0.00     0.026 C 
BRANCH  36  39
HETATM   39  C25 UNL     1      -7.550  -0.172  -0.201  1.00  0.00     0.123 C 
BRANCH  39  40
HETATM   40  O5  UNL     1      -8.269  -1.247  -0.432  1.00  0.00    -0.349 OA
ATOM     41  H5  UNL     1      -9.205  -1.092  -0.392  1.00  0.00     0.219 HD
ENDBRANCH  39  40
BRANCH  39  42
HETATM   42  N5  UNL     1      -8.313   0.950   0.050  1.00  0.00    -0.361 N 
HETATM   43  C26 UNL     1      -9.757   0.857   0.051  1.00  0.00     0.151 C 
HETATM   44  C27 UNL     1     -10.404   1.562   1.223  1.00  0.00     0.187 C 
HETATM   45  O6  UNL     1      -9.666   2.673   1.643  1.00  0.00    -0.388 OA
HETATM   46  C28 UNL     1      -9.007   3.176   0.525  1.00  0.00     0.187 C 
HETATM   47  C29 UNL     1      -7.776   2.250   0.319  1.00  0.00     0.151 C 
ENDBRANCH  39  42
ENDBRANCH  36  39
ENDBRANCH  32  36
ENDBRANCH  30  32
ENDBRANCH   3  28
TORSDOF 14
