REMARK  17 active torsions:
REMARK  status: ('A' for Active; 'I' for Inactive)
REMARK    1  A    between atoms: C2_2  and  C3_3 
REMARK    2  A    between atoms: C4_6  and  N2_7 
REMARK    3  A    between atoms: N2_7  and  C5_8 
REMARK    4  A    between atoms: C5_8  and  C6_9 
REMARK    5  A    between atoms: C5_8  and  C13_20 
REMARK    6  A    between atoms: C6_9  and  C7_10 
REMARK    7  A    between atoms: C7_10  and  C8_11 
REMARK    8  A    between atoms: C8_11  and  N3_12 
REMARK       I    between atoms: N3_12  and  C9_14 
REMARK    9  A    between atoms: C9_14  and  O2_16 
REMARK   10  A    between atoms: O2_16  and  C10_17 
REMARK   11  A    between atoms: N5_27  and  C16_28 
REMARK   12  A    between atoms: C16_28  and  C17_29 
REMARK       I    between atoms: C17_29  and  N6_31 
REMARK   13  A    between atoms: C21_35  and  C22_36 
REMARK   14  A    between atoms: C22_36  and  C23_37 
REMARK   15  A    between atoms: C28_42  and  C29_43 
REMARK   16  A    between atoms: C29_43  and  O6_44 
REMARK   17  A    between atoms: C29_43  and  N7_46 
ROOT
HETATM    1  C3  UNL     1      -0.260   0.758  -0.601  1.00  0.00     0.020 A 
HETATM    2  N1  UNL     1       0.955   0.292  -0.943  1.00  0.00    -0.333 N 
ATOM      3  H1  UNL     1       1.413   0.716  -1.750  1.00  0.00     0.168 HD
HETATM    4  C4  UNL     1       1.614  -0.696  -0.298  1.00  0.00     0.203 A 
HETATM    5  C14 UNL     1       0.941  -1.244   0.803  1.00  0.00     0.119 A 
HETATM    6  N4  UNL     1       1.366  -2.208   1.640  1.00  0.00    -0.346 N 
ATOM      7  H4  UNL     1       2.251  -2.714   1.594  1.00  0.00     0.167 HD
HETATM    8  C15 UNL     1       0.410  -2.367   2.530  1.00  0.00     0.184 A 
HETATM    9  N5  UNL     1      -0.643  -1.492   2.259  1.00  0.00    -0.332 N 
HETATM   10  C20 UNL     1      -0.312  -0.795   1.189  1.00  0.00     0.076 A 
HETATM   11  C21 UNL     1      -0.941   0.234   0.478  1.00  0.00    -0.002 A 
ENDROOT
BRANCH   4  12
HETATM   12  N2  UNL     1       2.689  -1.123  -0.599  1.00  0.00    -0.412 NA
BRANCH  12  13
HETATM   13  C5  UNL     1       3.904  -1.609  -0.933  1.00  0.00     0.266 C 
BRANCH  13  14
HETATM   14  C6  UNL     1       4.466  -0.965  -2.214  1.00  0.00     0.052 C 
BRANCH  14  15
HETATM   15  C7  UNL     1       5.804  -1.410  -2.624  1.00  0.00     0.023 C 
BRANCH  15  16
HETATM   16  C8  UNL     1       6.918  -1.130  -1.642  1.00  0.00     0.125 C 
BRANCH  16  17
HETATM   17  N3  UNL     1       7.068   0.287  -1.404  1.00  0.00    -0.337 N 
HETATM   18  C9  UNL     1       8.072   0.722  -0.515  1.00  0.00     0.360 C 
HETATM   19  O1  UNL     1       8.849  -0.081   0.085  1.00  0.00    -0.239 OA
ATOM     20  H3  UNL     1       6.459   0.960  -1.870  1.00  0.00     0.164 HD
BRANCH  18  21
HETATM   21  O2  UNL     1       8.261   2.064  -0.253  1.00  0.00    -0.299 OA
BRANCH  21  22
HETATM   22  C10 UNL     1       9.272   2.516   0.641  1.00  0.00     0.125 C 
HETATM   23  C11 UNL     1       8.733   3.414   1.715  1.00  0.00     0.040 C 
HETATM   24  C12 UNL     1      10.291   3.274  -0.193  1.00  0.00     0.040 C 
ENDBRANCH  21  22
ENDBRANCH  18  21
ENDBRANCH  16  17
ENDBRANCH  15  16
ENDBRANCH  14  15
ENDBRANCH  13  14
BRANCH  13  25
HETATM   25  C13 UNL     1       3.915  -3.094  -1.134  1.00  0.00     0.210 C 
HETATM   26  O3  UNL     1       2.790  -3.642  -1.259  1.00  0.00    -0.646 OA
HETATM   27  O4  UNL     1       5.030  -3.862  -1.184  1.00  0.00    -0.646 OA
ENDBRANCH  13  25
ENDBRANCH  12  13
ENDBRANCH   4  12
BRANCH   1  28
HETATM   28  C2  UNL     1      -0.771   1.826  -1.502  1.00  0.00     0.053 C 
HETATM   29  C1  UNL     1      -1.608   1.270  -2.628  1.00  0.00     0.011 C 
ENDBRANCH   1  28
BRANCH  11  30
HETATM   30  C22 UNL     1      -2.195   0.783   0.905  1.00  0.00     0.081 C 
BRANCH  30  31
HETATM   31  C23 UNL     1      -3.436   0.517   0.168  1.00  0.00    -0.052 A 
HETATM   32  C24 UNL     1      -3.845  -0.682  -0.317  1.00  0.00     0.014 A 
HETATM   33  C25 UNL     1      -5.043  -0.841  -0.942  1.00  0.00    -0.061 A 
HETATM   34  C26 UNL     1      -5.509  -2.159  -1.482  1.00  0.00     0.048 C 
HETATM   35  C27 UNL     1      -5.936   0.237  -1.126  1.00  0.00     0.022 A 
HETATM   36  C28 UNL     1      -5.555   1.465  -0.648  1.00  0.00     0.015 A 
HETATM   37  C32 UNL     1      -4.323   1.572  -0.018  1.00  0.00     0.023 A 
BRANCH  36  38
HETATM   38  C29 UNL     1      -6.380   2.645  -0.782  1.00  0.00     0.147 C 
BRANCH  38  39
HETATM   39  O6  UNL     1      -5.833   3.733  -0.266  1.00  0.00    -0.346 OA
ATOM     40  H6  UNL     1      -6.375   4.508  -0.354  1.00  0.00     0.219 HD
ENDBRANCH  38  39
BRANCH  38  41
HETATM   41  N7  UNL     1      -7.630   2.832  -1.350  1.00  0.00    -0.370 N 
HETATM   42  C30 UNL     1      -8.155   4.233  -1.293  1.00  0.00     0.151 C 
HETATM   43  C31 UNL     1      -8.512   1.913  -1.984  1.00  0.00     0.151 C 
ENDBRANCH  38  41
ENDBRANCH  36  38
ENDBRANCH  30  31
ENDBRANCH  11  30
BRANCH   9  44
HETATM   44  C16 UNL     1      -1.834  -1.530   3.034  1.00  0.00     0.232 C 
BRANCH  44  45
HETATM   45  C17 UNL     1      -2.615  -2.748   2.563  1.00  0.00     0.237 C 
HETATM   46  O5  UNL     1      -2.147  -3.466   1.658  1.00  0.00    -0.272 OA
HETATM   47  N6  UNL     1      -3.858  -3.075   3.136  1.00  0.00    -0.359 N 
HETATM   48  C18 UNL     1      -4.404  -2.247   4.174  1.00  0.00     0.152 C 
HETATM   49  C19 UNL     1      -4.585  -4.230   2.694  1.00  0.00     0.152 C 
ENDBRANCH  44  45
ENDBRANCH   9  44
TORSDOF 17
