REMARK  16 active torsions:
REMARK  status: ('A' for Active; 'I' for Inactive)
REMARK    1  A    between atoms: C2_2  and  C3_3 
REMARK    2  A    between atoms: C3_3  and  C4_4 
REMARK    3  A    between atoms: C4_4  and  O1_5 
REMARK    4  A    between atoms: O1_5  and  C5_6 
REMARK       I    between atoms: C5_6  and  N1_8 
REMARK       I    between atoms: N2_11  and  C8_12 
REMARK    5  A    between atoms: C8_12  and  C9_14 
REMARK    6  A    between atoms: C9_14  and  C10_15 
REMARK    7  A    between atoms: C9_14  and  N3_20 
REMARK    8  A    between atoms: C10_15  and  C11_16 
REMARK    9  A    between atoms: C11_16  and  C12_17 
REMARK   10  A    between atoms: N3_20  and  C13_21 
REMARK   11  A    between atoms: C13_21  and  O6_22 
REMARK   12  A    between atoms: C13_21  and  C14_24 
REMARK   13  A    between atoms: C16_26  and  N4_27 
REMARK       I    between atoms: N4_27  and  C17_29 
REMARK   14  A    between atoms: C17_29  and  C18_31 
REMARK   15  A    between atoms: C18_31  and  C19_32 
REMARK   16  A    between atoms: C18_31  and  N5_35 
ROOT
HETATM    1  C13 UNL     1       0.560  -0.332  -0.597  1.00  0.00     0.237 C 
ENDROOT
BRANCH   1   2
HETATM    2  N3  UNL     1      -0.679  -0.737  -0.360  1.00  0.00    -0.408 NA
BRANCH   2   3
HETATM    3  C9  UNL     1      -1.985  -1.163  -0.110  1.00  0.00     0.258 C 
BRANCH   3   4
HETATM    4  C8  UNL     1      -2.858   0.151  -0.285  1.00  0.00     0.255 C 
HETATM    5  N2  UNL     1      -4.169  -0.021  -0.716  1.00  0.00    -0.346 N 
HETATM    6  C7  UNL     1      -4.817  -1.265  -1.004  1.00  0.00     0.146 C 
HETATM    7  C29 UNL     1      -4.953   1.216  -0.926  1.00  0.00     0.146 C 
HETATM    8  C6  UNL     1      -6.182  -1.284  -0.299  1.00  0.00     0.148 C 
HETATM    9  N1  UNL     1      -6.935  -0.170  -0.766  1.00  0.00    -0.325 N 
HETATM   10  C5  UNL     1      -8.323  -0.040  -0.463  1.00  0.00     0.362 C 
HETATM   11  C30 UNL     1      -6.288   0.871  -1.555  1.00  0.00     0.148 C 
HETATM   12  O2  UNL     1      -8.885  -0.922   0.229  1.00  0.00    -0.238 OA
HETATM   13  O3  UNL     1      -2.316   1.196  -0.031  1.00  0.00    -0.270 OA
BRANCH  10  14
HETATM   14  O1  UNL     1      -9.046   1.034  -0.915  1.00  0.00    -0.304 OA
BRANCH  14  15
HETATM   15  C4  UNL     1     -10.391   1.310  -0.698  1.00  0.00     0.180 C 
BRANCH  15  16
HETATM   16  C3  UNL     1     -10.646   1.520   0.768  1.00  0.00     0.026 C 
BRANCH  16  17
HETATM   17  C2  UNL     1     -12.073   1.843   1.078  1.00  0.00    -0.002 C 
HETATM   18  C1  UNL     1     -12.471   3.118   0.400  1.00  0.00     0.005 C 
ENDBRANCH  16  17
ENDBRANCH  15  16
ENDBRANCH  14  15
ENDBRANCH  10  14
ENDBRANCH   3   4
BRANCH   3  19
HETATM   19  C10 UNL     1      -2.385  -1.660   1.217  1.00  0.00     0.060 C 
BRANCH  19  20
HETATM   20  C11 UNL     1      -1.826  -2.934   1.738  1.00  0.00     0.117 C 
BRANCH  20  21
HETATM   21  C12 UNL     1      -2.436  -3.317   3.042  1.00  0.00     0.172 C 
HETATM   22  O4  UNL     1      -3.166  -2.499   3.648  1.00  0.00    -0.648 OA
HETATM   23  O5  UNL     1      -2.227  -4.555   3.618  1.00  0.00    -0.648 OA
ENDBRANCH  20  21
ENDBRANCH  19  20
ENDBRANCH   3  19
ENDBRANCH   2   3
ENDBRANCH   1   2
BRANCH   1  24
HETATM   24  O6  UNL     1       0.699   0.759  -1.391  1.00  0.00    -0.334 OA
ATOM     25  H6  UNL     1       1.587   1.049  -1.561  1.00  0.00     0.220 HD
ENDBRANCH   1  24
BRANCH   1  26
HETATM   26  C14 UNL     1       1.883  -0.826  -0.176  1.00  0.00     0.101 A 
HETATM   27  C15 UNL     1       3.017   0.005  -0.102  1.00  0.00     0.066 A 
HETATM   28  C16 UNL     1       4.077  -0.833   0.182  1.00  0.00     0.052 A 
HETATM   29  C27 UNL     1       3.595  -2.110   0.279  1.00  0.00     0.120 A 
HETATM   30  N6  UNL     1       2.250  -2.078   0.055  1.00  0.00    -0.355 N 
HETATM   31  C28 UNL     1       1.491  -3.325   0.028  1.00  0.00     0.156 C 
BRANCH  28  32
HETATM   32  N4  UNL     1       5.430  -0.398   0.251  1.00  0.00    -0.324 N 
HETATM   33  C17 UNL     1       6.118   0.079  -0.893  1.00  0.00     0.256 C 
HETATM   34  O7  UNL     1       5.409   0.071  -1.971  1.00  0.00    -0.271 OA
ATOM     35  H4  UNL     1       5.917  -0.430   1.146  1.00  0.00     0.169 HD
BRANCH  33  36
HETATM   36  C18 UNL     1       7.477   0.562  -1.032  1.00  0.00     0.317 C 
BRANCH  36  37
HETATM   37  C19 UNL     1       8.367  -0.520  -1.678  1.00  0.00     0.020 C 
HETATM   38  C20 UNL     1       7.796  -0.847  -3.062  1.00  0.00     0.012 C 
HETATM   39  C21 UNL     1       8.471  -1.758  -0.841  1.00  0.00     0.012 C 
ENDBRANCH  36  37
BRANCH  36  40
HETATM   40  N5  UNL     1       8.106   1.013   0.206  1.00  0.00     0.102 N 
HETATM   41  C22 UNL     1       7.314   2.161   0.685  1.00  0.00     0.273 C 
HETATM   42  C23 UNL     1       7.861   2.624   2.039  1.00  0.00     0.030 C 
HETATM   43  C24 UNL     1       9.311   2.958   1.927  1.00  0.00     0.003 C 
HETATM   44  C25 UNL     1       9.717   2.882   0.484  1.00  0.00     0.030 C 
HETATM   45  C26 UNL     1       9.392   1.555  -0.158  1.00  0.00     0.273 C 
ENDBRANCH  36  40
ENDBRANCH  33  36
ENDBRANCH  28  32
ENDBRANCH   1  26
TORSDOF 16
