REMARK  14 active torsions:
REMARK  status: ('A' for Active; 'I' for Inactive)
REMARK    1  A    between atoms: C2_2  and  C3_3 
REMARK    2  A    between atoms: C2_2  and  C14_20 
REMARK    3  A    between atoms: C3_3  and  C4_4 
REMARK    4  A    between atoms: C4_4  and  N1_5 
REMARK    5  A    between atoms: C13_15  and  N3_16 
REMARK    6  A    between atoms: C14_20  and  N4_21 
REMARK       I    between atoms: N5_25  and  C18_26 
REMARK       I    between atoms: C18_26  and  N6_28 
REMARK    7  A    between atoms: N6_28  and  C19_30 
REMARK    8  A    between atoms: C19_30  and  C20_31 
REMARK    9  A    between atoms: C20_31  and  C21_32 
REMARK   10  A    between atoms: C21_32  and  C22_33 
REMARK   11  A    between atoms: C22_33  and  C23_34 
REMARK   12  A    between atoms: C24_35  and  N7_36 
REMARK   13  A    between atoms: C26_38  and  C27_39 
REMARK   14  A    between atoms: C27_39  and  O2_42 
ROOT
HETATM    1  N4  UNL     1      -1.104  -0.490  -1.119  1.00  0.00    -0.333 N 
HETATM    2  C15 UNL     1      -0.851  -1.100  -2.409  1.00  0.00     0.129 C 
HETATM    3  C16 UNL     1       0.516  -1.760  -2.333  1.00  0.00     0.040 C 
HETATM    4  C17 UNL     1       1.609  -0.734  -2.138  1.00  0.00     0.140 C 
HETATM    5  N5  UNL     1       1.274   0.121  -1.038  1.00  0.00    -0.252 N 
HETATM    6  C18 UNL     1       2.221   1.104  -0.570  1.00  0.00     0.326 C 
HETATM    7  O1  UNL     1       1.916   1.844   0.394  1.00  0.00    -0.247 OA
HETATM    8  N6  UNL     1       3.485   1.205  -1.225  1.00  0.00    -0.343 N 
ATOM      9  H6  UNL     1       3.698   0.589  -2.010  1.00  0.00     0.164 HD
HETATM   10  C31 UNL     1       0.010   0.012  -0.397  1.00  0.00     0.328 C 
HETATM   11  O5  UNL     1      -0.097   0.367   0.808  1.00  0.00    -0.246 OA
ENDROOT
BRANCH   8  12
HETATM   12  C19 UNL     1       4.450   2.156  -0.794  1.00  0.00     0.124 C 
BRANCH  12  13
HETATM   13  C20 UNL     1       4.919   1.952   0.581  1.00  0.00     0.020 C 
BRANCH  13  14
HETATM   14  C21 UNL     1       5.668   0.716   0.935  1.00  0.00     0.005 C 
BRANCH  14  15
HETATM   15  C22 UNL     1       5.019  -0.591   0.751  1.00  0.00     0.028 C 
BRANCH  15  16
HETATM   16  C23 UNL     1       5.868  -1.741   1.170  1.00  0.00    -0.009 C 
HETATM   17  C24 UNL     1       7.055  -2.159   0.457  1.00  0.00     0.092 C 
BRANCH  17  18
HETATM   18  N7  UNL     1       8.188  -1.361   0.187  1.00  0.00    -0.302 N 
HETATM   19  C25 UNL     1       9.312  -1.151   1.115  1.00  0.00     0.169 C 
HETATM   20  C26 UNL     1       9.968   0.078   0.591  1.00  0.00     0.185 C 
HETATM   21  O3  UNL     1       9.304   0.452  -0.577  1.00  0.00    -0.293 OA
HETATM   22  C30 UNL     1       8.533  -0.605  -0.982  1.00  0.00     0.367 C 
HETATM   23  O4  UNL     1       8.191  -0.863  -2.158  1.00  0.00    -0.238 OA
BRANCH  20  24
HETATM   24  C27 UNL     1      11.455  -0.095   0.363  1.00  0.00     0.079 C 
HETATM   25  C28 UNL     1      12.007   1.287   0.002  1.00  0.00     0.048 C 
HETATM   26  C29 UNL     1      11.783  -1.069  -0.720  1.00  0.00     0.048 C 
BRANCH  24  27
HETATM   27  O2  UNL     1      12.091  -0.470   1.541  1.00  0.00    -0.388 OA
ATOM     28  H2  UNL     1      13.024  -0.579   1.398  1.00  0.00     0.210 HD
ENDBRANCH  24  27
ENDBRANCH  20  24
ENDBRANCH  17  18
ENDBRANCH  15  16
ENDBRANCH  14  15
ENDBRANCH  13  14
ENDBRANCH  12  13
ENDBRANCH   8  12
BRANCH   1  29
HETATM   29  C14 UNL     1      -2.415  -0.369  -0.540  1.00  0.00     0.132 C 
BRANCH  29  30
HETATM   30  C2  UNL     1      -3.018   0.945  -0.978  1.00  0.00     0.001 C 
HETATM   31  C1  UNL     1      -3.144   1.038  -2.479  1.00  0.00     0.011 C 
BRANCH  30  32
HETATM   32  C3  UNL     1      -4.340   1.220  -0.297  1.00  0.00     0.026 C 
BRANCH  32  33
HETATM   33  C4  UNL     1      -5.407   0.221  -0.731  1.00  0.00     0.124 C 
BRANCH  33  34
HETATM   34  N1  UNL     1      -6.612   0.548  -0.053  1.00  0.00    -0.366 N 
HETATM   35  C5  UNL     1      -6.641   0.349   1.335  1.00  0.00     0.062 C 
HETATM   36  C6  UNL     1      -7.692  -0.578   1.861  1.00  0.00     0.086 C 
HETATM   37  C7  UNL     1      -9.019  -0.156   1.294  1.00  0.00     0.167 C 
HETATM   38  C8  UNL     1      -9.441   1.181   1.828  1.00  0.00     0.044 C 
HETATM   39  N2  UNL     1     -10.105  -1.010   1.734  1.00  0.00     0.094 N 
HETATM   40  C12 UNL     1      -8.946  -0.224  -0.192  1.00  0.00     0.096 C 
HETATM   41  C9  UNL     1     -10.920   1.217   1.532  1.00  0.00     0.033 C 
HETATM   42  C10 UNL     1     -11.315  -0.239   1.558  1.00  0.00     0.273 C 
HETATM   43  C11 UNL     1     -10.222  -2.224   0.986  1.00  0.00     0.310 C 
HETATM   44  C13 UNL     1      -7.806   0.548  -0.786  1.00  0.00     0.285 C 
BRANCH  44  45
HETATM   45  N3  UNL     1      -8.260   1.900  -1.073  1.00  0.00    -0.058 N 
ATOM     46  H33 UNL     1      -8.347   2.452  -0.220  1.00  0.00     0.276 HD
ATOM     47  H32 UNL     1      -7.536   2.444  -1.542  1.00  0.00     0.276 HD
ATOM     48  H31 UNL     1      -9.129   1.900  -1.607  1.00  0.00     0.276 HD
ENDBRANCH  44  45
ENDBRANCH  33  34
ENDBRANCH  32  33
ENDBRANCH  30  32
ENDBRANCH  29  30
ENDBRANCH   1  29
TORSDOF 14
