REMARK  3 active torsions:
REMARK  status: ('A' for Active; 'I' for Inactive)
REMARK    1  A    between atoms: C2_2  and  O2_4 
REMARK    2  A    between atoms: O2_4  and  C3_5 
REMARK    3  A    between atoms: C21_26  and  O6_27 
ROOT
HETATM    1  C3  UNL     1      -3.007  -0.052  -0.064  1.00  0.00     0.160 C 
HETATM    2  C4  UNL     1      -1.831  -0.929  -0.506  1.00  0.00     0.035 C 
HETATM    3  C5  UNL     1      -2.055  -2.305   0.039  1.00  0.00     0.002 C 
HETATM    4  C6  UNL     1      -0.817  -3.138   0.126  1.00  0.00     0.000 C 
HETATM    5  C7  UNL     1       0.232  -2.793  -0.874  1.00  0.00     0.000 C 
HETATM    6  C8  UNL     1       1.640  -2.954  -0.320  1.00  0.00     0.000 C 
HETATM    7  C9  UNL     1       1.927  -2.015   0.806  1.00  0.00     0.002 C 
HETATM    8  C10 UNL     1       3.367  -1.598   0.905  1.00  0.00     0.032 C 
HETATM    9  C11 UNL     1       3.904  -1.084  -0.420  1.00  0.00     0.127 C 
HETATM   10  C12 UNL     1       5.161  -0.329  -0.147  1.00  0.00     0.040 C 
HETATM   11  O3  UNL     1       2.897  -0.380  -1.065  1.00  0.00    -0.316 OA
HETATM   12  C13 UNL     1       2.898   0.880  -1.580  1.00  0.00     0.259 C 
HETATM   13  O4  UNL     1       2.652   1.139  -2.804  1.00  0.00    -0.265 OA
HETATM   14  C14 UNL     1       3.197   2.031  -0.697  1.00  0.00     0.111 C 
HETATM   15  C15 UNL     1       2.404   1.958   0.611  1.00  0.00     0.010 C 
HETATM   16  C16 UNL     1       2.102   3.351   1.110  1.00  0.00     0.008 C 
HETATM   17  C17 UNL     1       0.706   3.799   0.862  1.00  0.00     0.078 C 
HETATM   18  C18 UNL     1      -0.284   2.721   0.736  1.00  0.00     0.127 C 
HETATM   19  O5  UNL     1      -0.514   2.014   1.707  1.00  0.00    -0.298 OA
HETATM   20  C19 UNL     1      -1.010   2.480  -0.560  1.00  0.00     0.081 C 
HETATM   21  C20 UNL     1      -2.473   2.379  -0.260  1.00  0.00     0.041 C 
HETATM   22  C21 UNL     1      -3.091   1.182  -0.961  1.00  0.00     0.148 C 
ENDROOT
BRANCH   1  23
HETATM   23  O2  UNL     1      -4.178  -0.797  -0.270  1.00  0.00    -0.314 OA
BRANCH  23  24
HETATM   24  C2  UNL     1      -5.077  -1.137   0.711  1.00  0.00     0.255 C 
HETATM   25  C1  UNL     1      -6.288  -1.931   0.384  1.00  0.00     0.126 C 
HETATM   26  O1  UNL     1      -4.857  -0.765   1.883  1.00  0.00    -0.266 OA
ENDBRANCH  23  24
ENDBRANCH   1  23
BRANCH  22  27
HETATM   27  O6  UNL     1      -4.435   1.466  -1.192  1.00  0.00    -0.393 OA
ATOM     28  H6  UNL     1      -4.487   2.233  -1.750  1.00  0.00     0.210 HD
ENDBRANCH  22  27
TORSDOF 3
