REMARK  2 active torsions:
REMARK  status: ('A' for Active; 'I' for Inactive)
REMARK    1  A    between atoms: N1_1  and  C1_4 
REMARK    2  A    between atoms: C1_4  and  C2_5 
ROOT
HETATM    1  C2  UNL     1      -2.501   1.288   0.728  1.00  0.00     0.087 C 
HETATM    2  C3  UNL     1      -1.220   1.757   1.298  1.00  0.00     0.004 C 
HETATM    3  C4  UNL     1      -0.414   2.358   0.146  1.00  0.00     0.016 C 
HETATM    4  C5  UNL     1      -0.241   1.331  -0.954  1.00  0.00     0.055 C 
HETATM    5  C6  UNL     1      -1.595   0.979  -1.493  1.00  0.00     0.021 C 
HETATM    6  C7  UNL     1      -2.450   0.325  -0.387  1.00  0.00    -0.020 C 
HETATM    7  C8  UNL     1      -3.793  -0.012  -0.922  1.00  0.00     0.011 C 
HETATM    8  C9  UNL     1      -4.507  -0.985  -0.045  1.00  0.00     0.001 C 
HETATM    9  C10 UNL     1      -3.676  -2.270  -0.012  1.00  0.00     0.000 C 
HETATM   10  C11 UNL     1      -2.432  -1.912   0.781  1.00  0.00     0.006 C 
HETATM   11  C12 UNL     1      -1.648  -0.890   0.029  1.00  0.00     0.005 C 
HETATM   12  C13 UNL     1      -0.376  -0.488   0.689  1.00  0.00     0.059 C 
HETATM   13  C14 UNL     1      -0.516   0.494   1.810  1.00  0.00     0.016 C 
HETATM   14  C15 UNL     1       0.516   0.175  -0.368  1.00  0.00     0.237 C 
HETATM   15  O1  UNL     1       1.661   0.696   0.241  1.00  0.00    -0.194 OA
HETATM   16  O2  UNL     1       2.675   0.610  -0.620  1.00  0.00    -0.195 OA
HETATM   17  C16 UNL     1       3.051  -0.747  -0.603  1.00  0.00     0.230 C 
HETATM   18  C17 UNL     1       3.595  -0.989   0.812  1.00  0.00     0.081 C 
HETATM   19  C18 UNL     1       4.462   0.201   1.162  1.00  0.00     0.083 C 
HETATM   20  C19 UNL     1       5.355   0.445  -0.009  1.00  0.00     0.127 C 
HETATM   21  O3  UNL     1       5.934   1.507  -0.151  1.00  0.00    -0.298 OA
HETATM   22  C20 UNL     1       5.506  -0.656  -0.988  1.00  0.00     0.083 C 
HETATM   23  C21 UNL     1       4.157  -1.024  -1.584  1.00  0.00     0.081 C 
HETATM   24  O4  UNL     1       1.908  -1.483  -0.834  1.00  0.00    -0.195 OA
HETATM   25  O5  UNL     1       0.905  -0.763  -1.289  1.00  0.00    -0.194 OA
ENDROOT
BRANCH   1  26
HETATM   26  C1  UNL     1      -3.612   1.741   1.215  1.00  0.00    -0.072 C 
BRANCH  26  27
HETATM   27  N1  UNL     1      -4.696   2.400   1.480  1.00  0.00    -0.369 N 
ATOM     28  H12 UNL     1      -4.530   3.050   0.712  1.00  0.00     0.165 HD
ATOM     29  H11 UNL     1      -5.571   2.757   1.864  1.00  0.00     0.165 HD
ENDBRANCH  26  27
ENDBRANCH   1  26
TORSDOF 2
