REMARK  1 active torsions:
REMARK  status: ('A' for Active; 'I' for Inactive)
REMARK    1  A    between atoms: N1_9  and  C9_10 
ROOT
HETATM    1  C1  UNL     1      -4.248  -1.146  -0.074  1.00  0.00     0.000 C 
HETATM    2  C2  UNL     1      -2.931  -1.562   0.537  1.00  0.00     0.000 C 
HETATM    3  C3  UNL     1      -2.405  -2.763  -0.261  1.00  0.00     0.000 C 
HETATM    4  C4  UNL     1      -1.448  -3.555   0.587  1.00  0.00     0.000 C 
HETATM    5  C5  UNL     1      -0.342  -4.195  -0.216  1.00  0.00     0.000 C 
HETATM    6  C6  UNL     1       0.639  -3.162  -0.707  1.00  0.00     0.002 C 
HETATM    7  C7  UNL     1       1.113  -2.365   0.517  1.00  0.00     0.020 C 
HETATM    8  C8  UNL     1       2.457  -1.827   0.186  1.00  0.00     0.125 C 
HETATM    9  N1  UNL     1       2.733  -0.521   0.682  1.00  0.00    -0.360 N 
HETATM   10  C12 UNL     1       1.818   0.373   1.311  1.00  0.00     0.135 C 
HETATM   11  C13 UNL     1       1.130   1.297   0.307  1.00  0.00     0.093 C 
HETATM   12  S2  UNL     1       0.177   2.508   1.269  1.00  0.00    -0.167 SA
HETATM   13  C14 UNL     1      -0.617   3.720   0.186  1.00  0.00     0.074 C 
HETATM   14  C15 UNL     1      -2.044   3.921   0.648  1.00  0.00     0.010 C 
HETATM   15  C16 UNL     1      -3.034   3.617  -0.453  1.00  0.00     0.001 C 
HETATM   16  C17 UNL     1      -4.120   2.656   0.013  1.00  0.00     0.000 C 
HETATM   17  C18 UNL     1      -3.825   1.268  -0.547  1.00  0.00     0.000 C 
HETATM   18  C19 UNL     1      -4.609   0.282   0.266  1.00  0.00     0.000 C 
ENDROOT
BRANCH   9  19
HETATM   19  C9  UNL     1       4.096  -0.066   0.521  1.00  0.00     0.154 C 
HETATM   20  N2  UNL     1       4.374   1.006  -0.114  1.00  0.00    -0.369 N 
HETATM   21  C10 UNL     1       5.647   1.585  -0.359  1.00  0.00     0.138 C 
ATOM     22  H2  UNL     1       3.576   1.514  -0.496  1.00  0.00     0.161 HD
HETATM   23  C11 UNL     1       6.750   1.124   0.554  1.00  0.00     0.142 C 
HETATM   24  N3  UNL     1       6.916  -0.338   0.470  1.00  0.00    -0.170 NA
HETATM   25  S1  UNL     1       5.453  -0.992   1.211  1.00  0.00     0.011 SA
ENDBRANCH   9  19
TORSDOF 1
