REMARK  1 active torsions:
REMARK  status: ('A' for Active; 'I' for Inactive)
REMARK    1  A    between atoms: C9_14  and  O2_16 
ROOT
HETATM    1  C1  UNL     1      -2.275   2.526   1.361  1.00  0.00     0.016 C 
HETATM    2  C2  UNL     1      -1.499   1.669   0.418  1.00  0.00     0.057 C 
HETATM    3  C3  UNL     1      -2.385   1.466  -0.825  1.00  0.00     0.128 C 
HETATM    4  C4  UNL     1      -3.824   1.726  -0.535  1.00  0.00     0.046 C 
HETATM    5  C5  UNL     1      -1.962   2.351  -1.956  1.00  0.00     0.046 C 
HETATM    6  N1  UNL     1      -2.241   0.063  -1.213  1.00  0.00    -0.029 N 
ATOM      7  H11 UNL     1      -2.152  -0.092  -2.217  1.00  0.00     0.281 HD
ATOM      8  H12 UNL     1      -3.084  -0.498  -1.094  1.00  0.00     0.281 HD
HETATM    9  C6  UNL     1      -1.125  -0.376  -0.445  1.00  0.00     0.285 C 
HETATM   10  O1  UNL     1       0.002   0.301  -0.986  1.00  0.00    -0.259 OA
HETATM   11  N2  UNL     1       0.928  -0.577  -1.244  1.00  0.00    -0.193 NA
HETATM   12  C7  UNL     1       0.169  -1.780  -1.648  1.00  0.00     0.133 C 
HETATM   13  C8  UNL     1      -0.808  -1.808  -0.545  1.00  0.00     0.105 C 
HETATM   14  C9  UNL     1      -2.077  -2.555  -0.582  1.00  0.00     0.085 C 
HETATM   15  C10 UNL     1      -1.748  -4.044  -0.572  1.00  0.00     0.049 C 
HETATM   16  C11 UNL     1      -2.742  -2.232   0.778  1.00  0.00     0.209 C 
HETATM   17  O3  UNL     1      -1.939  -2.086   1.825  1.00  0.00    -0.358 OA
HETATM   18  C12 UNL     1      -1.707  -0.789   2.363  1.00  0.00     0.268 C 
HETATM   19  O4  UNL     1      -2.523  -0.017   1.547  1.00  0.00    -0.344 OA
HETATM   20  C13 UNL     1      -1.370   0.240   0.842  1.00  0.00     0.138 C 
HETATM   21  C14 UNL     1      -0.444  -0.255   1.830  1.00  0.00     0.081 C 
HETATM   22  C15 UNL     1       0.472   0.777   2.200  1.00  0.00     0.013 C 
HETATM   23  C16 UNL     1       1.912   0.428   1.933  1.00  0.00     0.011 C 
HETATM   24  C17 UNL     1       2.435   0.246   0.580  1.00  0.00    -0.026 C 
HETATM   25  C18 UNL     1       3.905  -0.166   0.921  1.00  0.00     0.011 C 
HETATM   26  C19 UNL     1       4.814  -0.124  -0.233  1.00  0.00     0.001 C 
HETATM   27  C20 UNL     1       4.755   1.089  -1.104  1.00  0.00     0.000 C 
HETATM   28  C21 UNL     1       3.355   1.514  -1.379  1.00  0.00     0.001 C 
HETATM   29  C22 UNL     1       2.633   1.598  -0.064  1.00  0.00     0.011 C 
HETATM   30  C23 UNL     1       1.966  -0.809  -0.319  1.00  0.00     0.130 C 
ENDROOT
BRANCH  14  31
HETATM   31  O2  UNL     1      -2.928  -2.286  -1.620  1.00  0.00    -0.387 OA
ATOM     32  H2  UNL     1      -3.746  -2.768  -1.644  1.00  0.00     0.210 HD
ENDBRANCH  14  31
TORSDOF 1
