REMARK  3 active torsions:
REMARK  status: ('A' for Active; 'I' for Inactive)
REMARK    1  A    between atoms: C8_8  and  O1_9 
REMARK    2  A    between atoms: C13_15  and  C14_16 
REMARK    3  A    between atoms: C18_20  and  O2_21 
ROOT
HETATM    1  C1  UNL     1      -2.366   3.127   0.887  1.00  0.00     0.015 C 
HETATM    2  C2  UNL     1      -1.163   2.756   0.023  1.00  0.00    -0.047 C 
HETATM    3  C3  UNL     1      -0.122   3.820   0.203  1.00  0.00     0.015 C 
HETATM    4  C4  UNL     1      -1.585   2.732  -1.408  1.00  0.00     0.010 C 
HETATM    5  C5  UNL     1      -1.637   1.276  -1.792  1.00  0.00     0.019 C 
HETATM    6  C6  UNL     1      -0.673   0.558  -0.869  1.00  0.00     0.054 C 
HETATM    7  C7  UNL     1      -0.651   1.357   0.365  1.00  0.00     0.027 C 
HETATM    8  C8  UNL     1       0.689   0.743  -1.567  1.00  0.00     0.209 C 
HETATM    9  C9  UNL     1       1.097  -0.691  -1.924  1.00  0.00     0.116 C 
HETATM   10  C10 UNL     1       0.572  -1.341  -0.720  1.00  0.00     0.133 C 
HETATM   11  C11 UNL     1       0.473  -2.777  -0.625  1.00  0.00     0.045 C 
HETATM   12  C12 UNL     1      -0.591  -2.881   0.483  1.00  0.00     0.011 C 
HETATM   13  C13 UNL     1      -1.371  -1.579   0.413  1.00  0.00     0.032 C 
HETATM   14  C18 UNL     1      -0.915  -0.903  -0.767  1.00  0.00     0.109 C 
HETATM   15  O3  UNL     1       1.081  -0.794   0.435  1.00  0.00    -0.223 OA
HETATM   16  O4  UNL     1       2.316  -1.093   0.670  1.00  0.00    -0.197 OA
HETATM   17  C19 UNL     1       3.185  -0.082   0.325  1.00  0.00     0.229 C 
HETATM   18  C20 UNL     1       4.527  -0.742   0.006  1.00  0.00     0.074 C 
HETATM   19  C21 UNL     1       5.555   0.260   0.420  1.00  0.00     0.006 C 
HETATM   20  C22 UNL     1       4.961   0.793   1.726  1.00  0.00     0.006 C 
HETATM   21  C23 UNL     1       3.468   0.802   1.507  1.00  0.00     0.074 C 
HETATM   22  O5  UNL     1       2.813   0.618  -0.810  1.00  0.00    -0.195 OA
HETATM   23  O6  UNL     1       1.667   1.209  -0.708  1.00  0.00    -0.197 OA
ENDROOT
BRANCH   8  24
HETATM   24  O1  UNL     1       0.660   1.555  -2.659  1.00  0.00    -0.362 OA
ATOM     25  H1  UNL     1       1.499   1.669  -3.089  1.00  0.00     0.213 HD
ENDBRANCH   8  24
BRANCH  14  26
HETATM   26  O2  UNL     1      -1.504  -1.329  -1.945  1.00  0.00    -0.385 OA
ATOM     27  H2  UNL     1      -1.659  -2.264  -1.880  1.00  0.00     0.210 HD
ENDBRANCH  14  26
BRANCH  13  28
HETATM   28  C14 UNL     1      -2.789  -1.884   0.672  1.00  0.00    -0.045 C 
HETATM   29  C15 UNL     1      -2.947  -2.519   2.076  1.00  0.00     0.015 C 
HETATM   30  C16 UNL     1      -3.425  -2.948  -0.204  1.00  0.00     0.015 C 
HETATM   31  C17 UNL     1      -3.749  -0.743   0.648  1.00  0.00     0.015 C 
ENDBRANCH  13  28
TORSDOF 3
