REMARK  3 active torsions:
REMARK  status: ('A' for Active; 'I' for Inactive)
REMARK    1  A    between atoms: C11_12  and  O2_14 
REMARK    2  A    between atoms: C16_19  and  O3_20 
REMARK    3  A    between atoms: C21_28  and  O6_29 
ROOT
HETATM    1  C1  UNL     1       4.568   1.644  -1.671  1.00  0.00     0.013 C 
HETATM    2  C2  UNL     1       3.996   1.271  -0.320  1.00  0.00     0.016 C 
HETATM    3  C3  UNL     1       4.548  -0.096   0.028  1.00  0.00     0.010 C 
HETATM    4  C4  UNL     1       3.675  -0.645   1.118  1.00  0.00     0.038 C 
HETATM    5  C5  UNL     1       2.336  -1.010   0.506  1.00  0.00     0.064 C 
HETATM    6  C6  UNL     1       2.596  -2.341  -0.217  1.00  0.00     0.046 C 
HETATM    7  O1  UNL     1       1.431  -1.191   1.549  1.00  0.00    -0.379 OA
HETATM    8  C7  UNL     1       0.298  -1.759   1.000  1.00  0.00     0.183 C 
HETATM    9  C8  UNL     1      -0.570  -0.697   0.282  1.00  0.00     0.040 C 
HETATM   10  C9  UNL     1       0.339   0.329  -0.293  1.00  0.00     0.027 C 
HETATM   11  C10 UNL     1       1.785   0.038  -0.393  1.00  0.00     0.055 C 
HETATM   12  C11 UNL     1       2.524   1.379  -0.246  1.00  0.00     0.064 C 
HETATM   13  C12 UNL     1       2.130   2.117   0.987  1.00  0.00     0.046 C 
HETATM   14  C13 UNL     1      -1.305  -1.467  -0.759  1.00  0.00     0.173 C 
HETATM   15  C14 UNL     1      -1.874  -0.816  -1.919  1.00  0.00     0.038 C 
HETATM   16  C15 UNL     1      -2.701   0.382  -1.882  1.00  0.00     0.034 C 
HETATM   17  C16 UNL     1      -4.118   0.217  -1.370  1.00  0.00     0.118 C 
HETATM   18  C17 UNL     1      -4.346   0.932  -0.083  1.00  0.00     0.035 C 
HETATM   19  C18 UNL     1      -3.946   0.399   1.193  1.00  0.00     0.046 C 
HETATM   20  C19 UNL     1      -2.888  -0.652   1.316  1.00  0.00     0.119 C 
HETATM   21  C20 UNL     1      -3.238  -1.422   2.622  1.00  0.00     0.052 C 
HETATM   22  O4  UNL     1      -3.143  -1.614   0.369  1.00  0.00    -0.227 OA
HETATM   23  O5  UNL     1      -2.188  -2.325  -0.054  1.00  0.00    -0.234 OA
HETATM   24  C21 UNL     1      -1.485  -0.159   1.389  1.00  0.00     0.168 C 
ENDROOT
BRANCH  24  25
HETATM   25  O6  UNL     1      -1.358   1.225   1.550  1.00  0.00    -0.391 OA
ATOM     26  H6  UNL     1      -1.925   1.558   2.236  1.00  0.00     0.210 HD
ENDBRANCH  24  25
BRANCH  12  27
HETATM   27  O2  UNL     1       2.097   2.158  -1.347  1.00  0.00    -0.389 OA
ATOM     28  H2  UNL     1       1.151   2.227  -1.299  1.00  0.00     0.210 HD
ENDBRANCH  12  27
BRANCH  17  29
HETATM   29  O3  UNL     1      -4.935   0.923  -2.310  1.00  0.00    -0.396 OA
ATOM     30  H3  UNL     1      -5.823   0.820  -1.989  1.00  0.00     0.210 HD
ENDBRANCH  17  29
TORSDOF 3
