REMARK  4 active torsions:
REMARK  status: ('A' for Active; 'I' for Inactive)
REMARK    1  A    between atoms: C2_2  and  C4_5 
REMARK    2  A    between atoms: C11_13  and  O2_14 
REMARK    3  A    between atoms: C15_19  and  O3_20 
REMARK    4  A    between atoms: C21_27  and  O4_28 
ROOT
HETATM    1  C1  UNL     1       4.229   0.801  -0.498  1.00  0.00     0.026 C 
HETATM    2  C2  UNL     1       3.182   0.463   0.594  1.00  0.00     0.102 C 
HETATM    3  C3  UNL     1       3.969  -0.414   1.518  1.00  0.00     0.064 C 
HETATM    4  N1  UNL     1       4.564  -1.105   2.246  1.00  0.00    -0.197 NA
ENDROOT
BRANCH   2   5
HETATM    5  C4  UNL     1       2.179  -0.370  -0.050  1.00  0.00     0.009 C 
HETATM    6  C5  UNL     1       3.060  -1.559  -0.510  1.00  0.00     0.022 C 
HETATM    7  C6  UNL     1       1.473   0.137  -1.238  1.00  0.00     0.089 C 
HETATM    8  C7  UNL     1       0.896   1.510  -1.183  1.00  0.00     0.371 A 
HETATM    9  C21 UNL     1       0.381  -0.905  -1.508  1.00  0.00     0.146 C 
HETATM   10  O1  UNL     1      -0.533   1.429  -1.187  1.00  0.00    -0.317 OA
HETATM   11  N2  UNL     1       0.812   2.152   0.062  1.00  0.00     0.146 N 
HETATM   12  C8  UNL     1      -0.565   2.120   0.010  1.00  0.00     0.394 A 
HETATM   13  C9  UNL     1      -1.352   1.279   0.967  1.00  0.00    -0.018 C 
HETATM   14  C10 UNL     1      -0.923   0.372   1.781  1.00  0.00     0.044 C 
HETATM   15  C20 UNL     1      -2.822   1.489   0.542  1.00  0.00     0.051 C 
HETATM   16  C11 UNL     1       0.517  -0.074   1.914  1.00  0.00     0.070 C 
HETATM   17  C12 UNL     1       1.001  -0.864   0.775  1.00  0.00    -0.019 C 
HETATM   18  C13 UNL     1      -0.014  -1.458  -0.146  1.00  0.00     0.058 C 
HETATM   19  C14 UNL     1       0.406  -2.974  -0.321  1.00  0.00     0.030 C 
HETATM   20  C15 UNL     1      -1.424  -1.609   0.091  1.00  0.00     0.055 C 
HETATM   21  C16 UNL     1      -2.660  -1.021   0.367  1.00  0.00     0.015 C 
HETATM   22  C17 UNL     1      -3.330   0.206  -0.068  1.00  0.00    -0.024 C 
HETATM   23  C18 UNL     1      -4.777   0.123   0.488  1.00  0.00     0.019 C 
HETATM   24  C19 UNL     1      -3.489   0.216  -1.554  1.00  0.00     0.019 C 
HETATM   25  C22 UNL     1       1.211   3.587   0.057  1.00  0.00     0.317 C 
BRANCH  16  26
HETATM   26  O2  UNL     1       1.320   0.808   2.544  1.00  0.00    -0.360 OA
ATOM     27  H2  UNL     1       2.224   0.528   2.627  1.00  0.00     0.217 HD
ENDBRANCH  16  26
BRANCH  20  28
HETATM   28  O3  UNL     1      -1.496  -2.794   0.961  1.00  0.00    -0.364 OA
ATOM     29  H3  UNL     1      -2.428  -2.894   1.118  1.00  0.00     0.217 HD
ENDBRANCH  20  28
BRANCH   9  30
HETATM   30  O4  UNL     1       0.726  -1.842  -2.458  1.00  0.00    -0.394 OA
ATOM     31  H4  UNL     1       0.049  -2.488  -2.625  1.00  0.00     0.210 HD
ENDBRANCH   9  30
ENDBRANCH   2   5
TORSDOF 4
