REMARK  4 active torsions:
REMARK  status: ('A' for Active; 'I' for Inactive)
REMARK    1  A    between atoms: O1_2  and  C2_3 
REMARK    2  A    between atoms: C2_3  and  C3_5 
REMARK    3  A    between atoms: C6_9  and  O4_10 
REMARK    4  A    between atoms: C12_17  and  O5_18 
ROOT
HETATM    1  C3  UNL     1       3.164  -0.071  -0.129  1.00  0.00     0.043 C 
HETATM    2  C4  UNL     1       3.572  -1.160   0.760  1.00  0.00     0.057 C 
HETATM    3  C5  UNL     1       2.026   0.022  -0.758  1.00  0.00     0.066 C 
HETATM    4  O3  UNL     1       1.748   1.136  -1.616  1.00  0.00    -0.323 OA
HETATM    5  C6  UNL     1       0.384   1.340  -1.724  1.00  0.00     0.270 C 
HETATM    6  C7  UNL     1      -0.305   0.200  -0.992  1.00  0.00     0.089 C 
HETATM    7  C8  UNL     1       0.792  -0.760  -0.872  1.00  0.00     0.055 C 
HETATM    8  C9  UNL     1       0.691  -1.860   0.079  1.00  0.00     0.018 C 
HETATM    9  C10 UNL     1      -0.540  -2.759  -0.242  1.00  0.00     0.011 C 
HETATM   10  C11 UNL     1      -0.174  -4.210  -0.024  1.00  0.00     0.012 C 
HETATM   11  C12 UNL     1      -1.628  -2.440   0.763  1.00  0.00     0.124 C 
HETATM   12  C13 UNL     1      -2.443  -1.277   0.290  1.00  0.00     0.073 C 
HETATM   13  C14 UNL     1      -2.040   0.035   0.854  1.00  0.00     0.094 C 
HETATM   14  C15 UNL     1      -1.837  -0.159   2.361  1.00  0.00     0.049 C 
HETATM   15  O6  UNL     1      -3.195   0.859   0.816  1.00  0.00    -0.342 OA
HETATM   16  C16 UNL     1      -2.927   1.878  -0.036  1.00  0.00     0.159 C 
HETATM   17  C17 UNL     1      -3.283   3.219   0.620  1.00  0.00     0.078 C 
HETATM   18  C18 UNL     1      -3.827   1.702  -1.267  1.00  0.00     0.078 C 
HETATM   19  O7  UNL     1      -1.625   1.911  -0.369  1.00  0.00    -0.342 OA
HETATM   20  C19 UNL     1      -0.967   0.777   0.189  1.00  0.00     0.101 C 
HETATM   21  C20 UNL     1       0.023   1.421   1.170  1.00  0.00     0.050 C 
ENDROOT
BRANCH   1  22
HETATM   22  C2  UNL     1       4.175   1.017  -0.324  1.00  0.00     0.291 C 
HETATM   23  O2  UNL     1       3.914   1.989  -1.082  1.00  0.00    -0.260 OA
BRANCH  22  24
HETATM   24  O1  UNL     1       5.400   0.984   0.309  1.00  0.00    -0.323 OA
HETATM   25  C1  UNL     1       6.312   2.041   0.084  1.00  0.00     0.213 C 
ENDBRANCH  22  24
ENDBRANCH   1  22
BRANCH   5  26
HETATM   26  O4  UNL     1       0.042   1.378  -3.070  1.00  0.00    -0.370 OA
ATOM     27  H4  UNL     1      -0.895   1.518  -3.144  1.00  0.00     0.212 HD
ENDBRANCH   5  26
BRANCH  11  28
HETATM   28  O5  UNL     1      -2.429  -3.580   0.917  1.00  0.00    -0.395 OA
ATOM     29  H5  UNL     1      -3.111  -3.380   1.547  1.00  0.00     0.210 HD
ENDBRANCH  11  28
TORSDOF 4
