REMARK  5 active torsions:
REMARK  status: ('A' for Active; 'I' for Inactive)
REMARK    1  A    between atoms: N1_4  and  C4_6 
REMARK    2  A    between atoms: C8_14  and  S1_15 
REMARK    3  A    between atoms: S1_15  and  C9_16 
REMARK    4  A    between atoms: C9_16  and  C10_17 
REMARK    5  A    between atoms: N4_28  and  O1_29 
ROOT
HETATM    1  C4  UNL     1      -2.680  -0.029   0.662  1.00  0.00     0.121 A 
HETATM    2  N2  UNL     1      -4.031  -0.061   0.779  1.00  0.00    -0.338 N 
ATOM      3  H2  UNL     1      -4.518   0.781   1.086  1.00  0.00     0.168 HD
HETATM    4  C5  UNL     1      -4.749  -1.160   0.505  1.00  0.00     0.183 A 
HETATM    5  N3  UNL     1      -4.236  -2.322   0.083  1.00  0.00    -0.336 N 
ATOM      6  H3  UNL     1      -4.813  -3.136  -0.130  1.00  0.00     0.168 HD
HETATM    7  C6  UNL     1      -2.880  -2.328  -0.039  1.00  0.00     0.148 A 
HETATM    8  C7  UNL     1      -2.102  -1.246   0.241  1.00  0.00     0.072 A 
HETATM    9  C8  UNL     1      -0.757  -1.554   0.034  1.00  0.00     0.036 A 
HETATM   10  C16 UNL     1      -0.782  -2.869  -0.429  1.00  0.00     0.144 A 
HETATM   11  N4  UNL     1      -2.061  -3.334  -0.470  1.00  0.00    -0.217 N 
ENDROOT
BRANCH   9  12
HETATM   12  S1  UNL     1       0.664  -0.559   0.479  1.00  0.00    -0.123 SA
BRANCH  12  13
HETATM   13  C9  UNL     1       2.115  -1.211  -0.366  1.00  0.00     0.121 C 
BRANCH  13  14
HETATM   14  C10 UNL     1       3.375  -0.513  -0.065  1.00  0.00    -0.003 A 
HETATM   15  C11 UNL     1       4.059   0.033  -1.137  1.00  0.00     0.044 A 
HETATM   16 CL1  UNL     1       3.231   0.038  -2.665  1.00  0.00    -0.084 Cl
HETATM   17  C12 UNL     1       5.305   0.594  -1.070  1.00  0.00     0.050 A 
HETATM   18  C13 UNL     1       5.939   0.618   0.188  1.00  0.00     0.059 A 
HETATM   19 CL2  UNL     1       7.509   1.346   0.312  1.00  0.00    -0.082 Cl
HETATM   20  C14 UNL     1       5.281   0.081   1.259  1.00  0.00     0.078 A 
HETATM   21 CL3  UNL     1       6.098   0.031   2.809  1.00  0.00    -0.081 Cl
HETATM   22  C15 UNL     1       4.011  -0.482   1.162  1.00  0.00     0.066 A 
HETATM   23 CL4  UNL     1       3.302  -1.196   2.569  1.00  0.00    -0.082 Cl
ENDBRANCH  13  14
ENDBRANCH  12  13
ENDBRANCH   9  12
BRANCH   1  24
HETATM   24  N1  UNL     1      -1.959   0.981   0.450  1.00  0.00    -0.350 N 
HETATM   25  C2  UNL     1      -2.011   2.327   0.246  1.00  0.00    -0.020 C 
HETATM   26  C1  UNL     1      -0.658   3.072   0.245  1.00  0.00     0.062 C 
HETATM   27  C3  UNL     1      -3.042   3.260   0.747  1.00  0.00     0.062 C 
ATOM     28  H1  UNL     1      -0.984   0.684   0.420  1.00  0.00     0.167 HD
ENDBRANCH   1  24
BRANCH  11  29
HETATM   29  O1  UNL     1      -2.446  -4.565  -0.935  1.00  0.00    -0.281 OA
ATOM     30  H1  UNL     1      -1.877  -5.264  -1.235  1.00  0.00     0.245 HD
ENDBRANCH  11  29
TORSDOF 5
