REMARK  8 active torsions:
REMARK  status: ('A' for Active; 'I' for Inactive)
REMARK    1  A    between atoms: O1_2  and  C2_3 
REMARK    2  A    between atoms: C5_6  and  C6_7 
REMARK    3  A    between atoms: C6_7  and  N1_8 
REMARK    4  A    between atoms: N1_8  and  N2_9 
REMARK    5  A    between atoms: N2_9  and  C7_11 
REMARK    6  A    between atoms: C8_13  and  C9_14 
REMARK    7  A    between atoms: C12_21  and  C13_22 
REMARK    8  A    between atoms: C16_26  and  O2_27 
ROOT
HETATM    1  C7  UNL     1      -2.360  -0.311  -0.576  1.00  0.00     0.113 A 
HETATM    2  S1  UNL     1      -3.368  -1.689  -0.974  1.00  0.00    -0.070 SA
HETATM    3  C8  UNL     1      -5.005  -1.480  -0.606  1.00  0.00     0.041 A 
HETATM    4  C10 UNL     1      -5.323  -0.265  -0.038  1.00  0.00     0.072 A 
HETATM    5 CL3  UNL     1      -7.029  -0.027   0.387  1.00  0.00    -0.081 Cl
HETATM    6  C11 UNL     1      -4.446   0.735   0.225  1.00  0.00     0.068 A 
HETATM    7 CL4  UNL     1      -5.172   2.266   0.797  1.00  0.00    -0.082 Cl
HETATM    8  C12 UNL     1      -3.053   0.715  -0.026  1.00  0.00     0.035 A 
ENDROOT
BRANCH   1   9
HETATM    9  N2  UNL     1      -1.109  -0.482  -0.670  1.00  0.00    -0.229 N 
ATOM     10  H2  UNL     1      -0.928  -1.444  -0.955  1.00  0.00     0.202 HD
BRANCH   9  11
HETATM   11  N1  UNL     1      -0.020   0.112  -0.537  1.00  0.00    -0.337 NA
BRANCH  11  12
HETATM   12  C6  UNL     1       0.990   0.761  -0.406  1.00  0.00     0.220 C 
BRANCH  12  13
HETATM   13  C5  UNL     1       2.367   0.273  -0.344  1.00  0.00    -0.003 A 
HETATM   14  C4  UNL     1       3.435   1.109   0.012  1.00  0.00     0.017 A 
HETATM   15  C3  UNL     1       4.734   0.685   0.042  1.00  0.00     0.040 A 
HETATM   16  C2  UNL     1       5.045  -0.600  -0.282  1.00  0.00     0.101 A 
HETATM   17  C16 UNL     1       4.013  -1.482  -0.641  1.00  0.00     0.099 A 
HETATM   18  C15 UNL     1       2.713  -1.019  -0.661  1.00  0.00     0.053 A 
BRANCH  16  19
HETATM   19  O1  UNL     1       6.345  -1.050  -0.264  1.00  0.00    -0.353 OA
HETATM   20  C1  UNL     1       7.461  -0.297   0.098  1.00  0.00     0.210 C 
ENDBRANCH  16  19
BRANCH  17  21
HETATM   21  O2  UNL     1       4.385  -2.762  -0.957  1.00  0.00    -0.358 OA
ATOM     22  H2  UNL     1       3.687  -3.359  -1.200  1.00  0.00     0.217 HD
ENDBRANCH  17  21
ENDBRANCH  12  13
ENDBRANCH  11  12
ENDBRANCH   9  11
ENDBRANCH   1   9
BRANCH   8  23
HETATM   23  C13 UNL     1      -2.339   1.979   0.410  1.00  0.00     0.203 C 
HETATM   24  C14 UNL     1      -2.625   2.065   1.916  1.00  0.00     0.050 C 
HETATM   25  F1  UNL     1      -3.047   3.053  -0.161  1.00  0.00    -0.245 F 
ENDBRANCH   8  23
BRANCH   3  26
HETATM   26  C9  UNL     1      -6.120  -2.460  -0.870  1.00  0.00     0.220 C 
HETATM   27 CL1  UNL     1      -7.325  -1.642  -1.948  1.00  0.00    -0.102 Cl
HETATM   28 CL2  UNL     1      -6.976  -2.825   0.648  1.00  0.00    -0.102 Cl
ENDBRANCH   3  26
TORSDOF 8
