REMARK  5 active torsions:
REMARK  status: ('A' for Active; 'I' for Inactive)
REMARK    1  A    between atoms: C1_2  and  C2_4 
REMARK    2  A    between atoms: C2_4  and  C3_5 
REMARK    3  A    between atoms: C3_5  and  C4_7 
REMARK    4  A    between atoms: C8_14  and  C9_15 
REMARK    5  A    between atoms: C14_22  and  O4_23 
ROOT
HETATM    1  C4  UNL     1       2.822   1.597   0.668  1.00  0.00     0.121 A 
HETATM    2  N1  UNL     1       2.618   0.331   0.364  1.00  0.00    -0.349 N 
ATOM      3  H1  UNL     1       3.386  -0.336   0.440  1.00  0.00     0.166 HD
HETATM    4  C5  UNL     1       1.450  -0.076  -0.031  1.00  0.00     0.042 A 
HETATM    5  C6  UNL     1       0.449   0.861  -0.121  1.00  0.00     0.009 A 
HETATM    6  S1  UNL     1       1.270   2.284   0.387  1.00  0.00    -0.071 SA
HETATM    7  C7  UNL     1      -0.953   0.701  -0.602  1.00  0.00     0.058 C 
HETATM    8  C8  UNL     1      -1.597  -0.589  -0.181  1.00  0.00     0.028 C 
HETATM    9  C15 UNL     1      -1.222  -1.643  -1.128  1.00  0.00     0.011 C 
HETATM   10  C16 UNL     1       0.244  -1.567  -1.578  1.00  0.00     0.027 C 
HETATM   11  C17 UNL     1       1.195  -1.533  -0.372  1.00  0.00     0.133 C 
HETATM   12 CL3  UNL     1       2.652  -2.397  -0.811  1.00  0.00    -0.118 Cl
ENDROOT
BRANCH   8  13
HETATM   13  C9  UNL     1      -2.966  -0.409   0.247  1.00  0.00     0.003 A 
HETATM   14  C10 UNL     1      -3.956  -1.376   0.119  1.00  0.00     0.043 A 
HETATM   15 CL1  UNL     1      -3.587  -2.874  -0.713  1.00  0.00    -0.084 Cl
HETATM   16  C11 UNL     1      -5.212  -1.167   0.630  1.00  0.00     0.026 A 
HETATM   17  C12 UNL     1      -5.542   0.002   1.286  1.00  0.00     0.028 A 
HETATM   18  C13 UNL     1      -4.579   0.974   1.428  1.00  0.00     0.067 A 
HETATM   19 CL2  UNL     1      -5.055   2.448   2.259  1.00  0.00    -0.081 Cl
HETATM   20  C14 UNL     1      -3.303   0.778   0.920  1.00  0.00     0.095 A 
BRANCH  20  21
HETATM   21  O4  UNL     1      -2.436   1.825   1.155  1.00  0.00    -0.358 OA
ATOM     22  H4  UNL     1      -2.664   2.627   1.610  1.00  0.00     0.217 HD
ENDBRANCH  20  21
ENDBRANCH   8  13
BRANCH   1  23
HETATM   23  C3  UNL     1       4.063   2.223   1.085  1.00  0.00     0.192 C 
HETATM   24  O3  UNL     1       4.057   3.456   1.376  1.00  0.00    -0.290 OA
BRANCH  23  25
HETATM   25  C2  UNL     1       5.310   1.470   1.185  1.00  0.00     0.199 C 
BRANCH  25  26
HETATM   26  C1  UNL     1       5.513   0.528   0.042  1.00  0.00     0.180 C 
HETATM   27  O1  UNL     1       5.438   0.925  -1.138  1.00  0.00    -0.648 OA
HETATM   28  O2  UNL     1       5.786  -0.802   0.313  1.00  0.00    -0.648 OA
ENDBRANCH  25  26
ENDBRANCH  23  25
ENDBRANCH   1  23
TORSDOF 5
