REMARK  6 active torsions:
REMARK  status: ('A' for Active; 'I' for Inactive)
REMARK    1  A    between atoms: C2_2  and  C3_3 
REMARK    2  A    between atoms: C3_3  and  C4_4 
REMARK    3  A    between atoms: C3_3  and  O1_6 
REMARK    4  A    between atoms: O1_6  and  N1_7 
REMARK    5  A    between atoms: C13_18  and  O2_19 
REMARK    6  A    between atoms: O2_19  and  O3_20 
ROOT
HETATM    1  N1  UNL     1       1.494  -0.520  -1.447  1.00  0.00    -0.274 N 
ATOM      2  H1  UNL     1       1.498  -0.358  -2.454  1.00  0.00     0.193 HD
HETATM    3  C6  UNL     1       0.370  -0.608  -0.835  1.00  0.00     0.026 C 
HETATM    4  C7  UNL     1       0.373  -0.845   0.622  1.00  0.00     0.123 C 
HETATM    5  C8  UNL     1      -0.612  -0.018   1.341  1.00  0.00     0.076 A 
HETATM    6  F1  UNL     1      -0.189   0.467   2.560  1.00  0.00    -0.306 F 
HETATM    7  C9  UNL     1      -1.824   0.317   0.987  1.00  0.00    -0.015 A 
HETATM    8  C10 UNL     1      -2.428   1.168   2.054  1.00  0.00     0.110 A 
HETATM    9 BR1  UNL     1      -1.268   1.385   3.562  1.00  0.00     0.019 Br
HETATM   10  C11 UNL     1      -3.692   0.413   2.492  1.00  0.00     0.024 C 
HETATM   11  C12 UNL     1      -4.608   0.496   1.263  1.00  0.00     0.038 C 
HETATM   12  C13 UNL     1      -4.069  -0.410   0.213  1.00  0.00     0.178 C 
HETATM   13  C14 UNL     1      -2.655   0.022  -0.202  1.00  0.00     0.079 C 
HETATM   14  C15 UNL     1      -2.845   1.285  -1.020  1.00  0.00     0.029 C 
HETATM   15  C16 UNL     1      -2.056  -1.014  -1.119  1.00  0.00     0.265 C 
HETATM   16  F2  UNL     1      -1.848  -2.219  -0.484  1.00  0.00    -0.204 F 
HETATM   17  F3  UNL     1      -2.972  -1.240  -2.129  1.00  0.00    -0.204 F 
HETATM   18  C17 UNL     1      -0.808  -0.451  -1.724  1.00  0.00     0.103 C 
HETATM   19  C18 UNL     1      -0.557  -1.056  -3.091  1.00  0.00     0.022 C 
ENDROOT
BRANCH   1  20
HETATM   20  O1  UNL     1       2.693  -0.638  -0.785  1.00  0.00    -0.275 OA
BRANCH  20  21
HETATM   21  C3  UNL     1       3.679   0.358  -0.977  1.00  0.00     0.151 C 
BRANCH  21  22
HETATM   22  C2  UNL     1       4.875  -0.281  -1.599  1.00  0.00     0.030 C 
HETATM   23  C1  UNL     1       5.977   0.704  -1.913  1.00  0.00     0.007 C 
ENDBRANCH  21  22
BRANCH  21  24
HETATM   24  C4  UNL     1       3.975   1.052   0.325  1.00  0.00     0.030 C 
HETATM   25  C5  UNL     1       4.521   0.127   1.374  1.00  0.00     0.007 C 
ENDBRANCH  21  24
ENDBRANCH  20  21
ENDBRANCH   1  20
BRANCH  12  26
HETATM   26  O2  UNL     1      -4.047  -1.705   0.728  1.00  0.00    -0.237 OA
BRANCH  26  27
HETATM   27  O3  UNL     1      -4.793  -2.451  -0.069  1.00  0.00    -0.250 OA
ATOM     28  H3  UNL     1      -4.778  -3.334   0.282  1.00  0.00     0.253 HD
ENDBRANCH  26  27
ENDBRANCH  12  26
TORSDOF 6
