REMARK  6 active torsions:
REMARK  status: ('A' for Active; 'I' for Inactive)
REMARK    1  A    between atoms: C5_5  and  C6_6 
REMARK    2  A    between atoms: C6_6  and  C7_7 
REMARK    3  A    between atoms: C8_8  and  O1_9 
REMARK    4  A    between atoms: C11_12  and  O2_13 
REMARK    5  A    between atoms: C14_16  and  O3_17 
REMARK    6  A    between atoms: O3_17  and  C15_18 
ROOT
HETATM    1  C7  UNL     1      -0.156   0.237  -0.834  1.00  0.00     0.033 A 
HETATM    2  C8  UNL     1      -0.331  -0.997  -1.471  1.00  0.00     0.084 A 
HETATM    3  C10 UNL     1      -1.405  -1.795  -1.129  1.00  0.00     0.074 A 
HETATM    4  C11 UNL     1      -2.295  -1.364  -0.161  1.00  0.00     0.073 A 
HETATM    5  C13 UNL     1      -2.097  -0.142   0.451  1.00  0.00     0.074 A 
HETATM    6  C14 UNL     1      -1.027   0.687   0.132  1.00  0.00     0.084 A 
ENDROOT
BRANCH   1   7
HETATM    7  C6  UNL     1       0.967   1.102  -1.171  1.00  0.00     0.046 C 
BRANCH   7   8
HETATM    8  C5  UNL     1       2.188   0.785  -0.713  1.00  0.00     0.033 A 
HETATM    9  C4  UNL     1       3.363   1.475  -0.924  1.00  0.00     0.031 A 
HETATM   10  C3  UNL     1       4.369   0.796  -0.272  1.00  0.00     0.031 A 
HETATM   11  C2  UNL     1       3.808  -0.320   0.345  1.00  0.00     0.023 A 
HETATM   12  C1  UNL     1       4.450  -1.216   1.064  1.00  0.00     0.043 C 
HETATM   13  N1  UNL     1       2.493  -0.276   0.046  1.00  0.00    -0.357 N 
ATOM     14  H1  UNL     1       1.813  -0.968   0.360  1.00  0.00     0.166 HD
ENDBRANCH   7   8
ENDBRANCH   1   7
BRANCH   2  15
HETATM   15  O1  UNL     1       0.609  -1.338  -2.422  1.00  0.00    -0.355 OA
HETATM   16  C9  UNL     1       0.612  -2.519  -3.165  1.00  0.00     0.210 C 
ENDBRANCH   2  15
BRANCH   6  17
HETATM   17  O3  UNL     1      -0.827   1.916   0.746  1.00  0.00    -0.350 OA
BRANCH  17  18
HETATM   18  C15 UNL     1      -1.768   2.310   1.731  1.00  0.00     0.171 C 
HETATM   19  C16 UNL     1      -1.436   3.656   2.316  1.00  0.00     0.034 C 
ENDBRANCH  17  18
ENDBRANCH   6  17
BRANCH   4  20
HETATM   20  O2  UNL     1      -3.369  -2.180   0.169  1.00  0.00    -0.356 OA
HETATM   21  C12 UNL     1      -4.324  -1.819   1.144  1.00  0.00     0.210 C 
ENDBRANCH   4  20
TORSDOF 6
