REMARK  6 active torsions:
REMARK  status: ('A' for Active; 'I' for Inactive)
REMARK    1  A    between atoms: C2_2  and  C3_3 
REMARK    2  A    between atoms: C3_3  and  N1_4 
REMARK    3  A    between atoms: C4_5  and  C5_6 
REMARK    4  A    between atoms: N2_7  and  O1_9 
REMARK    5  A    between atoms: N3_12  and  C7_13 
REMARK    6  A    between atoms: C7_13  and  C8_14 
ROOT
HETATM    1  N1  UNL     1       2.021   0.134   0.490  1.00  0.00    -0.330 N 
HETATM    2  C4  UNL     1       1.349  -1.023   0.742  1.00  0.00     0.070 A 
HETATM    3  C6  UNL     1       0.039  -0.969   1.192  1.00  0.00     0.141 A 
HETATM    4  N3  UNL     1      -0.593   0.215   1.386  1.00  0.00    -0.296 N 
HETATM    5  N4  UNL     1       0.088   1.293   1.131  1.00  0.00    -0.287 N 
ATOM      6  H4  UNL     1      -0.374   2.192   1.271  1.00  0.00     0.188 HD
HETATM    7  C14 UNL     1       1.360   1.303   0.695  1.00  0.00     0.095 A 
HETATM    8  C15 UNL     1       1.995   2.607   0.453  1.00  0.00     0.091 C 
ENDROOT
BRANCH   4   9
HETATM    9  C7  UNL     1      -1.970   0.235   1.859  1.00  0.00     0.186 C 
BRANCH   9  10
HETATM   10  C8  UNL     1      -2.949   0.219   0.767  1.00  0.00    -0.038 A 
HETATM   11  C9  UNL     1      -3.458   1.346   0.165  1.00  0.00     0.009 A 
HETATM   12  C10 UNL     1      -4.378   1.256  -0.859  1.00  0.00     0.001 A 
HETATM   13  C11 UNL     1      -4.814   0.043  -1.309  1.00  0.00     0.000 A 
HETATM   14  C12 UNL     1      -4.317  -1.100  -0.720  1.00  0.00     0.001 A 
HETATM   15  C13 UNL     1      -3.397  -0.999   0.303  1.00  0.00     0.009 A 
ENDBRANCH   9  10
ENDBRANCH   4   9
BRANCH   2  16
HETATM   16  C5  UNL     1       2.028  -2.283   0.497  1.00  0.00     0.144 C 
HETATM   17  N2  UNL     1       1.603  -3.438   0.696  1.00  0.00    -0.278 N 
ATOM     18  H2  UNL     1       2.291  -4.143   0.433  1.00  0.00     0.193 HD
BRANCH  17  19
HETATM   19  O1  UNL     1       0.494  -3.988   1.159  1.00  0.00    -0.290 OA
ATOM     20  H1  UNL     1       0.170  -4.868   1.311  1.00  0.00     0.244 HD
ENDBRANCH  17  19
ENDBRANCH   2  16
BRANCH   1  21
HETATM   21  C3  UNL     1       3.383   0.171   0.058  1.00  0.00     0.157 C 
BRANCH  21  22
HETATM   22  C2  UNL     1       3.549   0.071  -1.421  1.00  0.00    -0.017 C 
HETATM   23  C1  UNL     1       4.141   1.029  -2.120  1.00  0.00     0.008 C 
ENDBRANCH  21  22
ENDBRANCH   1  21
TORSDOF 6
