REMARK  6 active torsions:
REMARK  status: ('A' for Active; 'I' for Inactive)
REMARK    1  A    between atoms: C2_2  and  C3_3 
REMARK    2  A    between atoms: C3_3  and  N1_4 
REMARK    3  A    between atoms: N1_4  and  O1_5 
REMARK    4  A    between atoms: N1_4  and  N2_7 
REMARK    5  A    between atoms: N2_7  and  S1_9 
REMARK    6  A    between atoms: S1_9  and  C4_12 
ROOT
HETATM    1  S1  UNL     1       1.148   1.219   1.213  1.00  0.00     0.277 S 
HETATM    2  O2  UNL     1       1.368   2.543   1.933  1.00  0.00    -0.199 OA
HETATM    3  O3  UNL     1       1.459   0.105   2.170  1.00  0.00    -0.199 OA
ENDROOT
BRANCH   1   4
HETATM    4  N2  UNL     1       2.174   1.207  -0.145  1.00  0.00    -0.201 N 
ATOM      5  H2  UNL     1       2.445   2.066  -0.623  1.00  0.00     0.202 HD
BRANCH   4   6
HETATM    6  N1  UNL     1       2.615  -0.023  -0.559  1.00  0.00    -0.189 N 
BRANCH   6   7
HETATM    7  C3  UNL     1       3.688  -0.588   0.193  1.00  0.00     0.204 C 
BRANCH   7   8
HETATM    8  C2  UNL     1       4.491  -1.569  -0.583  1.00  0.00    -0.013 C 
HETATM    9  C1  UNL     1       5.782  -1.369  -0.782  1.00  0.00     0.008 C 
ENDBRANCH   7   8
ENDBRANCH   6   7
BRANCH   6  10
HETATM   10  O1  UNL     1       1.708  -0.868  -1.025  1.00  0.00    -0.271 OA
ATOM     11  H1  UNL     1       0.994  -0.492  -1.526  1.00  0.00     0.246 HD
ENDBRANCH   6  10
ENDBRANCH   4   6
ENDBRANCH   1   4
BRANCH   1  12
HETATM   12  C4  UNL     1      -0.509   1.095   0.671  1.00  0.00     0.082 A 
HETATM   13  C5  UNL     1      -1.283   2.208   0.357  1.00  0.00     0.026 A 
HETATM   14  C6  UNL     1      -2.587   2.089  -0.067  1.00  0.00     0.014 A 
HETATM   15  C7  UNL     1      -3.168   0.849  -0.195  1.00  0.00    -0.026 A 
HETATM   16  C8  UNL     1      -4.467   0.662  -0.615  1.00  0.00     0.012 A 
HETATM   17  C12 UNL     1      -2.425  -0.289   0.109  1.00  0.00    -0.025 A 
HETATM   18  C9  UNL     1      -5.034  -0.598  -0.737  1.00  0.00     0.001 A 
HETATM   19  C10 UNL     1      -4.283  -1.690  -0.433  1.00  0.00     0.001 A 
HETATM   20  C11 UNL     1      -2.973  -1.548  -0.007  1.00  0.00     0.012 A 
HETATM   21  C13 UNL     1      -1.119  -0.133   0.532  1.00  0.00     0.037 A 
ENDBRANCH   1  12
TORSDOF 6
