REMARK  5 active torsions:
REMARK  status: ('A' for Active; 'I' for Inactive)
REMARK    1  A    between atoms: C2_2  and  C3_3 
REMARK    2  A    between atoms: C2_2  and  N1_9 
REMARK    3  A    between atoms: N1_9  and  C9_10 
REMARK    4  A    between atoms: N1_9  and  C12_19 
REMARK    5  A    between atoms: C9_10  and  C10_11 
ROOT
HETATM    1  N1  UNL     1      -1.023  -0.658   0.153  1.00  0.00    -0.355 N 
ENDROOT
BRANCH   1   2
HETATM    2  C2  UNL     1       0.104  -0.856   0.948  1.00  0.00    -0.011 C 
HETATM    3  C1  UNL     1      -0.132  -1.209   2.404  1.00  0.00     0.064 C 
BRANCH   2   4
HETATM    4  C3  UNL     1       1.370  -0.129   0.677  1.00  0.00     0.031 C 
HETATM    5  C4  UNL     1       1.623   1.173   1.323  1.00  0.00     0.010 C 
HETATM    6  C5  UNL     1       3.161   1.375   1.275  1.00  0.00     0.001 C 
HETATM    7  C6  UNL     1       3.471   1.648  -0.182  1.00  0.00     0.000 C 
HETATM    8  C7  UNL     1       3.099   0.423  -0.966  1.00  0.00     0.001 C 
HETATM    9  C8  UNL     1       1.611   0.065  -0.822  1.00  0.00     0.010 C 
ENDBRANCH   2   4
ENDBRANCH   1   2
BRANCH   1  10
HETATM   10  C9  UNL     1      -2.011   0.273   0.355  1.00  0.00     0.149 C 
BRANCH  10  11
HETATM   11  C10 UNL     1      -1.738   1.707   0.408  1.00  0.00     0.181 A 
HETATM   12  N2  UNL     1      -1.432   2.521  -0.599  1.00  0.00    -0.276 N 
HETATM   13  N3  UNL     1      -1.269   3.725  -0.101  1.00  0.00    -0.268 N 
ATOM     14  H2  UNL     1      -1.341   2.257  -1.580  1.00  0.00     0.189 HD
HETATM   15  C11 UNL     1      -1.477   3.648   1.220  1.00  0.00     0.235 A 
ATOM     16  H3  UNL     1      -1.028   4.566  -0.625  1.00  0.00     0.190 HD
HETATM   17  S1  UNL     1      -1.401   4.856   2.314  1.00  0.00    -0.031 SA
HETATM   18  O1  UNL     1      -1.759   2.413   1.498  1.00  0.00    -0.263 OA
ENDBRANCH  10  11
ENDBRANCH   1  10
BRANCH   1  19
HETATM   19  C12 UNL     1      -1.433  -1.760  -0.636  1.00  0.00     0.089 C 
HETATM   20  C13 UNL     1      -2.762  -1.824  -1.278  1.00  0.00     0.026 C 
HETATM   21  C14 UNL     1      -2.611  -3.358  -1.158  1.00  0.00     0.004 C 
HETATM   22  C15 UNL     1      -1.873  -3.011   0.148  1.00  0.00     0.026 C 
ENDBRANCH   1  19
TORSDOF 5
