REMARK  5 active torsions:
REMARK  status: ('A' for Active; 'I' for Inactive)
REMARK    1  A    between atoms: C2_2  and  C4_4 
REMARK    2  A    between atoms: C6_7  and  S2_8 
REMARK    3  A    between atoms: S2_8  and  C7_9 
REMARK    4  A    between atoms: C7_9  and  C8_10 
REMARK       I    between atoms: C8_10  and  N1_12 
REMARK    5  A    between atoms: N1_12  and  C9_14 
ROOT
HETATM    1  S2  UNL     1       1.370  -2.065   1.489  1.00  0.00    -0.096 SA
ENDROOT
BRANCH   1   2
HETATM    2  C6  UNL     1       2.096  -0.844   0.362  1.00  0.00     0.112 A 
HETATM    3  S1  UNL     1       1.467  -0.163  -1.068  1.00  0.00    -0.075 SA
HETATM    4  C5  UNL     1       2.775   0.857  -1.464  1.00  0.00     0.077 A 
HETATM    5  C4  UNL     1       3.653   0.603  -0.432  1.00  0.00     0.020 A 
HETATM    6  N2  UNL     1       3.272  -0.256   0.461  1.00  0.00    -0.348 N 
ATOM      7  H2  UNL     1       3.886  -0.478   1.245  1.00  0.00     0.167 HD
BRANCH   5   8
HETATM    8  C2  UNL     1       5.005   1.299  -0.345  1.00  0.00     0.028 C 
HETATM    9  C1  UNL     1       5.081   2.015   1.006  1.00  0.00     0.016 C 
HETATM   10  C3  UNL     1       6.023   0.176  -0.366  1.00  0.00     0.016 C 
ENDBRANCH   5   8
ENDBRANCH   1   2
BRANCH   1  11
HETATM   11  C7  UNL     1      -0.239  -2.490   0.826  1.00  0.00     0.184 C 
BRANCH  11  12
HETATM   12  C8  UNL     1      -1.106  -1.267   0.911  1.00  0.00     0.227 C 
HETATM   13  O1  UNL     1      -0.682  -0.184   1.383  1.00  0.00    -0.273 OA
HETATM   14  N1  UNL     1      -2.438  -1.394   0.431  1.00  0.00    -0.356 N 
ATOM     15  H1  UNL     1      -2.774  -2.279   0.050  1.00  0.00     0.162 HD
BRANCH  14  16
HETATM   16  C9  UNL     1      -3.305  -0.238   0.496  1.00  0.00     0.084 C 
HETATM   17  C10 UNL     1      -3.781   0.185  -0.878  1.00  0.00     0.025 C 
HETATM   18  C11 UNL     1      -5.022   0.981  -0.531  1.00  0.00     0.002 C 
HETATM   19  C12 UNL     1      -5.722   0.004   0.404  1.00  0.00     0.002 C 
HETATM   20  C13 UNL     1      -4.562  -0.497   1.264  1.00  0.00     0.025 C 
ENDBRANCH  14  16
ENDBRANCH  11  12
ENDBRANCH   1  11
TORSDOF 5
