REMARK  6 active torsions:
REMARK  status: ('A' for Active; 'I' for Inactive)
REMARK    1  A    between atoms: C2_2  and  C3_3 
REMARK    2  A    between atoms: C3_3  and  C4_4 
REMARK       I    between atoms: C4_4  and  N1_6 
REMARK    3  A    between atoms: N1_6  and  C5_8 
REMARK    4  A    between atoms: C8_12  and  C9_13 
REMARK    5  A    between atoms: C9_13  and  O3_15 
REMARK    6  A    between atoms: O3_15  and  C10_16 
ROOT
HETATM    1  C5  UNL     1       0.253  -1.273   0.621  1.00  0.00     0.094 A 
HETATM    2  S1  UNL     1      -0.431  -2.854   1.033  1.00  0.00    -0.075 SA
HETATM    3  C6  UNL     1      -2.038  -2.569   0.686  1.00  0.00    -0.008 A 
HETATM    4  C7  UNL     1      -2.054  -1.268   0.262  1.00  0.00    -0.026 A 
HETATM    5  C8  UNL     1      -0.868  -0.598   0.237  1.00  0.00     0.080 A 
HETATM    6  C12 UNL     1      -3.453  -0.848  -0.131  1.00  0.00     0.041 C 
HETATM    7  C13 UNL     1      -4.068  -1.857  -1.084  1.00  0.00     0.005 C 
HETATM    8  C14 UNL     1      -3.888  -3.279  -0.690  1.00  0.00     0.005 C 
HETATM    9  C15 UNL     1      -3.363  -3.299   0.725  1.00  0.00     0.047 C 
ENDROOT
BRANCH   1  10
HETATM   10  N1  UNL     1       1.633  -1.026   0.766  1.00  0.00    -0.320 N 
HETATM   11  C4  UNL     1       2.564  -0.266   0.094  1.00  0.00     0.222 C 
HETATM   12  O1  UNL     1       2.325   0.395  -0.933  1.00  0.00    -0.273 OA
ATOM     13  H1  UNL     1       2.038  -1.529   1.555  1.00  0.00     0.169 HD
BRANCH  11  14
HETATM   14  C3  UNL     1       3.999  -0.196   0.601  1.00  0.00     0.103 C 
BRANCH  14  15
HETATM   15  C2  UNL     1       4.828   0.680  -0.272  1.00  0.00     0.005 C 
HETATM   16  C1  UNL     1       4.290   2.086  -0.318  1.00  0.00     0.005 C 
ENDBRANCH  14  15
ENDBRANCH  11  14
ENDBRANCH   1  10
BRANCH   5  17
HETATM   17  C9  UNL     1      -0.827   0.891   0.097  1.00  0.00     0.296 C 
HETATM   18  O2  UNL     1      -1.847   1.470  -0.330  1.00  0.00    -0.259 OA
BRANCH  17  19
HETATM   19  O3  UNL     1       0.216   1.697   0.408  1.00  0.00    -0.318 OA
BRANCH  19  20
HETATM   20  C10 UNL     1       0.230   3.103   0.287  1.00  0.00     0.174 C 
HETATM   21  C11 UNL     1      -0.004   3.565  -1.126  1.00  0.00     0.034 C 
ENDBRANCH  19  20
ENDBRANCH  17  19
ENDBRANCH   5  17
TORSDOF 6
