REMARK  5 active torsions:
REMARK  status: ('A' for Active; 'I' for Inactive)
REMARK    1  A    between atoms: C2_2  and  C3_3 
REMARK    2  A    between atoms: C3_3  and  C4_4 
REMARK    3  A    between atoms: C5_5  and  C6_6 
REMARK       I    between atoms: C6_6  and  N1_8 
REMARK    4  A    between atoms: N1_8  and  C7_9 
REMARK    5  A    between atoms: N1_8  and  C10_12 
ROOT
HETATM    1  C4  UNL     1       1.730   0.266  -0.651  1.00  0.00    -0.012 A 
HETATM    2  C5  UNL     1       0.425   0.493  -0.236  1.00  0.00     0.082 A 
HETATM    3  S1  UNL     1       0.421   2.151   0.132  1.00  0.00    -0.068 SA
HETATM    4  C13 UNL     1       2.020   2.546  -0.237  1.00  0.00     0.109 A 
HETATM    5  N2  UNL     1       2.672   3.839  -0.142  1.00  0.00    -0.093 NA
HETATM    6  C14 UNL     1       2.546   1.338  -0.650  1.00  0.00     0.083 A 
HETATM    7  C15 UNL     1       3.958   1.373  -1.113  1.00  0.00     0.102 C 
HETATM    8  N3  UNL     1       5.075   1.443  -1.492  1.00  0.00    -0.191 NA
ENDROOT
BRANCH   1   9
HETATM    9  C3  UNL     1       2.129  -1.144  -0.986  1.00  0.00     0.041 C 
BRANCH   9  10
HETATM   10  C2  UNL     1       3.541  -1.542  -0.790  1.00  0.00     0.000 C 
HETATM   11  C1  UNL     1       4.097  -1.431   0.585  1.00  0.00     0.005 C 
ENDBRANCH   9  10
ENDBRANCH   1   9
BRANCH   2  12
HETATM   12  C6  UNL     1      -0.717  -0.432  -0.248  1.00  0.00     0.262 C 
HETATM   13  O1  UNL     1      -0.494  -1.581  -0.798  1.00  0.00    -0.267 OA
HETATM   14  N1  UNL     1      -1.996  -0.221   0.258  1.00  0.00    -0.340 N 
BRANCH  14  15
HETATM   15  C7  UNL     1      -2.586   0.898   0.933  1.00  0.00     0.079 C 
HETATM   16  C8  UNL     1      -1.972   1.241   2.260  1.00  0.00     0.032 C 
HETATM   17  C9  UNL     1      -2.854   2.107   0.048  1.00  0.00     0.032 C 
ENDBRANCH  14  15
BRANCH  14  18
HETATM   18  C10 UNL     1      -2.931  -1.364   0.018  1.00  0.00     0.079 C 
HETATM   19  C11 UNL     1      -3.174  -1.569  -1.457  1.00  0.00     0.032 C 
HETATM   20  C12 UNL     1      -2.482  -2.622   0.645  1.00  0.00     0.032 C 
ENDBRANCH  14  18
ENDBRANCH   2  12
TORSDOF 5
