REMARK  7 active torsions:
REMARK  status: ('A' for Active; 'I' for Inactive)
REMARK    1  A    between atoms: C2_2  and  C3_3 
REMARK    2  A    between atoms: C3_3  and  C4_4 
REMARK    3  A    between atoms: C3_3  and  C6_7 
REMARK    4  A    between atoms: C6_7  and  C8_10 
REMARK       I    between atoms: C8_10  and  N3_12 
REMARK    5  A    between atoms: N3_12  and  C9_14 
REMARK    6  A    between atoms: C9_14  and  S2_16 
REMARK    7  A    between atoms: S2_16  and  C10_17 
ROOT
HETATM    1  C4  UNL     1      -2.660   1.076  -0.577  1.00  0.00     0.130 C 
HETATM    2  C5  UNL     1      -3.056   1.695   0.707  1.00  0.00     0.059 C 
HETATM    3  N1  UNL     1      -3.369   2.161   1.718  1.00  0.00    -0.197 NA
ENDROOT
BRANCH   1   4
HETATM    4  C3  UNL     1      -2.990  -0.377  -0.588  1.00  0.00     0.025 C 
BRANCH   4   5
HETATM    5  C2  UNL     1      -4.502  -0.479  -0.356  1.00  0.00     0.003 C 
HETATM    6  C1  UNL     1      -5.270   0.230  -1.426  1.00  0.00     0.005 C 
ENDBRANCH   4   5
BRANCH   4   7
HETATM    7  C6  UNL     1      -2.322  -1.223   0.455  1.00  0.00     0.190 C 
HETATM    8  C7  UNL     1      -2.886  -2.598   0.257  1.00  0.00     0.074 C 
HETATM    9  N2  UNL     1      -3.319  -3.660   0.124  1.00  0.00    -0.196 NA
BRANCH   7  10
HETATM   10  C8  UNL     1      -0.863  -1.336   0.124  1.00  0.00     0.241 C 
HETATM   11  O1  UNL     1      -0.476  -2.376  -0.498  1.00  0.00    -0.272 OA
HETATM   12  N3  UNL     1       0.045  -0.331   0.485  1.00  0.00    -0.311 N 
ATOM     13  H3  UNL     1      -0.284   0.492   0.989  1.00  0.00     0.170 HD
BRANCH  12  14
HETATM   14  C9  UNL     1       1.418  -0.453   0.153  1.00  0.00     0.141 C 
HETATM   15  S1  UNL     1       1.936  -1.752  -0.642  1.00  0.00    -0.052 SA
BRANCH  14  16
HETATM   16  S2  UNL     1       2.500   0.879   0.654  1.00  0.00    -0.091 SA
BRANCH  16  17
HETATM   17  C10 UNL     1       4.209   0.590   0.167  1.00  0.00     0.004 C 
HETATM   18  C11 UNL     1       5.026   1.774   0.642  1.00  0.00     0.026 C 
HETATM   19  C12 UNL     1       4.797  -0.645   0.767  1.00  0.00     0.026 C 
HETATM   20  C13 UNL     1       4.345   0.539  -1.339  1.00  0.00     0.026 C 
ENDBRANCH  16  17
ENDBRANCH  14  16
ENDBRANCH  12  14
ENDBRANCH   7  10
ENDBRANCH   4   7
ENDBRANCH   1   4
TORSDOF 7
