REMARK  7 active torsions:
REMARK  status: ('A' for Active; 'I' for Inactive)
REMARK       I    between atoms: C1_2  and  N1_3 
REMARK       I    between atoms: C1_2  and  N2_10 
REMARK    1  A    between atoms: N1_3  and  C2_4 
REMARK    2  A    between atoms: N2_10  and  C8_12 
REMARK    3  A    between atoms: C13_17  and  C14_18 
REMARK    4  A    between atoms: C14_18  and  N3_19 
REMARK       I    between atoms: N3_19  and  C15_21 
REMARK    5  A    between atoms: C15_21  and  C16_23 
REMARK    6  A    between atoms: C19_26  and  O3_27 
REMARK    7  A    between atoms: O3_27  and  C20_28 
ROOT
HETATM    1  C14 UNL     1      -1.400  -0.217  -0.698  1.00  0.00     0.163 C 
ENDROOT
BRANCH   1   2
HETATM    2  C13 UNL     1      -1.686  -1.661  -0.913  1.00  0.00    -0.014 A 
HETATM    3  C8  UNL     1      -3.036  -2.066  -0.708  1.00  0.00     0.045 A 
HETATM    4  C9  UNL     1      -3.237  -3.402  -0.922  1.00  0.00     0.030 A 
HETATM    5  C10 UNL     1      -2.233  -4.304  -1.306  1.00  0.00     0.002 A 
HETATM    6  C11 UNL     1      -0.961  -3.866  -1.491  1.00  0.00     0.001 A 
HETATM    7  C12 UNL     1      -0.703  -2.531  -1.289  1.00  0.00     0.011 A 
BRANCH   3   8
HETATM    8  N2  UNL     1      -3.983  -1.093  -0.370  1.00  0.00    -0.296 N 
HETATM    9  C1  UNL     1      -5.374  -1.363  -0.081  1.00  0.00     0.398 C 
HETATM   10  O1  UNL     1      -5.749  -2.588  -0.124  1.00  0.00    -0.230 OA
HETATM   11  N1  UNL     1      -6.151  -0.303   0.206  1.00  0.00    -0.352 NA
ATOM     12  H2  UNL     1      -3.670  -0.123  -0.324  1.00  0.00     0.172 HD
BRANCH  11  13
HETATM   13  C2  UNL     1      -6.939   0.771   0.497  1.00  0.00     0.112 A 
HETATM   14  C3  UNL     1      -8.023   0.801   1.344  1.00  0.00     0.045 A 
HETATM   15  C4  UNL     1      -8.759   1.944   1.572  1.00  0.00     0.003 A 
HETATM   16  C5  UNL     1      -8.435   3.125   0.950  1.00  0.00     0.000 A 
HETATM   17  C6  UNL     1      -7.355   3.114   0.101  1.00  0.00     0.003 A 
HETATM   18  C7  UNL     1      -6.625   2.013  -0.135  1.00  0.00     0.045 A 
ENDBRANCH  11  13
ENDBRANCH   3   8
ENDBRANCH   1   2
BRANCH   1  19
HETATM   19  N3  UNL     1      -0.046   0.168  -0.871  1.00  0.00    -0.353 N 
HETATM   20  C15 UNL     1       1.017  -0.241  -0.017  1.00  0.00     0.251 C 
HETATM   21  O2  UNL     1       0.806  -0.970   0.980  1.00  0.00    -0.268 OA
ATOM     22  H3  UNL     1       0.181   0.777  -1.657  1.00  0.00     0.163 HD
BRANCH  20  23
HETATM   23  C16 UNL     1       2.395   0.159  -0.261  1.00  0.00     0.032 A 
HETATM   24  C17 UNL     1       2.842   1.446  -0.401  1.00  0.00     0.020 A 
HETATM   25  C18 UNL     1       4.184   1.731  -0.672  1.00  0.00     0.038 A 
HETATM   26  C19 UNL     1       5.075   0.697  -0.801  1.00  0.00     0.076 A 
HETATM   27  C26 UNL     1       4.643  -0.605  -0.662  1.00  0.00     0.038 A 
HETATM   28  C27 UNL     1       3.330  -0.867  -0.398  1.00  0.00     0.020 A 
BRANCH  26  29
HETATM   29  O3  UNL     1       6.384   0.919  -1.065  1.00  0.00    -0.311 OA
BRANCH  29  30
HETATM   30  C20 UNL     1       7.450   0.998  -0.218  1.00  0.00     0.076 A 
HETATM   31  C21 UNL     1       8.192  -0.132   0.073  1.00  0.00     0.037 A 
HETATM   32  C22 UNL     1       9.277  -0.093   0.923  1.00  0.00     0.003 A 
HETATM   33  C23 UNL     1       9.645   1.093   1.508  1.00  0.00     0.000 A 
HETATM   34  C24 UNL     1       8.915   2.216   1.226  1.00  0.00     0.003 A 
HETATM   35  C25 UNL     1       7.818   2.178   0.366  1.00  0.00     0.037 A 
ENDBRANCH  29  30
ENDBRANCH  26  29
ENDBRANCH  20  23
ENDBRANCH   1  19
TORSDOF 7
