REMARK  7 active torsions:
REMARK  status: ('A' for Active; 'I' for Inactive)
REMARK       I    between atoms: C1_2  and  N1_3 
REMARK    1  A    between atoms: C1_2  and  C15_21 
REMARK    2  A    between atoms: N1_3  and  C2_4 
REMARK    3  A    between atoms: C6_8  and  C7_9 
REMARK    4  A    between atoms: C20_26  and  N4_27 
REMARK    5  A    between atoms: N4_27  and  C21_29 
REMARK    6  A    between atoms: C21_29  and  C22_30 
REMARK    7  A    between atoms: C22_30  and  C23_31 
ROOT
HETATM    1  O1  UNL     1       0.785   0.219   0.967  1.00  0.00    -0.251 OA
HETATM    2  C1  UNL     1       0.338  -0.546   0.051  1.00  0.00     0.328 C 
HETATM    3  N1  UNL     1      -0.880  -0.492  -0.500  1.00  0.00    -0.366 NA
ENDROOT
BRANCH   2   4
HETATM    4  C15 UNL     1       1.335  -1.569  -0.409  1.00  0.00     0.073 A 
HETATM    5  C16 UNL     1       0.846  -2.687  -1.018  1.00  0.00     0.020 A 
HETATM    6  C17 UNL     1       1.708  -3.723  -1.313  1.00  0.00     0.001 A 
HETATM    7  C18 UNL     1       3.043  -3.660  -1.012  1.00  0.00     0.002 A 
HETATM    8  C19 UNL     1       3.526  -2.523  -0.399  1.00  0.00     0.030 A 
HETATM    9  C20 UNL     1       2.658  -1.466  -0.097  1.00  0.00     0.044 A 
BRANCH   9  10
HETATM   10  N4  UNL     1       3.206  -0.278   0.403  1.00  0.00    -0.389 N 
ATOM     11  H4  UNL     1       2.626   0.541   0.585  1.00  0.00     0.159 HD
BRANCH  10  12
HETATM   12  C21 UNL     1       4.660  -0.264   0.655  1.00  0.00     0.124 C 
BRANCH  12  13
HETATM   13  C22 UNL     1       5.076   1.124   1.095  1.00  0.00     0.058 C 
BRANCH  13  14
HETATM   14  C23 UNL     1       6.513   1.265   1.316  1.00  0.00    -0.057 A 
HETATM   15  C24 UNL     1       7.179   1.025   2.488  1.00  0.00     0.007 A 
HETATM   16  C25 UNL     1       8.555   1.204   2.544  1.00  0.00     0.001 A 
HETATM   17  C26 UNL     1       9.267   1.621   1.436  1.00  0.00     0.000 A 
HETATM   18  C27 UNL     1       8.617   1.870   0.244  1.00  0.00     0.001 A 
HETATM   19  C28 UNL     1       7.257   1.688   0.203  1.00  0.00     0.007 A 
ENDBRANCH  13  14
ENDBRANCH  12  13
ENDBRANCH  10  12
ENDBRANCH   9  10
ENDBRANCH   2   4
BRANCH   3  20
HETATM   20  C2  UNL     1      -2.118  -0.437  -1.061  1.00  0.00     0.112 A 
HETATM   21  C3  UNL     1      -2.253  -0.841  -2.424  1.00  0.00     0.045 A 
HETATM   22  C4  UNL     1      -3.440  -0.866  -3.075  1.00  0.00     0.004 A 
HETATM   23  C5  UNL     1      -4.577  -0.482  -2.392  1.00  0.00     0.015 A 
HETATM   24  C6  UNL     1      -4.524  -0.081  -1.080  1.00  0.00     0.011 A 
HETATM   25  C14 UNL     1      -3.304  -0.070  -0.455  1.00  0.00     0.060 A 
BRANCH  24  26
HETATM   26  C7  UNL     1      -5.749   0.332  -0.415  1.00  0.00     0.116 A 
HETATM   27  N2  UNL     1      -6.991   0.387  -0.967  1.00  0.00    -0.340 N 
HETATM   28  C8  UNL     1      -7.861   0.833  -0.036  1.00  0.00     0.060 A 
ATOM     29  H2  UNL     1      -7.226   0.133  -1.926  1.00  0.00     0.167 HD
HETATM   30  C9  UNL     1      -9.204   1.066  -0.069  1.00  0.00     0.032 A 
HETATM   31  C13 UNL     1      -7.109   1.051   1.107  1.00  0.00     0.060 A 
HETATM   32  C10 UNL     1      -9.865   1.530   1.044  1.00  0.00     0.002 A 
HETATM   33  C11 UNL     1      -9.098   1.741   2.174  1.00  0.00     0.002 A 
HETATM   34  C12 UNL     1      -7.739   1.510   2.218  1.00  0.00     0.032 A 
HETATM   35  N3  UNL     1      -5.835   0.740   0.860  1.00  0.00    -0.340 N 
ATOM     36  H3  UNL     1      -5.063   0.802   1.524  1.00  0.00     0.167 HD
ENDBRANCH  24  26
ENDBRANCH   3  20
TORSDOF 7
