REMARK  6 active torsions:
REMARK  status: ('A' for Active; 'I' for Inactive)
REMARK    1  A    between atoms: O1_2  and  C2_3 
REMARK    2  A    between atoms: C4_5  and  C5_6 
REMARK    3  A    between atoms: C5_6  and  C6_7 
REMARK    4  A    between atoms: C15_18  and  O4_19 
REMARK    5  A    between atoms: C16_21  and  C17_22 
REMARK    6  A    between atoms: C20_25  and  O5_26 
ROOT
HETATM    1  C2  UNL     1      -2.912   1.746   0.121  1.00  0.00     0.102 A 
HETATM    2  C3  UNL     1      -1.597   1.654  -0.216  1.00  0.00     0.049 A 
HETATM    3  C4  UNL     1      -1.111   0.431  -0.655  1.00  0.00    -0.019 A 
HETATM    4  C15 UNL     1      -1.950  -0.648  -0.739  1.00  0.00     0.081 A 
HETATM    5  C16 UNL     1      -3.284  -0.604  -0.420  1.00  0.00     0.015 A 
HETATM    6  C20 UNL     1      -3.723   0.649   0.022  1.00  0.00     0.111 A 
ENDROOT
BRANCH   3   7
HETATM    7  C5  UNL     1       0.279   0.386  -1.065  1.00  0.00     0.082 C 
BRANCH   7   8
HETATM    8  C6  UNL     1       1.330   0.211  -0.063  1.00  0.00     0.099 C 
HETATM    9  C7  UNL     1       1.327   1.356   0.953  1.00  0.00     0.050 C 
HETATM   10  C8  UNL     1       2.680   0.296  -0.807  1.00  0.00     0.082 C 
HETATM   11  C9  UNL     1       3.573  -0.390   0.229  1.00  0.00     0.099 C 
HETATM   12  C10 UNL     1       4.684   0.545   0.567  1.00  0.00     0.041 C 
HETATM   13  C14 UNL     1       4.046  -1.752  -0.242  1.00  0.00     0.041 C 
HETATM   14  O2  UNL     1       2.667  -0.653   1.256  1.00  0.00    -0.229 OA
HETATM   15  C11 UNL     1       5.723   0.468  -0.537  1.00  0.00     0.003 C 
HETATM   16  C12 UNL     1       6.262  -0.906  -0.746  1.00  0.00     0.000 C 
HETATM   17  C13 UNL     1       5.501  -1.843   0.198  1.00  0.00     0.003 C 
HETATM   18  O3  UNL     1       1.506  -0.943   0.610  1.00  0.00    -0.229 OA
ENDBRANCH   7   8
ENDBRANCH   3   7
BRANCH   4  19
HETATM   19  O4  UNL     1      -1.466  -1.914  -1.146  1.00  0.00    -0.359 OA
ATOM     20  H4  UNL     1      -2.048  -2.663  -1.204  1.00  0.00     0.217 HD
ENDBRANCH   4  19
BRANCH   1  21
HETATM   21  O1  UNL     1      -3.427   2.934   0.565  1.00  0.00    -0.353 OA
HETATM   22  C1  UNL     1      -2.723   4.126   0.734  1.00  0.00     0.210 C 
ENDBRANCH   1  21
BRANCH   5  23
HETATM   23  C17 UNL     1      -4.242  -1.709  -0.513  1.00  0.00     0.016 C 
HETATM   24  C18 UNL     1      -5.325  -1.231  -1.534  1.00  0.00     0.015 C 
HETATM   25  C19 UNL     1      -3.774  -3.067  -0.798  1.00  0.00     0.015 C 
ENDBRANCH   5  23
BRANCH   6  26
HETATM   26  O5  UNL     1      -5.072   0.801   0.407  1.00  0.00    -0.352 OA
HETATM   27  C21 UNL     1      -5.329   0.523   1.800  1.00  0.00     0.210 C 
ENDBRANCH   6  26
TORSDOF 6
