REMARK  6 active torsions:
REMARK  status: ('A' for Active; 'I' for Inactive)
REMARK    1  A    between atoms: O1_2  and  C2_3 
REMARK    2  A    between atoms: C2_3  and  C3_5 
REMARK    3  A    between atoms: C3_5  and  C4_6 
REMARK    4  A    between atoms: C4_6  and  C5_7 
REMARK    5  A    between atoms: C12_15  and  C13_16 
REMARK    6  A    between atoms: C16_20  and  O4_21 
ROOT
HETATM    1  C5  UNL     1       1.407  -1.073  -0.005  1.00  0.00    -0.023 C 
HETATM    2  C6  UNL     1       2.165  -2.051   0.956  1.00  0.00     0.017 C 
HETATM    3  C7  UNL     1       1.483  -1.948  -1.301  1.00  0.00     0.057 C 
HETATM    4  C8  UNL     1       0.717  -1.429  -2.437  1.00  0.00     0.031 C 
HETATM    5  C9  UNL     1      -0.554  -2.001  -1.757  1.00  0.00     0.053 C 
HETATM    6  S1  UNL     1       0.425  -3.371  -1.185  1.00  0.00    -0.158 SA
HETATM    7  C10 UNL     1      -0.933  -0.986  -0.754  1.00  0.00     0.009 C 
HETATM    8  C11 UNL     1      -2.372  -1.073  -0.339  1.00  0.00     0.016 C 
HETATM    9  C12 UNL     1      -2.686   0.002   0.671  1.00  0.00     0.024 C 
HETATM   10  C17 UNL     1      -1.674   1.073   0.555  1.00  0.00     0.010 C 
HETATM   11  C18 UNL     1      -0.274   0.615   0.877  1.00  0.00     0.011 C 
HETATM   12  C19 UNL     1       0.033  -0.811   0.417  1.00  0.00    -0.031 C 
HETATM   13  C20 UNL     1      -0.405  -1.703   1.578  1.00  0.00     0.016 C 
ENDROOT
BRANCH   1  14
HETATM   14  C4  UNL     1       2.323   0.061  -0.326  1.00  0.00     0.021 C 
BRANCH  14  15
HETATM   15  C3  UNL     1       2.893   0.804   0.852  1.00  0.00     0.112 C 
BRANCH  15  16
HETATM   16  C2  UNL     1       3.773   1.935   0.379  1.00  0.00     0.258 C 
HETATM   17  O2  UNL     1       3.189   2.997   0.049  1.00  0.00    -0.265 OA
BRANCH  16  18
HETATM   18  O1  UNL     1       5.134   1.862   0.294  1.00  0.00    -0.326 OA
HETATM   19  C1  UNL     1       5.948   2.949  -0.159  1.00  0.00     0.213 C 
ENDBRANCH  16  18
ENDBRANCH  15  16
ENDBRANCH  14  15
ENDBRANCH   1  14
BRANCH   9  20
HETATM   20  C13 UNL     1      -4.075   0.484   0.446  1.00  0.00     0.006 A 
HETATM   21  C14 UNL     1      -5.004  -0.035  -0.407  1.00  0.00     0.037 A 
HETATM   22  C15 UNL     1      -6.162   0.727  -0.277  1.00  0.00     0.145 A 
HETATM   23  O3  UNL     1      -5.919   1.639   0.604  1.00  0.00    -0.300 OA
HETATM   24  C16 UNL     1      -4.694   1.544   1.069  1.00  0.00     0.189 A 
BRANCH  24  25
HETATM   25  O4  UNL     1      -4.177   2.383   2.010  1.00  0.00    -0.340 OA
ATOM     26  H4  UNL     1      -4.604   3.115   2.440  1.00  0.00     0.220 HD
ENDBRANCH  24  25
ENDBRANCH   9  20
TORSDOF 6
