REMARK  7 active torsions:
REMARK  status: ('A' for Active; 'I' for Inactive)
REMARK    1  A    between atoms: O1_2  and  C2_3 
REMARK    2  A    between atoms: C5_8  and  N2_9 
REMARK    3  A    between atoms: N2_9  and  N3_11 
REMARK    4  A    between atoms: N3_11  and  N4_12 
REMARK    5  A    between atoms: C8_17  and  N5_18 
REMARK    6  A    between atoms: N5_18  and  C9_20 
REMARK    7  A    between atoms: C17_29  and  O2_30 
ROOT
HETATM    1  C2  UNL     1      -3.189  -0.980  -0.084  1.00  0.00     0.103 A 
HETATM    2  C3  UNL     1      -3.148   0.138  -0.888  1.00  0.00     0.070 A 
HETATM    3  C4  UNL     1      -1.980   0.873  -0.966  1.00  0.00     0.049 A 
HETATM    4  N1  UNL     1      -1.949   1.961  -1.751  1.00  0.00    -0.339 N 
ATOM      5  H1  UNL     1      -2.783   2.226  -2.275  1.00  0.00     0.167 HD
HETATM    6  C5  UNL     1      -0.840   2.705  -1.858  1.00  0.00     0.141 A 
HETATM    7  C6  UNL     1       0.296   2.374  -1.167  1.00  0.00     0.012 A 
HETATM    8  C7  UNL     1       1.553   3.159  -1.245  1.00  0.00     0.055 C 
HETATM    9  C8  UNL     1       0.346   1.233  -0.311  1.00  0.00     0.055 A 
HETATM   10  C15 UNL     1      -0.828   0.510  -0.245  1.00  0.00     0.021 A 
HETATM   11  C16 UNL     1      -0.902  -0.615   0.551  1.00  0.00     0.055 A 
HETATM   12  C17 UNL     1      -2.056  -1.362   0.643  1.00  0.00     0.102 A 
ENDROOT
BRANCH   9  13
HETATM   13  N5  UNL     1       1.356   1.004   0.256  1.00  0.00    -0.354 N 
ATOM     14  H5  UNL     1       1.964   1.760  -0.059  1.00  0.00     0.166 HD
BRANCH  13  15
HETATM   15  C9  UNL     1       2.181   0.290   1.106  1.00  0.00     0.046 A 
HETATM   16  C10 UNL     1       2.288   0.539   2.486  1.00  0.00     0.080 A 
HETATM   17  S1  UNL     1       3.421  -0.584   3.017  1.00  0.00    -0.104 SA
HETATM   18  C11 UNL     1       3.770  -1.363   1.556  1.00  0.00    -0.013 A 
HETATM   19  C12 UNL     1       4.738  -2.501   1.333  1.00  0.00     0.057 C 
HETATM   20  C13 UNL     1       2.983  -0.726   0.654  1.00  0.00    -0.022 A 
HETATM   21  C14 UNL     1       3.037  -1.178  -0.810  1.00  0.00     0.052 C 
ENDBRANCH  13  15
ENDBRANCH   9  13
BRANCH   6  22
HETATM   22  N2  UNL     1      -0.856   3.844  -2.699  1.00  0.00    -0.199 N 
ATOM     23  H2  UNL     1      -0.708   3.712  -3.699  1.00  0.00     0.205 HD
BRANCH  22  24
HETATM   24  N3  UNL     1      -1.040   4.983  -2.280  1.00  0.00    -0.242 NA
BRANCH  24  25
HETATM   25  N4  UNL     1      -1.571   6.024  -1.903  1.00  0.00    -0.260 N 
ATOM     26  H42 UNL     1      -2.524   5.688  -2.043  1.00  0.00     0.193 HD
ATOM     27  H41 UNL     1      -1.724   6.970  -1.555  1.00  0.00     0.193 HD
ENDBRANCH  24  25
ENDBRANCH  22  24
ENDBRANCH   6  22
BRANCH  12  28
HETATM   28  O2  UNL     1      -2.068  -2.474   1.454  1.00  0.00    -0.353 OA
HETATM   29  C18 UNL     1      -0.905  -2.822   2.168  1.00  0.00     0.210 C 
ENDBRANCH  12  28
BRANCH   1  30
HETATM   30  O1  UNL     1      -4.313  -1.781   0.059  1.00  0.00    -0.353 OA
HETATM   31  C1  UNL     1      -5.517  -1.482  -0.636  1.00  0.00     0.210 C 
ENDBRANCH   1  30
TORSDOF 7
