REMARK  4 active torsions:
REMARK  status: ('A' for Active; 'I' for Inactive)
REMARK    1  A    between atoms: C3_3  and  O1_4 
REMARK    2  A    between atoms: C13_15  and  C14_16 
REMARK    3  A    between atoms: C17_19  and  C19_21 
REMARK    4  A    between atoms: N1_22  and  O2_24 
ROOT
HETATM    1  C1  UNL     1      -1.756  -1.176  -2.274  1.00  0.00     0.017 C 
HETATM    2  C2  UNL     1      -2.360  -0.932  -1.162  1.00  0.00    -0.052 C 
HETATM    3  C3  UNL     1      -3.850  -1.210  -1.104  1.00  0.00     0.147 C 
HETATM    4  C4  UNL     1      -4.468  -0.323  -0.034  1.00  0.00     0.037 C 
HETATM    5  C5  UNL     1      -3.776   0.997   0.033  1.00  0.00     0.013 C 
HETATM    6  C6  UNL     1      -2.319   0.941   0.426  1.00  0.00    -0.032 C 
HETATM    7  C7  UNL     1      -2.226   1.171   1.908  1.00  0.00     0.016 C 
HETATM    8  C8  UNL     1      -1.658   2.087  -0.282  1.00  0.00     0.014 C 
HETATM    9  C9  UNL     1      -0.196   2.165  -0.240  1.00  0.00     0.036 C 
HETATM   10  C10 UNL     1       0.442   0.853  -0.227  1.00  0.00    -0.063 C 
HETATM   11  C11 UNL     1      -0.231  -0.279  -0.116  1.00  0.00    -0.067 C 
HETATM   12  C12 UNL     1       0.751  -1.433  -0.136  1.00  0.00     0.041 C 
HETATM   13  C13 UNL     1       1.983  -0.729   0.465  1.00  0.00     0.010 C 
HETATM   14  C17 UNL     1       1.930   0.541  -0.331  1.00  0.00     0.018 C 
HETATM   15  C18 UNL     1       2.227   0.393  -1.785  1.00  0.00     0.026 C 
HETATM   16  C20 UNL     1      -1.679  -0.386   0.029  1.00  0.00     0.053 C 
ENDROOT
BRANCH  14  17
HETATM   17  C19 UNL     1       2.716   1.644   0.276  1.00  0.00     0.101 C 
HETATM   18  N1  UNL     1       2.452   2.004   1.474  1.00  0.00    -0.283 N 
ATOM     19  H1  UNL     1       1.706   1.514   1.968  1.00  0.00     0.192 HD
BRANCH  18  20
HETATM   20  O2  UNL     1       3.109   3.005   2.134  1.00  0.00    -0.291 OA
ATOM     21  H2  UNL     1       2.913   3.273   3.024  1.00  0.00     0.244 HD
ENDBRANCH  18  20
ENDBRANCH  14  17
BRANCH  13  22
HETATM   22  C14 UNL     1       3.225  -1.537   0.257  1.00  0.00    -0.017 C 
HETATM   23  C15 UNL     1       3.057  -2.895   0.931  1.00  0.00     0.010 C 
HETATM   24  C16 UNL     1       4.372  -0.859   0.975  1.00  0.00     0.010 C 
ENDBRANCH  13  22
BRANCH   3  25
HETATM   25  O1  UNL     1      -4.016  -2.522  -0.718  1.00  0.00    -0.391 OA
ATOM     26  H1  UNL     1      -4.949  -2.696  -0.682  1.00  0.00     0.210 HD
ENDBRANCH   3  25
TORSDOF 4
