REMARK  4 active torsions:
REMARK  status: ('A' for Active; 'I' for Inactive)
REMARK    1  A    between atoms: C2_2  and  C4_4 
REMARK    2  A    between atoms: C6_6  and  O1_7 
REMARK    3  A    between atoms: O1_7  and  C7_8 
REMARK       I    between atoms: C7_8  and  N1_10 
REMARK    4  A    between atoms: C17_21  and  O3_22 
ROOT
HETATM    1  C4  UNL     1      -0.916   1.225   0.265  1.00  0.00     0.019 C 
HETATM    2  C5  UNL     1       0.569   1.312   0.451  1.00  0.00     0.045 C 
HETATM    3  C6  UNL     1       1.357   0.164  -0.126  1.00  0.00     0.157 C 
HETATM    4  C9  UNL     1       0.717  -0.402  -1.341  1.00  0.00     0.008 C 
HETATM    5  C10 UNL     1       0.342  -1.670  -1.420  1.00  0.00    -0.085 C 
HETATM    6  C11 UNL     1      -0.287  -2.088  -2.707  1.00  0.00     0.043 C 
HETATM    7  C12 UNL     1       0.494  -2.675  -0.367  1.00  0.00     0.037 C 
HETATM    8  C13 UNL     1      -0.551  -2.631   0.706  1.00  0.00     0.032 C 
HETATM    9  C14 UNL     1      -1.842  -2.111   0.274  1.00  0.00    -0.021 C 
HETATM   10  C15 UNL     1      -2.541  -1.106   0.768  1.00  0.00    -0.059 C 
HETATM   11  C16 UNL     1      -3.882  -0.720   0.166  1.00  0.00     0.046 C 
HETATM   12  C17 UNL     1      -2.131  -0.274   1.912  1.00  0.00     0.147 C 
HETATM   13  C18 UNL     1      -1.708   1.122   1.516  1.00  0.00     0.045 C 
ENDROOT
BRANCH   3  14
HETATM   14  O1  UNL     1       2.669   0.654  -0.455  1.00  0.00    -0.295 OA
BRANCH  14  15
HETATM   15  C7  UNL     1       3.822   0.102   0.087  1.00  0.00     0.360 C 
HETATM   16  O2  UNL     1       3.650  -0.855   0.887  1.00  0.00    -0.239 OA
HETATM   17  N1  UNL     1       5.118   0.563  -0.220  1.00  0.00    -0.341 N 
HETATM   18  C8  UNL     1       6.259  -0.064   0.386  1.00  0.00     0.151 C 
ATOM     19  H1  UNL     1       5.245   1.339  -0.870  1.00  0.00     0.164 HD
ENDBRANCH  14  15
ENDBRANCH   3  14
BRANCH   1  20
HETATM   20  C2  UNL     1      -1.341   2.430  -0.505  1.00  0.00    -0.089 C 
HETATM   21  C1  UNL     1      -1.831   2.345  -1.733  1.00  0.00     0.014 C 
HETATM   22  C3  UNL     1      -1.217   3.775   0.118  1.00  0.00     0.043 C 
ENDBRANCH   1  20
BRANCH  12  23
HETATM   23  O3  UNL     1      -3.237  -0.213   2.801  1.00  0.00    -0.391 OA
ATOM     24  H3  UNL     1      -2.973   0.324   3.539  1.00  0.00     0.210 HD
ENDBRANCH  12  23
TORSDOF 4
