REMARK  8 active torsions:
REMARK  status: ('A' for Active; 'I' for Inactive)
REMARK    1  A    between atoms: C2_2  and  C3_3 
REMARK    2  A    between atoms: C3_3  and  C4_4 
REMARK    3  A    between atoms: C4_4  and  C5_5 
REMARK    4  A    between atoms: C5_5  and  C6_6 
REMARK    5  A    between atoms: C6_6  and  C7_7 
REMARK    6  A    between atoms: C7_7  and  N1_8 
REMARK    7  A    between atoms: C10_11  and  C11_12 
REMARK    8  A    between atoms: C11_12  and  O2_14 
ROOT
HETATM    1  N1  UNL     1       0.434   0.885  -0.234  1.00  0.00    -0.378 N 
HETATM    2  C8  UNL     1       0.095   2.260   0.074  1.00  0.00     0.016 C 
HETATM    3  C9  UNL     1       1.015   3.397  -0.177  1.00  0.00     0.068 C 
HETATM    4  C10 UNL     1      -1.145   2.280   0.599  1.00  0.00     0.045 C 
HETATM    5  C13 UNL     1      -1.619   0.879   0.655  1.00  0.00     0.050 C 
HETATM    6  C14 UNL     1      -3.079   0.799   0.486  1.00  0.00     0.014 C 
HETATM    7  C15 UNL     1      -3.737  -0.239   1.383  1.00  0.00     0.036 C 
HETATM    8  C16 UNL     1      -3.567  -1.643   0.836  1.00  0.00     0.225 A 
HETATM    9  C17 UNL     1      -2.203  -2.122   1.336  1.00  0.00     0.072 A 
HETATM   10  C18 UNL     1      -1.801  -2.064  -0.020  1.00  0.00     0.231 A 
HETATM   11  C19 UNL     1      -0.898  -1.159  -0.700  1.00  0.00     0.042 C 
HETATM   12  C20 UNL     1      -1.273  -1.383  -2.191  1.00  0.00     0.010 C 
HETATM   13  C21 UNL     1      -2.238  -2.499  -2.414  1.00  0.00     0.031 C 
HETATM   14  C22 UNL     1      -3.490  -2.392  -1.529  1.00  0.00     0.273 C 
HETATM   15  N2  UNL     1      -3.113  -1.554  -0.464  1.00  0.00     0.098 N 
HETATM   16  C23 UNL     1      -0.850   0.272  -0.489  1.00  0.00     0.099 C 
ENDROOT
BRANCH   1  17
HETATM   17  C7  UNL     1       1.791   0.392  -0.259  1.00  0.00     0.123 C 
BRANCH  17  18
HETATM   18  C6  UNL     1       2.337   0.100  -1.600  1.00  0.00     0.020 C 
BRANCH  18  19
HETATM   19  C5  UNL     1       3.717  -0.352  -1.763  1.00  0.00     0.002 C 
BRANCH  19  20
HETATM   20  C4  UNL     1       4.255  -1.595  -1.241  1.00  0.00     0.000 C 
BRANCH  20  21
HETATM   21  C3  UNL     1       4.285  -1.834   0.209  1.00  0.00    -0.000 C 
BRANCH  21  22
HETATM   22  C2  UNL     1       5.045  -0.799   0.993  1.00  0.00    -0.005 C 
HETATM   23  C1  UNL     1       4.967  -1.211   2.454  1.00  0.00     0.005 C 
ENDBRANCH  21  22
ENDBRANCH  20  21
ENDBRANCH  19  20
ENDBRANCH  18  19
ENDBRANCH  17  18
ENDBRANCH   1  17
BRANCH   4  24
HETATM   24  C11 UNL     1      -1.772   3.530   1.015  1.00  0.00     0.291 C 
HETATM   25  O1  UNL     1      -1.118   4.617   0.857  1.00  0.00    -0.260 OA
BRANCH  24  26
HETATM   26  O2  UNL     1      -3.013   3.667   1.574  1.00  0.00    -0.323 OA
HETATM   27  C12 UNL     1      -3.530   4.923   1.948  1.00  0.00     0.213 C 
ENDBRANCH  24  26
ENDBRANCH   4  24
TORSDOF 8
