REMARK  6 active torsions:
REMARK  status: ('A' for Active; 'I' for Inactive)
REMARK    1  A    between atoms: N1_3  and  C3_4 
REMARK       I    between atoms: N1_3  and  C17_19 
REMARK    2  A    between atoms: C3_4  and  C4_5 
REMARK    3  A    between atoms: N2_8  and  C7_9 
REMARK    4  A    between atoms: C7_9  and  C8_10 
REMARK    5  A    between atoms: C8_10  and  C9_11 
REMARK    6  A    between atoms: C17_19  and  C18_21 
ROOT
HETATM    1  C1  UNL     1      -5.338   2.765  -0.513  1.00  0.00     0.123 C 
HETATM    2  C2  UNL     1      -4.652   1.925   0.071  1.00  0.00    -0.070 C 
HETATM    3  N1  UNL     1      -3.856   1.008   0.753  1.00  0.00    -0.282 N 
HETATM    4  C17 UNL     1      -3.978  -0.357   0.613  1.00  0.00     0.272 C 
HETATM    5  O1  UNL     1      -3.242  -1.127   1.279  1.00  0.00    -0.266 OA
ENDROOT
BRANCH   3   6
HETATM    6  C3  UNL     1      -2.842   1.587   1.614  1.00  0.00     0.146 C 
BRANCH   6   7
HETATM    7  C4  UNL     1      -1.599   1.937   0.863  1.00  0.00     0.008 C 
HETATM    8  C5  UNL     1      -0.532   2.557   1.752  1.00  0.00     0.036 C 
HETATM    9  C6  UNL     1       0.604   1.636   2.010  1.00  0.00     0.273 C 
HETATM   10  N2  UNL     1       1.298   1.160   0.814  1.00  0.00     0.088 N 
HETATM   11  C15 UNL     1       0.391   1.213  -0.327  1.00  0.00     0.273 C 
HETATM   12  C16 UNL     1      -0.980   0.739   0.231  1.00  0.00     0.036 C 
BRANCH  10  13
HETATM   13  C7  UNL     1       2.481   1.927   0.607  1.00  0.00     0.272 C 
BRANCH  13  14
HETATM   14  C8  UNL     1       3.435   1.508  -0.432  1.00  0.00     0.034 C 
BRANCH  14  15
HETATM   15  C9  UNL     1       4.095   0.177  -0.249  1.00  0.00    -0.013 C 
HETATM   16  C10 UNL     1       3.222  -1.019  -0.200  1.00  0.00     0.005 C 
HETATM   17  C11 UNL     1       3.929  -2.316  -0.402  1.00  0.00     0.000 C 
HETATM   18  C12 UNL     1       5.403  -2.329  -0.362  1.00  0.00     0.000 C 
HETATM   19  C13 UNL     1       6.143  -1.059  -0.499  1.00  0.00     0.000 C 
HETATM   20  C14 UNL     1       5.279  -0.028  -1.188  1.00  0.00     0.005 C 
ENDBRANCH  14  15
ENDBRANCH  13  14
ENDBRANCH  10  13
ENDBRANCH   6   7
ENDBRANCH   3   6
BRANCH   4  21
HETATM   21  C18 UNL     1      -4.939  -0.984  -0.285  1.00  0.00     0.079 A 
HETATM   22  S1  UNL     1      -6.075  -0.265  -1.329  1.00  0.00    -0.096 SA
HETATM   23  C19 UNL     1      -6.782  -1.653  -2.003  1.00  0.00     0.051 A 
HETATM   24  C20 UNL     1      -6.103  -2.667  -1.387  1.00  0.00     0.015 A 
HETATM   25  C21 UNL     1      -5.151  -2.328  -0.500  1.00  0.00    -0.039 A 
HETATM   26  C22 UNL     1      -4.331  -3.366   0.247  1.00  0.00     0.050 C 
ENDBRANCH   4  21
TORSDOF 6
