REMARK  2 active torsions:
REMARK  status: ('A' for Active; 'I' for Inactive)
REMARK    1  A    between atoms: C1_2  and  C2_3 
REMARK       I    between atoms: C1_2  and  N2_9 
REMARK       I    between atoms: N3_17  and  C12_18 
REMARK    2  A    between atoms: C12_18  and  C13_20 
ROOT
HETATM    1  O1  UNL     1       3.132   2.714  -0.459  1.00  0.00    -0.266 OA
HETATM    2  C1  UNL     1       3.499   1.606   0.003  1.00  0.00     0.271 C 
HETATM    3  N2  UNL     1       2.569   0.533   0.050  1.00  0.00    -0.340 N 
HETATM    4  C5  UNL     1       2.853  -0.795   0.555  1.00  0.00     0.129 C 
HETATM    5  C6  UNL     1       1.513  -1.543   0.473  1.00  0.00     0.047 C 
HETATM    6  C7  UNL     1       0.545  -0.417   0.514  1.00  0.00     0.111 C 
HETATM    7  C8  UNL     1       1.183   0.590  -0.399  1.00  0.00     0.110 C 
HETATM    8  C9  UNL     1       1.016   0.376  -1.844  1.00  0.00     0.029 C 
HETATM    9  C10 UNL     1      -0.165  -0.378  -2.313  1.00  0.00     0.022 C 
HETATM   10  C11 UNL     1      -0.844  -1.241  -1.294  1.00  0.00     0.126 C 
HETATM   11  N3  UNL     1      -0.776  -0.691   0.043  1.00  0.00    -0.345 N 
HETATM   12  C12 UNL     1      -1.882  -0.428   0.874  1.00  0.00     0.224 C 
HETATM   13  O2  UNL     1      -1.638   0.035   2.041  1.00  0.00    -0.273 OA
ENDROOT
BRANCH   2  14
HETATM   14  C2  UNL     1       4.897   1.467   0.483  1.00  0.00     0.107 A 
HETATM   15  C3  UNL     1       5.796   2.502   0.439  1.00  0.00     0.086 A 
HETATM   16  S1  UNL     1       7.193   1.782   1.101  1.00  0.00    -0.094 SA
HETATM   17  C4  UNL     1       6.567   0.224   1.395  1.00  0.00     0.138 A 
HETATM   18  N1  UNL     1       5.323   0.333   0.973  1.00  0.00    -0.355 N 
ATOM     19  H1  UNL     1       4.693  -0.467   1.029  1.00  0.00     0.166 HD
ENDBRANCH   2  14
BRANCH  12  20
HETATM   20  C13 UNL     1      -3.296  -0.633   0.531  1.00  0.00     0.078 C 
HETATM   21  C14 UNL     1      -3.831   0.257  -0.537  1.00  0.00     0.014 C 
HETATM   22  C15 UNL     1      -5.341   0.223  -0.268  1.00  0.00     0.001 C 
HETATM   23  C16 UNL     1      -5.524  -0.233   1.142  1.00  0.00     0.001 C 
HETATM   24  C17 UNL     1      -4.149  -0.261   1.724  1.00  0.00     0.014 C 
ENDBRANCH  12  20
TORSDOF 2
