REMARK  6 active torsions:
REMARK  status: ('A' for Active; 'I' for Inactive)
REMARK    1  A    between atoms: O1_2  and  C2_3 
REMARK    2  A    between atoms: N3_9  and  C4_10 
REMARK    3  A    between atoms: C4_10  and  C5_11 
REMARK    4  A    between atoms: C5_11  and  N4_12 
REMARK       I    between atoms: N4_12  and  C6_14 
REMARK       I    between atoms: C6_14  and  N6_18 
REMARK    5  A    between atoms: N6_18  and  N7_20 
REMARK    6  A    between atoms: C8_26  and  N9_27 
ROOT
HETATM    1  C2  UNL     1       3.576  -1.170  -0.220  1.00  0.00     0.228 A 
HETATM    2  N1  UNL     1       2.776  -1.905   0.572  1.00  0.00    -0.261 N 
ATOM      3  H1  UNL     1       3.059  -2.850   0.833  1.00  0.00     0.190 HD
HETATM    4  N2  UNL     1       1.625  -1.421   1.020  1.00  0.00    -0.129 N 
ATOM      5  H2  UNL     1       1.032  -1.995   1.620  1.00  0.00     0.205 HD
HETATM    6  C3  UNL     1       1.233  -0.171   0.686  1.00  0.00     0.711 A 
HETATM    7  N3  UNL     1       0.104   0.541   1.020  1.00  0.00    -0.162 N 
HETATM    8  C7  UNL     1       0.145   1.759   0.453  1.00  0.00     0.168 A 
HETATM    9  N8  UNL     1      -0.641   2.862   0.431  1.00  0.00    -0.174 N 
ATOM     10  H8  UNL     1      -1.520   2.843   0.949  1.00  0.00     0.186 HD
HETATM   11  C8  UNL     1      -0.319   3.974  -0.238  1.00  0.00     0.677 A 
HETATM   12  N10 UNL     1       0.827   4.032  -0.928  1.00  0.00    -0.200 N 
ATOM     13  H10 UNL     1       1.081   4.876  -1.442  1.00  0.00     0.183 HD
HETATM   14  C9  UNL     1       1.642   2.951  -0.932  1.00  0.00     0.140 A 
HETATM   15  C10 UNL     1       1.337   1.795  -0.254  1.00  0.00     0.121 A 
HETATM   16  N11 UNL     1       1.974   0.621  -0.097  1.00  0.00    -0.101 N 
HETATM   17  C11 UNL     1       3.140   0.112  -0.543  1.00  0.00     0.319 A 
HETATM   18  O2  UNL     1       3.846   0.848  -1.281  1.00  0.00    -0.262 OA
ENDROOT
BRANCH   7  19
HETATM   19  C4  UNL     1      -0.912   0.022   1.885  1.00  0.00     0.169 C 
BRANCH  19  20
HETATM   20  C5  UNL     1      -1.931  -0.854   1.263  1.00  0.00     0.159 C 
BRANCH  20  21
HETATM   21  N4  UNL     1      -2.685  -0.183   0.240  1.00  0.00    -0.224 N 
HETATM   22  C6  UNL     1      -3.640  -0.964  -0.494  1.00  0.00     0.685 C 
HETATM   23  N5  UNL     1      -4.436  -0.387  -1.319  1.00  0.00    -0.234 N 
HETATM   24  N6  UNL     1      -3.698  -2.365  -0.308  1.00  0.00    -0.139 N 
ATOM     25  H52 UNL     1      -4.394   0.623  -1.453  1.00  0.00     0.174 HD
ATOM     26  H51 UNL     1      -5.115  -0.942  -1.841  1.00  0.00     0.174 HD
ATOM     27  H6  UNL     1      -3.170  -2.803   0.447  1.00  0.00     0.205 HD
ATOM     28  H4  UNL     1      -2.547   0.808   0.043  1.00  0.00     0.177 HD
BRANCH  24  29
HETATM   29  N7  UNL     1      -4.487  -3.152  -1.168  1.00  0.00    -0.331 N 
ATOM     30  H72 UNL     1      -5.009  -2.698  -1.918  1.00  0.00     0.177 HD
ATOM     31  H71 UNL     1      -4.529  -4.162  -1.034  1.00  0.00     0.177 HD
ENDBRANCH  24  29
ENDBRANCH  20  21
ENDBRANCH  19  20
ENDBRANCH   7  19
BRANCH  11  32
HETATM   32  N9  UNL     1      -1.095   5.030  -0.242  1.00  0.00    -0.234 N 
ATOM     33  H92 UNL     1      -1.968   4.986   0.284  1.00  0.00     0.174 HD
ATOM     34  H91 UNL     1      -0.849   5.878  -0.752  1.00  0.00     0.174 HD
ENDBRANCH  11  32
BRANCH   1  35
HETATM   35  O1  UNL     1       4.799  -1.645  -0.714  1.00  0.00    -0.336 OA
HETATM   36  C1  UNL     1       5.245  -2.938  -0.394  1.00  0.00     0.212 C 
ENDBRANCH   1  35
TORSDOF 6
