REMARK  11 active torsions:
REMARK  status: ('A' for Active; 'I' for Inactive)
REMARK    1  A    between atoms: N1_1  and  N2_4 
REMARK    2  A    between atoms: N2_4  and  C1_6 
REMARK    3  A    between atoms: C3_12  and  O1_13 
REMARK    4  A    between atoms: C4_15  and  C5_16 
REMARK    5  A    between atoms: C5_16  and  O3_18 
REMARK    6  A    between atoms: O3_18  and  C6_19 
REMARK    7  A    between atoms: C6_19  and  C7_20 
REMARK    8  A    between atoms: C7_20  and  O4_21 
REMARK    9  A    between atoms: C8_25  and  C9_26 
REMARK       I    between atoms: C9_26  and  N6_28 
REMARK   10  A    between atoms: N6_28  and  N7_30 
REMARK   11  A    between atoms: N8_34  and  O6_35 
ROOT
HETATM    1  C1  UNL     1      -3.527  -1.936   0.041  1.00  0.00     0.738 A 
HETATM    2  N3  UNL     1      -2.737  -2.964  -0.294  1.00  0.00    -0.128 N 
ATOM      3  H3  UNL     1      -3.152  -3.881  -0.456  1.00  0.00     0.205 HD
HETATM    4  N4  UNL     1      -1.435  -2.814  -0.418  1.00  0.00    -0.281 N 
ATOM      5  H4  UNL     1      -0.841  -3.603  -0.674  1.00  0.00     0.187 HD
HETATM    6  C2  UNL     1      -0.906  -1.597  -0.200  1.00  0.00     0.116 A 
HETATM    7  C3  UNL     1       0.446  -1.462  -0.363  1.00  0.00     0.129 A 
HETATM    8  C4  UNL     1       0.989  -0.224  -0.168  1.00  0.00     0.145 A 
HETATM    9  N5  UNL     1       0.243   0.808   0.167  1.00  0.00    -0.343 N 
ATOM     10  H5  UNL     1       0.706   1.707   0.299  1.00  0.00     0.166 HD
HETATM   11  C8  UNL     1      -1.137   0.753   0.353  1.00  0.00     0.135 A 
HETATM   12  C10 UNL     1      -1.690  -0.490   0.154  1.00  0.00     0.144 A 
HETATM   13  N8  UNL     1      -2.994  -0.700   0.262  1.00  0.00    -0.045 N 
ENDROOT
BRANCH   8  14
HETATM   14  C5  UNL     1       2.451  -0.065  -0.343  1.00  0.00     0.313 C 
HETATM   15  O2  UNL     1       3.172  -1.034  -0.661  1.00  0.00    -0.258 OA
BRANCH  14  16
HETATM   16  O3  UNL     1       2.980   1.180  -0.145  1.00  0.00    -0.314 OA
BRANCH  16  17
HETATM   17  C6  UNL     1       4.326   1.493  -0.265  1.00  0.00     0.205 C 
BRANCH  17  18
HETATM   18  C7  UNL     1       5.199   0.758   0.714  1.00  0.00     0.191 C 
BRANCH  18  19
HETATM   19  O4  UNL     1       6.533   1.128   0.531  1.00  0.00    -0.399 OA
ATOM     20  H4  UNL     1       7.085   0.664   1.150  1.00  0.00     0.209 HD
ENDBRANCH  18  19
ENDBRANCH  17  18
ENDBRANCH  16  17
ENDBRANCH  14  16
ENDBRANCH   8  14
BRANCH   7  21
HETATM   21  O1  UNL     1       1.243  -2.532  -0.711  1.00  0.00    -0.356 OA
ATOM     22  H1  UNL     1       2.182  -2.438  -0.824  1.00  0.00     0.218 HD
ENDBRANCH   7  21
BRANCH  11  23
HETATM   23  C9  UNL     1      -1.791   1.974   0.710  1.00  0.00     0.288 C 
HETATM   24  O5  UNL     1      -2.771   2.138   1.405  1.00  0.00    -0.264 OA
HETATM   25  N6  UNL     1      -1.220   3.198   0.176  1.00  0.00    -0.271 N 
ATOM     26  H6  UNL     1      -0.393   3.126  -0.416  1.00  0.00     0.189 HD
BRANCH  25  27
HETATM   27  N7  UNL     1      -1.735   4.448   0.426  1.00  0.00    -0.342 N 
ATOM     28  H72 UNL     1      -2.562   4.501   1.020  1.00  0.00     0.176 HD
ATOM     29  H71 UNL     1      -1.334   5.308   0.051  1.00  0.00     0.176 HD
ENDBRANCH  25  27
ENDBRANCH  11  23
BRANCH  13  30
HETATM   30  O6  UNL     1      -3.847   0.330   0.550  1.00  0.00    -0.269 OA
ATOM     31  H6  UNL     1      -3.476   1.191   0.704  1.00  0.00     0.245 HD
ENDBRANCH  13  30
BRANCH   1  32
HETATM   32  N2  UNL     1      -4.814  -2.058   0.169  1.00  0.00    -0.135 N 
ATOM     33  H2  UNL     1      -5.386  -1.253   0.424  1.00  0.00     0.205 HD
BRANCH  32  34
HETATM   34  N1  UNL     1      -5.402  -3.297  -0.046  1.00  0.00    -0.331 N 
ATOM     35  H12 UNL     1      -4.816  -4.092  -0.301  1.00  0.00     0.177 HD
ATOM     36  H11 UNL     1      -6.413  -3.393   0.055  1.00  0.00     0.177 HD
ENDBRANCH  32  34
ENDBRANCH   1  32
TORSDOF 11
