REMARK  7 active torsions:
REMARK  status: ('A' for Active; 'I' for Inactive)
REMARK    1  A    between atoms: O1_2  and  N1_3 
REMARK    2  A    between atoms: C2_5  and  N2_6 
REMARK    3  A    between atoms: C2_5  and  C5_17 
REMARK       I    between atoms: C3_8  and  N3_9 
REMARK       I    between atoms: C3_8  and  N4_13 
REMARK    4  A    between atoms: N3_9  and  O2_11 
REMARK    5  A    between atoms: N8_22  and  C6_23 
REMARK    6  A    between atoms: C7_26  and  N10_27 
REMARK    7  A    between atoms: C8_32  and  N12_33 
ROOT
HETATM    1  N2  UNL     1      -2.859   1.094  -0.024  1.00  0.00    -0.169 N 
ATOM      2  H2  UNL     1      -2.567   1.740  -0.757  1.00  0.00     0.186 HD
HETATM    3  C3  UNL     1      -3.611   1.521   0.924  1.00  0.00     0.712 C 
HETATM    4  N3  UNL     1      -4.064   0.698   1.980  1.00  0.00    -0.098 N 
ATOM      5  H3  UNL     1      -5.037   0.392   2.012  1.00  0.00     0.213 HD
HETATM    6  N4  UNL     1      -4.007   2.881   0.916  1.00  0.00    -0.124 N 
ATOM      7  H4  UNL     1      -3.991   3.446   1.765  1.00  0.00     0.197 HD
HETATM    8  C4  UNL     1      -4.422   3.416  -0.313  1.00  0.00     0.196 C 
HETATM    9  N5  UNL     1      -4.768   3.871  -1.332  1.00  0.00    -0.171 NA
ENDROOT
BRANCH   1  10
HETATM   10  C2  UNL     1      -2.422  -0.264  -0.077  1.00  0.00     0.188 C 
HETATM   11  N1  UNL     1      -3.340  -1.159  -0.208  1.00  0.00    -0.247 N 
ATOM     12  H1  UNL     1      -4.305  -0.834  -0.264  1.00  0.00     0.196 HD
BRANCH  11  13
HETATM   13  O1  UNL     1      -3.129  -2.493  -0.277  1.00  0.00    -0.284 OA
HETATM   14  C1  UNL     1      -3.026  -3.140  -1.551  1.00  0.00     0.237 C 
ENDBRANCH  11  13
BRANCH  10  15
HETATM   15  C5  UNL     1      -1.022  -0.604   0.013  1.00  0.00     0.185 A 
HETATM   16  N6  UNL     1      -0.565  -1.876   0.115  1.00  0.00    -0.265 N 
HETATM   17  N7  UNL     1       0.748  -1.834   0.176  1.00  0.00    -0.204 N 
ATOM     18  H6  UNL     1      -1.139  -2.719   0.140  1.00  0.00     0.190 HD
HETATM   19  N8  UNL     1       1.167  -0.572   0.116  1.00  0.00    -0.003 N 
ATOM     20  H7  UNL     1       1.356  -2.649   0.257  1.00  0.00     0.211 HD
HETATM   21  N14 UNL     1       0.068   0.157   0.017  1.00  0.00    -0.243 N 
ATOM     22  H14 UNL     1       0.058   1.175  -0.048  1.00  0.00     0.191 HD
BRANCH  19  23
HETATM   23  C6  UNL     1       2.525  -0.198   0.158  1.00  0.00     0.749 A 
HETATM   24  N9  UNL     1       3.340  -0.460   1.198  1.00  0.00    -0.018 N 
HETATM   25  C7  UNL     1       4.630  -0.108   1.243  1.00  0.00     0.705 A 
ATOM     26  H9  UNL     1       2.950  -0.957   1.999  1.00  0.00     0.203 HD
HETATM   27  N11 UNL     1       5.159   0.546   0.202  1.00  0.00    -0.022 N 
HETATM   28  C8  UNL     1       4.379   0.828  -0.858  1.00  0.00     0.705 A 
ATOM     29  H11 UNL     1       6.140   0.827   0.212  1.00  0.00     0.203 HD
HETATM   30  N13 UNL     1       3.082   0.467  -0.891  1.00  0.00    -0.018 N 
ATOM     31  H13 UNL     1       2.514   0.693  -1.707  1.00  0.00     0.203 HD
BRANCH  25  32
HETATM   32  N10 UNL     1       5.362  -0.397   2.290  1.00  0.00    -0.234 N 
ATOM     33 2H10 UNL     1       4.959  -0.895   3.083  1.00  0.00     0.174 HD
ATOM     34 1H10 UNL     1       6.345  -0.129   2.324  1.00  0.00     0.174 HD
ENDBRANCH  25  32
BRANCH  28  35
HETATM   35  N12 UNL     1       4.912   1.451  -1.837  1.00  0.00    -0.234 N 
ATOM     36 2H12 UNL     1       5.894   1.724  -1.812  1.00  0.00     0.174 HD
ATOM     37 1H12 UNL     1       4.321   1.665  -2.640  1.00  0.00     0.174 HD
ENDBRANCH  28  35
ENDBRANCH  19  23
ENDBRANCH  10  15
ENDBRANCH   1  10
BRANCH   4  38
HETATM   38  O2  UNL     1      -3.259   0.345   2.881  1.00  0.00    -0.276 OA
ATOM     39  H2  UNL     1      -3.563  -0.208   3.591  1.00  0.00     0.245 HD
ENDBRANCH   4  38
TORSDOF 7
