REMARK  4 active torsions:
REMARK  status: ('A' for Active; 'I' for Inactive)
REMARK    1  A    between atoms: C2_2  and  N1_3 
REMARK    2  A    between atoms: N4_14  and  O1_15 
REMARK    3  A    between atoms: O1_15  and  N5_16 
REMARK    4  A    between atoms: C9_20  and  C10_21 
REMARK       I    between atoms: C10_21  and  N6_23 
REMARK       I    between atoms: N6_23  and  C11_25 
REMARK       I    between atoms: C11_25  and  N7_26 
REMARK       I    between atoms: C11_25  and  N8_30 
ROOT
HETATM    1  N1  UNL     1       4.114   1.712  -0.632  1.00  0.00    -0.226 N 
ATOM      2  H1  UNL     1       3.903   2.225  -1.488  1.00  0.00     0.177 HD
HETATM    3  C3  UNL     1       3.194   1.010  -0.079  1.00  0.00     0.680 A 
HETATM    4  N2  UNL     1       3.335   0.292   1.044  1.00  0.00    -0.194 N 
ATOM      5  H2  UNL     1       4.239   0.302   1.517  1.00  0.00     0.184 HD
HETATM    6  C4  UNL     1       2.343  -0.440   1.576  1.00  0.00     0.055 A 
HETATM    7  C5  UNL     1       2.493  -1.222   2.836  1.00  0.00     0.071 C 
HETATM    8  C6  UNL     1       1.134  -0.438   0.922  1.00  0.00     0.128 A 
HETATM    9  C7  UNL     1       0.919   0.285  -0.242  1.00  0.00     0.183 A 
HETATM   10  N3  UNL     1       1.984   0.992  -0.701  1.00  0.00    -0.172 N 
ATOM     11  H3  UNL     1       1.871   1.537  -1.556  1.00  0.00     0.186 HD
HETATM   12  N4  UNL     1      -0.353   0.090  -0.659  1.00  0.00    -0.159 N 
HETATM   13  C8  UNL     1      -0.907  -0.752   0.254  1.00  0.00     0.176 A 
HETATM   14  C9  UNL     1      -2.078  -1.422   0.544  1.00  0.00     0.097 A 
HETATM   15  C12 UNL     1      -1.816  -2.139   1.698  1.00  0.00     0.128 A 
HETATM   16  N9  UNL     1      -0.545  -1.901   2.076  1.00  0.00    -0.302 N 
ATOM     17  H9  UNL     1      -0.074  -2.292   2.892  1.00  0.00     0.186 HD
HETATM   18  N10 UNL     1      -0.024  -1.074   1.202  1.00  0.00    -0.231 N 
ENDROOT
BRANCH  14  19
HETATM   19  C10 UNL     1      -3.367  -1.317  -0.180  1.00  0.00     0.259 C 
HETATM   20  O2  UNL     1      -3.928  -2.343  -0.616  1.00  0.00    -0.267 OA
HETATM   21  N6  UNL     1      -3.881  -0.005  -0.324  1.00  0.00    -0.307 N 
HETATM   22  C11 UNL     1      -5.132   0.312  -1.015  1.00  0.00     0.483 C 
ATOM     23  H6  UNL     1      -3.347   0.766   0.078  1.00  0.00     0.166 HD
HETATM   24  N7  UNL     1      -6.208   0.402  -0.031  1.00  0.00    -0.033 N 
HETATM   25  N8  UNL     1      -5.019   1.629  -1.600  1.00  0.00    -0.033 N 
ATOM     26  H73 UNL     1      -6.282  -0.439   0.542  1.00  0.00     0.278 HD
ATOM     27  H72 UNL     1      -5.998   1.064   0.715  1.00  0.00     0.278 HD
ATOM     28  H71 UNL     1      -7.080   0.623  -0.512  1.00  0.00     0.278 HD
ATOM     29  H83 UNL     1      -4.761   2.339  -0.915  1.00  0.00     0.278 HD
ATOM     30  H82 UNL     1      -4.205   1.717  -2.208  1.00  0.00     0.278 HD
ATOM     31  H81 UNL     1      -5.891   1.850  -2.081  1.00  0.00     0.278 HD
ENDBRANCH  14  19
BRANCH  12  32
HETATM   32  O1  UNL     1      -0.886   0.642  -1.792  1.00  0.00    -0.153 OA
BRANCH  32  33
HETATM   33  N5  UNL     1      -1.125  -0.040  -2.934  1.00  0.00    -0.285 N 
ATOM     34  H52 UNL     1      -0.886  -1.032  -2.935  1.00  0.00     0.186 HD
ATOM     35  H51 UNL     1      -1.522   0.371  -3.779  1.00  0.00     0.186 HD
ENDBRANCH  32  33
ENDBRANCH  12  32
BRANCH   1  36
HETATM   36  C2  UNL     1       5.443   1.793  -0.069  1.00  0.00     0.133 C 
HETATM   37  C1  UNL     1       6.253   0.563  -0.352  1.00  0.00     0.027 C 
ENDBRANCH   1  36
TORSDOF 4
