REMARK  6 active torsions:
REMARK  status: ('A' for Active; 'I' for Inactive)
REMARK    1  A    between atoms: N1_2  and  C2_3 
REMARK       I    between atoms: N1_2  and  C6_16 
REMARK    2  A    between atoms: C2_3  and  C3_4 
REMARK    3  A    between atoms: C5_8  and  N3_9 
REMARK       I    between atoms: C6_16  and  N12_29 
REMARK    4  A    between atoms: N6_17  and  N7_19 
REMARK    5  A    between atoms: C7_25  and  N11_26 
REMARK    6  A    between atoms: N12_29  and  S1_31 
ROOT
HETATM    1  C1  UNL     1      -0.362   1.095  -1.308  1.00  0.00     0.169 C 
HETATM    2  N1  UNL     1      -0.268   0.144  -0.225  1.00  0.00    -0.213 N 
HETATM    3  C6  UNL     1      -0.979   0.382   0.976  1.00  0.00     0.708 C 
HETATM    4  N6  UNL     1      -2.258   0.272   0.948  1.00  0.00    -0.097 N 
ATOM      5  H6  UNL     1      -2.769   0.444   1.814  1.00  0.00     0.208 HD
HETATM    6  N12 UNL     1      -0.377   0.734   2.209  1.00  0.00    -0.096 N 
ATOM      7  H12 UNL     1       0.541   1.177   2.180  1.00  0.00     0.200 HD
ENDROOT
BRANCH   2   8
HETATM    8  C2  UNL     1       0.536  -1.023  -0.371  1.00  0.00     0.218 C 
BRANCH   8   9
HETATM    9  C3  UNL     1       1.970  -0.796  -0.574  1.00  0.00     0.114 A 
HETATM   10  N2  UNL     1       2.736  -1.866  -0.857  1.00  0.00    -0.350 N 
HETATM   11  C4  UNL     1       4.058  -1.784  -1.058  1.00  0.00     0.138 A 
ATOM     12  H2  UNL     1       2.290  -2.781  -0.921  1.00  0.00     0.166 HD
HETATM   13  C5  UNL     1       4.667  -0.549  -0.972  1.00  0.00     0.129 A 
HETATM   14  N4  UNL     1       3.907   0.504  -0.692  1.00  0.00    -0.283 N 
HETATM   15  N5  UNL     1       2.592   0.389  -0.497  1.00  0.00    -0.286 N 
ATOM     16  H4  UNL     1       4.340   1.425  -0.624  1.00  0.00     0.188 HD
ATOM     17  H5  UNL     1       2.046   1.224  -0.284  1.00  0.00     0.188 HD
BRANCH  13  18
HETATM   18  N3  UNL     1       5.957  -0.448  -1.165  1.00  0.00    -0.383 N 
ATOM     19  H32 UNL     1       6.541  -1.256  -1.380  1.00  0.00     0.157 HD
ATOM     20  H31 UNL     1       6.407   0.465  -1.101  1.00  0.00     0.157 HD
ENDBRANCH  13  18
ENDBRANCH   8   9
ENDBRANCH   2   8
BRANCH   4  21
HETATM   21  N7  UNL     1      -2.996  -0.066  -0.184  1.00  0.00     0.012 N 
HETATM   22  N8  UNL     1      -3.080  -1.204  -0.852  1.00  0.00     0.034 NA
HETATM   23  N9  UNL     1      -3.917  -1.076  -1.883  1.00  0.00    -0.210 N 
HETATM   24  N10 UNL     1      -4.380   0.151  -1.886  1.00  0.00    -0.117 N 
ATOM     25  H9  UNL     1      -4.156  -1.807  -2.553  1.00  0.00     0.206 HD
HETATM   26  C7  UNL     1      -3.815   0.776  -0.840  1.00  0.00     0.726 A 
ATOM     27  H10 UNL     1      -5.040   0.552  -2.552  1.00  0.00     0.207 HD
BRANCH  26  28
HETATM   28  N11 UNL     1      -4.034   2.002  -0.525  1.00  0.00    -0.231 N 
ATOM     29 2H11 UNL     1      -3.605   2.477   0.269  1.00  0.00     0.174 HD
ATOM     30 1H11 UNL     1      -4.655   2.640  -1.022  1.00  0.00     0.174 HD
ENDBRANCH  26  28
ENDBRANCH   4  21
BRANCH   6  31
HETATM   31  S1  UNL     1      -1.082   0.468   3.735  1.00  0.00     0.223 S 
HETATM   32  O1  UNL     1      -2.572   0.593   3.699  1.00  0.00    -0.577 OA
HETATM   33  O2  UNL     1      -0.563   1.513   4.699  1.00  0.00    -0.577 OA
HETATM   34  O3  UNL     1      -0.626  -1.041   4.300  1.00  0.00    -0.577 OA
ENDBRANCH   6  31
TORSDOF 6
