REMARK  9 active torsions:
REMARK  status: ('A' for Active; 'I' for Inactive)
REMARK    1  A    between atoms: C2_2  and  C3_3 
REMARK    2  A    between atoms: C3_3  and  O1_4 
REMARK    3  A    between atoms: O1_4  and  N1_5 
REMARK    4  A    between atoms: N1_5  and  C4_7 
REMARK    5  A    between atoms: C6_13  and  N4_14 
REMARK    6  A    between atoms: N4_14  and  N5_16 
REMARK    7  A    between atoms: C7_19  and  N6_20 
REMARK    8  A    between atoms: N6_20  and  N7_22 
REMARK    9  A    between atoms: N7_22  and  C8_24 
ROOT
HETATM    1  C4  UNL     1       1.013  -0.152  -0.100  1.00  0.00     0.206 C 
HETATM    2  N2  UNL     1      -0.113  -0.742  -0.281  1.00  0.00    -0.303 N 
ATOM      3  H2  UNL     1      -0.277  -1.743  -0.174  1.00  0.00     0.168 HD
HETATM    4  C5  UNL     1      -1.103   0.222  -0.657  1.00  0.00     0.311 A 
HETATM    5  N3  UNL     1      -1.442   0.183  -2.075  1.00  0.00    -0.314 N 
ATOM      6  H3  UNL     1      -0.814   0.334  -2.865  1.00  0.00     0.166 HD
HETATM    7  C6  UNL     1      -2.826  -0.108  -2.123  1.00  0.00     0.173 A 
HETATM    8  C7  UNL     1      -3.323  -0.193  -0.818  1.00  0.00     0.207 A 
HETATM    9  O2  UNL     1      -2.266   0.044   0.077  1.00  0.00    -0.272 OA
HETATM   10  C9  UNL     1      -0.492   1.552  -0.458  1.00  0.00     0.303 C 
HETATM   11  O3  UNL     1      -0.937   2.667  -0.479  1.00  0.00    -0.265 OA
HETATM   12  N9  UNL     1       0.907   1.271  -0.195  1.00  0.00    -0.291 N 
ATOM     13  H9  UNL     1       1.662   1.950  -0.098  1.00  0.00     0.172 HD
ENDROOT
BRANCH   1  14
HETATM   14  N1  UNL     1       2.191  -0.807   0.243  1.00  0.00    -0.236 N 
ATOM     15  H1  UNL     1       2.554  -1.619  -0.256  1.00  0.00     0.197 HD
BRANCH  14  16
HETATM   16  O1  UNL     1       2.828  -0.224   1.358  1.00  0.00    -0.278 OA
BRANCH  16  17
HETATM   17  C3  UNL     1       4.127  -0.853   1.247  1.00  0.00     0.201 C 
BRANCH  17  18
HETATM   18  C2  UNL     1       5.085   0.315   1.174  1.00  0.00     0.024 C 
HETATM   19  C1  UNL     1       6.443  -0.175   0.725  1.00  0.00     0.007 C 
ENDBRANCH  17  18
ENDBRANCH  16  17
ENDBRANCH  14  16
ENDBRANCH   1  14
BRANCH   7  20
HETATM   20  N4  UNL     1      -3.481  -0.316  -3.289  1.00  0.00    -0.289 N 
ATOM     21  H4  UNL     1      -4.480  -0.520  -3.319  1.00  0.00     0.188 HD
BRANCH  20  22
HETATM   22  N5  UNL     1      -2.713  -0.235  -4.441  1.00  0.00    -0.344 N 
ATOM     23  H52 UNL     1      -1.715  -0.030  -4.395  1.00  0.00     0.176 HD
ATOM     24  H51 UNL     1      -3.207  -0.392  -5.320  1.00  0.00     0.176 HD
ENDBRANCH  20  22
ENDBRANCH   7  20
BRANCH   8  25
HETATM   25  N6  UNL     1      -4.525  -0.448  -0.373  1.00  0.00    -0.275 N 
ATOM     26  H6  UNL     1      -5.279  -0.616  -1.039  1.00  0.00     0.189 HD
BRANCH  25  27
HETATM   27  N7  UNL     1      -4.790  -0.494   0.961  1.00  0.00    -0.277 N 
ATOM     28  H7  UNL     1      -4.601  -1.408   1.372  1.00  0.00     0.189 HD
BRANCH  27  29
HETATM   29  C8  UNL     1      -5.256   0.418   1.876  1.00  0.00     0.199 C 
HETATM   30  N8  UNL     1      -5.419  -0.130   3.255  1.00  0.00    -0.068 NA
HETATM   31  S1  UNL     1      -5.620   1.983   1.709  1.00  0.00    -0.043 SA
ENDBRANCH  27  29
ENDBRANCH  25  27
ENDBRANCH   8  25
TORSDOF 9
