REMARK  7 active torsions:
REMARK  status: ('A' for Active; 'I' for Inactive)
REMARK    1  A    between atoms: O1_1  and  C1_3 
REMARK    2  A    between atoms: C1_3  and  N1_4 
REMARK    3  A    between atoms: C1_3  and  C13_19 
REMARK    4  A    between atoms: N1_4  and  C2_7 
REMARK    5  A    between atoms: C2_7  and  C3_8 
REMARK    6  A    between atoms: C2_7  and  C9_14 
REMARK    7  A    between atoms: C3_8  and  C4_9 
ROOT
HETATM    1  N1  UNL     1       0.372   0.602  -1.526  1.00  0.00    -0.035 N 
ATOM      2  H11 UNL     1       0.185  -0.349  -1.843  1.00  0.00     0.281 HD
ATOM      3  H12 UNL     1      -0.083   1.115  -2.281  1.00  0.00     0.281 HD
ENDROOT
BRANCH   1   4
HETATM    4  C1  UNL     1       1.775   0.870  -1.488  1.00  0.00     0.354 C 
BRANCH   4   5
HETATM    5  O1  UNL     1       2.330   0.615  -2.766  1.00  0.00    -0.366 OA
ATOM      6  H1  UNL     1       3.263   0.793  -2.741  1.00  0.00     0.212 HD
ENDBRANCH   4   5
BRANCH   4   7
HETATM    7  C13 UNL     1       2.492  -0.020  -0.521  1.00  0.00    -0.001 A 
HETATM    8  C14 UNL     1       2.716  -1.362  -0.823  1.00  0.00     0.011 A 
HETATM    9  C15 UNL     1       3.384  -2.196   0.072  1.00  0.00     0.002 A 
HETATM   10  C16 UNL     1       3.834  -1.711   1.269  1.00  0.00     0.024 A 
HETATM   11  C17 UNL     1       3.628  -0.399   1.588  1.00  0.00     0.034 A 
HETATM   12 CL1  UNL     1       4.219   0.192   3.133  1.00  0.00    -0.084 Cl
HETATM   13  C18 UNL     1       2.968   0.412   0.698  1.00  0.00     0.035 A 
ENDBRANCH   4   7
ENDBRANCH   1   4
BRANCH   1  14
HETATM   14  C2  UNL     1      -0.255   0.864  -0.268  1.00  0.00     0.246 C 
BRANCH  14  15
HETATM   15  C3  UNL     1      -1.722   0.496  -0.257  1.00  0.00     0.044 C 
BRANCH  15  16
HETATM   16  C4  UNL     1      -1.971  -0.952  -0.539  1.00  0.00    -0.012 C 
HETATM   17  C5  UNL     1      -1.339  -1.891   0.433  1.00  0.00     0.005 C 
HETATM   18  C6  UNL     1      -2.451  -2.710   1.050  1.00  0.00     0.000 C 
HETATM   19  C7  UNL     1      -3.650  -2.552   0.155  1.00  0.00     0.000 C 
HETATM   20  C8  UNL     1      -3.465  -1.188  -0.430  1.00  0.00     0.005 C 
ENDBRANCH  15  16
ENDBRANCH  14  15
BRANCH  14  21
HETATM   21  C9  UNL     1      -0.221   2.333   0.066  1.00  0.00     0.083 A 
HETATM   22  C10 UNL     1       0.081   2.969   1.227  1.00  0.00     0.037 A 
HETATM   23  C11 UNL     1      -0.036   4.329   1.012  1.00  0.00     0.027 A 
HETATM   24  C12 UNL     1      -0.414   4.451  -0.308  1.00  0.00     0.142 A 
HETATM   25  O2  UNL     1      -0.514   3.247  -0.837  1.00  0.00    -0.325 OA
ENDBRANCH  14  21
ENDBRANCH   1  14
TORSDOF 7
