REMARK  6 active torsions:
REMARK  status: ('A' for Active; 'I' for Inactive)
REMARK    1  A    between atoms: O1_2  and  C2_3 
REMARK    2  A    between atoms: C5_6  and  N1_7 
REMARK    3  A    between atoms: N1_7  and  C6_9 
REMARK    4  A    between atoms: C6_9  and  C7_10 
REMARK    5  A    between atoms: C13_16  and  N2_17 
REMARK    6  A    between atoms: N2_17  and  C14_19 
ROOT
HETATM    1  C2  UNL     1      -0.311   2.693   0.132  1.00  0.00     0.070 A 
HETATM    2  C3  UNL     1      -1.419   2.347   0.849  1.00  0.00     0.039 A 
HETATM    3  C4  UNL     1      -1.650   1.014   1.190  1.00  0.00     0.034 A 
HETATM    4  C5  UNL     1      -0.764   0.005   0.811  1.00  0.00     0.055 A 
HETATM    5  C13 UNL     1       0.344   0.344   0.094  1.00  0.00     0.057 A 
HETATM    6  C20 UNL     1       0.560   1.692  -0.239  1.00  0.00     0.068 A 
ENDROOT
BRANCH   4   7
HETATM    7  N1  UNL     1      -1.017  -1.322   1.187  1.00  0.00    -0.384 N 
ATOM      8  H1  UNL     1      -0.319  -2.031   0.962  1.00  0.00     0.160 HD
BRANCH   7   9
HETATM    9  C6  UNL     1      -2.224  -1.738   1.881  1.00  0.00     0.158 C 
BRANCH   9  10
HETATM   10  C7  UNL     1      -3.442  -1.592   1.030  1.00  0.00    -0.041 A 
HETATM   11  C8  UNL     1      -3.357  -1.399  -0.339  1.00  0.00     0.009 A 
HETATM   12  C9  UNL     1      -4.499  -1.261  -1.130  1.00  0.00     0.001 A 
HETATM   13  C10 UNL     1      -5.756  -1.312  -0.568  1.00  0.00     0.000 A 
HETATM   14  C11 UNL     1      -5.839  -1.504   0.794  1.00  0.00     0.001 A 
HETATM   15  C12 UNL     1      -4.709  -1.641   1.573  1.00  0.00     0.009 A 
ENDBRANCH   9  10
ENDBRANCH   7   9
ENDBRANCH   4   7
BRANCH   5  16
HETATM   16  N2  UNL     1       1.281  -0.595  -0.357  1.00  0.00    -0.381 N 
ATOM     17  H2  UNL     1       1.083  -1.584  -0.202  1.00  0.00     0.160 HD
BRANCH  16  18
HETATM   18  C14 UNL     1       2.528  -0.239  -1.038  1.00  0.00     0.115 C 
HETATM   19  C15 UNL     1       3.136  -1.509  -1.570  1.00  0.00     0.028 C 
HETATM   20  C16 UNL     1       4.629  -1.476  -1.668  1.00  0.00     0.002 C 
HETATM   21  C17 UNL     1       5.315  -1.092  -0.392  1.00  0.00     0.003 C 
HETATM   22  C18 UNL     1       4.371  -0.515   0.633  1.00  0.00     0.039 C 
HETATM   23  C19 UNL     1       3.454   0.461  -0.073  1.00  0.00     0.192 C 
HETATM   24  F1  UNL     1       4.250   1.368  -0.740  1.00  0.00    -0.247 F 
ENDBRANCH  16  18
ENDBRANCH   5  16
BRANCH   1  25
HETATM   25  O1  UNL     1      -0.043   4.027  -0.232  1.00  0.00    -0.356 OA
HETATM   26  C1  UNL     1      -0.925   5.049   0.143  1.00  0.00     0.210 C 
ENDBRANCH   1  25
TORSDOF 6
