REMARK  6 active torsions:
REMARK  status: ('A' for Active; 'I' for Inactive)
REMARK    1  A    between atoms: C4_5  and  C5_6 
REMARK    2  A    between atoms: C5_6  and  N1_7 
REMARK    3  A    between atoms: N1_7  and  C6_10 
REMARK    4  A    between atoms: C6_10  and  N2_11 
REMARK    5  A    between atoms: C6_10  and  C11_18 
REMARK    6  A    between atoms: N2_11  and  C7_13 
ROOT
HETATM    1  C6  UNL     1      -1.158   0.215  -0.205  1.00  0.00     0.320 C 
ENDROOT
BRANCH   1   2
HETATM    2  N1  UNL     1       0.142  -0.179   0.291  1.00  0.00    -0.046 N 
ATOM      3  H12 UNL     1       0.146  -1.119   0.686  1.00  0.00     0.280 HD
ATOM      4  H11 UNL     1       0.412   0.324   1.136  1.00  0.00     0.280 HD
BRANCH   2   5
HETATM    5  C5  UNL     1       1.094  -0.019  -0.785  1.00  0.00     0.273 C 
BRANCH   5   6
HETATM    6  C4  UNL     1       2.469  -0.401  -0.375  1.00  0.00    -0.033 A 
HETATM    7  C3  UNL     1       3.274   0.579   0.161  1.00  0.00     0.012 A 
HETATM    8  C2  UNL     1       4.563   0.313   0.569  1.00  0.00     0.043 A 
HETATM    9  C1  UNL     1       5.035  -0.988   0.424  1.00  0.00     0.116 A 
HETATM   10  F1  UNL     1       6.304  -1.297   0.814  1.00  0.00    -0.206 F 
HETATM   11  C17 UNL     1       4.257  -1.977  -0.104  1.00  0.00     0.043 A 
HETATM   12  C16 UNL     1       2.969  -1.680  -0.504  1.00  0.00     0.012 A 
ENDBRANCH   5   6
ENDBRANCH   2   5
ENDBRANCH   1   2
BRANCH   1  13
HETATM   13  N2  UNL     1      -2.225   0.057   0.752  1.00  0.00    -0.353 N 
ATOM     14  H2  UNL     1      -2.710   0.894   1.075  1.00  0.00     0.162 HD
BRANCH  13  15
HETATM   15  C7  UNL     1      -2.639  -1.199   1.271  1.00  0.00     0.071 A 
HETATM   16  C8  UNL     1      -3.622  -1.474   2.183  1.00  0.00     0.037 A 
HETATM   17  C9  UNL     1      -3.820  -2.758   2.501  1.00  0.00     0.010 A 
HETATM   18  C10 UNL     1      -3.031  -3.695   1.897  1.00  0.00     0.052 A 
HETATM   19  S1  UNL     1      -2.028  -2.743   0.892  1.00  0.00    -0.085 SA
ENDBRANCH  13  15
ENDBRANCH   1  13
BRANCH   1  20
HETATM   20  C11 UNL     1      -1.161   1.584  -0.788  1.00  0.00     0.007 A 
HETATM   21  C12 UNL     1      -1.753   1.827  -2.010  1.00  0.00     0.013 A 
HETATM   22  C13 UNL     1      -1.760   3.081  -2.535  1.00  0.00     0.018 A 
HETATM   23  C14 UNL     1      -1.183   4.139  -1.877  1.00  0.00     0.087 A 
HETATM   24  N3  UNL     1      -0.607   3.897  -0.686  1.00  0.00    -0.375 N 
HETATM   25  C15 UNL     1      -0.587   2.669  -0.145  1.00  0.00     0.098 A 
ATOM     26  H3  UNL     1      -0.173   4.669  -0.180  1.00  0.00     0.164 HD
ENDBRANCH   1  20
TORSDOF 6
