REMARK  2 active torsions:
REMARK  status: ('A' for Active; 'I' for Inactive)
REMARK    1  A    between atoms: C4_8  and  N4_9 
REMARK    2  A    between atoms: N6_15  and  O1_17 
ROOT
HETATM    1  N1  UNL     1      -3.331   0.432   1.217  1.00  0.00    -0.191 NA
HETATM    2  C1  UNL     1      -2.224   0.379   0.884  1.00  0.00     0.107 C 
HETATM    3  C2  UNL     1      -0.846   0.290   0.450  1.00  0.00     0.132 A 
HETATM    4  C3  UNL     1      -0.466  -0.715  -0.439  1.00  0.00     0.156 A 
HETATM    5  N2  UNL     1      -1.482  -1.607  -0.870  1.00  0.00    -0.080 NA
HETATM    6  N3  UNL     1       0.809  -0.813  -0.853  1.00  0.00    -0.177 N 
ATOM      7  H3  UNL     1       1.063  -1.556  -1.504  1.00  0.00     0.185 HD
HETATM    8  C4  UNL     1       1.760   0.042  -0.433  1.00  0.00     0.678 A 
HETATM    9  N5  UNL     1       1.421   1.016   0.421  1.00  0.00    -0.174 N 
ATOM     10  H5  UNL     1       2.137   1.667   0.743  1.00  0.00     0.186 HD
HETATM   11  C5  UNL     1       0.135   1.159   0.872  1.00  0.00     0.164 A 
HETATM   12  N6  UNL     1      -0.154   2.097   1.685  1.00  0.00    -0.251 N 
ATOM     13  H6  UNL     1       0.620   2.703   1.957  1.00  0.00     0.196 HD
ENDROOT
BRANCH  12  14
HETATM   14  O1  UNL     1      -1.352   2.393   2.233  1.00  0.00    -0.288 OA
ATOM     15  H1  UNL     1      -1.567   3.092   2.839  1.00  0.00     0.244 HD
ENDBRANCH  12  14
BRANCH   8  16
HETATM   16  N4  UNL     1       2.991  -0.084  -0.857  1.00  0.00    -0.234 N 
ATOM     17  H42 UNL     1       3.249  -0.826  -1.508  1.00  0.00     0.174 HD
ATOM     18  H41 UNL     1       3.712   0.564  -0.539  1.00  0.00     0.174 HD
ENDBRANCH   8  16
TORSDOF 2
