REMARK  3 active torsions:
REMARK  status: ('A' for Active; 'I' for Inactive)
REMARK    1  A    between atoms: N1_1  and  N2_4 
REMARK    2  A    between atoms: C3_9  and  N4_10 
REMARK    3  A    between atoms: N4_10  and  C4_12 
ROOT
HETATM    1  N2  UNL     1      -1.822  -0.209  -0.354  1.00  0.00    -0.129 N 
HETATM    2  C1  UNL     1      -2.647  -0.908   0.605  1.00  0.00     0.187 C 
HETATM    3  C2  UNL     1      -3.054   0.238   1.498  1.00  0.00     0.160 C 
HETATM    4  N3  UNL     1      -1.878   1.066   1.465  1.00  0.00    -0.223 N 
ATOM      5  H3  UNL     1      -1.629   1.757   2.172  1.00  0.00     0.177 HD
HETATM    6  C3  UNL     1      -1.185   0.805   0.408  1.00  0.00     0.697 C 
ENDROOT
BRANCH   6   7
HETATM    7  N4  UNL     1       0.058   1.423   0.013  1.00  0.00    -0.160 N 
ATOM      8  H4  UNL     1       0.051   2.369  -0.367  1.00  0.00     0.187 HD
BRANCH   7   9
HETATM    9  C4  UNL     1       1.305   0.724   0.148  1.00  0.00     0.190 C 
HETATM   10  N5  UNL     1       1.554  -0.199   1.006  1.00  0.00    -0.360 N 
HETATM   11  C5  UNL     1       2.890  -0.708   0.897  1.00  0.00     0.142 C 
ATOM     12  H5  UNL     1       0.875  -0.533   1.690  1.00  0.00     0.162 HD
HETATM   13  C6  UNL     1       3.445  -0.070  -0.360  1.00  0.00     0.142 C 
HETATM   14  N6  UNL     1       2.454   0.939  -0.638  1.00  0.00    -0.360 N 
ATOM     15  H6  UNL     1       2.568   1.700  -1.308  1.00  0.00     0.162 HD
ENDBRANCH   7   9
ENDBRANCH   6   7
BRANCH   1  16
HETATM   16  N1  UNL     1      -1.712  -0.500  -1.699  1.00  0.00    -0.329 N 
ATOM     17  H12 UNL     1      -2.170  -1.229  -2.247  1.00  0.00     0.177 HD
ATOM     18  H11 UNL     1      -1.130  -0.007  -2.376  1.00  0.00     0.177 HD
ENDBRANCH   1  16
TORSDOF 3
