REMARK  2 active torsions:
REMARK  status: ('A' for Active; 'I' for Inactive)
REMARK    1  A    between atoms: N1_1  and  C1_4 
REMARK    2  A    between atoms: N4_13  and  N5_14 
ROOT
HETATM    1  C1  UNL     1       1.825   0.771   0.016  1.00  0.00     0.680 A 
HETATM    2  N2  UNL     1       2.368  -0.457  -0.054  1.00  0.00    -0.154 N 
ATOM      3  H2  UNL     1       3.378  -0.595  -0.074  1.00  0.00     0.187 HD
HETATM    4  C2  UNL     1       1.513  -1.494  -0.097  1.00  0.00     0.290 A 
HETATM    5  O1  UNL     1       1.986  -2.657  -0.163  1.00  0.00    -0.265 OA
HETATM    6  C3  UNL     1       0.146  -1.313  -0.069  1.00  0.00     0.149 A 
HETATM    7  N3  UNL     1      -0.929  -2.150  -0.098  1.00  0.00    -0.343 N 
ATOM      8  H3  UNL     1      -0.893  -3.168  -0.151  1.00  0.00     0.167 HD
HETATM    9  C4  UNL     1      -2.047  -1.402  -0.045  1.00  0.00     0.208 A 
HETATM   10  N4  UNL     1      -1.740  -0.100   0.018  1.00  0.00    -0.239 N 
HETATM   11  C5  UNL     1      -0.392  -0.041   0.003  1.00  0.00     0.175 A 
HETATM   12  N6  UNL     1       0.501   0.979   0.044  1.00  0.00    -0.172 N 
ATOM     13  H6  UNL     1       0.154   1.936   0.098  1.00  0.00     0.186 HD
ENDROOT
BRANCH   1  14
HETATM   14  N1  UNL     1       2.640   1.772   0.057  1.00  0.00    -0.234 N 
ATOM     15  H12 UNL     1       3.647   1.614   0.036  1.00  0.00     0.174 HD
ATOM     16  H11 UNL     1       2.228   2.704   0.110  1.00  0.00     0.174 HD
ENDBRANCH   1  14
BRANCH  10  17
HETATM   17  N5  UNL     1      -2.629   0.983   0.086  1.00  0.00    -0.336 N 
ATOM     18  H52 UNL     1      -3.648   0.938   0.097  1.00  0.00     0.177 HD
ATOM     19  H51 UNL     1      -2.395   1.975   0.134  1.00  0.00     0.177 HD
ENDBRANCH  10  17
TORSDOF 2
