REMARK  6 active torsions:
REMARK  status: ('A' for Active; 'I' for Inactive)
REMARK    1  A    between atoms: C2_2  and  C3_3 
REMARK    2  A    between atoms: C3_3  and  O1_4 
REMARK    3  A    between atoms: O1_4  and  C4_5 
REMARK    4  A    between atoms: C4_5  and  C5_6 
REMARK    5  A    between atoms: C5_6  and  O2_7 
REMARK    6  A    between atoms: O2_7  and  C6_8 
ROOT
HETATM    1  C6  UNL     1      -1.082   0.747   0.176  1.00  0.00     0.075 A 
HETATM    2  C7  UNL     1      -0.779  -0.576  -0.050  1.00  0.00     0.044 A 
HETATM    3  C8  UNL     1      -1.700  -1.617   0.079  1.00  0.00    -0.059 A 
HETATM    4  C9  UNL     1      -1.317  -3.029  -0.177  1.00  0.00     0.048 C 
HETATM    5  C10 UNL     1      -2.975  -1.260   0.455  1.00  0.00     0.014 A 
HETATM    6  C11 UNL     1      -3.287   0.063   0.683  1.00  0.00    -0.053 A 
HETATM    7  C12 UNL     1      -4.678   0.393   1.086  1.00  0.00     0.049 C 
HETATM    8  C13 UNL     1      -2.395   1.089   0.560  1.00  0.00    -0.023 A 
HETATM    9  C14 UNL     1      -2.736   2.508   0.806  1.00  0.00     0.052 C 
ENDROOT
BRANCH   1  10
HETATM   10  O2  UNL     1      -0.192   1.757   0.050  1.00  0.00    -0.348 OA
BRANCH  10  11
HETATM   11  C5  UNL     1       1.142   1.847  -0.275  1.00  0.00     0.201 C 
BRANCH  11  12
HETATM   12  C4  UNL     1       1.994   1.149   0.738  1.00  0.00     0.194 C 
BRANCH  12  13
HETATM   13  O1  UNL     1       3.337   1.202   0.480  1.00  0.00    -0.389 OA
BRANCH  13  14
HETATM   14  C3  UNL     1       3.777   0.661  -0.688  1.00  0.00     0.167 C 
BRANCH  14  15
HETATM   15  C2  UNL     1       3.523  -0.793  -0.896  1.00  0.00     0.022 C 
HETATM   16  C1  UNL     1       4.162  -1.662   0.162  1.00  0.00     0.007 C 
ENDBRANCH  14  15
ENDBRANCH  13  14
ENDBRANCH  12  13
ENDBRANCH  11  12
ENDBRANCH  10  11
ENDBRANCH   1  10
TORSDOF 6
