REMARK  4 active torsions:
REMARK  status: ('A' for Active; 'I' for Inactive)
REMARK    1  A    between atoms: N1_5  and  C5_6 
REMARK    2  A    between atoms: C5_6  and  C6_7 
REMARK    3  A    between atoms: C6_7  and  C7_8 
REMARK    4  A    between atoms: C14_17  and  N3_18 
ROOT
HETATM    1  C1  UNL     1       4.724   1.272  -3.190  1.00  0.00     0.018 C 
HETATM    2  C2  UNL     1       3.833   1.091  -2.394  1.00  0.00    -0.075 C 
HETATM    3  C3  UNL     1       2.770   0.861  -1.456  1.00  0.00     0.047 A 
HETATM    4  C4  UNL     1       1.416   1.089  -1.572  1.00  0.00     0.114 A 
HETATM    5  N1  UNL     1       0.811   0.714  -0.423  1.00  0.00    -0.340 N 
HETATM    6  C13 UNL     1       1.723   0.244   0.456  1.00  0.00     0.136 A 
HETATM    7  N2  UNL     1       1.593  -0.236   1.710  1.00  0.00    -0.176 N 
ATOM      8  H2  UNL     1       0.684  -0.296   2.168  1.00  0.00     0.186 HD
HETATM    9  C14 UNL     1       2.721  -0.631   2.327  1.00  0.00     0.677 A 
HETATM   10  N4  UNL     1       3.925  -0.554   1.726  1.00  0.00    -0.201 N 
ATOM     11  H4  UNL     1       4.753  -0.866   2.233  1.00  0.00     0.183 HD
HETATM   12  C15 UNL     1       4.064  -0.079   0.482  1.00  0.00     0.123 A 
HETATM   13  C16 UNL     1       2.946   0.338  -0.194  1.00  0.00     0.045 A 
ENDROOT
BRANCH   5  14
HETATM   14  C5  UNL     1      -0.591   0.791  -0.146  1.00  0.00     0.134 C 
BRANCH  14  15
HETATM   15  C6  UNL     1      -1.260  -0.495  -0.569  1.00  0.00     0.058 C 
BRANCH  15  16
HETATM   16  C7  UNL     1      -2.721  -0.442  -0.292  1.00  0.00    -0.057 A 
HETATM   17  C8  UNL     1      -3.188  -0.875   0.922  1.00  0.00     0.007 A 
HETATM   18  C9  UNL     1      -4.542  -0.848   1.234  1.00  0.00     0.001 A 
HETATM   19  C10 UNL     1      -5.437  -0.376   0.302  1.00  0.00     0.000 A 
HETATM   20  C11 UNL     1      -4.978   0.058  -0.910  1.00  0.00     0.001 A 
HETATM   21  C12 UNL     1      -3.642   0.027  -1.206  1.00  0.00     0.007 A 
ENDBRANCH  15  16
ENDBRANCH  14  15
ENDBRANCH   5  14
BRANCH   9  22
HETATM   22  N3  UNL     1       2.654  -1.105   3.547  1.00  0.00    -0.234 N 
ATOM     23  H32 UNL     1       1.743  -1.163   4.002  1.00  0.00     0.174 HD
ATOM     24  H31 UNL     1       3.509  -1.405   4.015  1.00  0.00     0.174 HD
ENDBRANCH   9  22
TORSDOF 4
