REMARK  4 active torsions:
REMARK  status: ('A' for Active; 'I' for Inactive)
REMARK    1  A    between atoms: C4_5  and  N2_6 
REMARK    2  A    between atoms: N2_6  and  C5_8 
REMARK    3  A    between atoms: C5_8  and  C6_9 
REMARK    4  A    between atoms: C6_9  and  C7_10 
ROOT
HETATM    1  N1  UNL     1      -4.893  -0.628  -3.061  1.00  0.00    -0.083 NA
HETATM    2  C1  UNL     1      -4.272  -0.325  -1.808  1.00  0.00     0.118 A 
HETATM    3  C2  UNL     1      -2.915  -0.404  -1.509  1.00  0.00     0.062 A 
HETATM    4  C3  UNL     1      -2.708  -0.033  -0.203  1.00  0.00     0.038 A 
HETATM    5  C4  UNL     1      -1.481   0.017   0.470  1.00  0.00     0.042 C 
HETATM    6  C13 UNL     1      -1.224   0.193   1.811  1.00  0.00     0.031 C 
HETATM    7  C14 UNL     1      -2.093   0.672   2.763  1.00  0.00     0.019 C 
HETATM    8  C15 UNL     1      -3.424   0.989   2.593  1.00  0.00     0.090 C 
HETATM    9  N3  UNL     1      -4.250   0.696   1.561  1.00  0.00    -0.352 N 
ATOM     10  H3  UNL     1      -5.245   0.807   1.758  1.00  0.00     0.166 HD
HETATM   11  C16 UNL     1      -3.953   0.274   0.296  1.00  0.00     0.119 A 
HETATM   12  N4  UNL     1      -4.862   0.093  -0.675  1.00  0.00    -0.330 N 
ATOM     13  H4  UNL     1      -5.864   0.251  -0.568  1.00  0.00     0.168 HD
ENDROOT
BRANCH   5  14
HETATM   14  N2  UNL     1      -0.508  -0.130  -0.361  1.00  0.00    -0.389 N 
ATOM     15  H2  UNL     1      -0.685  -0.261  -1.357  1.00  0.00     0.159 HD
BRANCH  14  16
HETATM   16  C5  UNL     1       0.840  -0.105   0.156  1.00  0.00     0.124 C 
BRANCH  16  17
HETATM   17  C6  UNL     1       1.867  -0.142  -0.962  1.00  0.00     0.058 C 
BRANCH  17  18
HETATM   18  C7  UNL     1       3.242  -0.115  -0.401  1.00  0.00    -0.057 A 
HETATM   19  C8  UNL     1       3.922   1.068  -0.165  1.00  0.00     0.007 A 
HETATM   20  C9  UNL     1       5.194   1.084   0.354  1.00  0.00     0.001 A 
HETATM   21  C10 UNL     1       5.840  -0.091   0.659  1.00  0.00     0.000 A 
HETATM   22  C11 UNL     1       5.192  -1.278   0.436  1.00  0.00     0.001 A 
HETATM   23  C12 UNL     1       3.926  -1.265  -0.081  1.00  0.00     0.007 A 
ENDBRANCH  17  18
ENDBRANCH  16  17
ENDBRANCH  14  16
ENDBRANCH   5  14
TORSDOF 4
