REMARK  3 active torsions:
REMARK  status: ('A' for Active; 'I' for Inactive)
REMARK    1  A    between atoms: C3_3  and  C4_4 
REMARK    2  A    between atoms: C8_8  and  C9_9 
REMARK    3  A    between atoms: C9_9  and  N1_10 
ROOT
HETATM    1  C1  UNL     1      -2.737   3.160  -1.349  1.00  0.00     0.012 C 
HETATM    2  C2  UNL     1      -3.049   2.414  -0.463  1.00  0.00    -0.113 C 
HETATM    3  C3  UNL     1      -3.404   1.499   0.620  1.00  0.00     0.131 C 
ENDROOT
BRANCH   3   4
HETATM    4  C4  UNL     1      -2.873   0.133   0.391  1.00  0.00    -0.047 A 
HETATM    5  C5  UNL     1      -3.566  -0.849  -0.281  1.00  0.00     0.008 A 
HETATM    6  C6  UNL     1      -3.068  -2.118  -0.491  1.00  0.00     0.001 A 
HETATM    7  C7  UNL     1      -1.810  -2.416  -0.002  1.00  0.00     0.009 A 
HETATM    8  C8  UNL     1      -1.070  -1.471   0.679  1.00  0.00    -0.038 A 
HETATM    9  C16 UNL     1      -1.617  -0.207   0.865  1.00  0.00     0.017 A 
BRANCH   8  10
HETATM   10  C9  UNL     1       0.266  -1.859   1.174  1.00  0.00     0.189 C 
BRANCH  10  11
HETATM   11  N1  UNL     1       1.317  -1.601   0.194  1.00  0.00    -0.272 N 
HETATM   12  N2  UNL     1       1.768  -2.403  -0.740  1.00  0.00    -0.307 N 
HETATM   13  C10 UNL     1       2.746  -1.843  -1.473  1.00  0.00     0.122 A 
ATOM     14  H2  UNL     1       1.416  -3.348  -0.894  1.00  0.00     0.186 HD
HETATM   15  C11 UNL     1       2.922  -0.585  -0.953  1.00  0.00     0.026 A 
HETATM   16  C12 UNL     1       3.786   0.411  -1.318  1.00  0.00     0.020 A 
HETATM   17  C15 UNL     1       2.034  -0.451   0.074  1.00  0.00     0.135 A 
HETATM   18  C13 UNL     1       3.741   1.588  -0.608  1.00  0.00     0.049 A 
HETATM   19  C14 UNL     1       2.832   1.706   0.433  1.00  0.00     0.100 A 
HETATM   20  N3  UNL     1       2.760   2.793   1.121  1.00  0.00    -0.385 N 
HETATM   21  N4  UNL     1       1.994   0.688   0.758  1.00  0.00    -0.327 N 
ATOM     22  H32 UNL     1       3.389   3.558   0.877  1.00  0.00     0.157 HD
ATOM     23  H31 UNL     1       2.092   2.880   1.887  1.00  0.00     0.157 HD
ATOM     24  H4  UNL     1       1.333   0.797   1.527  1.00  0.00     0.169 HD
ENDBRANCH  10  11
ENDBRANCH   8  10
ENDBRANCH   3   4
TORSDOF 3
