REMARK  20 active torsions:
REMARK  status: ('A' for Active; 'I' for Inactive)
REMARK    1  A    between atoms: C2_2  and  C4_4 
REMARK    2  A    between atoms: C2_2  and  O2_7 
REMARK    3  A    between atoms: C4_4  and  O1_5 
REMARK    4  A    between atoms: O2_7  and  N1_8 
REMARK       I    between atoms: N1_8  and  C5_10 
REMARK    5  A    between atoms: C5_10  and  C6_12 
REMARK    6  A    between atoms: N3_15  and  C7_16 
REMARK    7  A    between atoms: C8_18  and  S1_19 
REMARK    8  A    between atoms: S1_19  and  C9_20 
REMARK    9  A    between atoms: C9_20  and  C10_21 
REMARK   10  A    between atoms: N4_23  and  C12_24 
REMARK   11  A    between atoms: C12_24  and  C13_25 
REMARK   12  A    between atoms: C13_25  and  N5_26 
REMARK   13  A    between atoms: N5_26  and  C14_28 
REMARK   14  A    between atoms: C16_32  and  N7_33 
REMARK   15  A    between atoms: C17_38  and  N9_39 
REMARK   16  A    between atoms: C19_41  and  O5_42 
REMARK   17  A    between atoms: C20_44  and  O6_45 
REMARK   18  A    between atoms: C21_47  and  O7_48 
REMARK   19  A    between atoms: N11_54  and  O8_55 
REMARK   20  A    between atoms: C24_61  and  O9_62 
ROOT
HETATM    1  C13 UNL     1       1.011   0.416  -2.387  1.00  0.00     0.160 C 
ENDROOT
BRANCH   1   2
HETATM    2  C12 UNL     1       0.647   1.854  -2.121  1.00  0.00     0.170 C 
BRANCH   2   3
HETATM    3  N4  UNL     1      -0.599   1.860  -1.405  1.00  0.00    -0.286 N 
HETATM    4  C11 UNL     1      -0.793   1.832  -0.091  1.00  0.00     0.139 A 
HETATM    5  C10 UNL     1      -2.161   1.848   0.112  1.00  0.00     0.054 A 
HETATM    6  N13 UNL     1      -2.712   1.887  -1.133  1.00  0.00    -0.288 N 
HETATM    7  N12 UNL     1      -1.776   1.894  -2.046  1.00  0.00    -0.241 N 
ATOM      8  H13 UNL     1      -3.713   1.908  -1.326  1.00  0.00     0.188 HD
ATOM      9  H12 UNL     1      -1.915   1.920  -3.056  1.00  0.00     0.208 HD
BRANCH   5  10
HETATM   10  C9  UNL     1      -2.945   1.831   1.359  1.00  0.00     0.141 C 
BRANCH  10  11
HETATM   11  S1  UNL     1      -3.338   0.175   1.947  1.00  0.00    -0.101 SA
BRANCH  11  12
HETATM   12  C8  UNL     1      -4.407  -0.739   0.877  1.00  0.00     0.131 A 
HETATM   13  N3  UNL     1      -4.154  -1.606  -0.108  1.00  0.00    -0.221 N 
HETATM   14  N2  UNL     1      -5.280  -2.006  -0.671  1.00  0.00    -0.283 N 
HETATM   15  C6  UNL     1      -6.334  -1.397  -0.053  1.00  0.00     0.155 A 
ATOM     16  H2  UNL     1      -5.351  -2.666  -1.445  1.00  0.00     0.188 HD
HETATM   17  C24 UNL     1      -5.798  -0.599   0.922  1.00  0.00     0.135 A 
BRANCH  13  18
HETATM   18  C7  UNL     1      -2.869  -2.059  -0.489  1.00  0.00     0.377 C 
HETATM   19  O4  UNL     1      -1.829  -1.682   0.081  1.00  0.00    -0.281 OA
ENDBRANCH  13  18
BRANCH  15  20
HETATM   20  C5  UNL     1      -7.717  -1.631  -0.446  1.00  0.00     0.296 C 
HETATM   21  N1  UNL     1      -8.795  -0.992   0.202  1.00  0.00    -0.228 N 
ATOM     22  H1  UNL     1      -8.616  -0.345   0.969  1.00  0.00     0.198 HD
HETATM   23  O3  UNL     1      -7.966  -2.422  -1.387  1.00  0.00    -0.264 OA
BRANCH  21  24
HETATM   24  O2  UNL     1     -10.073  -1.237  -0.194  1.00  0.00    -0.265 OA
BRANCH  24  25
HETATM   25  C2  UNL     1     -11.024  -0.543   0.504  1.00  0.00     0.103 C 
HETATM   26  C1  UNL     1     -10.879   0.954   0.403  1.00  0.00     0.050 C 
HETATM   27  C3  UNL     1     -11.041  -1.013   1.939  1.00  0.00     0.050 C 
BRANCH  25  28
HETATM   28  C4  UNL     1     -12.372  -0.884  -0.148  1.00  0.00     0.203 C 
BRANCH  28  29
HETATM   29  O1  UNL     1     -13.370  -0.209   0.520  1.00  0.00    -0.398 OA
ATOM     30  H1  UNL     1     -14.204  -0.420   0.117  1.00  0.00     0.209 HD
ENDBRANCH  28  29
ENDBRANCH  25  28
ENDBRANCH  24  25
ENDBRANCH  21  24
ENDBRANCH  15  20
BRANCH  17  31
HETATM   31  O9  UNL     1      -6.518   0.203   1.793  1.00  0.00    -0.356 OA
ATOM     32  H9  UNL     1      -6.146   0.757   2.469  1.00  0.00     0.218 HD
ENDBRANCH  17  31
ENDBRANCH  11  12
ENDBRANCH  10  11
ENDBRANCH   5  10
ENDBRANCH   2   3
ENDBRANCH   1   2
BRANCH   1  33
HETATM   33  N5  UNL     1       2.237   0.368  -3.104  1.00  0.00    -0.222 N 
ATOM     34  H5  UNL     1       2.173   0.440  -4.119  1.00  0.00     0.177 HD
BRANCH  33  35
HETATM   35  C14 UNL     1       3.419   0.244  -2.610  1.00  0.00     0.707 A 
HETATM   36  N6  UNL     1       4.529   0.208  -3.386  1.00  0.00    -0.182 N 
HETATM   37  C15 UNL     1       5.617   0.074  -2.613  1.00  0.00     0.140 A 
ATOM     38  H6  UNL     1       4.536   0.273  -4.404  1.00  0.00     0.184 HD
HETATM   39  C16 UNL     1       6.975  -0.019  -2.827  1.00  0.00     0.146 A 
HETATM   40  C23 UNL     1       5.193   0.023  -1.307  1.00  0.00     0.197 A 
HETATM   41  N8  UNL     1       7.831  -0.151  -1.807  1.00  0.00    -0.175 N 
HETATM   42  C17 UNL     1       7.424  -0.202  -0.503  1.00  0.00     0.683 A 
ATOM     43  H8  UNL     1       8.828  -0.216  -2.011  1.00  0.00     0.186 HD
HETATM   44  N10 UNL     1       6.101  -0.112  -0.301  1.00  0.00    -0.171 N 
ATOM     45  H10 UNL     1       5.756  -0.147   0.658  1.00  0.00     0.186 HD
HETATM   46  N11 UNL     1       3.853   0.130  -1.351  1.00  0.00    -0.033 N 
BRANCH  39  47
HETATM   47  N7  UNL     1       7.390   0.028  -4.067  1.00  0.00    -0.383 N 
ATOM     48  H72 UNL     1       6.738   0.129  -4.845  1.00  0.00     0.157 HD
ATOM     49  H71 UNL     1       8.395  -0.041  -4.225  1.00  0.00     0.157 HD
ENDBRANCH  39  47
BRANCH  42  50
HETATM   50  N9  UNL     1       8.381  -0.345   0.540  1.00  0.00    -0.212 N 
HETATM   51  C18 UNL     1       8.049  -0.388   1.938  1.00  0.00     0.175 C 
HETATM   52  C19 UNL     1       8.983   0.414   2.816  1.00  0.00     0.167 C 
HETATM   53  C20 UNL     1      10.415   0.166   2.491  1.00  0.00     0.178 C 
HETATM   54  C21 UNL     1      10.601  -0.863   1.401  1.00  0.00     0.167 C 
HETATM   55  C22 UNL     1       9.780  -0.459   0.173  1.00  0.00     0.175 C 
BRANCH  52  56
HETATM   56  O5  UNL     1       8.762  -0.025   4.120  1.00  0.00    -0.391 OA
ATOM     57  H5  UNL     1       9.349   0.479   4.672  1.00  0.00     0.210 HD
ENDBRANCH  52  56
BRANCH  53  58
HETATM   58  O6  UNL     1      11.164  -0.209   3.597  1.00  0.00    -0.390 OA
ATOM     59  H6  UNL     1      12.078  -0.367   3.390  1.00  0.00     0.210 HD
ENDBRANCH  53  58
BRANCH  54  60
HETATM   60  O7  UNL     1      11.939  -0.841   1.035  1.00  0.00    -0.391 OA
ATOM     61  H7  UNL     1      12.056  -1.488   0.349  1.00  0.00     0.210 HD
ENDBRANCH  54  60
ENDBRANCH  42  50
BRANCH  46  62
HETATM   62  O8  UNL     1       3.050   0.125  -0.240  1.00  0.00    -0.268 OA
ATOM     63  H8  UNL     1       3.358   0.044   0.655  1.00  0.00     0.246 HD
ENDBRANCH  46  62
ENDBRANCH  33  35
ENDBRANCH   1  33
TORSDOF 20
