REMARK  21 active torsions:
REMARK  status: ('A' for Active; 'I' for Inactive)
REMARK       I    between atoms: N1_2  and  C2_4 
REMARK    1  A    between atoms: C2_4  and  C3_6 
REMARK    2  A    between atoms: C4_10  and  C5_11 
REMARK    3  A    between atoms: C5_11  and  O2_12 
REMARK    4  A    between atoms: C5_11  and  O3_14 
REMARK    5  A    between atoms: O3_14  and  C6_15 
REMARK    6  A    between atoms: C6_15  and  C7_16 
REMARK    7  A    between atoms: C6_15  and  N3_22 
REMARK    8  A    between atoms: C7_16  and  C8_17 
REMARK    9  A    between atoms: N3_22  and  C11_23 
REMARK   10  A    between atoms: C12_24  and  O4_25 
REMARK   11  A    between atoms: C13_28  and  O6_29 
REMARK   12  A    between atoms: C14_31  and  O7_32 
REMARK   13  A    between atoms: C16_37  and  O10_38 
REMARK   14  A    between atoms: O10_38  and  C17_39 
REMARK   15  A    between atoms: C17_39  and  O11_40 
REMARK   16  A    between atoms: C17_39  and  C18_42 
REMARK   17  A    between atoms: C18_42  and  O12_43 
REMARK   18  A    between atoms: C18_42  and  C19_45 
REMARK   19  A    between atoms: C19_45  and  O13_46 
REMARK   20  A    between atoms: C19_45  and  C20_48 
REMARK       I    between atoms: C20_48  and  N4_50 
REMARK   21  A    between atoms: N4_50  and  S3_52 
ROOT
HETATM    1  C3  UNL     1       0.281   1.232   0.667  1.00  0.00     0.333 C 
HETATM    2  N2  UNL     1      -1.025   1.834   0.449  1.00  0.00    -0.039 N 
ATOM      3  H21 UNL     1      -0.925   2.755   0.021  1.00  0.00     0.279 HD
ATOM      4  H22 UNL     1      -1.447   2.100   1.339  1.00  0.00     0.279 HD
HETATM    5  C4  UNL     1      -1.935   1.022  -0.315  1.00  0.00     0.340 C 
HETATM    6  C15 UNL     1      -1.308   0.618  -1.617  1.00  0.00     0.297 C 
HETATM    7  O8  UNL     1      -2.035   0.077  -2.464  1.00  0.00    -0.263 OA
HETATM    8  O9  UNL     1       0.037   0.899  -1.728  1.00  0.00    -0.285 OA
HETATM    9  C16 UNL     1       0.862   0.638  -0.566  1.00  0.00     0.312 C 
ENDROOT
BRANCH   5  10
HETATM   10  C5  UNL     1      -2.286  -0.184   0.475  1.00  0.00     0.306 C 
BRANCH  10  11
HETATM   11  O2  UNL     1      -2.881   0.223   1.685  1.00  0.00    -0.368 OA
ATOM     12  H2  UNL     1      -3.106  -0.549   2.191  1.00  0.00     0.212 HD
ENDBRANCH  10  11
BRANCH  10  13
HETATM   13  O3  UNL     1      -3.034  -1.170  -0.156  1.00  0.00    -0.294 OA
BRANCH  13  14
HETATM   14  C6  UNL     1      -4.308  -1.053  -0.696  1.00  0.00     0.195 C 
BRANCH  14  15
HETATM   15  C7  UNL     1      -4.760  -2.229  -1.525  1.00  0.00     0.106 C 
BRANCH  15  16
HETATM   16  C8  UNL     1      -5.183  -3.384  -0.689  1.00  0.00     0.014 C 
HETATM   17  C9  UNL     1      -4.120  -3.909   0.200  1.00  0.00     0.092 C 
HETATM   18  S1  UNL     1      -4.886  -5.399   0.963  1.00  0.00    -0.097 SA
HETATM   19  S2  UNL     1      -6.906  -4.614   0.876  1.00  0.00    -0.097 SA
HETATM   20  C10 UNL     1      -6.386  -3.003   0.140  1.00  0.00     0.092 C 
ENDBRANCH  15  16
ENDBRANCH  14  15
BRANCH  14  21
HETATM   21  N3  UNL     1      -4.994  -0.119  -0.526  1.00  0.00    -0.377 NA
BRANCH  21  22
HETATM   22  C11 UNL     1      -5.749   0.958  -0.315  1.00  0.00     0.205 A 
HETATM   23  C12 UNL     1      -6.546   1.319   0.780  1.00  0.00     0.230 A 
HETATM   24  O5  UNL     1      -7.089   2.459   0.529  1.00  0.00    -0.259 OA
HETATM   25  C13 UNL     1      -6.733   2.914  -0.648  1.00  0.00     0.223 A 
HETATM   26  C14 UNL     1      -5.884   2.016  -1.244  1.00  0.00     0.171 A 
BRANCH  23  27
HETATM   27  O4  UNL     1      -6.685   0.549   1.898  1.00  0.00    -0.338 OA
ATOM     28  H4  UNL     1      -7.225   0.794   2.640  1.00  0.00     0.220 HD
ENDBRANCH  23  27
BRANCH  25  29
HETATM   29  O6  UNL     1      -7.182   4.136  -1.168  1.00  0.00    -0.338 OA
ATOM     30  H6  UNL     1      -6.924   4.466  -2.021  1.00  0.00     0.220 HD
ENDBRANCH  25  29
BRANCH  26  31
HETATM   31  O7  UNL     1      -5.271   2.098  -2.493  1.00  0.00    -0.354 OA
ATOM     32  H7  UNL     1      -5.362   2.809  -3.117  1.00  0.00     0.218 HD
ENDBRANCH  26  31
ENDBRANCH  21  22
ENDBRANCH  14  21
ENDBRANCH  13  14
ENDBRANCH  10  13
ENDBRANCH   5  10
BRANCH   1  33
HETATM   33  C2  UNL     1       1.120   2.371   1.195  1.00  0.00     0.253 C 
HETATM   34  N1  UNL     1       2.149   2.252   2.127  1.00  0.00    -0.363 N 
HETATM   35  C1  UNL     1       2.908   3.383   2.589  1.00  0.00     0.149 C 
ATOM     36  H1  UNL     1       2.372   1.328   2.496  1.00  0.00     0.161 HD
HETATM   37  O1  UNL     1       0.852   3.520   0.746  1.00  0.00    -0.271 OA
ENDBRANCH   1  33
BRANCH   9  38
HETATM   38  O10 UNL     1       2.074   1.206  -0.866  1.00  0.00    -0.326 OA
BRANCH  38  39
HETATM   39  C17 UNL     1       3.065   0.356  -1.291  1.00  0.00     0.291 C 
BRANCH  39  40
HETATM   40  O11 UNL     1       3.430   0.710  -2.564  1.00  0.00    -0.368 OA
ATOM     41  H11 UNL     1       4.116   0.122  -2.858  1.00  0.00     0.212 HD
ENDBRANCH  39  40
BRANCH  39  42
HETATM   42  C18 UNL     1       4.205   0.165  -0.347  1.00  0.00     0.211 C 
BRANCH  42  43
HETATM   43  O12 UNL     1       3.845  -0.460   0.837  1.00  0.00    -0.388 OA
ATOM     44  H12 UNL     1       4.571  -0.582   1.438  1.00  0.00     0.210 HD
ENDBRANCH  42  43
BRANCH  42  45
HETATM   45  C19 UNL     1       5.425  -0.482  -0.941  1.00  0.00     0.244 C 
BRANCH  45  46
HETATM   46  O13 UNL     1       5.258  -1.820  -1.210  1.00  0.00    -0.383 OA
ATOM     47  H13 UNL     1       6.029  -2.229  -1.585  1.00  0.00     0.210 HD
ENDBRANCH  45  46
BRANCH  45  48
HETATM   48  C20 UNL     1       6.502  -0.345   0.076  1.00  0.00     0.262 C 
HETATM   49  O14 UNL     1       6.842   0.800   0.477  1.00  0.00    -0.270 OA
HETATM   50  N4  UNL     1       7.158  -1.489   0.609  1.00  0.00    -0.252 N 
ATOM     51  H4  UNL     1       6.885  -2.415   0.280  1.00  0.00     0.181 HD
BRANCH  50  52
HETATM   52  S3  UNL     1       8.405  -1.356   1.799  1.00  0.00     0.229 S 
HETATM   53  C21 UNL     1       9.909  -0.781   1.115  1.00  0.00     0.186 C 
HETATM   54  O15 UNL     1       7.961  -0.387   2.881  1.00  0.00    -0.206 OA
HETATM   55  O16 UNL     1       8.586  -2.700   2.450  1.00  0.00    -0.206 OA
ENDBRANCH  50  52
ENDBRANCH  45  48
ENDBRANCH  42  45
ENDBRANCH  39  42
ENDBRANCH  38  39
ENDBRANCH   9  38
TORSDOF 21
