REMARK  20 active torsions:
REMARK  status: ('A' for Active; 'I' for Inactive)
REMARK    1  A    between atoms: O1_2  and  C2_3 
REMARK    2  A    between atoms: C3_5  and  C4_6 
REMARK    3  A    between atoms: C5_9  and  C6_10 
REMARK    4  A    between atoms: C6_10  and  N2_11 
REMARK    5  A    between atoms: C6_10  and  C7_15 
REMARK    6  A    between atoms: C7_15  and  O4_16 
REMARK    7  A    between atoms: C7_15  and  C8_18 
REMARK    8  A    between atoms: C8_18  and  O5_19 
REMARK    9  A    between atoms: C8_18  and  C9_21 
REMARK   10  A    between atoms: C9_21  and  O6_22 
REMARK   11  A    between atoms: C10_24  and  N3_25 
REMARK   12  A    between atoms: N3_25  and  C11_27 
REMARK   13  A    between atoms: C11_27  and  O7_29 
REMARK   14  A    between atoms: C13_31  and  O8_32 
REMARK   15  A    between atoms: C16_37  and  O10_38 
REMARK   16  A    between atoms: O10_38  and  C17_39 
REMARK   17  A    between atoms: C19_42  and  O12_43 
REMARK   18  A    between atoms: C20_45  and  O13_46 
REMARK   19  A    between atoms: O13_46  and  C21_47 
REMARK   20  A    between atoms: C23_50  and  O15_51 
ROOT
HETATM    1  C2  UNL     1      -0.233  -1.528  -1.466  1.00  0.00     0.199 C 
HETATM    2  O2  UNL     1      -1.288  -0.904  -1.008  1.00  0.00    -0.287 OA
HETATM    3  C3  UNL     1      -1.533  -0.017  -0.104  1.00  0.00     0.116 C 
HETATM    4  C13 UNL     1      -0.514   0.626   0.624  1.00  0.00     0.149 C 
HETATM    5  C14 UNL     1       0.762   0.175   0.932  1.00  0.00     0.221 C 
HETATM    6  O9  UNL     1       1.298   0.555   1.981  1.00  0.00    -0.284 OA
HETATM    7  C15 UNL     1       1.535  -0.690   0.170  1.00  0.00     0.071 A 
HETATM    8  C16 UNL     1       2.861  -0.981   0.327  1.00  0.00     0.123 A 
HETATM    9  C24 UNL     1       3.222  -1.935  -0.627  1.00  0.00     0.140 A 
HETATM   10  C25 UNL     1       2.115  -2.240  -1.387  1.00  0.00     0.124 A 
HETATM   11  C26 UNL     1       1.032  -1.509  -0.955  1.00  0.00     0.076 A 
HETATM   12  O16 UNL     1       2.535  -3.184  -2.311  1.00  0.00    -0.322 OA
HETATM   13  C27 UNL     1       3.790  -3.750  -1.905  1.00  0.00     0.352 C 
HETATM   14  O17 UNL     1       4.286  -2.690  -1.094  1.00  0.00    -0.320 OA
ENDROOT
BRANCH   3  15
HETATM   15  C4  UNL     1      -2.849   0.435   0.273  1.00  0.00     0.191 C 
HETATM   16  N1  UNL     1      -2.960   0.746   1.671  1.00  0.00    -0.086 NA
HETATM   17  O3  UNL     1      -4.263   1.188   1.692  1.00  0.00    -0.276 OA
HETATM   18  C5  UNL     1      -4.990   0.216   1.050  1.00  0.00     0.204 C 
HETATM   19  C10 UNL     1      -4.063  -0.323  -0.052  1.00  0.00     0.140 C 
BRANCH  18  20
HETATM   20  C6  UNL     1      -6.341   0.608   0.671  1.00  0.00     0.247 C 
BRANCH  20  21
HETATM   21  N2  UNL     1      -7.071  -0.423  -0.096  1.00  0.00    -0.070 N 
ATOM     22  H23 UNL     1      -6.536  -0.705  -0.917  1.00  0.00     0.274 HD
ATOM     23  H22 UNL     1      -7.084  -1.307   0.413  1.00  0.00     0.274 HD
ATOM     24  H21 UNL     1      -8.017  -0.149  -0.361  1.00  0.00     0.274 HD
ENDBRANCH  20  21
BRANCH  20  25
HETATM   25  C7  UNL     1      -6.716   1.991   0.349  1.00  0.00     0.182 C 
BRANCH  25  26
HETATM   26  O4  UNL     1      -8.142   2.065   0.675  1.00  0.00    -0.391 OA
ATOM     27  H4  UNL     1      -8.385   2.960   0.467  1.00  0.00     0.210 HD
ENDBRANCH  25  26
BRANCH  25  28
HETATM   28  C8  UNL     1      -6.627   2.521  -1.021  1.00  0.00     0.172 C 
BRANCH  28  29
HETATM   29  O5  UNL     1      -7.234   1.805  -2.015  1.00  0.00    -0.391 OA
ATOM     30  H5  UNL     1      -7.177   2.147  -2.899  1.00  0.00     0.210 HD
ENDBRANCH  28  29
BRANCH  28  31
HETATM   31  C9  UNL     1      -5.323   3.066  -1.502  1.00  0.00     0.198 C 
BRANCH  31  32
HETATM   32  O6  UNL     1      -4.665   3.821  -0.530  1.00  0.00    -0.398 OA
ATOM     33  H6  UNL     1      -3.835   4.168  -0.836  1.00  0.00     0.209 HD
ENDBRANCH  31  32
ENDBRANCH  28  31
ENDBRANCH  25  28
ENDBRANCH  20  25
ENDBRANCH  18  20
BRANCH  19  34
HETATM   34  N3  UNL     1      -4.132  -1.677  -0.191  1.00  0.00    -0.388 N 
ATOM     35  H3  UNL     1      -4.313  -1.958  -1.155  1.00  0.00     0.156 HD
BRANCH  34  36
HETATM   36  C11 UNL     1      -4.019  -2.737   0.638  1.00  0.00     0.209 C 
HETATM   37  C12 UNL     1      -2.718  -3.026   1.300  1.00  0.00     0.062 C 
BRANCH  36  38
HETATM   38  O7  UNL     1      -4.260  -3.936  -0.139  1.00  0.00    -0.378 OA
ATOM     39  H7  UNL     1      -4.181  -4.682   0.444  1.00  0.00     0.212 HD
ENDBRANCH  36  38
ENDBRANCH  34  36
ENDBRANCH  19  34
ENDBRANCH   3  15
BRANCH   4  40
HETATM   40  O8  UNL     1      -0.782   1.887   1.123  1.00  0.00    -0.355 OA
ATOM     41  H8  UNL     1      -0.094   2.321   1.614  1.00  0.00     0.218 HD
ENDBRANCH   4  40
BRANCH   1  42
HETATM   42  O1  UNL     1      -0.357  -2.314  -2.596  1.00  0.00    -0.335 OA
HETATM   43  C1  UNL     1      -0.573  -3.712  -2.574  1.00  0.00     0.212 C 
ENDBRANCH   1  42
BRANCH   8  44
HETATM   44  O10 UNL     1       3.729  -0.421   1.277  1.00  0.00    -0.314 OA
BRANCH  44  45
HETATM   45  C17 UNL     1       4.551   0.679   1.053  1.00  0.00     0.297 C 
HETATM   46  O11 UNL     1       4.312   1.800   1.834  1.00  0.00    -0.356 OA
HETATM   47  C18 UNL     1       4.965   2.884   1.232  1.00  0.00     0.205 C 
HETATM   48  C19 UNL     1       6.466   2.736   1.218  1.00  0.00     0.174 C 
HETATM   49  C20 UNL     1       6.812   1.434   0.556  1.00  0.00     0.196 C 
HETATM   50  C23 UNL     1       6.029   0.345   1.287  1.00  0.00     0.205 C 
BRANCH  48  51
HETATM   51  O12 UNL     1       6.964   3.805   0.469  1.00  0.00    -0.391 OA
ATOM     52  H12 UNL     1       7.909   3.712   0.460  1.00  0.00     0.210 HD
ENDBRANCH  48  51
BRANCH  49  53
HETATM   53  O13 UNL     1       8.173   1.081   0.682  1.00  0.00    -0.311 OA
BRANCH  53  54
HETATM   54  C21 UNL     1       8.892   0.755  -0.451  1.00  0.00     0.255 C 
HETATM   55  C22 UNL     1      10.334   0.368  -0.410  1.00  0.00     0.126 C 
HETATM   56  O14 UNL     1       8.329   0.781  -1.563  1.00  0.00    -0.266 OA
ENDBRANCH  53  54
ENDBRANCH  49  53
BRANCH  50  57
HETATM   57  O15 UNL     1       6.408  -0.865   0.791  1.00  0.00    -0.388 OA
ATOM     58  H15 UNL     1       7.324  -1.072   0.936  1.00  0.00     0.210 HD
ENDBRANCH  50  57
ENDBRANCH  44  45
ENDBRANCH   8  44
TORSDOF 20
