REMARK  19 active torsions:
REMARK  status: ('A' for Active; 'I' for Inactive)
REMARK    1  A    between atoms: C2_2  and  O2_4 
REMARK    2  A    between atoms: O2_4  and  C3_5 
REMARK    3  A    between atoms: C3_5  and  C4_6 
REMARK    4  A    between atoms: C4_6  and  O3_7 
REMARK    5  A    between atoms: O3_7  and  C5_8 
REMARK    6  A    between atoms: C5_8  and  C7_10 
REMARK    7  A    between atoms: C7_10  and  O4_11 
REMARK    8  A    between atoms: C7_10  and  C8_13 
REMARK    9  A    between atoms: C7_10  and  N9_40 
REMARK   10  A    between atoms: C8_13  and  O5_14 
REMARK   11  A    between atoms: C8_13  and  C9_16 
REMARK   12  A    between atoms: C9_16  and  N1_17 
REMARK   13  A    between atoms: C10_18  and  N2_19 
REMARK   14  A    between atoms: N2_19  and  N3_21 
REMARK   15  A    between atoms: C15_41  and  N10_42 
REMARK   16  A    between atoms: C17_44  and  O7_45 
REMARK   17  A    between atoms: C18_47  and  O8_48 
REMARK   18  A    between atoms: C22_57  and  N13_58 
REMARK   19  A    between atoms: N14_61  and  N15_62 
ROOT
HETATM    1  C7  UNL     1      -0.460  -0.146  -0.231  1.00  0.00     0.208 C 
ENDROOT
BRANCH   1   2
HETATM    2  C5  UNL     1      -0.983   1.148  -0.657  1.00  0.00     0.176 C 
HETATM    3  C6  UNL     1      -2.397   1.050  -1.313  1.00  0.00     0.044 C 
BRANCH   2   4
HETATM    4  O3  UNL     1      -1.105   2.277   0.035  1.00  0.00    -0.379 OA
BRANCH   4   5
HETATM    5  C4  UNL     1      -0.557   3.405  -0.515  1.00  0.00     0.195 C 
BRANCH   5   6
HETATM    6  C3  UNL     1      -0.812   4.556   0.442  1.00  0.00     0.205 C 
BRANCH   6   7
HETATM    7  O2  UNL     1      -0.284   5.765  -0.034  1.00  0.00    -0.320 OA
BRANCH   7   8
HETATM    8  C2  UNL     1      -0.455   6.891   0.759  1.00  0.00     0.254 C 
HETATM    9  C1  UNL     1       0.068   8.210   0.339  1.00  0.00     0.126 C 
HETATM   10  O1  UNL     1      -1.060   6.826   1.858  1.00  0.00    -0.266 OA
ENDBRANCH   7   8
ENDBRANCH   6   7
ENDBRANCH   5   6
ENDBRANCH   4   5
ENDBRANCH   2   4
ENDBRANCH   1   2
BRANCH   1  11
HETATM   11  O4  UNL     1      -0.675  -0.723  -1.611  1.00  0.00    -0.365 OA
ATOM     12  H4  UNL     1      -0.335  -1.565  -1.334  1.00  0.00     0.212 HD
ENDBRANCH   1  11
BRANCH   1  13
HETATM   13  C8  UNL     1       1.005  -0.421  -0.262  1.00  0.00     0.196 C 
BRANCH  13  14
HETATM   14  O5  UNL     1       1.629   0.209  -1.388  1.00  0.00    -0.389 OA
ATOM     15  H5  UNL     1       2.562   0.034  -1.408  1.00  0.00     0.210 HD
ENDBRANCH  13  14
BRANCH  13  16
HETATM   16  C9  UNL     1       1.930  -0.090   0.816  1.00  0.00     0.186 C 
BRANCH  16  17
HETATM   17  N1  UNL     1       3.314  -0.439   0.579  1.00  0.00    -0.161 N 
HETATM   18  C10 UNL     1       3.852  -1.636   0.872  1.00  0.00     0.702 A 
HETATM   19  N5  UNL     1       5.153  -1.607   0.532  1.00  0.00    -0.181 N 
HETATM   20  C11 UNL     1       5.452  -0.403   0.025  1.00  0.00     0.162 A 
ATOM     21  H5  UNL     1       5.809  -2.380   0.643  1.00  0.00     0.184 HD
HETATM   22  C12 UNL     1       6.599   0.177  -0.469  1.00  0.00     0.290 A 
HETATM   23  C14 UNL     1       4.287   0.359   0.047  1.00  0.00     0.172 A 
HETATM   24  O6  UNL     1       7.650  -0.497  -0.494  1.00  0.00    -0.265 OA
HETATM   25  N6  UNL     1       6.549   1.464  -0.914  1.00  0.00    -0.154 N 
HETATM   26  C13 UNL     1       5.410   2.173  -0.880  1.00  0.00     0.680 A 
ATOM     27  H6  UNL     1       7.396   1.898  -1.281  1.00  0.00     0.187 HD
HETATM   28  N7  UNL     1       5.457   3.392  -1.325  1.00  0.00    -0.234 N 
HETATM   29  N8  UNL     1       4.281   1.629  -0.403  1.00  0.00    -0.174 N 
ATOM     30  H72 UNL     1       6.316   3.806  -1.688  1.00  0.00     0.174 HD
ATOM     31  H71 UNL     1       4.591   3.931  -1.299  1.00  0.00     0.174 HD
ATOM     32  H8  UNL     1       3.420   2.175  -0.381  1.00  0.00     0.186 HD
BRANCH  18  33
HETATM   33  N2  UNL     1       3.214  -2.780   1.443  1.00  0.00    -0.118 N 
ATOM     34  H2  UNL     1       2.199  -2.785   1.542  1.00  0.00     0.207 HD
BRANCH  33  35
HETATM   35  N3  UNL     1       3.855  -3.754   1.816  1.00  0.00    -0.235 N 
HETATM   36  N4  UNL     1       4.327  -4.909   1.765  1.00  0.00    -0.330 N 
ATOM     37  H42 UNL     1       3.930  -5.197   0.871  1.00  0.00     0.178 HD
ATOM     38  H41 UNL     1       4.861  -5.721   2.076  1.00  0.00     0.178 HD
ATOM     39  H3  UNL     1       4.230  -3.421   2.705  1.00  0.00     0.208 HD
ENDBRANCH  33  35
ENDBRANCH  18  33
ENDBRANCH  16  17
ENDBRANCH  13  16
ENDBRANCH   1  13
BRANCH   1  40
HETATM   40  N9  UNL     1      -1.305  -1.136   0.426  1.00  0.00    -0.137 N 
HETATM   41  C15 UNL     1      -1.836  -2.300  -0.080  1.00  0.00     0.688 A 
HETATM   42  N11 UNL     1      -2.586  -2.936   0.898  1.00  0.00    -0.173 N 
HETATM   43  C21 UNL     1      -2.522  -2.192   1.979  1.00  0.00     0.168 A 
ATOM     44  H11 UNL     1      -3.092  -3.816   0.797  1.00  0.00     0.186 HD
HETATM   45  N12 UNL     1      -3.061  -2.364   3.192  1.00  0.00    -0.172 N 
HETATM   46  C24 UNL     1      -1.733  -1.066   1.719  1.00  0.00     0.146 A 
HETATM   47  C22 UNL     1      -2.881  -1.490   4.211  1.00  0.00     0.700 A 
ATOM     48  H12 UNL     1      -3.634  -3.192   3.357  1.00  0.00     0.186 HD
HETATM   49  N14 UNL     1      -2.131  -0.400   4.005  1.00  0.00    -0.075 N 
HETATM   50  C23 UNL     1      -1.566  -0.198   2.770  1.00  0.00     0.170 A 
HETATM   51  N16 UNL     1      -0.866   0.825   2.671  1.00  0.00    -0.382 N 
ATOM     52 2H16 UNL     1      -0.742   1.470   3.452  1.00  0.00     0.157 HD
ATOM     53 1H16 UNL     1      -0.446   0.975   1.754  1.00  0.00     0.157 HD
BRANCH  41  54
HETATM   54  N10 UNL     1      -1.693  -2.870  -1.355  1.00  0.00    -0.208 N 
HETATM   55  C16 UNL     1      -0.625  -3.731  -1.808  1.00  0.00     0.176 C 
HETATM   56  C17 UNL     1      -1.375  -4.864  -2.513  1.00  0.00     0.167 C 
HETATM   57  C18 UNL     1      -2.745  -4.330  -2.758  1.00  0.00     0.171 C 
HETATM   58  C19 UNL     1      -2.608  -2.819  -2.462  1.00  0.00     0.129 C 
HETATM   59  C20 UNL     1      -4.002  -2.376  -2.100  1.00  0.00     0.036 C 
BRANCH  56  60
HETATM   60  O7  UNL     1      -0.769  -5.231  -3.690  1.00  0.00    -0.391 OA
ATOM     61  H7  UNL     1      -1.234  -5.934  -4.128  1.00  0.00     0.210 HD
ENDBRANCH  56  60
BRANCH  57  62
HETATM   62  O8  UNL     1      -3.185  -4.514  -4.058  1.00  0.00    -0.391 OA
ATOM     63  H8  UNL     1      -4.058  -4.174  -4.214  1.00  0.00     0.210 HD
ENDBRANCH  57  62
ENDBRANCH  41  54
BRANCH  47  64
HETATM   64  N13 UNL     1      -3.414  -1.681   5.374  1.00  0.00    -0.233 N 
ATOM     65 2H13 UNL     1      -3.985  -2.511   5.531  1.00  0.00     0.174 HD
ATOM     66 1H13 UNL     1      -3.278  -1.023   6.141  1.00  0.00     0.174 HD
ENDBRANCH  47  64
BRANCH  49  67
HETATM   67  N15 UNL     1      -1.938   0.503   5.041  1.00  0.00    -0.322 N 
ATOM     68 2H15 UNL     1      -2.358   0.353   5.958  1.00  0.00     0.178 HD
ATOM     69 1H15 UNL     1      -1.367   1.333   4.884  1.00  0.00     0.178 HD
ENDBRANCH  49  67
ENDBRANCH   1  40
TORSDOF 19
