REMARK  17 active torsions:
REMARK  status: ('A' for Active; 'I' for Inactive)
REMARK    1  A    between atoms: O1_2  and  C2_3 
REMARK    2  A    between atoms: C2_3  and  C3_5 
REMARK    3  A    between atoms: C3_5  and  C4_6 
REMARK    4  A    between atoms: C4_6  and  C5_7 
REMARK    5  A    between atoms: C5_7  and  C17_47 
REMARK    6  A    between atoms: N1_8  and  O3_10 
REMARK    7  A    between atoms: O3_10  and  C6_11 
REMARK    8  A    between atoms: C7_13  and  C8_14 
REMARK    9  A    between atoms: C8_14  and  O5_15 
REMARK   10  A    between atoms: O5_15  and  S1_16 
REMARK   11  A    between atoms: S1_16  and  N2_19 
REMARK       I    between atoms: N2_19  and  C9_21 
REMARK   12  A    between atoms: C9_21  and  C10_23 
REMARK   13  A    between atoms: C12_27  and  C13_28 
REMARK   14  A    between atoms: C14_34  and  O11_35 
REMARK   15  A    between atoms: C16_44  and  O12_45 
REMARK   16  A    between atoms: C20_51  and  O14_52 
REMARK   17  A    between atoms: C21_54  and  O15_55 
ROOT
HETATM    1  C6  UNL     1      -1.057  -1.599   1.052  1.00  0.00     0.361 C 
HETATM    2  O4  UNL     1       0.035  -1.465   0.197  1.00  0.00    -0.328 OA
HETATM    3  C7  UNL     1       1.246  -1.714   0.806  1.00  0.00     0.248 C 
HETATM    4  N4  UNL     1       1.284  -2.941   1.533  1.00  0.00    -0.347 N 
ATOM      5  H4  UNL     1       1.744  -3.777   1.172  1.00  0.00     0.160 HD
HETATM    6  C14 UNL     1       0.625  -2.912   2.815  1.00  0.00     0.427 C 
HETATM    7  N5  UNL     1      -0.766  -3.313   2.722  1.00  0.00     0.013 N 
ATOM      8  H51 UNL     1      -1.332  -2.872   3.447  1.00  0.00     0.285 HD
ATOM      9  H52 UNL     1      -0.894  -4.288   2.994  1.00  0.00     0.285 HD
HETATM   10  C15 UNL     1      -1.301  -3.055   1.398  1.00  0.00     0.394 A 
HETATM   11  N6  UNL     1      -1.194  -4.032   0.361  1.00  0.00    -0.000 N 
ATOM     12  H61 UNL     1      -0.617  -4.860   0.212  1.00  0.00     0.283 HD
ATOM     13  H62 UNL     1      -0.844  -4.026  -0.597  1.00  0.00     0.283 HD
HETATM   14  C16 UNL     1      -2.472  -3.787   0.972  1.00  0.00     0.393 A 
ENDROOT
BRANCH   1  15
HETATM   15  O3  UNL     1      -2.168  -1.059   0.353  1.00  0.00    -0.243 OA
BRANCH  15  16
HETATM   16  N1  UNL     1      -2.848  -0.016   0.860  1.00  0.00    -0.265 N 
HETATM   17  C5  UNL     1      -3.508   0.814   0.152  1.00  0.00     0.066 C 
ATOM     18  H1  UNL     1      -2.835   0.119   1.871  1.00  0.00     0.194 HD
BRANCH  17  19
HETATM   19  C4  UNL     1      -3.625   0.759  -1.310  1.00  0.00     0.072 C 
BRANCH  19  20
HETATM   20  C3  UNL     1      -2.937  -0.352  -2.001  1.00  0.00     0.117 C 
BRANCH  20  21
HETATM   21  C2  UNL     1      -3.186  -0.200  -3.482  1.00  0.00     0.258 C 
HETATM   22  O2  UNL     1      -3.865   0.723  -3.971  1.00  0.00    -0.265 OA
BRANCH  21  23
HETATM   23  O1  UNL     1      -2.624  -1.143  -4.320  1.00  0.00    -0.326 OA
HETATM   24  C1  UNL     1      -2.759  -1.145  -5.709  1.00  0.00     0.213 C 
ENDBRANCH  21  23
ENDBRANCH  20  21
ENDBRANCH  19  20
ENDBRANCH  17  19
BRANCH  17  25
HETATM   25  C17 UNL     1      -4.214   1.931   0.855  1.00  0.00     0.106 A 
HETATM   26  C18 UNL     1      -4.151   2.056   2.224  1.00  0.00     0.097 A 
HETATM   27  C19 UNL     1      -4.807   3.093   2.873  1.00  0.00     0.212 A 
HETATM   28  O13 UNL     1      -4.754   3.211   4.121  1.00  0.00    -0.285 OA
HETATM   29  C20 UNL     1      -5.529   4.005   2.134  1.00  0.00     0.175 A 
HETATM   30  C21 UNL     1      -5.543   3.810   0.754  1.00  0.00     0.222 A 
HETATM   31  O16 UNL     1      -4.905   2.812   0.184  1.00  0.00    -0.284 OA
BRANCH  29  32
HETATM   32  O14 UNL     1      -6.211   5.068   2.710  1.00  0.00    -0.353 OA
ATOM     33  H14 UNL     1      -6.709   5.697   2.201  1.00  0.00     0.218 HD
ENDBRANCH  29  32
BRANCH  30  34
HETATM   34  O15 UNL     1      -6.280   4.744   0.008  1.00  0.00    -0.339 OA
ATOM     35  H15 UNL     1      -6.290   4.611  -0.933  1.00  0.00     0.220 HD
ENDBRANCH  30  34
ENDBRANCH  17  25
ENDBRANCH  15  16
ENDBRANCH   1  15
BRANCH   3  36
HETATM   36  C8  UNL     1       2.291  -1.806  -0.310  1.00  0.00     0.245 C 
BRANCH  36  37
HETATM   37  O5  UNL     1       3.552  -2.002   0.270  1.00  0.00    -0.255 OA
BRANCH  37  38
HETATM   38  S1  UNL     1       4.736  -2.114  -0.912  1.00  0.00     0.364 S 
HETATM   39  O6  UNL     1       5.562  -3.331  -0.613  1.00  0.00    -0.175 OA
HETATM   40  O7  UNL     1       4.102  -2.351  -2.277  1.00  0.00    -0.175 OA
BRANCH  38  41
HETATM   41  N2  UNL     1       5.699  -0.683  -0.984  1.00  0.00    -0.227 N 
HETATM   42  C9  UNL     1       5.435   0.433  -0.172  1.00  0.00     0.275 C 
HETATM   43  O8  UNL     1       4.496   0.475   0.653  1.00  0.00    -0.266 OA
ATOM     44  H2  UNL     1       6.483  -0.647  -1.635  1.00  0.00     0.184 HD
BRANCH  42  45
HETATM   45  C10 UNL     1       6.295   1.631  -0.278  1.00  0.00     0.091 A 
HETATM   46  C11 UNL     1       7.377   1.811  -1.108  1.00  0.00     0.113 A 
HETATM   47  N3  UNL     1       7.997   2.947  -1.042  1.00  0.00    -0.353 N 
HETATM   48  C12 UNL     1       7.578   3.875  -0.196  1.00  0.00     0.152 A 
ATOM     49  H3  UNL     1       8.804   3.125  -1.639  1.00  0.00     0.166 HD
HETATM   50  S2  UNL     1       6.243   3.122   0.550  1.00  0.00    -0.059 SA
BRANCH  48  51
HETATM   51  C13 UNL     1       8.156   5.220   0.017  1.00  0.00     0.234 C 
HETATM   52  O9  UNL     1       9.142   5.577  -0.638  1.00  0.00    -0.642 OA
HETATM   53  O10 UNL     1       7.568   6.043   0.951  1.00  0.00    -0.642 OA
ENDBRANCH  48  51
ENDBRANCH  42  45
ENDBRANCH  38  41
ENDBRANCH  37  38
ENDBRANCH  36  37
ENDBRANCH   3  36
BRANCH  14  54
HETATM   54  O12 UNL     1      -2.959  -4.838   1.737  1.00  0.00    -0.366 OA
ATOM     55  H12 UNL     1      -3.729  -5.319   1.457  1.00  0.00     0.212 HD
ENDBRANCH  14  54
BRANCH   6  56
HETATM   56  O11 UNL     1       1.322  -3.763   3.678  1.00  0.00    -0.355 OA
ATOM     57  H11 UNL     1       0.888  -3.744   4.523  1.00  0.00     0.213 HD
ENDBRANCH   6  56
TORSDOF 17
