REMARK  9 active torsions:
REMARK  status: ('A' for Active; 'I' for Inactive)
REMARK    1  A    between atoms: C3_3  and  C4_4 
REMARK    2  A    between atoms: C3_3  and  C11_19 
REMARK    3  A    between atoms: C4_4  and  N2_9 
REMARK    4  A    between atoms: N1_5  and  O1_7 
REMARK    5  A    between atoms: N2_9  and  N3_11 
REMARK    6  A    between atoms: C11_19  and  S1_20 
REMARK    7  A    between atoms: C11_19  and  C19_29 
REMARK    8  A    between atoms: S1_20  and  C12_21 
REMARK    9  A    between atoms: C19_29  and  O3_31 
ROOT
HETATM    1  C1  UNL     1       0.969   2.920   1.072  1.00  0.00     0.013 C 
HETATM    2  C2  UNL     1       0.777   1.732   0.904  1.00  0.00    -0.103 C 
HETATM    3  C3  UNL     1       0.504   0.318   0.700  1.00  0.00     0.158 C 
ENDROOT
BRANCH   3   4
HETATM    4  C4  UNL     1      -0.460   0.213  -0.455  1.00  0.00     0.133 C 
HETATM    5  N1  UNL     1      -0.022   0.541  -1.618  1.00  0.00    -0.254 N 
ATOM      6  H1  UNL     1       0.949   0.849  -1.678  1.00  0.00     0.195 HD
BRANCH   5   7
HETATM    7  O1  UNL     1      -0.737   0.515  -2.778  1.00  0.00    -0.288 OA
ATOM      8  H1  UNL     1      -0.413   0.757  -3.638  1.00  0.00     0.244 HD
ENDBRANCH   5   7
BRANCH   4   9
HETATM    9  N2  UNL     1      -1.770  -0.208  -0.249  1.00  0.00    -0.287 N 
ATOM     10  H2  UNL     1      -2.003  -1.193  -0.379  1.00  0.00     0.188 HD
BRANCH   9  11
HETATM   11  N3  UNL     1      -2.768   0.680   0.129  1.00  0.00    -0.307 N 
HETATM   12  C5  UNL     1      -4.031   0.466  -0.044  1.00  0.00     0.004 C 
HETATM   13  C6  UNL     1      -4.934   1.555   0.436  1.00  0.00     0.054 C 
HETATM   14  C10 UNL     1      -4.484  -0.770  -0.672  1.00  0.00     0.054 C 
HETATM   15  C7  UNL     1      -6.384   1.216   0.327  1.00  0.00     0.006 C 
HETATM   16  C8  UNL     1      -6.516  -0.266   0.626  1.00  0.00     0.001 C 
HETATM   17  C9  UNL     1      -5.954  -1.070  -0.525  1.00  0.00     0.006 C 
ATOM     18  H3  UNL     1      -2.487   1.556   0.571  1.00  0.00     0.186 HD
ENDBRANCH   9  11
ENDBRANCH   4   9
ENDBRANCH   3   4
BRANCH   3  19
HETATM   19  C11 UNL     1       1.747  -0.449   0.435  1.00  0.00     0.175 C 
BRANCH  19  20
HETATM   20  S1  UNL     1       2.914  -0.262   1.808  1.00  0.00    -0.113 SA
BRANCH  20  21
HETATM   21  C12 UNL     1       4.425   0.427   1.183  1.00  0.00     0.001 A 
HETATM   22  C13 UNL     1       5.381  -0.512   0.770  1.00  0.00     0.020 A 
HETATM   23  C14 UNL     1       6.574  -0.096   0.256  1.00  0.00     0.024 A 
HETATM   24  C15 UNL     1       6.845   1.249   0.140  1.00  0.00     0.044 A 
HETATM   25  C16 UNL     1       8.120   1.657  -0.414  1.00  0.00     0.099 C 
HETATM   26  C17 UNL     1       5.896   2.163   0.550  1.00  0.00     0.024 A 
HETATM   27  N4  UNL     1       9.143   1.964  -0.864  1.00  0.00    -0.191 NA
HETATM   28  C18 UNL     1       4.658   1.763   1.084  1.00  0.00     0.020 A 
ENDBRANCH  20  21
ENDBRANCH  19  20
BRANCH  19  29
HETATM   29  C19 UNL     1       1.565  -1.861   0.074  1.00  0.00     0.274 C 
HETATM   30  O2  UNL     1       0.450  -2.424   0.037  1.00  0.00    -0.264 OA
BRANCH  29  31
HETATM   31  O3  UNL     1       2.677  -2.655  -0.255  1.00  0.00    -0.326 OA
HETATM   32  C20 UNL     1       2.515  -4.033  -0.615  1.00  0.00     0.213 C 
ENDBRANCH  29  31
ENDBRANCH  19  29
ENDBRANCH   3  19
TORSDOF 9
