REMARK  8 active torsions:
REMARK  status: ('A' for Active; 'I' for Inactive)
REMARK    1  A    between atoms: O1_2  and  C2_3 
REMARK    2  A    between atoms: N1_7  and  C6_8 
REMARK    3  A    between atoms: C7_10  and  O2_11 
REMARK    4  A    between atoms: C9_14  and  C10_15 
REMARK       I    between atoms: C10_15  and  N2_17 
REMARK    5  A    between atoms: N2_17  and  C11_19 
REMARK    6  A    between atoms: C11_19  and  C12_21 
REMARK    7  A    between atoms: C12_21  and  O5_23 
REMARK    8  A    between atoms: O5_23  and  C13_24 
ROOT
HETATM    1  C10 UNL     1       1.716  -2.442  -1.267  1.00  0.00     0.257 C 
HETATM    2  O3  UNL     1       1.008  -3.504  -1.395  1.00  0.00    -0.267 OA
HETATM    3  N2  UNL     1       1.016  -1.248  -1.348  1.00  0.00    -0.318 N 
ATOM      4  H2  UNL     1       1.526  -0.370  -1.250  1.00  0.00     0.166 HD
ENDROOT
BRANCH   1   5
HETATM    5  C9  UNL     1       3.164  -2.642  -1.060  1.00  0.00     0.069 A 
HETATM    6  C6  UNL     1       3.985  -1.697  -0.532  1.00  0.00     0.096 A 
HETATM    7  S1  UNL     1       5.546  -2.470  -0.579  1.00  0.00    -0.047 SA
HETATM    8  C7  UNL     1       5.089  -3.943  -1.260  1.00  0.00     0.110 A 
HETATM    9  C8  UNL     1       3.753  -3.816  -1.439  1.00  0.00     0.064 A 
BRANCH   6  10
HETATM   10  N1  UNL     1       3.764  -0.378   0.003  1.00  0.00    -0.321 N 
HETATM   11  C2  UNL     1       4.039   0.900  -0.534  1.00  0.00     0.141 C 
HETATM   12  C3  UNL     1       4.105   1.800   0.433  1.00  0.00     0.031 C 
HETATM   13  C4  UNL     1       3.865   1.134   1.729  1.00  0.00     0.052 C 
HETATM   14  C5  UNL     1       3.198  -0.166   1.325  1.00  0.00     0.136 C 
BRANCH  11  15
HETATM   15  O1  UNL     1       4.207   1.118  -1.895  1.00  0.00    -0.341 OA
HETATM   16  C1  UNL     1       5.129   2.101  -2.339  1.00  0.00     0.211 C 
ENDBRANCH  11  15
ENDBRANCH   6  10
BRANCH   8  17
HETATM   17  O2  UNL     1       5.879  -5.079  -1.589  1.00  0.00    -0.354 OA
ATOM     18  H2  UNL     1       5.621  -5.909  -1.973  1.00  0.00     0.218 HD
ENDBRANCH   8  17
ENDBRANCH   1   5
BRANCH   3  19
HETATM   19  C11 UNL     1      -0.424  -1.204  -1.568  1.00  0.00     0.372 C 
HETATM   20  F1  UNL     1      -0.692  -0.714  -2.855  1.00  0.00    -0.216 F 
BRANCH  19  21
HETATM   21  C12 UNL     1      -1.153  -0.423  -0.550  1.00  0.00     0.313 C 
HETATM   22  O4  UNL     1      -0.587   0.158   0.430  1.00  0.00    -0.260 OA
BRANCH  21  23
HETATM   23  O5  UNL     1      -2.525  -0.273  -0.600  1.00  0.00    -0.312 OA
BRANCH  23  24
HETATM   24  C13 UNL     1      -3.273   0.465   0.348  1.00  0.00     0.132 C 
HETATM   25  C14 UNL     1      -4.266  -0.444   0.975  1.00  0.00     0.032 C 
HETATM   26  C15 UNL     1      -5.704  -0.024   0.850  1.00  0.00     0.002 C 
HETATM   27  C16 UNL     1      -6.039   1.221   1.586  1.00  0.00     0.000 C 
HETATM   28  C17 UNL     1      -5.944   2.413   0.641  1.00  0.00     0.000 C 
HETATM   29  C18 UNL     1      -4.450   2.692   0.498  1.00  0.00     0.002 C 
HETATM   30  C19 UNL     1      -3.880   1.637  -0.398  1.00  0.00     0.032 C 
ENDBRANCH  23  24
ENDBRANCH  21  23
ENDBRANCH  19  21
ENDBRANCH   3  19
TORSDOF 8
