REMARK  7 active torsions:
REMARK  status: ('A' for Active; 'I' for Inactive)
REMARK    1  A    between atoms: C6_9  and  N3_10 
REMARK    2  A    between atoms: C6_9  and  N4_14 
REMARK    3  A    between atoms: N4_14  and  C7_17 
REMARK    4  A    between atoms: C7_17  and  C8_18 
REMARK    5  A    between atoms: C8_18  and  S1_19 
REMARK    6  A    between atoms: S1_19  and  C9_22 
REMARK    7  A    between atoms: C11_28  and  N7_29 
ROOT
HETATM    1  N4  UNL     1      -0.461  -0.276  -0.397  1.00  0.00    -0.021 N 
ATOM      2  H41 UNL     1       0.139  -1.095  -0.496  1.00  0.00     0.282 HD
ATOM      3  H42 UNL     1      -0.587  -0.299   0.615  1.00  0.00     0.282 HD
ENDROOT
BRANCH   1   4
HETATM    4  C6  UNL     1      -1.718  -0.443  -1.099  1.00  0.00     0.363 C 
HETATM    5  C5  UNL     1      -2.352  -1.719  -0.598  1.00  0.00     0.165 C 
HETATM    6  C4  UNL     1      -2.713  -1.482   0.834  1.00  0.00     0.096 C 
HETATM    7  N1  UNL     1      -3.195  -0.321   1.102  1.00  0.00    -0.356 N 
HETATM    8  N2  UNL     1      -2.530  -2.482   1.822  1.00  0.00    -0.088 NA
HETATM    9  C2  UNL     1      -3.408   0.732   0.164  1.00  0.00     0.096 C 
ATOM     10  H1  UNL     1      -3.448  -0.136   2.073  1.00  0.00     0.163 HD
HETATM   11  C1  UNL     1      -4.850   0.601  -0.342  1.00  0.00     0.062 C 
HETATM   12  C3  UNL     1      -3.342   2.053   0.908  1.00  0.00     0.062 C 
HETATM   13  N9  UNL     1      -2.559   0.697  -0.987  1.00  0.00    -0.343 N 
ATOM     14  H9  UNL     1      -2.557   1.443  -1.683  1.00  0.00     0.160 HD
BRANCH   4  15
HETATM   15  N3  UNL     1      -1.422  -0.648  -2.512  1.00  0.00    -0.026 N 
ATOM     16  H33 UNL     1      -0.853  -1.476  -2.688  1.00  0.00     0.279 HD
ATOM     17  H32 UNL     1      -2.236  -0.934  -3.056  1.00  0.00     0.279 HD
ATOM     18  H31 UNL     1      -0.994   0.214  -2.850  1.00  0.00     0.279 HD
ENDBRANCH   4  15
ENDBRANCH   1   4
BRANCH   1  19
HETATM   19  C7  UNL     1       0.217   0.948  -0.831  1.00  0.00     0.253 C 
BRANCH  19  20
HETATM   20  C8  UNL     1       1.515   1.139  -0.119  1.00  0.00     0.175 C 
BRANCH  20  21
HETATM   21  S1  UNL     1       2.644  -0.202  -0.400  1.00  0.00     0.194 S 
HETATM   22  O1  UNL     1       2.953  -0.375  -1.845  1.00  0.00    -0.221 OA
HETATM   23  O2  UNL     1       1.970  -1.459   0.095  1.00  0.00    -0.221 OA
BRANCH  21  24
HETATM   24  C9  UNL     1       4.151   0.053   0.447  1.00  0.00     0.161 A 
HETATM   25  C10 UNL     1       4.391   1.166   1.223  1.00  0.00     0.150 A 
HETATM   26  N5  UNL     1       5.581   1.291   1.846  1.00  0.00    -0.295 N 
HETATM   27  N6  UNL     1       6.551   0.397   1.759  1.00  0.00    -0.133 N 
ATOM     28  H5  UNL     1       5.741   2.122   2.416  1.00  0.00     0.186 HD
HETATM   29  C11 UNL     1       6.320  -0.690   1.003  1.00  0.00     0.691 A 
ATOM     30  H6  UNL     1       7.438   0.527   2.246  1.00  0.00     0.205 HD
HETATM   31  N8  UNL     1       5.133  -0.858   0.356  1.00  0.00    -0.179 N 
ATOM     32  H8  UNL     1       4.987  -1.694  -0.210  1.00  0.00     0.185 HD
BRANCH  29  33
HETATM   33  N7  UNL     1       7.258  -1.563   0.914  1.00  0.00    -0.233 N 
ATOM     34  H72 UNL     1       8.147  -1.437   1.398  1.00  0.00     0.174 HD
ATOM     35  H71 UNL     1       7.083  -2.388   0.340  1.00  0.00     0.174 HD
ENDBRANCH  29  33
ENDBRANCH  21  24
ENDBRANCH  20  21
ENDBRANCH  19  20
ENDBRANCH   1  19
TORSDOF 7
