REMARK  5 active torsions:
REMARK  status: ('A' for Active; 'I' for Inactive)
REMARK       I    between atoms: C1_4  and  N3_6 
REMARK    1  A    between atoms: C3_9  and  C4_10 
REMARK       I    between atoms: C4_10  and  N4_12 
REMARK    2  A    between atoms: N4_12  and  C5_14 
REMARK    3  A    between atoms: C5_14  and  C6_15 
REMARK    4  A    between atoms: N7_25  and  C9_26 
REMARK    5  A    between atoms: C9_26  and  O5_27 
ROOT
HETATM    1  N1  UNL     1      -2.532   1.185   2.099  1.00  0.00    -0.373 N 
ATOM      2  H11 UNL     1      -2.746   0.230   2.385  1.00  0.00     0.158 HD
ATOM      3  H12 UNL     1      -2.902   2.004   2.582  1.00  0.00     0.158 HD
HETATM    4  C1  UNL     1      -1.794   1.364   1.035  1.00  0.00     0.197 C 
HETATM    5  N2  UNL     1      -1.504   2.659   0.647  1.00  0.00    -0.063 NA
HETATM    6  N3  UNL     1      -1.288   0.245   0.375  1.00  0.00    -0.233 N 
HETATM    7  C2  UNL     1       0.055  -0.014   0.542  1.00  0.00     0.273 A 
HETATM    8  O1  UNL     1       0.704   0.812   1.214  1.00  0.00    -0.266 OA
HETATM    9  C3  UNL     1       0.660  -1.105  -0.017  1.00  0.00     0.120 A 
HETATM   10  C7  UNL     1      -0.165  -1.956  -0.769  1.00  0.00     0.065 A 
HETATM   11  S1  UNL     1       0.607  -3.409  -1.457  1.00  0.00    -0.049 SA
HETATM   12  C8  UNL     1      -1.490  -1.688  -0.935  1.00  0.00     0.114 A 
HETATM   13  N5  UNL     1      -2.456  -2.238  -1.643  1.00  0.00    -0.281 N 
ATOM     14  H5  UNL     1      -2.351  -3.092  -2.191  1.00  0.00     0.188 HD
HETATM   15  N6  UNL     1      -3.541  -1.568  -1.557  1.00  0.00    -0.236 N 
ATOM     16  H6  UNL     1      -4.415  -1.814  -2.022  1.00  0.00     0.208 HD
HETATM   17  N7  UNL     1      -3.366  -0.485  -0.761  1.00  0.00    -0.236 N 
HETATM   18  C10 UNL     1      -2.079  -0.558  -0.357  1.00  0.00     0.167 A 
ENDROOT
BRANCH   9  19
HETATM   19  C4  UNL     1       2.145  -1.232  -0.185  1.00  0.00     0.259 C 
HETATM   20  O2  UNL     1       2.557  -2.165  -0.924  1.00  0.00    -0.267 OA
HETATM   21  N4  UNL     1       3.026  -0.308   0.414  1.00  0.00    -0.347 N 
ATOM     22  H4  UNL     1       2.706   0.370   1.106  1.00  0.00     0.163 HD
BRANCH  21  23
HETATM   23  C5  UNL     1       4.433  -0.376  -0.015  1.00  0.00     0.236 C 
BRANCH  23  24
HETATM   24  C6  UNL     1       5.223   0.627   0.695  1.00  0.00     0.191 C 
HETATM   25  O3  UNL     1       5.814   0.447   1.772  1.00  0.00    -0.647 OA
HETATM   26  O4  UNL     1       5.275   1.929   0.077  1.00  0.00    -0.647 OA
ENDBRANCH  23  24
ENDBRANCH  21  23
ENDBRANCH   9  19
BRANCH  17  27
HETATM   27  C9  UNL     1      -4.332   0.525  -0.528  1.00  0.00     0.316 C 
BRANCH  27  28
HETATM   28  O5  UNL     1      -4.153   1.605  -1.481  1.00  0.00    -0.380 OA
ATOM     29  H5  UNL     1      -4.801   2.282  -1.325  1.00  0.00     0.211 HD
ENDBRANCH  27  28
ENDBRANCH  17  27
TORSDOF 5
