REMARK  8 active torsions:
REMARK  status: ('A' for Active; 'I' for Inactive)
REMARK    1  A    between atoms: N1_1  and  C1_5 
REMARK    2  A    between atoms: C3_7  and  C4_8 
REMARK    3  A    between atoms: C4_8  and  O1_9 
REMARK    4  A    between atoms: C4_8  and  C5_11 
REMARK    5  A    between atoms: C6_15  and  N3_16 
REMARK    6  A    between atoms: C7_22  and  O2_23 
REMARK    7  A    between atoms: N5_25  and  C8_26 
REMARK    8  A    between atoms: C9_31  and  C10_32 
ROOT
HETATM    1  C1  UNL     1      -1.060   3.220   0.054  1.00  0.00     0.204 C 
HETATM    2  C2  UNL     1      -1.572   2.621   1.325  1.00  0.00     0.063 C 
HETATM    3  C3  UNL     1      -0.891   1.291   1.409  1.00  0.00     0.135 C 
HETATM    4  N5  UNL     1       0.214   1.278   0.495  1.00  0.00    -0.207 N 
HETATM    5  C13 UNL     1       0.178   2.473  -0.302  1.00  0.00     0.174 C 
ENDROOT
BRANCH   3   6
HETATM    6  C4  UNL     1      -1.745   0.084   1.362  1.00  0.00     0.180 C 
BRANCH   6   7
HETATM    7  O1  UNL     1      -2.842   0.095   2.195  1.00  0.00    -0.391 OA
ATOM      8  H1  UNL     1      -3.390  -0.680   2.165  1.00  0.00     0.210 HD
ENDBRANCH   6   7
BRANCH   6   9
HETATM    9  C5  UNL     1      -2.050  -0.558   0.073  1.00  0.00     0.294 C 
HETATM   10  N2  UNL     1      -2.401  -1.993   0.310  1.00  0.00    -0.015 N 
HETATM   11  C6  UNL     1      -2.786  -2.292  -1.094  1.00  0.00     0.485 C 
ATOM     12  H22 UNL     1      -1.691  -2.586   0.740  1.00  0.00     0.282 HD
ATOM     13  H21 UNL     1      -3.085  -2.196   1.039  1.00  0.00     0.282 HD
HETATM   14  N4  UNL     1      -3.646  -1.134  -1.387  1.00  0.00    -0.323 N 
HETATM   15  C7  UNL     1      -3.206  -0.105  -0.689  1.00  0.00     0.148 C 
ATOM     16  H4  UNL     1      -4.445  -1.128  -2.021  1.00  0.00     0.165 HD
BRANCH  11  17
HETATM   17  N3  UNL     1      -3.525  -3.513  -1.085  1.00  0.00    -0.033 N 
ATOM     18  H33 UNL     1      -3.021  -4.280  -0.639  1.00  0.00     0.278 HD
ATOM     19  H32 UNL     1      -4.323  -3.490  -0.450  1.00  0.00     0.278 HD
ATOM     20  H31 UNL     1      -3.789  -3.718  -2.049  1.00  0.00     0.278 HD
ENDBRANCH  11  17
BRANCH  15  21
HETATM   21  O2  UNL     1      -3.866   1.121  -0.793  1.00  0.00    -0.348 OA
ATOM     22  H2  UNL     1      -4.620   1.416  -1.290  1.00  0.00     0.219 HD
ENDBRANCH  15  21
ENDBRANCH   6   9
ENDBRANCH   3   6
BRANCH   4  23
HETATM   23  C8  UNL     1       1.200   0.266   0.374  1.00  0.00     0.697 A 
HETATM   24  N6  UNL     1       1.344  -0.866   1.062  1.00  0.00    -0.130 N 
HETATM   25  N7  UNL     1       2.372  -1.528   0.655  1.00  0.00    -0.269 N 
ATOM     26  H6  UNL     1       0.722  -1.169   1.812  1.00  0.00     0.205 HD
HETATM   27  C9  UNL     1       2.951  -0.837  -0.336  1.00  0.00     0.164 A 
ATOM     28  H7  UNL     1       2.690  -2.424   1.024  1.00  0.00     0.189 HD
HETATM   29  N10 UNL     1       2.235   0.277  -0.520  1.00  0.00    -0.172 N 
ATOM     30  H10 UNL     1       2.427   1.007  -1.206  1.00  0.00     0.186 HD
BRANCH  27  31
HETATM   31  C10 UNL     1       4.147  -1.229  -1.081  1.00  0.00     0.095 A 
HETATM   32  C11 UNL     1       4.876  -2.383  -0.878  1.00  0.00     0.122 A 
HETATM   33  N8  UNL     1       5.890  -2.406  -1.730  1.00  0.00    -0.360 N 
HETATM   34  C12 UNL     1       5.806  -1.281  -2.464  1.00  0.00     0.180 A 
ATOM     35  H8  UNL     1       6.598  -3.136  -1.814  1.00  0.00     0.166 HD
HETATM   36  N9  UNL     1       4.750  -0.568  -2.070  1.00  0.00    -0.348 N 
ATOM     37  H9  UNL     1       4.455   0.328  -2.458  1.00  0.00     0.167 HD
ENDBRANCH  27  31
ENDBRANCH   4  23
BRANCH   1  38
HETATM   38  N1  UNL     1      -0.815   4.649   0.196  1.00  0.00    -0.073 N 
ATOM     39  H13 UNL     1      -1.645   5.138   0.531  1.00  0.00     0.274 HD
ATOM     40  H12 UNL     1      -0.190   4.844   0.978  1.00  0.00     0.274 HD
ATOM     41  H11 UNL     1      -0.466   5.058  -0.671  1.00  0.00     0.274 HD
ENDBRANCH   1  38
TORSDOF 8
