REMARK  3 active torsions:
REMARK  status: ('A' for Active; 'I' for Inactive)
REMARK    1  A    between atoms: C2_2  and  O2_4 
REMARK    2  A    between atoms: O2_4  and  C3_5 
REMARK    3  A    between atoms: C3_5  and  C4_6 
ROOT
HETATM    1  C3  UNL     1      -0.154   0.336   0.547  1.00  0.00     0.114 C 
HETATM    2  C7  UNL     1       0.731   0.980   1.507  1.00  0.00     0.214 C 
HETATM    3  O3  UNL     1       1.996   1.358   1.111  1.00  0.00    -0.355 OA
HETATM    4  C8  UNL     1       2.740   0.325   0.563  1.00  0.00     0.295 A 
HETATM    5  O4  UNL     1       2.434  -0.907   1.127  1.00  0.00    -0.343 OA
HETATM    6  C9  UNL     1       2.065  -0.580  -0.268  1.00  0.00     0.113 A 
HETATM    7  C10 UNL     1       2.781  -1.501  -1.196  1.00  0.00     0.051 C 
HETATM    8  C11 UNL     1       0.617  -0.384  -0.537  1.00  0.00     0.088 C 
ENDROOT
BRANCH   1   9
HETATM    9  O2  UNL     1      -1.209   1.105   0.031  1.00  0.00    -0.304 OA
BRANCH   9  10
HETATM   10  C2  UNL     1      -0.974   2.220  -0.707  1.00  0.00     0.255 C 
HETATM   11  C1  UNL     1      -2.013   3.099  -1.296  1.00  0.00     0.126 C 
HETATM   12  O1  UNL     1       0.209   2.509  -0.892  1.00  0.00    -0.266 OA
ENDBRANCH   9  10
ENDBRANCH   1   9
BRANCH   1  13
HETATM   13  C4  UNL     1      -0.883  -0.780   1.284  1.00  0.00     0.033 C 
HETATM   14  C5  UNL     1      -1.904  -1.369   0.684  1.00  0.00     0.007 C 
HETATM   15  C6  UNL     1      -2.634  -2.459   1.374  1.00  0.00     0.061 C 
HETATM   16 CL1  UNL     1      -2.458  -0.923  -0.926  1.00  0.00    -0.090 Cl
ENDBRANCH   1  13
TORSDOF 3
