REMARK  3 active torsions:
REMARK  status: ('A' for Active; 'I' for Inactive)
REMARK    1  A    between atoms: C2_2  and  O2_4 
REMARK    2  A    between atoms: O2_4  and  C3_5 
REMARK    3  A    between atoms: C9_13  and  C10_14 
ROOT
HETATM    1  C3  UNL     1       0.543   0.073   0.071  1.00  0.00     0.279 C 
HETATM    2  O3  UNL     1      -0.420  -0.726  -0.564  1.00  0.00    -0.342 OA
HETATM    3  C4  UNL     1      -1.544  -0.896   0.238  1.00  0.00     0.117 C 
HETATM    4  C5  UNL     1      -1.230  -1.741   1.465  1.00  0.00     0.054 C 
HETATM    5  C6  UNL     1      -2.580  -1.623  -0.610  1.00  0.00     0.054 C 
HETATM    6  C7  UNL     1      -2.019   0.434   0.651  1.00  0.00     0.161 C 
HETATM    7  O4  UNL     1      -3.226   0.571   0.860  1.00  0.00    -0.295 OA
HETATM    8  C8  UNL     1      -1.158   1.616   0.835  1.00  0.00     0.095 C 
HETATM    9  C9  UNL     1       0.109   1.481  -0.023  1.00  0.00     0.072 C 
ENDROOT
BRANCH   1  10
HETATM   10  O2  UNL     1       1.784  -0.276  -0.403  1.00  0.00    -0.289 OA
BRANCH  10  11
HETATM   11  C2  UNL     1       2.793  -0.886   0.302  1.00  0.00     0.257 C 
HETATM   12  C1  UNL     1       4.111  -1.237  -0.269  1.00  0.00     0.126 C 
HETATM   13  O1  UNL     1       2.498  -1.125   1.499  1.00  0.00    -0.266 OA
ENDBRANCH  10  11
ENDBRANCH   1  10
BRANCH   9  14
HETATM   14  C10 UNL     1      -0.358   1.875  -1.397  1.00  0.00    -0.005 C 
HETATM   15  C11 UNL     1       0.239   2.920  -1.960  1.00  0.00     0.081 C 
HETATM   16 CL1  UNL     1       1.518   3.819  -1.164  1.00  0.00    -0.097 Cl
ENDBRANCH   9  14
TORSDOF 3
