REMARK  2 active torsions:
REMARK  status: ('A' for Active; 'I' for Inactive)
REMARK    1  A    between atoms: O1_2  and  C2_3 
REMARK    2  A    between atoms: C2_3  and  C3_4 
ROOT
HETATM    1  C3  UNL     1       0.885   0.240  -0.922  1.00  0.00     0.112 C 
HETATM    2  C4  UNL     1       0.695   1.673  -0.604  1.00  0.00     0.135 C 
HETATM    3  O2  UNL     1       1.553   2.407  -0.185  1.00  0.00    -0.297 OA
HETATM    4  C5  UNL     1      -0.671   2.243  -0.824  1.00  0.00     0.079 C 
HETATM    5  C6  UNL     1      -1.635   1.079  -0.816  1.00  0.00     0.019 C 
HETATM    6  C7  UNL     1      -1.292   0.090   0.306  1.00  0.00    -0.010 C 
HETATM    7  C8  UNL     1      -1.067   0.877   1.595  1.00  0.00     0.018 C 
HETATM    8  C9  UNL     1      -2.494  -0.770   0.520  1.00  0.00     0.063 C 
HETATM    9  C10 UNL     1      -2.238  -2.171  -0.001  1.00  0.00     0.256 C 
HETATM   10 CL1  UNL     1      -3.725  -3.080  -0.263  1.00  0.00    -0.092 Cl
HETATM   11  O3  UNL     1      -1.512  -1.992  -1.201  1.00  0.00    -0.220 OA
HETATM   12  O4  UNL     1      -0.285  -1.774  -0.855  1.00  0.00    -0.232 OA
HETATM   13  C11 UNL     1      -0.066  -0.645  -0.117  1.00  0.00     0.182 C 
ENDROOT
BRANCH   1  14
HETATM   14  C2  UNL     1       2.282  -0.235  -0.661  1.00  0.00     0.181 C 
BRANCH  14  15
HETATM   15  O1  UNL     1       2.672  -0.091   0.660  1.00  0.00    -0.395 OA
HETATM   16  C1  UNL     1       3.989  -0.574   0.748  1.00  0.00     0.201 C 
ENDBRANCH  14  15
ENDBRANCH   1  14
TORSDOF 2
