REMARK  3 active torsions:
REMARK  status: ('A' for Active; 'I' for Inactive)
REMARK    1  A    between atoms: C4_4  and  C5_5 
REMARK    2  A    between atoms: C5_5  and  C6_6 
REMARK    3  A    between atoms: C11_16  and  O3_18 
ROOT
HETATM    1  C6  UNL     1       0.441  -1.129  -1.036  1.00  0.00     0.144 C 
HETATM    2  N1  UNL     1      -0.422  -2.041  -1.261  1.00  0.00    -0.244 N 
ATOM      3  H1  UNL     1      -0.207  -2.987  -1.575  1.00  0.00     0.196 HD
HETATM    4  O1  UNL     1      -1.667  -1.564  -1.021  1.00  0.00    -0.235 OA
HETATM    5  C7  UNL     1      -1.540  -0.431  -0.189  1.00  0.00     0.234 C 
HETATM    6  C8  UNL     1      -1.520  -0.898   1.234  1.00  0.00     0.101 C 
HETATM    7  C9  UNL     1      -2.551  -0.174   2.077  1.00  0.00     0.177 C 
HETATM    8  O2  UNL     1      -2.569   1.177   1.837  1.00  0.00    -0.354 OA
HETATM    9  C10 UNL     1      -2.900   1.545   0.563  1.00  0.00     0.346 C 
HETATM   10  F1  UNL     1      -4.250   1.916   0.508  1.00  0.00    -0.216 F 
HETATM   11  C11 UNL     1      -2.609   0.547  -0.497  1.00  0.00     0.167 C 
HETATM   12  C12 UNL     1      -2.230   1.306  -1.773  1.00  0.00     0.057 C 
HETATM   13  O4  UNL     1      -0.240   0.008  -0.627  1.00  0.00    -0.294 OA
ENDROOT
BRANCH  11  14
HETATM   14  O3  UNL     1      -3.786  -0.148  -0.812  1.00  0.00    -0.379 OA
ATOM     15  H3  UNL     1      -4.472   0.479  -1.010  1.00  0.00     0.211 HD
ENDBRANCH  11  14
BRANCH   1  16
HETATM   16  C5  UNL     1       1.924  -1.302  -1.197  1.00  0.00     0.113 C 
BRANCH  16  17
HETATM   17  C4  UNL     1       2.531  -1.046   0.136  1.00  0.00    -0.017 C 
HETATM   18  C2  UNL     1       3.406  -0.057   0.244  1.00  0.00    -0.091 C 
HETATM   19  C1  UNL     1       4.010   0.194   1.579  1.00  0.00     0.042 C 
HETATM   20  C3  UNL     1       3.784   0.784  -0.920  1.00  0.00     0.042 C 
ENDBRANCH  16  17
ENDBRANCH   1  16
TORSDOF 3
