REMARK  8 active torsions:
REMARK  status: ('A' for Active; 'I' for Inactive)
REMARK    1  A    between atoms: O1_2  and  C2_3 
REMARK    2  A    between atoms: C3_4  and  O2_5 
REMARK    3  A    between atoms: C5_8  and  N1_9 
REMARK    4  A    between atoms: C5_8  and  C6_15 
REMARK    5  A    between atoms: N1_9  and  N2_11 
REMARK    6  A    between atoms: N2_11  and  N3_12 
REMARK       I    between atoms: C6_15  and  N4_17 
REMARK    7  A    between atoms: N4_17  and  N5_19 
REMARK    8  A    between atoms: N5_19  and  N6_20 
ROOT
HETATM    1  C2  UNL     1      -1.488   0.020  -0.097  1.00  0.00     0.183 C 
HETATM    2  C3  UNL     1      -0.715   0.784  -1.147  1.00  0.00     0.152 C 
HETATM    3  C4  UNL     1       0.750   0.533  -1.113  1.00  0.00     0.078 C 
HETATM    4  C5  UNL     1       1.352   0.371   0.254  1.00  0.00     0.147 C 
HETATM    5  C7  UNL     1       0.500  -0.422   1.209  1.00  0.00     0.083 C 
HETATM    6  C8  UNL     1      -0.597  -1.110   0.442  1.00  0.00     0.204 C 
HETATM    7  F1  UNL     1      -0.168  -1.920  -0.571  1.00  0.00    -0.247 F 
ENDROOT
BRANCH   4   8
HETATM    8  N1  UNL     1       1.596   1.704   0.824  1.00  0.00    -0.233 N 
ATOM      9  H1  UNL     1       1.852   2.467   0.198  1.00  0.00     0.198 HD
BRANCH   8  10
HETATM   10  N2  UNL     1       1.503   1.931   2.024  1.00  0.00    -0.247 NA
BRANCH  10  11
HETATM   11  N3  UNL     1       1.754   2.032   3.219  1.00  0.00    -0.261 N 
ATOM     12  H32 UNL     1       2.705   1.673   3.138  1.00  0.00     0.193 HD
ATOM     13  H31 UNL     1       1.677   2.221   4.218  1.00  0.00     0.193 HD
ENDBRANCH  10  11
ENDBRANCH   8  10
ENDBRANCH   4   8
BRANCH   4  14
HETATM   14  C6  UNL     1       2.670  -0.310   0.201  1.00  0.00     0.278 C 
HETATM   15  O3  UNL     1       3.683   0.303   0.615  1.00  0.00    -0.268 OA
HETATM   16  N4  UNL     1       2.833  -1.628  -0.302  1.00  0.00    -0.181 N 
ATOM     17  H4  UNL     1       2.209  -2.381  -0.010  1.00  0.00     0.207 HD
BRANCH  16  18
HETATM   18  N5  UNL     1       3.760  -1.841  -1.111  1.00  0.00    -0.241 NA
BRANCH  18  19
HETATM   19  N6  UNL     1       4.731  -2.270  -1.744  1.00  0.00    -0.260 N 
ATOM     20  H62 UNL     1       4.857  -3.038  -1.084  1.00  0.00     0.193 HD
ATOM     21  H61 UNL     1       5.488  -2.444  -2.405  1.00  0.00     0.193 HD
ENDBRANCH  18  19
ENDBRANCH  16  18
ENDBRANCH   4  14
BRANCH   2  22
HETATM   22  O2  UNL     1      -1.153   0.470  -2.441  1.00  0.00    -0.393 OA
ATOM     23  H2  UNL     1      -0.667   0.950  -3.101  1.00  0.00     0.210 HD
ENDBRANCH   2  22
BRANCH   1  24
HETATM   24  O1  UNL     1      -2.685  -0.468  -0.566  1.00  0.00    -0.385 OA
HETATM   25  C1  UNL     1      -3.734  -0.004   0.184  1.00  0.00     0.202 C 
ENDBRANCH   1  24
TORSDOF 8
