REMARK  3 active torsions:
REMARK  status: ('A' for Active; 'I' for Inactive)
REMARK    1  A    between atoms: N1_2  and  C2_5 
REMARK    2  A    between atoms: C4_8  and  N2_9 
REMARK    3  A    between atoms: C6_15  and  C7_16 
ROOT
HETATM    1  C2  UNL     1       2.198   0.144  -0.735  1.00  0.00     0.248 C 
HETATM    2  C3  UNL     1       1.040   1.085  -0.645  1.00  0.00     0.206 C 
HETATM    3  O1  UNL     1      -0.154   0.618  -1.108  1.00  0.00    -0.364 OA
HETATM    4  C4  UNL     1      -0.509  -0.644  -0.850  1.00  0.00     0.233 C 
HETATM    5  C10 UNL     1       0.526  -1.418  -0.020  1.00  0.00     0.099 C 
HETATM    6  C11 UNL     1       1.796  -1.304  -0.839  1.00  0.00     0.134 C 
HETATM    7  C12 UNL     1       2.882  -2.233  -0.351  1.00  0.00     0.054 C 
HETATM    8  F1  UNL     1       1.551  -1.563  -2.176  1.00  0.00    -0.241 F 
ENDROOT
BRANCH   4   9
HETATM    9  N2  UNL     1      -1.773  -0.906  -0.249  1.00  0.00    -0.302 N 
HETATM   10  C5  UNL     1      -2.189  -2.190  -0.067  1.00  0.00     0.203 A 
HETATM   11  N3  UNL     1      -3.379  -2.186   0.505  1.00  0.00    -0.295 N 
HETATM   12  N4  UNL     1      -3.713  -0.945   0.683  1.00  0.00    -0.287 N 
ATOM     13  H3  UNL     1      -3.932  -3.005   0.759  1.00  0.00     0.187 HD
HETATM   14  C6  UNL     1      -2.746  -0.138   0.230  1.00  0.00     0.105 A 
ATOM     15  H4  UNL     1      -4.586  -0.630   1.107  1.00  0.00     0.188 HD
BRANCH  14  16
HETATM   16  C7  UNL     1      -2.778   1.320   0.263  1.00  0.00     0.055 A 
HETATM   17  C8  UNL     1      -4.194   1.972   0.171  1.00  0.00     0.013 A 
HETATM   18  C9  UNL     1      -3.515   1.884   1.474  1.00  0.00     0.013 A 
ENDBRANCH  14  16
ENDBRANCH   4   9
BRANCH   1  19
HETATM   19  N1  UNL     1       2.978   0.272   0.482  1.00  0.00    -0.070 N 
HETATM   20  C1  UNL     1       3.529   1.600   0.636  1.00  0.00     0.267 C 
ATOM     21  H12 UNL     1       3.708  -0.439   0.530  1.00  0.00     0.277 HD
ATOM     22  H11 UNL     1       2.434   0.000   1.301  1.00  0.00     0.277 HD
ENDBRANCH   1  19
TORSDOF 3
