REMARK  3 active torsions:
REMARK  status: ('A' for Active; 'I' for Inactive)
REMARK    1  A    between atoms: C2_2  and  O1_3 
REMARK    2  A    between atoms: O1_3  and  C3_4 
REMARK    3  A    between atoms: C3_4  and  C4_6 
REMARK       I    between atoms: N1_12  and  C9_13 
REMARK       I    between atoms: C9_13  and  N2_15 
ROOT
HETATM    1  C4  UNL     1      -0.240   0.026  -1.543  1.00  0.00     0.199 C 
HETATM    2  C5  UNL     1      -0.464  -1.200  -2.311  1.00  0.00     0.112 C 
HETATM    3  S1  UNL     1      -2.080  -1.758  -1.712  1.00  0.00    -0.136 SA
HETATM    4  C6  UNL     1      -1.892  -0.922  -0.082  1.00  0.00     0.079 C 
HETATM    5  C7  UNL     1      -3.195  -0.628   0.557  1.00  0.00     0.051 C 
HETATM    6  C8  UNL     1      -1.026  -1.849   0.742  1.00  0.00     0.051 C 
HETATM    7  N1  UNL     1      -1.112   0.231  -0.464  1.00  0.00    -0.300 N 
HETATM    8  C9  UNL     1      -1.234   1.478   0.207  1.00  0.00     0.348 C 
HETATM    9  O3  UNL     1      -2.016   1.646   1.181  1.00  0.00    -0.245 OA
HETATM   10  N2  UNL     1      -0.474   2.636  -0.178  1.00  0.00    -0.173 N 
ATOM     11  H2  UNL     1       0.175   2.557  -0.961  1.00  0.00     0.204 HD
HETATM   12  F1  UNL     1      -0.583   3.814   0.449  1.00  0.00    -0.097 F 
ENDROOT
BRANCH   1  13
HETATM   13  C3  UNL     1       1.210   0.112  -1.128  1.00  0.00     0.282 C 
HETATM   14  O2  UNL     1       2.130  -0.023  -1.974  1.00  0.00    -0.263 OA
BRANCH  13  15
HETATM   15  O1  UNL     1       1.594   0.340   0.185  1.00  0.00    -0.320 OA
BRANCH  15  16
HETATM   16  C2  UNL     1       2.992   0.410   0.510  1.00  0.00     0.174 C 
HETATM   17  C1  UNL     1       3.203   0.660   1.964  1.00  0.00     0.034 C 
ENDBRANCH  15  16
ENDBRANCH  13  15
ENDBRANCH   1  13
TORSDOF 3
