REMARK  3 active torsions:
REMARK  status: ('A' for Active; 'I' for Inactive)
REMARK    1  A    between atoms: C2_2  and  O1_3 
REMARK    2  A    between atoms: O1_3  and  N1_4 
REMARK       I    between atoms: N1_4  and  C3_6 
REMARK    3  A    between atoms: C3_6  and  C4_8 
ROOT
HETATM    1  C4  UNL     1       2.167   0.100  -0.044  1.00  0.00     0.162 A 
HETATM    2  N2  UNL     1       2.607  -0.973  -0.691  1.00  0.00    -0.288 N 
ATOM      3  H2  UNL     1       1.947  -1.694  -0.983  1.00  0.00     0.188 HD
HETATM    4  N3  UNL     1       3.835  -1.108  -0.948  1.00  0.00    -0.287 N 
ATOM      5  H3  UNL     1       4.165  -1.935  -1.445  1.00  0.00     0.188 HD
HETATM    6  C5  UNL     1       4.698  -0.171  -0.570  1.00  0.00     0.138 A 
HETATM    7 BR1  UNL     1       6.580  -0.214  -0.875  1.00  0.00    -0.021 Br
HETATM    8  S1  UNL     1       3.659   0.944   0.190  1.00  0.00    -0.039 SA
ENDROOT
BRANCH   1   9
HETATM    9  C3  UNL     1       0.813   0.463   0.359  1.00  0.00     0.300 C 
HETATM   10  N1  UNL     1      -0.254  -0.396   0.050  1.00  0.00    -0.229 N 
ATOM     11  H1  UNL     1      -0.082  -1.266  -0.454  1.00  0.00     0.198 HD
HETATM   12  O2  UNL     1       0.591   1.527   0.974  1.00  0.00    -0.263 OA
BRANCH  10  13
HETATM   13  O1  UNL     1      -1.496  -0.068   0.420  1.00  0.00    -0.278 OA
BRANCH  13  14
HETATM   14  C2  UNL     1      -2.434  -0.064  -0.587  1.00  0.00     0.197 C 
HETATM   15  C1  UNL     1      -3.763   0.331   0.062  1.00  0.00     0.036 C 
ENDBRANCH  13  14
ENDBRANCH  10  13
ENDBRANCH   1   9
TORSDOF 3
