REMARK  3 active torsions:
REMARK  status: ('A' for Active; 'I' for Inactive)
REMARK    1  A    between atoms: C2_2  and  C4_4 
REMARK    2  A    between atoms: C4_4  and  C5_9 
REMARK    3  A    between atoms: N1_5  and  O1_7 
ROOT
HETATM    1  C4  UNL     1      -0.481   0.503   0.099  1.00  0.00     0.031 C 
HETATM    2  N1  UNL     1      -0.720   1.227   1.072  1.00  0.00    -0.276 N 
ATOM      3  H1  UNL     1       0.086   1.740   1.429  1.00  0.00     0.193 HD
ENDROOT
BRANCH   1   4
HETATM    4  C2  UNL     1      -1.463  -0.320  -0.580  1.00  0.00     0.026 C 
HETATM    5  C1  UNL     1      -2.821  -0.254   0.066  1.00  0.00     0.016 C 
HETATM    6  C3  UNL     1      -1.143  -1.787  -0.734  1.00  0.00     0.016 C 
ENDBRANCH   1   4
BRANCH   1   7
HETATM    7  C5  UNL     1       0.949   0.515  -0.377  1.00  0.00     0.183 C 
HETATM    8  C6  UNL     1       1.723   1.698   0.181  1.00  0.00     0.274 C 
HETATM    9  O2  UNL     1       2.081   2.828  -0.210  1.00  0.00    -0.264 OA
HETATM   10  O3  UNL     1       1.868   0.968   1.344  1.00  0.00    -0.292 OA
HETATM   11  C7  UNL     1       1.952  -0.177   0.468  1.00  0.00     0.160 C 
HETATM   12  C8  UNL     1       3.322  -0.091  -0.215  1.00  0.00     0.066 C 
HETATM   13 CL1  UNL     1       1.598  -1.692   1.236  1.00  0.00    -0.087 Cl
ENDBRANCH   1   7
BRANCH   2  14
HETATM   14  O1  UNL     1      -1.845   1.445   1.724  1.00  0.00    -0.290 OA
ATOM     15  H1  UNL     1      -2.029   2.001   2.472  1.00  0.00     0.244 HD
ENDBRANCH   2  14
TORSDOF 3
