REMARK  3 active torsions:
REMARK  status: ('A' for Active; 'I' for Inactive)
REMARK    1  A    between atoms: N1_2  and  C2_4 
REMARK    2  A    between atoms: C4_7  and  C5_8 
REMARK    3  A    between atoms: C6_9  and  C7_10 
ROOT
HETATM    1  C2  UNL     1       2.359   0.401   0.088  1.00  0.00     0.187 A 
HETATM    2  O1  UNL     1       1.590  -0.537   0.508  1.00  0.00    -0.299 OA
HETATM    3  C3  UNL     1       0.337  -0.463   0.418  1.00  0.00     0.163 A 
HETATM    4  C4  UNL     1      -0.196   0.672  -0.153  1.00  0.00     0.031 A 
HETATM    5  S1  UNL     1       1.231   1.542  -0.511  1.00  0.00    -0.045 SA
ENDROOT
BRANCH   4   6
HETATM    6  C5  UNL     1      -1.607   1.008  -0.376  1.00  0.00     0.028 C 
HETATM    7  C6  UNL     1      -2.566   0.193  -0.024  1.00  0.00     0.086 C 
BRANCH   7   8
HETATM    8  C7  UNL     1      -3.973   0.508  -0.237  1.00  0.00     0.198 C 
HETATM    9  O2  UNL     1      -4.268   1.608  -0.781  1.00  0.00    -0.645 OA
HETATM   10  O3  UNL     1      -4.993  -0.342   0.129  1.00  0.00    -0.645 OA
ENDBRANCH   7   8
ENDBRANCH   4   6
BRANCH   1  11
HETATM   11  N1  UNL     1       3.652   0.428   0.131  1.00  0.00    -0.369 N 
HETATM   12  C1  UNL     1       4.330  -0.706   0.708  1.00  0.00     0.148 C 
ATOM     13  H1  UNL     1       4.174   1.226  -0.231  1.00  0.00     0.161 HD
ENDBRANCH   1  11
TORSDOF 3
