REMARK  2 active torsions:
REMARK  status: ('A' for Active; 'I' for Inactive)
REMARK    1  A    between atoms: O1_2  and  C2_3 
REMARK    2  A    between atoms: C5_7  and  C6_8 
ROOT
HETATM    1  C2  UNL     1       1.668  -0.046  -0.579  1.00  0.00     0.139 A 
HETATM    2  C3  UNL     1       1.185  -0.552   0.609  1.00  0.00     0.086 A 
HETATM    3  C4  UNL     1       1.981  -1.369   1.572  1.00  0.00     0.079 C 
HETATM    4  O2  UNL     1      -0.057  -0.203   0.745  1.00  0.00    -0.309 OA
HETATM    5  C5  UNL     1      -0.492   0.505  -0.244  1.00  0.00     0.119 A 
HETATM    6  C9  UNL     1       0.585   0.629  -1.117  1.00  0.00     0.185 A 
HETATM    7  F1  UNL     1       0.591   1.294  -2.294  1.00  0.00    -0.200 F 
ENDROOT
BRANCH   5   8
HETATM    8  C6  UNL     1      -1.815   1.075  -0.454  1.00  0.00     0.077 C 
HETATM    9  C7  UNL     1      -2.878   0.383  -0.162  1.00  0.00     0.120 A 
HETATM   10  N1  UNL     1      -4.294   0.522  -0.199  1.00  0.00    -0.293 N 
HETATM   11  C8  UNL     1      -3.119  -0.969   0.372  1.00  0.00     0.288 A 
HETATM   12  N2  UNL     1      -4.529  -0.747   0.303  1.00  0.00    -0.264 N 
ATOM     13  H1  UNL     1      -4.911   1.280  -0.490  1.00  0.00     0.187 HD
ATOM     14  H2  UNL     1      -5.360  -1.294   0.529  1.00  0.00     0.190 HD
HETATM   15  O3  UNL     1      -2.378  -1.913   0.732  1.00  0.00    -0.264 OA
ENDBRANCH   5   8
BRANCH   1  16
HETATM   16  O1  UNL     1       2.950  -0.190  -1.100  1.00  0.00    -0.351 OA
HETATM   17  C1  UNL     1       3.897   0.834  -0.740  1.00  0.00     0.210 C 
ENDBRANCH   1  16
TORSDOF 2
