REMARK  2 active torsions:
REMARK  status: ('A' for Active; 'I' for Inactive)
REMARK    1  A    between atoms: O1_2  and  C2_3 
REMARK    2  A    between atoms: C3_4  and  O2_5 
ROOT
HETATM    1  C2  UNL     1      -1.545   0.028  -0.505  1.00  0.00     0.143 A 
HETATM    2  C3  UNL     1      -0.946   1.232  -0.837  1.00  0.00     0.104 A 
HETATM    3  C4  UNL     1       0.417   1.437  -0.665  1.00  0.00     0.079 A 
HETATM    4  C5  UNL     1       1.199   0.421  -0.151  1.00  0.00     0.108 A 
HETATM    5  C6  UNL     1       0.628  -0.777   0.185  1.00  0.00     0.143 A 
HETATM    6  C7  UNL     1      -0.713  -0.948   0.004  1.00  0.00     0.188 A 
HETATM    7  F1  UNL     1      -1.266  -2.135   0.339  1.00  0.00    -0.200 F 
HETATM    8  O3  UNL     1       1.459  -1.782   0.704  1.00  0.00    -0.343 OA
HETATM    9  C8  UNL     1       2.833  -1.692   0.372  1.00  0.00     0.202 C 
HETATM   10  C9  UNL     1       3.283  -0.302   0.830  1.00  0.00     0.202 C 
HETATM   11  O4  UNL     1       2.578   0.621   0.026  1.00  0.00    -0.346 OA
ENDROOT
BRANCH   1  12
HETATM   12  O1  UNL     1      -2.890  -0.124  -0.693  1.00  0.00    -0.350 OA
HETATM   13  C1  UNL     1      -3.900   0.157   0.216  1.00  0.00     0.210 C 
ENDBRANCH   1  12
BRANCH   2  14
HETATM   14  O2  UNL     1      -1.735   2.232  -1.347  1.00  0.00    -0.358 OA
ATOM     15  H2  UNL     1      -1.324   3.058  -1.575  1.00  0.00     0.217 HD
ENDBRANCH   2  14
TORSDOF 2
