REMARK  2 active torsions:
REMARK  status: ('A' for Active; 'I' for Inactive)
REMARK       I    between atoms: C2_2  and  N1_4 
REMARK    1  A    between atoms: N1_4  and  N2_6 
REMARK    2  A    between atoms: C3_8  and  C5_10 
ROOT
HETATM    1  N2  UNL     1       0.063   0.503  -0.499  1.00  0.00    -0.300 N 
ATOM      2  H2  UNL     1      -0.457   1.379  -0.456  1.00  0.00     0.186 HD
HETATM    3  C3  UNL     1      -0.555  -0.573  -0.190  1.00  0.00     0.050 C 
HETATM    4  C4  UNL     1       0.186  -1.847  -0.248  1.00  0.00     0.072 C 
ENDROOT
BRANCH   1   5
HETATM    5  N1  UNL     1       1.394   0.559  -0.889  1.00  0.00    -0.270 N 
HETATM    6  C2  UNL     1       2.454   0.419   0.038  1.00  0.00     0.232 C 
HETATM    7  C1  UNL     1       3.872   0.482  -0.391  1.00  0.00     0.119 C 
HETATM    8  O1  UNL     1       2.223   0.238   1.258  1.00  0.00    -0.272 OA
ATOM      9  H1  UNL     1       1.615   0.706  -1.874  1.00  0.00     0.190 HD
ENDBRANCH   1   5
BRANCH   3  10
HETATM   10  C5  UNL     1      -1.958  -0.510   0.206  1.00  0.00     0.071 A 
HETATM   11  C6  UNL     1      -2.795  -1.544   0.573  1.00  0.00     0.100 A 
HETATM   12  S1  UNL     1      -4.046  -0.441   0.799  1.00  0.00    -0.022 SA
HETATM   13  N3  UNL     1      -2.802   0.553   0.319  1.00  0.00    -0.320 N 
HETATM   14  C7  UNL     1      -2.690   2.009   0.109  1.00  0.00     0.165 C 
ENDBRANCH   3  10
TORSDOF 2
