REMARK  3 active torsions:
REMARK  status: ('A' for Active; 'I' for Inactive)
REMARK    1  A    between atoms: C1_2  and  C2_3 
REMARK    2  A    between atoms: C2_3  and  O1_4 
REMARK    3  A    between atoms: O1_4  and  C3_5 
ROOT
HETATM    1  C3  UNL     1       0.445   0.120  -0.840  1.00  0.00     0.271 C 
HETATM    2  N1  UNL     1       0.434   1.306  -1.669  1.00  0.00    -0.309 N 
ATOM      3  H1  UNL     1       0.598   1.130  -2.660  1.00  0.00     0.182 HD
HETATM    4  N2  UNL     1       0.261   2.492  -1.383  1.00  0.00    -0.338 N 
ATOM      5  H2  UNL     1       0.298   3.165  -2.148  1.00  0.00     0.179 HD
HETATM    6  C4  UNL     1       0.012   3.010  -0.067  1.00  0.00     0.139 C 
HETATM    7  C5  UNL     1      -1.060   2.236   0.656  1.00  0.00     0.024 C 
HETATM    8  C6  UNL     1      -1.726   1.209  -0.218  1.00  0.00     0.045 C 
HETATM    9  C7  UNL     1      -0.966  -0.068  -0.346  1.00  0.00     0.170 C 
HETATM   10  C8  UNL     1      -1.044  -0.837   0.941  1.00  0.00     0.045 C 
HETATM   11  C9  UNL     1      -1.671  -2.167   0.571  1.00  0.00     0.030 C 
HETATM   12  C10 UNL     1      -1.317  -2.256  -0.902  1.00  0.00     0.233 C 
HETATM   13  N3  UNL     1      -1.653  -0.889  -1.330  1.00  0.00    -0.062 N 
ATOM     14  H31 UNL     1      -1.422  -0.676  -2.301  1.00  0.00     0.278 HD
ATOM     15  H32 UNL     1      -2.652  -0.703  -1.420  1.00  0.00     0.278 HD
ENDROOT
BRANCH   1  16
HETATM   16  O1  UNL     1       1.365   0.263   0.166  1.00  0.00    -0.361 OA
BRANCH  16  17
HETATM   17  C2  UNL     1       2.372  -0.678  -0.011  1.00  0.00     0.202 C 
BRANCH  17  18
HETATM   18  C1  UNL     1       3.432  -0.598   1.049  1.00  0.00     0.248 C 
HETATM   19  F1  UNL     1       4.371  -1.583   0.758  1.00  0.00    -0.253 F 
ENDBRANCH  17  18
ENDBRANCH  16  17
ENDBRANCH   1  16
TORSDOF 3
