REMARK  10 active torsions:
REMARK  status: ('A' for Active; 'I' for Inactive)
REMARK    1  A    between atoms: N1_1  and  C1_4 
REMARK    2  A    between atoms: N3_8  and  O1_10 
REMARK    3  A    between atoms: N5_16  and  C5_17 
REMARK    4  A    between atoms: C6_19  and  O3_20 
REMARK    5  A    between atoms: C6_19  and  C7_22 
REMARK    6  A    between atoms: C7_22  and  O4_23 
REMARK    7  A    between atoms: C8_25  and  O5_26 
REMARK    8  A    between atoms: C9_28  and  N6_29 
REMARK    9  A    between atoms: C10_31  and  C11_32 
REMARK   10  A    between atoms: C11_32  and  N7_33 
ROOT
HETATM    1  C1  UNL     1      -4.237  -1.160  -0.034  1.00  0.00     0.678 A 
HETATM    2  N2  UNL     1      -4.122  -2.422   0.448  1.00  0.00    -0.173 N 
ATOM      3  H2  UNL     1      -4.975  -2.955   0.615  1.00  0.00     0.186 HD
HETATM    4  C2  UNL     1      -2.937  -3.010   0.718  1.00  0.00     0.170 A 
HETATM    5  N3  UNL     1      -2.847  -4.216   1.178  1.00  0.00    -0.251 N 
ATOM      6  H3  UNL     1      -1.942  -4.642   1.376  1.00  0.00     0.196 HD
HETATM    7  C3  UNL     1      -1.795  -2.244   0.475  1.00  0.00     0.111 A 
HETATM    8  N4  UNL     1      -0.566  -2.735   0.711  1.00  0.00    -0.347 N 
ATOM      9  H4  UNL     1      -0.470  -3.683   1.074  1.00  0.00     0.167 HD
HETATM   10  C4  UNL     1       0.537  -2.008   0.481  1.00  0.00     0.188 A 
HETATM   11  N5  UNL     1       0.495  -0.729  -0.005  1.00  0.00    -0.297 N 
HETATM   12  C9  UNL     1      -0.708  -0.207  -0.251  1.00  0.00     0.140 A 
HETATM   13  C12 UNL     1      -1.887  -0.975  -0.008  1.00  0.00     0.124 A 
HETATM   14  N8  UNL     1      -3.107  -0.470  -0.249  1.00  0.00    -0.186 N 
ATOM     15  H8  UNL     1      -3.178   0.481  -0.612  1.00  0.00     0.184 HD
ENDROOT
BRANCH  11  16
HETATM   16  C5  UNL     1       1.751  -0.048  -0.212  1.00  0.00     0.268 C 
HETATM   17  O2  UNL     1       2.814  -1.000  -0.410  1.00  0.00    -0.323 OA
HETATM   18  C6  UNL     1       3.654   0.001   0.060  1.00  0.00     0.216 C 
HETATM   19  C8  UNL     1       2.495   0.380   0.997  1.00  0.00     0.232 C 
BRANCH  18  20
HETATM   20  O3  UNL     1       3.901   0.959  -0.911  1.00  0.00    -0.361 OA
ATOM     21  H3  UNL     1       4.476   1.644  -0.589  1.00  0.00     0.213 HD
ENDBRANCH  18  20
BRANCH  18  22
HETATM   22  C7  UNL     1       4.894  -0.465   0.778  1.00  0.00     0.235 C 
BRANCH  22  23
HETATM   23  O4  UNL     1       5.591   0.692   1.164  1.00  0.00    -0.395 OA
ATOM     24  H4  UNL     1       6.373   0.398   1.617  1.00  0.00     0.209 HD
ENDBRANCH  22  23
ENDBRANCH  18  22
BRANCH  19  25
HETATM   25  O5  UNL     1       2.619   1.721   1.278  1.00  0.00    -0.386 OA
ATOM     26  H5  UNL     1       3.096   1.995   2.053  1.00  0.00     0.210 HD
ENDBRANCH  19  25
ENDBRANCH  11  16
BRANCH  12  27
HETATM   27  N6  UNL     1      -0.903   0.928  -0.687  1.00  0.00    -0.352 N 
HETATM   28  C10 UNL     1      -0.326   2.088  -1.102  1.00  0.00     0.089 C 
ATOM     29  H6  UNL     1      -1.912   1.048  -0.772  1.00  0.00     0.166 HD
BRANCH  28  30
HETATM   30  C11 UNL     1      -1.311   3.225  -1.404  1.00  0.00     0.274 C 
BRANCH  30  31
HETATM   31  N7  UNL     1      -0.510   4.360  -1.825  1.00  0.00    -0.075 N 
ATOM     32  H73 UNL     1       0.211   4.618  -1.152  1.00  0.00     0.274 HD
ATOM     33  H72 UNL     1       0.114   4.148  -2.603  1.00  0.00     0.274 HD
ATOM     34  H71 UNL     1      -1.165   5.116  -2.026  1.00  0.00     0.274 HD
ENDBRANCH  30  31
ENDBRANCH  28  30
ENDBRANCH  12  27
BRANCH   1  35
HETATM   35  N1  UNL     1      -5.405  -0.665  -0.268  1.00  0.00    -0.234 N 
ATOM     36  H12 UNL     1      -6.264  -1.190  -0.105  1.00  0.00     0.174 HD
ATOM     37  H11 UNL     1      -5.492   0.284  -0.631  1.00  0.00     0.174 HD
ENDBRANCH   1  35
BRANCH   5  38
HETATM   38  O1  UNL     1      -4.015  -4.897   1.388  1.00  0.00    -0.288 OA
ATOM     39  H1  UNL     1      -3.949  -5.782   1.726  1.00  0.00     0.244 HD
ENDBRANCH   5  38
TORSDOF 10
