REMARK  9 active torsions:
REMARK  status: ('A' for Active; 'I' for Inactive)
REMARK    1  A    between atoms: O1_2  and  C2_3 
REMARK    2  A    between atoms: C4_6  and  C5_7 
REMARK    3  A    between atoms: C5_7  and  O3_8 
REMARK    4  A    between atoms: O3_8  and  C6_9 
REMARK       I    between atoms: C6_9  and  N1_11 
REMARK    5  A    between atoms: N1_11  and  N2_12 
REMARK    6  A    between atoms: N1_11  and  N3_15 
REMARK    7  A    between atoms: N3_15  and  O5_16 
REMARK    8  A    between atoms: C7_18  and  N4_19 
REMARK    9  A    between atoms: C10_32  and  O7_33 
ROOT
HETATM    1  C2  UNL     1      -1.937   1.360   0.728  1.00  0.00     0.179 C 
HETATM    2  C3  UNL     1      -0.953   1.330   1.888  1.00  0.00     0.203 C 
HETATM    3  O2  UNL     1       0.283   0.833   1.579  1.00  0.00    -0.379 OA
HETATM    4  C4  UNL     1       0.264  -0.320   0.867  1.00  0.00     0.179 C 
HETATM    5  C7  UNL     1      -0.471  -0.155  -0.413  1.00  0.00     0.249 C 
HETATM    6  C8  UNL     1      -1.935   0.060  -0.016  1.00  0.00     0.138 C 
HETATM    7  N5  UNL     1      -2.329  -1.050   0.880  1.00  0.00    -0.323 N 
ATOM      8  H5  UNL     1      -2.343  -0.918   1.891  1.00  0.00     0.165 HD
HETATM    9  C9  UNL     1      -2.688  -2.303   0.312  1.00  0.00     0.335 C 
HETATM   10  O6  UNL     1      -2.555  -3.352   1.010  1.00  0.00    -0.246 OA
HETATM   11  N6  UNL     1      -3.176  -2.296  -1.013  1.00  0.00    -0.254 N 
ATOM     12  H6  UNL     1      -3.660  -3.118  -1.375  1.00  0.00     0.191 HD
HETATM   13  N7  UNL     1      -3.010  -1.208  -1.815  1.00  0.00    -0.301 N 
ATOM     14  H7  UNL     1      -2.973  -1.284  -2.831  1.00  0.00     0.183 HD
HETATM   15  C10 UNL     1      -2.890   0.057  -1.137  1.00  0.00     0.266 C 
ENDROOT
BRANCH   4  16
HETATM   16  C5  UNL     1       1.620  -0.955   0.710  1.00  0.00     0.215 C 
BRANCH  16  17
HETATM   17  O3  UNL     1       2.580  -0.157   0.090  1.00  0.00    -0.299 OA
BRANCH  17  18
HETATM   18  C6  UNL     1       3.840  -0.709  -0.113  1.00  0.00     0.399 C 
HETATM   19  O4  UNL     1       4.022  -1.907   0.269  1.00  0.00    -0.235 OA
HETATM   20  N1  UNL     1       4.908  -0.017  -0.713  1.00  0.00    -0.120 N 
BRANCH  20  21
HETATM   21  N2  UNL     1       4.767   1.324  -1.124  1.00  0.00    -0.320 N 
ATOM     22  H22 UNL     1       3.884   1.818  -0.991  1.00  0.00     0.178 HD
ATOM     23  H21 UNL     1       5.541   1.826  -1.559  1.00  0.00     0.178 HD
ENDBRANCH  20  21
BRANCH  20  24
HETATM   24  N3  UNL     1       6.125  -0.698  -0.896  1.00  0.00     0.046 NA
BRANCH  24  25
HETATM   25  O5  UNL     1       7.160   0.147  -1.117  1.00  0.00    -0.275 OA
ATOM     26  H5  UNL     1       7.982  -0.313  -1.241  1.00  0.00     0.240 HD
ENDBRANCH  24  25
ENDBRANCH  20  24
ENDBRANCH  17  18
ENDBRANCH  16  17
ENDBRANCH   4  16
BRANCH   5  27
HETATM   27  N4  UNL     1      -0.270  -1.175  -1.376  1.00  0.00    -0.070 N 
ATOM     28  H43 UNL     1       0.727  -1.287  -1.560  1.00  0.00     0.274 HD
ATOM     29  H42 UNL     1      -0.484  -2.085  -0.968  1.00  0.00     0.274 HD
ATOM     30  H41 UNL     1      -0.775  -1.062  -2.255  1.00  0.00     0.274 HD
ENDBRANCH   5  27
BRANCH   1  31
HETATM   31  O1  UNL     1      -3.163   1.729   1.217  1.00  0.00    -0.386 OA
HETATM   32  C1  UNL     1      -3.533   2.990   0.776  1.00  0.00     0.202 C 
ENDBRANCH   1  31
BRANCH  15  33
HETATM   33  O7  UNL     1      -4.168   0.320  -0.623  1.00  0.00    -0.373 OA
ATOM     34  H7  UNL     1      -4.784   0.318  -1.346  1.00  0.00     0.212 HD
ENDBRANCH  15  33
TORSDOF 9
