REMARK  11 active torsions:
REMARK  status: ('A' for Active; 'I' for Inactive)
REMARK    1  A    between atoms: C4_4  and  N1_5 
REMARK    2  A    between atoms: N1_5  and  C5_7 
REMARK    3  A    between atoms: C5_7  and  C6_8 
REMARK    4  A    between atoms: C6_8  and  C7_9 
REMARK    5  A    between atoms: C7_9  and  C8_10 
REMARK       I    between atoms: C8_10  and  N2_12 
REMARK    6  A    between atoms: N2_12  and  C9_14 
REMARK    7  A    between atoms: C9_14  and  C10_15 
REMARK    8  A    between atoms: C22_29  and  N4_30 
REMARK    9  A    between atoms: N4_30  and  C23_32 
REMARK   10  A    between atoms: C23_32  and  C24_33 
REMARK   11  A    between atoms: C24_33  and  C25_34 
ROOT
HETATM    1  C5  UNL     1       1.502   0.196  -0.285  1.00  0.00     0.121 C 
ENDROOT
BRANCH   1   2
HETATM    2  N1  UNL     1       2.856   0.646  -0.332  1.00  0.00    -0.376 N 
ATOM      3  H1  UNL     1       3.037   1.641  -0.202  1.00  0.00     0.161 HD
BRANCH   2   4
HETATM    4  C4  UNL     1       3.877  -0.145  -0.532  1.00  0.00     0.118 A 
HETATM    5  C3  UNL     1       3.746  -1.500  -0.720  1.00  0.00     0.073 A 
HETATM    6  C2  UNL     1       4.842  -2.305  -0.913  1.00  0.00     0.026 A 
HETATM    7  C1  UNL     1       4.715  -3.789  -1.122  1.00  0.00     0.069 C 
HETATM    8  N5  UNL     1       6.084  -1.756  -0.918  1.00  0.00    -0.196 N 
HETATM    9  C22 UNL     1       6.200  -0.443  -0.734  1.00  0.00     0.679 A 
ATOM     10  H5  UNL     1       6.910  -2.337  -1.060  1.00  0.00     0.184 HD
HETATM   11  N3  UNL     1       5.116   0.363  -0.544  1.00  0.00    -0.177 N 
ATOM     12  H3  UNL     1       5.251   1.365  -0.409  1.00  0.00     0.185 HD
BRANCH   9  13
HETATM   13  N4  UNL     1       7.363   0.111  -0.727  1.00  0.00    -0.226 N 
ATOM     14  H4  UNL     1       7.442   1.118  -0.583  1.00  0.00     0.177 HD
BRANCH  13  15
HETATM   15  C23 UNL     1       8.553  -0.676  -0.920  1.00  0.00     0.138 C 
BRANCH  15  16
HETATM   16  C24 UNL     1       9.801   0.074  -0.549  1.00  0.00     0.024 C 
BRANCH  16  17
HETATM   17  C25 UNL     1       9.820   0.483   0.885  1.00  0.00    -0.021 C 
HETATM   18  C26 UNL     1       8.693   1.392   1.280  1.00  0.00     0.009 C 
HETATM   19  C27 UNL     1      11.133   1.231   1.148  1.00  0.00     0.009 C 
ENDBRANCH  16  17
ENDBRANCH  15  16
ENDBRANCH  13  15
ENDBRANCH   9  13
ENDBRANCH   2   4
ENDBRANCH   1   2
BRANCH   1  20
HETATM   20  C6  UNL     1       0.841  -0.010  -1.605  1.00  0.00     0.029 C 
BRANCH  20  21
HETATM   21  C7  UNL     1      -0.568  -0.483  -1.559  1.00  0.00     0.104 C 
BRANCH  21  22
HETATM   22  C8  UNL     1      -1.533   0.429  -0.912  1.00  0.00     0.217 C 
HETATM   23  O1  UNL     1      -1.131   1.607  -0.652  1.00  0.00    -0.274 OA
HETATM   24  N2  UNL     1      -2.860   0.046  -0.577  1.00  0.00    -0.360 N 
ATOM     25  H2  UNL     1      -3.194  -0.896  -0.779  1.00  0.00     0.162 HD
BRANCH  24  26
HETATM   26  C9  UNL     1      -3.720   1.003   0.048  1.00  0.00     0.132 C 
BRANCH  26  27
HETATM   27  C10 UNL     1      -5.081   0.480   0.376  1.00  0.00    -0.023 C 
HETATM   28  C11 UNL     1      -5.034  -0.696   1.330  1.00  0.00     0.015 C 
HETATM   29  C12 UNL     1      -6.449  -1.111   1.647  1.00  0.00    -0.012 C 
HETATM   30  C13 UNL     1      -7.211  -0.012   2.332  1.00  0.00     0.014 C 
HETATM   31  C19 UNL     1      -7.209  -1.527   0.417  1.00  0.00     0.014 C 
HETATM   32  C14 UNL     1      -7.275   1.167   1.375  1.00  0.00    -0.042 C 
HETATM   33  C15 UNL     1      -7.956   2.294   2.102  1.00  0.00     0.015 C 
HETATM   34  C16 UNL     1      -7.949   0.814   0.077  1.00  0.00     0.018 C 
HETATM   35  C21 UNL     1      -5.854   1.588   1.064  1.00  0.00     0.020 C 
HETATM   36  C17 UNL     1      -7.223  -0.351  -0.544  1.00  0.00    -0.042 C 
HETATM   37  C18 UNL     1      -7.924  -0.733  -1.821  1.00  0.00     0.015 C 
HETATM   38  C20 UNL     1      -5.795  -0.001  -0.866  1.00  0.00     0.020 C 
ENDBRANCH  26  27
ENDBRANCH  24  26
ENDBRANCH  21  22
ENDBRANCH  20  21
ENDBRANCH   1  20
TORSDOF 11
