REMARK  9 active torsions:
REMARK  status: ('A' for Active; 'I' for Inactive)
REMARK    1  A    between atoms: C2_2  and  C3_3 
REMARK    2  A    between atoms: C3_3  and  C4_4 
REMARK    3  A    between atoms: C4_4  and  C5_5 
REMARK    4  A    between atoms: C5_5  and  C6_6 
REMARK    5  A    between atoms: C6_6  and  C7_7 
REMARK    6  A    between atoms: C7_7  and  C8_8 
REMARK    7  A    between atoms: C8_8  and  N1_9 
REMARK       I    between atoms: N1_9  and  C9_11 
REMARK    8  A    between atoms: C11_15  and  C12_16 
REMARK       I    between atoms: N6_32  and  C24_33 
REMARK    9  A    between atoms: C24_33  and  C25_35 
ROOT
HETATM    1  C5  UNL     1       0.424   0.839  -0.267  1.00  0.00    -0.033 C 
HETATM    2  C10 UNL     1       0.652   1.303   1.163  1.00  0.00     0.020 C 
HETATM    3  C11 UNL     1      -0.740   1.444   1.661  1.00  0.00    -0.034 C 
HETATM    4  C15 UNL     1      -1.376   2.058   0.400  1.00  0.00     0.018 C 
HETATM    5  C16 UNL     1      -1.088   0.826  -0.459  1.00  0.00     0.029 C 
HETATM    6  C17 UNL     1      -1.822  -0.186   0.286  1.00  0.00     0.085 C 
HETATM    7  C18 UNL     1      -1.361   0.057   1.710  1.00  0.00     0.048 C 
HETATM    8  C19 UNL     1      -3.320   0.034   0.330  1.00  0.00     0.062 A 
HETATM    9  N4  UNL     1      -4.234   0.855  -0.130  1.00  0.00    -0.352 N 
ATOM     10  H4  UNL     1      -4.058   1.671  -0.716  1.00  0.00     0.166 HD
HETATM   11  C20 UNL     1      -5.436   0.446   0.295  1.00  0.00     0.181 A 
HETATM   12  N5  UNL     1      -5.258  -0.656   1.034  1.00  0.00    -0.354 N 
ATOM     13  H5  UNL     1      -6.004  -1.184   1.487  1.00  0.00     0.166 HD
HETATM   14  C21 UNL     1      -3.951  -0.964   1.090  1.00  0.00     0.037 A 
HETATM   15  C22 UNL     1      -3.262  -2.105   1.733  1.00  0.00     0.079 C 
HETATM   16  C23 UNL     1      -2.020  -2.516   0.942  1.00  0.00     0.133 C 
HETATM   17  N6  UNL     1      -1.812  -1.555  -0.127  1.00  0.00    -0.336 N 
HETATM   18  C24 UNL     1      -1.719  -2.005  -1.434  1.00  0.00     0.220 C 
HETATM   19  O1  UNL     1      -1.659  -1.251  -2.468  1.00  0.00    -0.273 OA
ENDROOT
BRANCH   1  20
HETATM   20  C4  UNL     1       1.022   1.832  -1.194  1.00  0.00     0.010 C 
BRANCH  20  21
HETATM   21  C3  UNL     1       0.957   1.448  -2.653  1.00  0.00     0.000 C 
BRANCH  21  22
HETATM   22  C2  UNL     1       1.620   2.619  -3.404  1.00  0.00    -0.005 C 
HETATM   23  C1  UNL     1       0.846   3.892  -3.121  1.00  0.00     0.005 C 
ENDBRANCH  21  22
ENDBRANCH  20  21
ENDBRANCH   1  20
BRANCH   1  24
HETATM   24  C6  UNL     1       1.126  -0.452  -0.417  1.00  0.00     0.011 C 
BRANCH  24  25
HETATM   25  C7  UNL     1       2.600  -0.283  -0.122  1.00  0.00     0.020 C 
BRANCH  25  26
HETATM   26  C8  UNL     1       3.266  -1.665  -0.269  1.00  0.00     0.122 C 
BRANCH  26  27
HETATM   27  N1  UNL     1       4.687  -1.559   0.003  1.00  0.00    -0.367 N 
HETATM   28  C9  UNL     1       5.391  -2.554   0.418  1.00  0.00     0.196 C 
HETATM   29  N2  UNL     1       6.776  -2.347   0.656  1.00  0.00    -0.067 NA
HETATM   30  N3  UNL     1       4.785  -3.805   0.622  1.00  0.00    -0.067 NA
ATOM     31  H1  UNL     1       5.147  -0.660  -0.140  1.00  0.00     0.161 HD
ENDBRANCH  26  27
ENDBRANCH  25  26
ENDBRANCH  24  25
ENDBRANCH   1  24
BRANCH   3  32
HETATM   32  C12 UNL     1      -0.952   2.256   2.864  1.00  0.00    -0.014 C 
HETATM   33  C13 UNL     1      -0.487   3.675   2.645  1.00  0.00     0.010 C 
HETATM   34  C14 UNL     1      -0.344   1.725   4.116  1.00  0.00     0.010 C 
ENDBRANCH   3  32
BRANCH  18  35
HETATM   35  C25 UNL     1      -1.679  -3.472  -1.794  1.00  0.00     0.098 C 
HETATM   36  C26 UNL     1      -1.577  -3.690  -3.285  1.00  0.00     0.014 C 
ENDBRANCH  18  35
TORSDOF 9
