REMARK  12 active torsions:
REMARK  status: ('A' for Active; 'I' for Inactive)
REMARK    1  A    between atoms: C2_2  and  C3_3 
REMARK    2  A    between atoms: C3_3  and  C4_4 
REMARK    3  A    between atoms: C4_4  and  C5_5 
REMARK    4  A    between atoms: C18_19  and  C19_20 
REMARK    5  A    between atoms: C19_20  and  C20_21 
REMARK    6  A    between atoms: C20_21  and  C21_22 
REMARK       I    between atoms: C21_22  and  N2_24 
REMARK    7  A    between atoms: N2_24  and  C22_26 
REMARK    8  A    between atoms: C22_26  and  C23_27 
REMARK    9  A    between atoms: C23_27  and  C24_28 
REMARK   10  A    between atoms: C27_33  and  C28_34 
REMARK   11  A    between atoms: C28_34  and  O2_35 
REMARK   12  A    between atoms: C28_34  and  O3_37 
ROOT
HETATM    1  C5  UNL     1      -4.352  -0.331  -0.208  1.00  0.00    -0.002 C 
HETATM    2  C6  UNL     1      -3.466  -1.230   0.545  1.00  0.00     0.247 C 
HETATM    3  N1  UNL     1      -2.079  -1.158   0.679  1.00  0.00    -0.070 N 
HETATM    4  C7  UNL     1      -1.622  -2.586   0.482  1.00  0.00     0.272 C 
HETATM    5  C8  UNL     1      -1.585  -1.006   2.079  1.00  0.00     0.237 C 
HETATM    6  C9  UNL     1      -1.578   0.403   2.588  1.00  0.00     0.033 C 
HETATM    7  C10 UNL     1      -1.457   1.497   1.604  1.00  0.00    -0.007 C 
HETATM    8  C11 UNL     1      -2.739   2.316   1.351  1.00  0.00     0.010 C 
HETATM    9  C12 UNL     1      -3.807   1.434   1.030  1.00  0.00    -0.005 C 
HETATM   10  C13 UNL     1      -5.191   1.369   1.423  1.00  0.00     0.014 C 
HETATM   11  C14 UNL     1      -5.602   0.201   0.474  1.00  0.00     0.019 C 
HETATM   12  C15 UNL     1      -6.156   1.061  -0.621  1.00  0.00    -0.025 C 
HETATM   13  C16 UNL     1      -5.058   1.604  -1.133  1.00  0.00    -0.024 C 
HETATM   14  C17 UNL     1      -3.867   1.085  -0.391  1.00  0.00     0.023 C 
HETATM   15  C18 UNL     1      -0.781   0.985   0.382  1.00  0.00     0.016 C 
HETATM   16  C29 UNL     1      -1.181  -0.388  -0.066  1.00  0.00     0.241 C 
ENDROOT
BRANCH  15  17
HETATM   17  C19 UNL     1       0.715   1.132   0.655  1.00  0.00     0.016 C 
BRANCH  17  18
HETATM   18  C20 UNL     1       1.600   0.702  -0.448  1.00  0.00     0.103 C 
BRANCH  18  19
HETATM   19  C21 UNL     1       3.021   0.943  -0.005  1.00  0.00     0.217 C 
HETATM   20  O1  UNL     1       3.258   1.394   1.137  1.00  0.00    -0.274 OA
HETATM   21  N2  UNL     1       4.113   0.667  -0.867  1.00  0.00    -0.361 N 
ATOM     22  H2  UNL     1       3.896   0.303  -1.795  1.00  0.00     0.162 HD
BRANCH  21  23
HETATM   23  C22 UNL     1       5.499   0.857  -0.543  1.00  0.00     0.127 C 
BRANCH  23  24
HETATM   24  C23 UNL     1       5.994   0.046   0.615  1.00  0.00     0.060 C 
BRANCH  24  25
HETATM   25  C24 UNL     1       7.418   0.296   0.887  1.00  0.00    -0.029 A 
HETATM   26  C25 UNL     1       7.912   1.120   1.907  1.00  0.00     0.095 A 
HETATM   27  N3  UNL     1       9.254   1.134   1.885  1.00  0.00    -0.374 N 
HETATM   28  C26 UNL     1       9.659   0.352   0.892  1.00  0.00     0.100 A 
ATOM     29  H3  UNL     1       9.858   1.655   2.521  1.00  0.00     0.164 HD
HETATM   30  C27 UNL     1       8.538  -0.186   0.249  1.00  0.00     0.019 A 
BRANCH  30  31
HETATM   31  C28 UNL     1       8.625  -1.099  -0.902  1.00  0.00     0.290 C 
BRANCH  31  32
HETATM   32  O2  UNL     1       7.726  -2.178  -0.789  1.00  0.00    -0.367 OA
ATOM     33  H2  UNL     1       7.782  -2.767  -1.532  1.00  0.00     0.213 HD
ENDBRANCH  31  32
BRANCH  31  34
HETATM   34  O3  UNL     1       8.603  -0.497  -2.141  1.00  0.00    -0.367 OA
ATOM     35  H3  UNL     1       8.659  -1.086  -2.884  1.00  0.00     0.213 HD
ENDBRANCH  31  34
ENDBRANCH  30  31
ENDBRANCH  24  25
ENDBRANCH  23  24
ENDBRANCH  21  23
ENDBRANCH  18  19
ENDBRANCH  17  18
ENDBRANCH  15  17
BRANCH   1  36
HETATM   36  C4  UNL     1      -4.859  -0.972  -1.495  1.00  0.00     0.012 C 
BRANCH  36  37
HETATM   37  C3  UNL     1      -3.897  -1.389  -2.503  1.00  0.00     0.000 C 
BRANCH  37  38
HETATM   38  C2  UNL     1      -4.704  -1.982  -3.670  1.00  0.00    -0.005 C 
HETATM   39  C1  UNL     1      -5.643  -0.979  -4.261  1.00  0.00     0.005 C 
ENDBRANCH  37  38
ENDBRANCH  36  37
ENDBRANCH   1  36
TORSDOF 12
