REMARK  11 active torsions:
REMARK  status: ('A' for Active; 'I' for Inactive)
REMARK    1  A    between atoms: C5_5  and  N1_6 
REMARK    2  A    between atoms: N1_6  and  C6_8 
REMARK    3  A    between atoms: C6_8  and  N2_10 
REMARK    4  A    between atoms: N2_10  and  C7_12 
REMARK    5  A    between atoms: C7_12  and  C8_13 
REMARK    6  A    between atoms: C8_13  and  C9_14 
REMARK    7  A    between atoms: C9_14  and  C10_15 
REMARK    8  A    between atoms: C10_15  and  C11_16 
REMARK    9  A    between atoms: C11_16  and  C12_17 
REMARK   10  A    between atoms: C12_17  and  N3_18 
REMARK       I    between atoms: N3_18  and  C13_19 
REMARK       I    between atoms: C13_19  and  N5_21 
REMARK       I    between atoms: C14_23  and  N6_24 
REMARK       I    between atoms: C14_23  and  N7_30 
REMARK   11  A    between atoms: N6_24  and  C15_26 
ROOT
HETATM    1  C11 UNL     1       0.048   0.006  -1.712  1.00  0.00     0.059 C 
ENDROOT
BRANCH   1   2
HETATM    2  C10 UNL     1       1.277   0.391  -0.914  1.00  0.00     0.006 C 
BRANCH   2   3
HETATM    3  C9  UNL     1       1.714  -0.586   0.128  1.00  0.00     0.002 C 
BRANCH   3   4
HETATM    4  C8  UNL     1       2.749   0.215   0.983  1.00  0.00     0.020 C 
BRANCH   4   5
HETATM    5  C7  UNL     1       3.433  -0.607   1.998  1.00  0.00     0.122 C 
BRANCH   5   6
HETATM    6  N2  UNL     1       4.540  -1.407   1.460  1.00  0.00    -0.367 N 
ATOM      7  H2  UNL     1       4.489  -2.419   1.347  1.00  0.00     0.161 HD
BRANCH   6   8
HETATM    8  C6  UNL     1       5.711  -0.632   1.104  1.00  0.00     0.172 C 
HETATM    9  S1  UNL     1       5.636   0.969   1.556  1.00  0.00    -0.041 SA
BRANCH   8  10
HETATM   10  N1  UNL     1       6.877  -1.150   0.566  1.00  0.00    -0.333 N 
ATOM     11  H1  UNL     1       6.948  -2.161   0.454  1.00  0.00     0.168 HD
BRANCH  10  12
HETATM   12  C5  UNL     1       7.977  -0.354   0.163  1.00  0.00     0.040 A 
HETATM   13  C4  UNL     1       7.868   0.938  -0.283  1.00  0.00     0.030 A 
HETATM   14  C3  UNL     1       8.988   1.621  -0.737  1.00  0.00     0.009 A 
HETATM   15  C2  UNL     1      10.219   1.037  -0.755  1.00  0.00    -0.061 A 
HETATM   16  C1  UNL     1      11.434   1.747  -1.226  1.00  0.00     0.048 C 
HETATM   17  C25 UNL     1      10.366  -0.275  -0.310  1.00  0.00     0.015 A 
HETATM   18  C23 UNL     1       9.251  -0.943   0.135  1.00  0.00    -0.035 A 
HETATM   19  C24 UNL     1       9.358  -2.356   0.643  1.00  0.00     0.050 C 
ENDBRANCH  10  12
ENDBRANCH   8  10
ENDBRANCH   6   8
ENDBRANCH   5   6
ENDBRANCH   4   5
ENDBRANCH   3   4
ENDBRANCH   2   3
ENDBRANCH   1   2
BRANCH   1  20
HETATM   20  C12 UNL     1      -1.164   0.007  -0.737  1.00  0.00     0.158 C 
BRANCH  20  21
HETATM   21  N3  UNL     1      -2.389  -0.146  -1.182  1.00  0.00    -0.390 NA
HETATM   22  C13 UNL     1      -3.532  -0.299  -1.610  1.00  0.00     0.280 C 
HETATM   23  N4  UNL     1      -3.799  -1.212  -2.657  1.00  0.00    -0.048 NA
HETATM   24  N5  UNL     1      -4.600   0.464  -1.073  1.00  0.00    -0.152 N 
HETATM   25  C14 UNL     1      -5.365   0.375  -0.112  1.00  0.00     0.680 C 
ATOM     26  H5  UNL     1      -4.781   1.302  -1.625  1.00  0.00     0.188 HD
HETATM   27  N6  UNL     1      -6.327   1.489  -0.009  1.00  0.00    -0.218 N 
HETATM   28  N7  UNL     1      -5.427  -0.634   0.856  1.00  0.00    -0.214 N 
ATOM     29  H6  UNL     1      -6.339   2.028   0.857  1.00  0.00     0.178 HD
HETATM   30  C19 UNL     1      -5.515  -0.241   2.275  1.00  0.00     0.167 C 
HETATM   31  C22 UNL     1      -5.446  -2.034   0.621  1.00  0.00     0.167 C 
HETATM   32  C20 UNL     1      -6.666  -1.062   2.845  1.00  0.00     0.188 C 
HETATM   33  O1  UNL     1      -7.482  -1.593   1.835  1.00  0.00    -0.388 OA
HETATM   34  C21 UNL     1      -6.850  -2.504   1.020  1.00  0.00     0.188 C 
BRANCH  27  35
HETATM   35  C15 UNL     1      -7.233   1.861  -1.028  1.00  0.00     0.036 C 
HETATM   36  C16 UNL     1      -6.547   2.180  -2.336  1.00  0.00     0.038 C 
HETATM   37  C17 UNL     1      -7.969   3.123  -0.552  1.00  0.00     0.038 C 
HETATM   38  C18 UNL     1      -8.290   0.806  -1.277  1.00  0.00     0.038 C 
ENDBRANCH  27  35
ENDBRANCH  20  21
ENDBRANCH   1  20
TORSDOF 11
