REMARK  10 active torsions:
REMARK  status: ('A' for Active; 'I' for Inactive)
REMARK    1  A    between atoms: C6_6  and  N1_7 
REMARK    2  A    between atoms: N1_7  and  S1_9 
REMARK    3  A    between atoms: S1_9  and  N2_12 
REMARK    4  A    between atoms: N2_12  and  C7_14 
REMARK    5  A    between atoms: C7_14  and  C8_15 
REMARK    6  A    between atoms: C7_14  and  C12_19 
REMARK    7  A    between atoms: C8_15  and  C9_16 
REMARK    8  A    between atoms: C12_19  and  N3_20 
REMARK    9  A    between atoms: C12_19  and  C23_33 
REMARK   10  A    between atoms: N3_20  and  C13_23 
REMARK       I    between atoms: C23_33  and  N4_34 
ROOT
HETATM    1  C7  UNL     1      -0.275  -2.033  -0.735  1.00  0.00     0.135 C 
ENDROOT
BRANCH   1   2
HETATM    2  N2  UNL     1       0.730  -1.511   0.185  1.00  0.00    -0.295 N 
ATOM      3  H2  UNL     1       0.615  -1.474   1.198  1.00  0.00     0.174 HD
BRANCH   2   4
HETATM    4  S1  UNL     1       2.131  -0.966  -0.648  1.00  0.00     0.319 S 
HETATM    5  O1  UNL     1       3.392  -1.622  -0.091  1.00  0.00    -0.182 OA
HETATM    6  O2  UNL     1       1.972  -1.384  -2.108  1.00  0.00    -0.182 OA
BRANCH   4   7
HETATM    7  N1  UNL     1       2.398   0.726  -0.564  1.00  0.00    -0.267 N 
ATOM      8  H1  UNL     1       1.665   1.344  -0.912  1.00  0.00     0.180 HD
BRANCH   7   9
HETATM    9  C6  UNL     1       3.592   1.328  -0.033  1.00  0.00     0.055 A 
HETATM   10  C4  UNL     1       3.707   1.702   1.275  1.00  0.00    -0.034 A 
HETATM   11  C3  UNL     1       4.886   2.302   1.701  1.00  0.00     0.015 A 
HETATM   12  C5  UNL     1       2.583   1.472   2.244  1.00  0.00     0.050 C 
HETATM   13  C2  UNL     1       5.962   2.549   0.879  1.00  0.00    -0.061 A 
HETATM   14  C1  UNL     1       7.220   3.202   1.349  1.00  0.00     0.048 C 
HETATM   15  C26 UNL     1       5.823   2.162  -0.440  1.00  0.00     0.015 A 
HETATM   16  C24 UNL     1       4.669   1.568  -0.882  1.00  0.00    -0.034 A 
HETATM   17  C25 UNL     1       4.562   1.156  -2.307  1.00  0.00     0.050 C 
ENDBRANCH   7   9
ENDBRANCH   4   7
ENDBRANCH   2   4
ENDBRANCH   1   2
BRANCH   1  18
HETATM   18  C8  UNL     1      -0.639  -3.446  -0.313  1.00  0.00     0.032 C 
BRANCH  18  19
HETATM   19  C9  UNL     1       0.417  -4.468  -0.300  1.00  0.00    -0.021 C 
HETATM   20  C10 UNL     1       1.043  -4.727  -1.652  1.00  0.00     0.009 C 
HETATM   21  C11 UNL     1      -0.154  -5.830   0.156  1.00  0.00     0.009 C 
ENDBRANCH  18  19
ENDBRANCH   1  18
BRANCH   1  22
HETATM   22  C12 UNL     1      -1.623  -1.299  -0.598  1.00  0.00     0.300 C 
BRANCH  22  23
HETATM   23  N3  UNL     1      -1.465   0.137  -0.766  1.00  0.00    -0.051 N 
ATOM     24  H32 UNL     1      -0.528   0.434  -0.493  1.00  0.00     0.279 HD
ATOM     25  H31 UNL     1      -1.438   0.387  -1.755  1.00  0.00     0.279 HD
BRANCH  23  26
HETATM   26  C13 UNL     1      -2.468   0.899  -0.072  1.00  0.00     0.128 C 
HETATM   27  C14 UNL     1      -1.872   1.736   1.038  1.00  0.00     0.043 C 
HETATM   28  C15 UNL     1      -2.927   2.584   1.716  1.00  0.00    -0.012 C 
HETATM   29  C16 UNL     1      -4.057   1.769   2.307  1.00  0.00     0.009 C 
HETATM   30  C20 UNL     1      -3.576   3.508   0.715  1.00  0.00     0.009 C 
HETATM   31  C17 UNL     1      -4.570   0.875   1.229  1.00  0.00    -0.012 C 
HETATM   32  C18 UNL     1      -5.226   1.705   0.156  1.00  0.00     0.009 C 
HETATM   33  C22 UNL     1      -3.465  -0.001   0.650  1.00  0.00     0.043 C 
HETATM   34  C19 UNL     1      -4.190   2.669  -0.384  1.00  0.00    -0.012 C 
HETATM   35  C21 UNL     1      -3.124   1.815  -1.065  1.00  0.00     0.043 C 
ENDBRANCH  23  26
ENDBRANCH  22  23
BRANCH  22  36
HETATM   36  C23 UNL     1      -2.358  -1.769  -1.851  1.00  0.00     0.248 C 
HETATM   37  N4  UNL     1      -3.260  -2.802  -1.988  1.00  0.00    -0.368 N 
ATOM     38  H42 UNL     1      -3.486  -3.349  -1.157  1.00  0.00     0.159 HD
ATOM     39  H41 UNL     1      -3.751  -3.116  -2.825  1.00  0.00     0.159 HD
HETATM   40  O3  UNL     1      -2.077  -1.087  -2.886  1.00  0.00    -0.271 OA
ENDBRANCH  22  36
ENDBRANCH   1  22
TORSDOF 10
