REMARK  10 active torsions:
REMARK  status: ('A' for Active; 'I' for Inactive)
REMARK    1  A    between atoms: C15_15  and  C16_16 
REMARK    2  A    between atoms: C16_16  and  C17_17 
REMARK    3  A    between atoms: C17_17  and  C18_18 
REMARK    4  A    between atoms: C17_17  and  N1_24 
REMARK    5  A    between atoms: C18_18  and  C19_19 
REMARK    6  A    between atoms: C19_19  and  C20_20 
REMARK    7  A    between atoms: C20_20  and  C21_22 
REMARK       I    between atoms: N1_24  and  C22_26 
REMARK    8  A    between atoms: C22_26  and  C23_28 
REMARK    9  A    between atoms: C23_28  and  N2_29 
REMARK   10  A    between atoms: N2_29  and  N3_31 
ROOT
HETATM    1  C16 UNL     1      -1.896  -0.781   0.566  1.00  0.00     0.052 C 
ENDROOT
BRANCH   1   2
HETATM    2  C15 UNL     1      -1.044   0.421   0.672  1.00  0.00    -0.022 C 
HETATM    3  C14 UNL     1      -0.139   0.775  -0.225  1.00  0.00    -0.079 C 
HETATM    4  C13 UNL     1       0.123  -0.013  -1.477  1.00  0.00     0.034 C 
HETATM    5  C24 UNL     1       0.762   1.931  -0.132  1.00  0.00     0.019 C 
HETATM    6  C12 UNL     1       1.078   0.848  -2.247  1.00  0.00     0.010 C 
HETATM    7  C11 UNL     1       1.790   1.706  -1.250  1.00  0.00    -0.002 C 
HETATM    8  C10 UNL     1       2.993   1.074  -0.637  1.00  0.00    -0.005 C 
HETATM    9  C9  UNL     1       3.553  -0.092  -1.363  1.00  0.00     0.006 C 
HETATM   10  C26 UNL     1       2.467   0.581   0.678  1.00  0.00    -0.001 C 
HETATM   11  C8  UNL     1       4.545  -0.858  -0.566  1.00  0.00     0.006 C 
HETATM   12  C7  UNL     1       4.285  -0.982   0.892  1.00  0.00    -0.002 C 
HETATM   13  C5  UNL     1       3.619   0.200   1.541  1.00  0.00    -0.036 C 
HETATM   14  C27 UNL     1       5.625  -1.280   1.556  1.00  0.00     0.038 C 
HETATM   15  C4  UNL     1       4.554   1.301   1.897  1.00  0.00     0.014 C 
HETATM   16  C6  UNL     1       3.016  -0.320   2.857  1.00  0.00     0.016 C 
HETATM   17  C3  UNL     1       5.928   1.229   1.339  1.00  0.00     0.034 C 
HETATM   18  C2  UNL     1       6.543  -0.111   1.345  1.00  0.00    -0.089 C 
HETATM   19  C1  UNL     1       7.823  -0.360   1.193  1.00  0.00     0.014 C 
HETATM   20  C25 UNL     1       1.606   1.704   1.140  1.00  0.00     0.015 C 
ENDBRANCH   1   2
BRANCH   1  21
HETATM   21  C17 UNL     1      -3.359  -0.527   0.434  1.00  0.00     0.088 C 
BRANCH  21  22
HETATM   22  C18 UNL     1      -4.045  -1.906   0.342  1.00  0.00     0.033 C 
BRANCH  22  23
HETATM   23  C19 UNL     1      -5.526  -1.791   0.178  1.00  0.00     0.081 C 
BRANCH  23  24
HETATM   24  C20 UNL     1      -6.065  -3.183   0.134  1.00  0.00     0.137 C 
HETATM   25  O1  UNL     1      -5.671  -3.906   1.061  1.00  0.00    -0.297 OA
BRANCH  24  26
HETATM   26  C21 UNL     1      -6.981  -3.703  -0.902  1.00  0.00     0.164 C 
HETATM   27  S1  UNL     1      -7.345  -5.449  -0.491  1.00  0.00    -0.090 SA
ENDBRANCH  24  26
ENDBRANCH  23  24
ENDBRANCH  22  23
ENDBRANCH  21  22
BRANCH  21  28
HETATM   28  N1  UNL     1      -3.710   0.215  -0.777  1.00  0.00    -0.355 N 
HETATM   29  C22 UNL     1      -4.750   1.197  -0.745  1.00  0.00     0.237 C 
HETATM   30  O2  UNL     1      -5.351   1.421   0.310  1.00  0.00    -0.272 OA
ATOM     31  H1  UNL     1      -3.211   0.031  -1.648  1.00  0.00     0.162 HD
BRANCH  29  32
HETATM   32  C23 UNL     1      -5.043   1.907  -2.044  1.00  0.00     0.243 C 
BRANCH  32  33
HETATM   33  N2  UNL     1      -6.108   2.878  -1.829  1.00  0.00    -0.314 N 
ATOM     34  H2  UNL     1      -6.986   2.812  -2.344  1.00  0.00     0.182 HD
BRANCH  33  35
HETATM   35  N3  UNL     1      -5.901   3.887  -0.914  1.00  0.00    -0.253 N 
HETATM   36  N4  UNL     1      -4.724   4.281  -0.710  1.00  0.00    -0.331 N 
ATOM     37  H42 UNL     1      -3.951   3.852  -1.219  1.00  0.00     0.178 HD
ATOM     38  H41 UNL     1      -4.571   5.028  -0.033  1.00  0.00     0.178 HD
ATOM     39  H3  UNL     1      -6.685   4.305  -0.413  1.00  0.00     0.207 HD
ENDBRANCH  33  35
ENDBRANCH  32  33
ENDBRANCH  29  32
ENDBRANCH  21  28
ENDBRANCH   1  21
TORSDOF 10
