REMARK  10 active torsions:
REMARK  status: ('A' for Active; 'I' for Inactive)
REMARK    1  A    between atoms: C18_18  and  C19_19 
REMARK    2  A    between atoms: C19_19  and  C20_20 
REMARK    3  A    between atoms: C20_20  and  C21_21 
REMARK    4  A    between atoms: C22_25  and  C23_26 
REMARK    5  A    between atoms: C23_26  and  C24_27 
REMARK    6  A    between atoms: C24_27  and  C25_28 
REMARK    7  A    between atoms: C25_28  and  N2_29 
REMARK    8  A    between atoms: C28_36  and  C29_37 
REMARK    9  A    between atoms: C29_37  and  C30_38 
REMARK   10  A    between atoms: C30_38  and  O2_39 
ROOT
HETATM    1  C21 UNL     1       1.971  -0.669   0.026  1.00  0.00     0.198 C 
HETATM    2  N1  UNL     1       3.115  -1.268   0.763  1.00  0.00    -0.059 N 
ATOM      3  H11 UNL     1       3.110  -2.288   0.761  1.00  0.00     0.278 HD
ATOM      4  H12 UNL     1       3.056  -1.145   1.774  1.00  0.00     0.278 HD
HETATM    5  C22 UNL     1       4.322  -0.692   0.177  1.00  0.00     0.255 C 
HETATM    6  C27 UNL     1       3.857   0.640  -0.270  1.00  0.00     0.163 C 
HETATM    7  O1  UNL     1       4.365   1.689  -0.138  1.00  0.00    -0.295 OA
HETATM    8  C28 UNL     1       2.553   0.283  -0.936  1.00  0.00     0.090 C 
ENDROOT
BRANCH   1   9
HETATM    9  C20 UNL     1       1.030  -0.224   1.059  1.00  0.00     0.034 C 
BRANCH   9  10
HETATM   10  C19 UNL     1      -0.271   0.370   0.696  1.00  0.00     0.007 C 
BRANCH  10  11
HETATM   11  C18 UNL     1      -1.143  -0.593  -0.119  1.00  0.00    -0.006 C 
HETATM   12  C2  UNL     1      -2.472   0.015  -0.502  1.00  0.00    -0.036 C 
HETATM   13  C1  UNL     1      -2.379   0.559  -1.927  1.00  0.00     0.016 C 
HETATM   14  C3  UNL     1      -2.980   1.044   0.453  1.00  0.00     0.010 C 
HETATM   15  C15 UNL     1      -3.351  -1.213  -0.572  1.00  0.00    -0.001 C 
HETATM   16  C4  UNL     1      -4.424   1.363   0.351  1.00  0.00     0.010 C 
HETATM   17  C5  UNL     1      -5.167   0.543  -0.643  1.00  0.00     0.023 C 
HETATM   18  C6  UNL     1      -6.612   0.768  -0.424  1.00  0.00    -0.047 A 
HETATM   19  C14 UNL     1      -4.811  -0.920  -0.672  1.00  0.00    -0.001 C 
HETATM   20  C7  UNL     1      -7.288   1.756  -1.099  1.00  0.00     0.008 A 
HETATM   21  C11 UNL     1      -7.325   0.007   0.461  1.00  0.00    -0.051 A 
HETATM   22  C8  UNL     1      -8.659   1.965  -0.880  1.00  0.00     0.001 A 
HETATM   23  C9  UNL     1      -9.345   1.178   0.019  1.00  0.00     0.001 A 
HETATM   24  C10 UNL     1      -8.664   0.188   0.695  1.00  0.00     0.007 A 
HETATM   25  C12 UNL     1      -6.553  -1.052   1.168  1.00  0.00     0.039 C 
HETATM   26  C13 UNL     1      -5.659  -1.790   0.206  1.00  0.00     0.010 C 
HETATM   27  C16 UNL     1      -2.963  -1.998   0.650  1.00  0.00     0.006 C 
HETATM   28  C17 UNL     1      -1.462  -1.812   0.705  1.00  0.00     0.006 C 
ENDBRANCH  10  11
ENDBRANCH   9  10
ENDBRANCH   1   9
BRANCH   8  29
HETATM   29  C29 UNL     1       1.792   1.474  -1.346  1.00  0.00     0.040 C 
BRANCH  29  30
HETATM   30  C30 UNL     1       2.597   2.254  -2.396  1.00  0.00     0.165 C 
BRANCH  30  31
HETATM   31  O2  UNL     1       2.819   1.405  -3.479  1.00  0.00    -0.401 OA
ATOM     32  H2  UNL     1       3.317   1.887  -4.128  1.00  0.00     0.209 HD
ENDBRANCH  30  31
ENDBRANCH  29  30
ENDBRANCH   8  29
BRANCH   5  33
HETATM   33  C23 UNL     1       5.471  -0.706   1.110  1.00  0.00     0.042 C 
BRANCH  33  34
HETATM   34  C24 UNL     1       6.698  -0.128   0.472  1.00  0.00     0.022 C 
BRANCH  34  35
HETATM   35  C25 UNL     1       7.888  -0.150   1.422  1.00  0.00     0.122 C 
BRANCH  35  36
HETATM   36  N2  UNL     1       9.065   0.413   0.804  1.00  0.00    -0.367 N 
HETATM   37  C26 UNL     1       9.970  -0.291   0.227  1.00  0.00     0.196 C 
HETATM   38  N3  UNL     1      11.114   0.270  -0.373  1.00  0.00    -0.067 NA
HETATM   39  N4  UNL     1       9.814  -1.703   0.192  1.00  0.00    -0.067 NA
ATOM     40  H2  UNL     1       9.184   1.426   0.827  1.00  0.00     0.161 HD
ENDBRANCH  35  36
ENDBRANCH  34  35
ENDBRANCH  33  34
ENDBRANCH   5  33
TORSDOF 10
