REMARK  12 active torsions:
REMARK  status: ('A' for Active; 'I' for Inactive)
REMARK    1  A    between atoms: O1_2  and  C2_3 
REMARK    2  A    between atoms: C2_3  and  C3_4 
REMARK    3  A    between atoms: C3_4  and  C4_5 
REMARK    4  A    between atoms: C4_5  and  C5_6 
REMARK    5  A    between atoms: C5_6  and  O2_8 
REMARK    6  A    between atoms: C5_6  and  C7_10 
REMARK    7  A    between atoms: C7_10  and  C8_11 
REMARK    8  A    between atoms: C8_11  and  C9_12 
REMARK    9  A    between atoms: C9_12  and  C10_13 
REMARK   10  A    between atoms: C10_13  and  C12_15 
REMARK   11  A    between atoms: C22_25  and  O3_26 
REMARK   12  A    between atoms: C23_28  and  O4_29 
ROOT
HETATM    1  C12 UNL     1      -0.163   1.795  -0.714  1.00  0.00    -0.002 C 
HETATM    2  C13 UNL     1      -1.085   2.984  -1.183  1.00  0.00     0.006 C 
HETATM    3  C14 UNL     1      -2.182   2.866  -0.150  1.00  0.00     0.006 C 
HETATM    4  C15 UNL     1      -2.440   1.387  -0.377  1.00  0.00    -0.002 C 
HETATM    5  C16 UNL     1      -3.586   0.826   0.297  1.00  0.00    -0.003 C 
HETATM    6  C17 UNL     1      -4.283   1.703   1.308  1.00  0.00     0.006 C 
HETATM    7  C18 UNL     1      -4.773   0.791   2.426  1.00  0.00     0.008 C 
HETATM    8  C19 UNL     1      -5.482  -0.403   1.880  1.00  0.00     0.023 A 
HETATM    9  C20 UNL     1      -6.750  -0.080   1.155  1.00  0.00     0.010 A 
HETATM   10  C21 UNL     1      -6.709  -0.737  -0.185  1.00  0.00     0.035 A 
HETATM   11  C22 UNL     1      -5.391  -1.475  -0.296  1.00  0.00     0.153 A 
HETATM   12  C23 UNL     1      -4.647  -1.257   0.963  1.00  0.00     0.091 A 
HETATM   13  C24 UNL     1      -3.309  -0.561   0.823  1.00  0.00     0.027 C 
HETATM   14  C25 UNL     1      -2.438  -1.252  -0.166  1.00  0.00     0.009 C 
HETATM   15  C26 UNL     1      -1.093  -0.583  -0.360  1.00  0.00     0.010 C 
HETATM   16  C27 UNL     1      -1.042   0.850  -0.056  1.00  0.00    -0.036 C 
HETATM   17  C28 UNL     1      -0.820   0.966   1.477  1.00  0.00     0.016 C 
ENDROOT
BRANCH   1  18
HETATM   18  C10 UNL     1       0.704   1.533  -1.868  1.00  0.00    -0.014 C 
HETATM   19  C11 UNL     1      -0.047   1.316  -3.177  1.00  0.00     0.010 C 
BRANCH  18  20
HETATM   20  C9  UNL     1       1.775   0.471  -1.714  1.00  0.00     0.005 C 
BRANCH  20  21
HETATM   21  C8  UNL     1       2.600   0.633  -0.479  1.00  0.00     0.003 C 
BRANCH  21  22
HETATM   22  C7  UNL     1       3.660  -0.329  -0.175  1.00  0.00     0.037 C 
BRANCH  22  23
HETATM   23  C5  UNL     1       4.814  -0.534  -1.060  1.00  0.00     0.054 C 
HETATM   24  C6  UNL     1       4.379  -1.120  -2.390  1.00  0.00     0.045 C 
BRANCH  23  25
HETATM   25  C4  UNL     1       5.770  -1.579  -0.434  1.00  0.00     0.039 C 
BRANCH  25  26
HETATM   26  C3  UNL     1       6.303  -1.147   0.896  1.00  0.00     0.029 C 
BRANCH  26  27
HETATM   27  C2  UNL     1       7.239  -2.277   1.354  1.00  0.00     0.167 C 
BRANCH  27  28
HETATM   28  O1  UNL     1       7.812  -2.043   2.574  1.00  0.00    -0.396 OA
HETATM   29  C1  UNL     1       8.594  -0.921   2.675  1.00  0.00     0.201 C 
ENDBRANCH  27  28
ENDBRANCH  26  27
ENDBRANCH  25  26
ENDBRANCH  23  25
BRANCH  23  30
HETATM   30  O2  UNL     1       5.580   0.576  -1.305  1.00  0.00    -0.390 OA
ATOM     31  H2  UNL     1       4.993   1.217  -1.689  1.00  0.00     0.210 HD
ENDBRANCH  23  30
ENDBRANCH  22  23
ENDBRANCH  21  22
ENDBRANCH  20  21
ENDBRANCH  18  20
ENDBRANCH   1  18
BRANCH  12  32
HETATM   32  O4  UNL     1      -4.365  -2.511   1.556  1.00  0.00    -0.386 OA
ATOM     33  H4  UNL     1      -3.838  -3.050   0.977  1.00  0.00     0.210 HD
ENDBRANCH  12  32
BRANCH  11  34
HETATM   34  O3  UNL     1      -5.731  -2.838  -0.484  1.00  0.00    -0.393 OA
ATOM     35  H3  UNL     1      -4.904  -3.301  -0.554  1.00  0.00     0.210 HD
ENDBRANCH  11  34
TORSDOF 12
