REMARK  12 active torsions:
REMARK  status: ('A' for Active; 'I' for Inactive)
REMARK    1  A    between atoms: C2_2  and  C3_3 
REMARK    2  A    between atoms: C3_3  and  C4_4 
REMARK    3  A    between atoms: C4_4  and  C5_5 
REMARK    4  A    between atoms: C5_5  and  C6_6 
REMARK    5  A    between atoms: C6_6  and  C7_7 
REMARK    6  A    between atoms: C7_7  and  C8_8 
REMARK    7  A    between atoms: C8_8  and  C9_9 
REMARK    8  A    between atoms: C9_9  and  C10_10 
REMARK    9  A    between atoms: C10_10  and  O1_12 
REMARK   10  A    between atoms: C10_10  and  C12_14 
REMARK   11  A    between atoms: C21_23  and  O2_24 
REMARK   12  A    between atoms: C22_26  and  O3_27 
ROOT
HETATM    1  C12 UNL     1       0.482   0.585   0.946  1.00  0.00     0.024 C 
HETATM    2  C13 UNL     1      -0.077   1.688   1.793  1.00  0.00     0.008 C 
HETATM    3  C14 UNL     1      -1.444   1.113   2.179  1.00  0.00     0.006 C 
HETATM    4  C15 UNL     1      -1.616  -0.156   1.437  1.00  0.00    -0.005 C 
HETATM    5  C16 UNL     1      -2.958  -0.487   0.966  1.00  0.00    -0.003 C 
HETATM    6  C17 UNL     1      -4.006  -0.719   1.979  1.00  0.00     0.017 C 
HETATM    7  C18 UNL     1      -5.287  -0.282   1.323  1.00  0.00    -0.015 C 
HETATM    8  C19 UNL     1      -5.729   1.014   1.963  1.00  0.00     0.018 C 
HETATM    9  C20 UNL     1      -6.390  -1.283   1.451  1.00  0.00     0.046 C 
HETATM   10  C21 UNL     1      -7.518  -1.018   0.513  1.00  0.00     0.149 C 
HETATM   11  C22 UNL     1      -7.158  -1.183  -0.930  1.00  0.00     0.170 C 
HETATM   12  C23 UNL     1      -5.844  -1.851  -1.144  1.00  0.00     0.202 C 
HETATM   13  O4  UNL     1      -4.744  -1.098  -0.885  1.00  0.00    -0.382 OA
HETATM   14  C24 UNL     1      -4.930   0.021  -0.128  1.00  0.00     0.134 C 
HETATM   15  C25 UNL     1      -3.548   0.617   0.108  1.00  0.00     0.020 C 
HETATM   16  C26 UNL     1      -2.718   0.667  -1.136  1.00  0.00     0.008 C 
HETATM   17  C27 UNL     1      -1.291   0.964  -0.794  1.00  0.00     0.006 C 
HETATM   18  C28 UNL     1      -0.698   0.054   0.230  1.00  0.00    -0.003 C 
ENDROOT
BRANCH   1  19
HETATM   19  C10 UNL     1       1.692   0.921   0.187  1.00  0.00     0.058 C 
HETATM   20  C11 UNL     1       1.670   2.101  -0.691  1.00  0.00     0.046 C 
BRANCH  19  21
HETATM   21  C9  UNL     1       2.143  -0.284  -0.621  1.00  0.00     0.038 C 
BRANCH  21  22
HETATM   22  C8  UNL     1       3.551   0.070  -1.135  1.00  0.00     0.003 C 
BRANCH  22  23
HETATM   23  C7  UNL     1       4.093  -1.059  -1.948  1.00  0.00     0.000 C 
BRANCH  23  24
HETATM   24  C6  UNL     1       5.455  -0.827  -2.520  1.00  0.00     0.000 C 
BRANCH  24  25
HETATM   25  C5  UNL     1       6.443  -0.595  -1.338  1.00  0.00     0.000 C 
BRANCH  25  26
HETATM   26  C4  UNL     1       7.804  -0.380  -1.879  1.00  0.00     0.000 C 
BRANCH  26  27
HETATM   27  C3  UNL     1       8.855  -0.068  -0.908  1.00  0.00    -0.000 C 
BRANCH  27  28
HETATM   28  C2  UNL     1       9.158  -1.066   0.140  1.00  0.00    -0.005 C 
HETATM   29  C1  UNL     1       8.069  -1.331   1.127  1.00  0.00     0.005 C 
ENDBRANCH  27  28
ENDBRANCH  26  27
ENDBRANCH  25  26
ENDBRANCH  24  25
ENDBRANCH  23  24
ENDBRANCH  22  23
ENDBRANCH  21  22
ENDBRANCH  19  21
BRANCH  19  30
HETATM   30  O1  UNL     1       2.729   1.123   1.136  1.00  0.00    -0.390 OA
ATOM     31  H1  UNL     1       2.447   1.876   1.641  1.00  0.00     0.210 HD
ENDBRANCH  19  30
ENDBRANCH   1  19
BRANCH  10  32
HETATM   32  O2  UNL     1      -8.040   0.244   0.773  1.00  0.00    -0.393 OA
ATOM     33  H2  UNL     1      -8.759   0.413   0.175  1.00  0.00     0.210 HD
ENDBRANCH  10  32
BRANCH  11  34
HETATM   34  O3  UNL     1      -8.135  -1.964  -1.586  1.00  0.00    -0.391 OA
ATOM     35  H3  UNL     1      -7.906  -2.069  -2.502  1.00  0.00     0.210 HD
ENDBRANCH  11  34
TORSDOF 12
