REMARK  12 active torsions:
REMARK  status: ('A' for Active; 'I' for Inactive)
REMARK    1  A    between atoms: C2_2  and  C3_3 
REMARK    2  A    between atoms: C3_3  and  C4_4 
REMARK    3  A    between atoms: C4_4  and  O1_5 
REMARK    4  A    between atoms: O1_5  and  C5_6 
REMARK    5  A    between atoms: C7_8  and  O2_9 
REMARK    6  A    between atoms: C10_13  and  O3_14 
REMARK    7  A    between atoms: C14_19  and  C15_20 
REMARK    8  A    between atoms: C15_20  and  C17_22 
REMARK    9  A    between atoms: C17_22  and  C18_23 
REMARK   10  A    between atoms: C18_23  and  C19_24 
REMARK   11  A    between atoms: C19_24  and  O4_25 
REMARK   12  A    between atoms: C19_24  and  C20_27 
ROOT
HETATM    1  C5  UNL     1      -3.189  -0.027   0.246  1.00  0.00     0.132 C 
HETATM    2  C6  UNL     1      -4.011  -1.256   0.748  1.00  0.00     0.065 C 
HETATM    3  C7  UNL     1      -3.352  -2.443   0.144  1.00  0.00     0.125 C 
HETATM    4  C8  UNL     1      -1.968  -2.527   0.815  1.00  0.00     0.022 C 
HETATM    5  C9  UNL     1      -1.469  -3.896   0.428  1.00  0.00     0.039 C 
HETATM    6  C10 UNL     1      -0.071  -3.982   0.965  1.00  0.00     0.123 C 
HETATM    7  C11 UNL     1       0.761  -3.001   0.252  1.00  0.00     0.023 C 
HETATM    8  C12 UNL     1       0.892  -3.289  -1.196  1.00  0.00     0.008 C 
HETATM    9  C13 UNL     1       0.691  -2.008  -1.911  1.00  0.00     0.006 C 
HETATM   10  C14 UNL     1       1.010  -0.967  -0.793  1.00  0.00    -0.002 C 
HETATM   11  C23 UNL     1       0.323  -1.526   0.398  1.00  0.00    -0.029 C 
HETATM   12  C24 UNL     1       0.853  -1.227   1.755  1.00  0.00     0.016 C 
HETATM   13  C25 UNL     1      -1.166  -1.385   0.297  1.00  0.00     0.011 C 
HETATM   14  C26 UNL     1      -1.784  -0.119   0.801  1.00  0.00    -0.017 C 
HETATM   15  C27 UNL     1      -1.972  -0.027   2.293  1.00  0.00     0.018 C 
HETATM   16  C28 UNL     1      -1.144   1.133   0.288  1.00  0.00     0.018 C 
ENDROOT
BRANCH  10  17
HETATM   17  C15 UNL     1       2.521  -0.880  -0.749  1.00  0.00    -0.014 C 
HETATM   18  C16 UNL     1       2.969  -0.483  -2.200  1.00  0.00     0.010 C 
BRANCH  17  19
HETATM   19  C17 UNL     1       3.029   0.296   0.051  1.00  0.00     0.007 C 
BRANCH  19  20
HETATM   20  C18 UNL     1       4.555   0.333   0.127  1.00  0.00     0.032 C 
BRANCH  20  21
HETATM   21  C19 UNL     1       5.024   1.525   0.923  1.00  0.00     0.121 C 
BRANCH  21  22
HETATM   22  O4  UNL     1       4.535   1.480   2.203  1.00  0.00    -0.395 OA
ATOM     23  H4  UNL     1       4.830   2.231   2.704  1.00  0.00     0.210 HD
ENDBRANCH  21  22
BRANCH  21  24
HETATM   24  C20 UNL     1       4.728   2.838   0.232  1.00  0.00     0.006 C 
HETATM   25  C21 UNL     1       5.246   3.946   1.131  1.00  0.00     0.012 C 
HETATM   26  C22 UNL     1       5.449   2.947  -1.082  1.00  0.00     0.012 C 
ENDBRANCH  21  24
ENDBRANCH  20  21
ENDBRANCH  19  20
ENDBRANCH  17  19
ENDBRANCH  10  17
BRANCH   6  27
HETATM   27  O3  UNL     1       0.484  -5.246   0.690  1.00  0.00    -0.395 OA
ATOM     28  H3  UNL     1       1.369  -5.300   1.030  1.00  0.00     0.210 HD
ENDBRANCH   6  27
BRANCH   3  29
HETATM   29  O2  UNL     1      -3.257  -2.297  -1.219  1.00  0.00    -0.395 OA
ATOM     30  H2  UNL     1      -2.836  -3.056  -1.605  1.00  0.00     0.210 HD
ENDBRANCH   3  29
BRANCH   1  31
HETATM   31  O1  UNL     1      -3.331   0.072  -1.091  1.00  0.00    -0.385 OA
BRANCH  31  32
HETATM   32  C4  UNL     1      -4.244   1.009  -1.481  1.00  0.00     0.168 C 
BRANCH  32  33
HETATM   33  C3  UNL     1      -4.045   2.427  -1.125  1.00  0.00     0.026 C 
BRANCH  33  34
HETATM   34  C2  UNL     1      -5.232   3.201  -1.714  1.00  0.00    -0.002 C 
HETATM   35  C1  UNL     1      -5.133   4.662  -1.411  1.00  0.00     0.005 C 
ENDBRANCH  33  34
ENDBRANCH  32  33
ENDBRANCH  31  32
ENDBRANCH   1  31
TORSDOF 12
