REMARK  12 active torsions:
REMARK  status: ('A' for Active; 'I' for Inactive)
REMARK    1  A    between atoms: C2_2  and  C14_15 
REMARK    2  A    between atoms: C3_3  and  C4_4 
REMARK    3  A    between atoms: C4_4  and  C5_5 
REMARK    4  A    between atoms: C5_5  and  C6_6 
REMARK    5  A    between atoms: C6_6  and  C9_10 
REMARK    6  A    between atoms: C10_11  and  C11_12 
REMARK    7  A    between atoms: C14_15  and  C15_16 
REMARK    8  A    between atoms: C15_16  and  C17_18 
REMARK    9  A    between atoms: C18_19  and  O1_20 
REMARK   10  A    between atoms: C22_25  and  C24_27 
REMARK   11  A    between atoms: C24_27  and  O2_28 
REMARK   12  A    between atoms: C25_30  and  O3_31 
ROOT
HETATM    1  C6  UNL     1       4.903  -0.444   1.177  1.00  0.00     0.063 C 
HETATM    2  C7  UNL     1       5.407  -1.024   2.531  1.00  0.00     0.035 C 
HETATM    3  C8  UNL     1       4.777  -1.643   0.309  1.00  0.00     0.073 C 
HETATM    4  N1  UNL     1       4.691  -2.608  -0.355  1.00  0.00    -0.196 NA
ENDROOT
BRANCH   1   5
HETATM    5  C5  UNL     1       3.606   0.197   1.491  1.00  0.00     0.032 C 
BRANCH   5   6
HETATM    6  C4  UNL     1       2.872   0.890   0.415  1.00  0.00     0.029 C 
BRANCH   6   7
HETATM    7  C3  UNL     1       2.466   0.149  -0.766  1.00  0.00    -0.024 C 
HETATM    8  C2  UNL     1       1.291  -0.140  -1.242  1.00  0.00    -0.087 C 
HETATM    9  C1  UNL     1       1.167  -0.925  -2.492  1.00  0.00     0.043 C 
BRANCH   8  10
HETATM   10  C14 UNL     1       0.051   0.280  -0.573  1.00  0.00     0.038 C 
BRANCH  10  11
HETATM   11  C15 UNL     1      -0.820  -0.879  -0.198  1.00  0.00    -0.007 C 
HETATM   12  C16 UNL     1      -0.048  -1.795   0.744  1.00  0.00     0.011 C 
BRANCH  11  13
HETATM   13  C17 UNL     1      -2.124  -0.614   0.411  1.00  0.00     0.027 C 
HETATM   14  C18 UNL     1      -2.162   0.150   1.695  1.00  0.00     0.123 C 
HETATM   15  C19 UNL     1      -3.310  -0.405   2.535  1.00  0.00     0.032 C 
HETATM   16  C20 UNL     1      -4.407  -0.948   1.603  1.00  0.00     0.009 C 
HETATM   17  C21 UNL     1      -4.454  -0.057   0.404  1.00  0.00     0.007 C 
HETATM   18  C22 UNL     1      -5.789   0.032  -0.262  1.00  0.00     0.007 C 
HETATM   19  C28 UNL     1      -3.278  -0.267  -0.522  1.00  0.00    -0.033 C 
HETATM   20  C23 UNL     1      -6.509  -1.260  -0.436  1.00  0.00     0.020 C 
HETATM   21  C25 UNL     1      -5.633   0.841  -1.527  1.00  0.00     0.128 C 
HETATM   22  C26 UNL     1      -4.461   1.779  -1.399  1.00  0.00     0.033 C 
HETATM   23  C27 UNL     1      -3.130   1.032  -1.248  1.00  0.00     0.012 C 
HETATM   24  C29 UNL     1      -3.376  -1.419  -1.456  1.00  0.00     0.016 C 
BRANCH  14  25
HETATM   25  O1  UNL     1      -1.004  -0.021   2.402  1.00  0.00    -0.395 OA
ATOM     26  H1  UNL     1      -1.028   0.465   3.218  1.00  0.00     0.210 HD
ENDBRANCH  14  25
BRANCH  18  27
HETATM   27  C24 UNL     1      -6.686   0.883   0.653  1.00  0.00     0.176 C 
BRANCH  27  28
HETATM   28  O2  UNL     1      -7.953   1.051   0.172  1.00  0.00    -0.400 OA
ATOM     29  H2  UNL     1      -8.507   1.577   0.737  1.00  0.00     0.209 HD
ENDBRANCH  27  28
ENDBRANCH  18  27
BRANCH  21  30
HETATM   30  O3  UNL     1      -6.744   1.696  -1.750  1.00  0.00    -0.395 OA
ATOM     31  H3  UNL     1      -6.646   2.205  -2.546  1.00  0.00     0.210 HD
ENDBRANCH  21  30
ENDBRANCH  11  13
ENDBRANCH  10  11
ENDBRANCH   8  10
ENDBRANCH   6   7
ENDBRANCH   5   6
ENDBRANCH   1   5
BRANCH   1  32
HETATM   32  C9  UNL     1       5.961   0.417   0.665  1.00  0.00    -0.006 C 
HETATM   33  C10 UNL     1       6.777   0.078  -0.327  1.00  0.00    -0.025 C 
BRANCH  33  34
HETATM   34  C11 UNL     1       7.839   1.006  -0.803  1.00  0.00    -0.001 C 
HETATM   35  C12 UNL     1       9.208   0.343  -0.696  1.00  0.00     0.013 C 
HETATM   36  C13 UNL     1       7.821   2.292  -0.020  1.00  0.00     0.013 C 
ENDBRANCH  33  34
ENDBRANCH   1  32
TORSDOF 12
