REMARK  7 active torsions:
REMARK  status: ('A' for Active; 'I' for Inactive)
REMARK    1  A    between atoms: C2_2  and  N1_3 
REMARK    2  A    between atoms: N2_5  and  O1_6 
REMARK    3  A    between atoms: N2_5  and  C3_8 
REMARK    4  A    between atoms: C3_8  and  C4_9 
REMARK    5  A    between atoms: C3_8  and  C7_17 
REMARK    6  A    between atoms: C4_9  and  N4_13 
REMARK    7  A    between atoms: N4_13  and  C5_15 
ROOT
HETATM    1  C3  UNL     1       0.135   0.537  -1.594  1.00  0.00     0.232 C 
ENDROOT
BRANCH   1   2
HETATM    2  N2  UNL     1       1.542   0.460  -1.366  1.00  0.00    -0.189 N 
HETATM    3  N1  UNL     1       2.067  -0.657  -1.114  1.00  0.00    -0.314 N 
ATOM      4  H1  UNL     1       1.453  -1.471  -1.081  1.00  0.00     0.182 HD
BRANCH   3   5
HETATM    5  C2  UNL     1       3.467  -0.868  -0.869  1.00  0.00     0.137 C 
HETATM    6  C1  UNL     1       3.585  -1.556   0.496  1.00  0.00     0.028 C 
ENDBRANCH   3   5
BRANCH   2   7
HETATM    7  O1  UNL     1       2.356   1.558  -1.412  1.00  0.00    -0.271 OA
ATOM      8  H1  UNL     1       1.960   2.400  -1.602  1.00  0.00     0.246 HD
ENDBRANCH   2   7
ENDBRANCH   1   2
BRANCH   1   9
HETATM    9  C4  UNL     1      -0.573  -0.742  -1.488  1.00  0.00     0.102 C 
HETATM   10  N3  UNL     1      -1.177  -1.218  -2.521  1.00  0.00    -0.387 N 
ATOM     11  H32 UNL     1      -1.116  -0.650  -3.366  1.00  0.00     0.157 HD
ATOM     12  H31 UNL     1      -1.670  -2.108  -2.447  1.00  0.00     0.157 HD
BRANCH   9  13
HETATM   13  N4  UNL     1      -0.657  -1.529  -0.318  1.00  0.00    -0.378 N 
ATOM     14  H4  UNL     1       0.180  -1.970   0.063  1.00  0.00     0.160 HD
BRANCH  13  15
HETATM   15  C5  UNL     1      -1.923  -1.707   0.334  1.00  0.00     0.116 C 
HETATM   16  C6  UNL     1      -1.838  -2.570   1.565  1.00  0.00     0.026 C 
ENDBRANCH  13  15
ENDBRANCH   9  13
ENDBRANCH   1   9
BRANCH   1  17
HETATM   17  C7  UNL     1      -0.547   1.497  -0.703  1.00  0.00    -0.024 A 
HETATM   18  C8  UNL     1      -1.486   2.348  -1.238  1.00  0.00     0.010 A 
HETATM   19  C9  UNL     1      -2.159   3.273  -0.448  1.00  0.00     0.001 A 
HETATM   20  C10 UNL     1      -1.836   3.290   0.891  1.00  0.00     0.000 A 
HETATM   21  C11 UNL     1      -0.892   2.437   1.437  1.00  0.00     0.001 A 
HETATM   22  C12 UNL     1      -0.237   1.532   0.650  1.00  0.00     0.010 A 
ENDBRANCH   1  17
TORSDOF 7
