REMARK  7 active torsions:
REMARK  status: ('A' for Active; 'I' for Inactive)
REMARK    1  A    between atoms: C5_5  and  C6_6 
REMARK    2  A    between atoms: C6_6  and  C7_7 
REMARK    3  A    between atoms: C7_7  and  O1_8 
REMARK    4  A    between atoms: C7_7  and  C8_10 
REMARK    5  A    between atoms: C8_10  and  N1_11 
REMARK    6  A    between atoms: C8_10  and  C9_15 
REMARK    7  A    between atoms: C9_15  and  C10_16 
ROOT
HETATM    1  C8  UNL     1       1.393  -1.085  -0.469  1.00  0.00     0.217 C 
ENDROOT
BRANCH   1   2
HETATM    2  C7  UNL     1       0.409  -2.178  -0.141  1.00  0.00     0.153 C 
BRANCH   2   3
HETATM    3  C6  UNL     1      -0.704  -1.864   0.770  1.00  0.00     0.072 C 
BRANCH   3   4
HETATM    4  C5  UNL     1      -1.670  -0.835   0.400  1.00  0.00    -0.056 A 
HETATM    5  C4  UNL     1      -2.759  -1.211  -0.398  1.00  0.00     0.007 A 
HETATM    6  C3  UNL     1      -3.733  -0.285  -0.751  1.00  0.00     0.007 A 
HETATM    7  C2  UNL     1      -3.661   1.010  -0.334  1.00  0.00    -0.062 A 
HETATM    8  C1  UNL     1      -4.725   1.984  -0.730  1.00  0.00     0.048 C 
HETATM    9  C14 UNL     1      -2.593   1.404   0.457  1.00  0.00     0.007 A 
HETATM   10  C13 UNL     1      -1.632   0.481   0.802  1.00  0.00     0.007 A 
ENDBRANCH   3   4
ENDBRANCH   2   3
BRANCH   2  11
HETATM   11  O1  UNL     1       1.169  -3.227   0.500  1.00  0.00    -0.393 OA
ATOM     12  H1  UNL     1       1.887  -3.430  -0.088  1.00  0.00     0.210 HD
ENDBRANCH   2  11
ENDBRANCH   1   2
BRANCH   1  13
HETATM   13  N1  UNL     1       0.764   0.003  -1.198  1.00  0.00    -0.072 N 
ATOM     14  H13 UNL     1       0.291  -0.335  -2.036  1.00  0.00     0.274 HD
ATOM     15  H12 UNL     1      -0.045   0.369  -0.695  1.00  0.00     0.274 HD
ATOM     16  H11 UNL     1       1.430   0.743  -1.420  1.00  0.00     0.274 HD
ENDBRANCH   1  13
BRANCH   1  17
HETATM   17  C9  UNL     1       2.087  -0.571   0.743  1.00  0.00     0.093 C 
BRANCH  17  18
HETATM   18  C10 UNL     1       3.071   0.483   0.431  1.00  0.00     0.027 A 
HETATM   19  C11 UNL     1       3.835   1.172   1.401  1.00  0.00     0.114 A 
HETATM   20  N2  UNL     1       4.645   2.054   0.804  1.00  0.00    -0.360 N 
HETATM   21  C12 UNL     1       4.437   1.964  -0.513  1.00  0.00     0.180 A 
ATOM     22  H2  UNL     1       5.302   2.681   1.269  1.00  0.00     0.166 HD
HETATM   23  N3  UNL     1       3.498   1.025  -0.717  1.00  0.00    -0.355 N 
ATOM     24  H3  UNL     1       3.151   0.756  -1.638  1.00  0.00     0.166 HD
ENDBRANCH  17  18
ENDBRANCH   1  17
TORSDOF 7
