REMARK  6 active torsions:
REMARK  status: ('A' for Active; 'I' for Inactive)
REMARK    1  A    between atoms: C2_3  and  N2_4 
REMARK    2  A    between atoms: C2_3  and  C3_8 
REMARK    3  A    between atoms: C6_13  and  C7_14 
REMARK    4  A    between atoms: C7_14  and  C8_15 
REMARK    5  A    between atoms: C8_15  and  N4_16 
REMARK    6  A    between atoms: N4_16  and  C9_18 
ROOT
HETATM    1  N1  UNL     1      -2.432   3.443  -0.864  1.00  0.00    -0.195 NA
HETATM    2  C1  UNL     1      -2.575   2.500  -0.212  1.00  0.00     0.097 C 
HETATM    3  C2  UNL     1      -2.773   1.312   0.611  1.00  0.00     0.324 C 
ENDROOT
BRANCH   3   4
HETATM    4  N2  UNL     1      -4.025   1.356   1.337  1.00  0.00    -0.058 N 
ATOM      5  H23 UNL     1      -4.100   2.208   1.893  1.00  0.00     0.276 HD
ATOM      6  H22 UNL     1      -4.813   1.505   0.707  1.00  0.00     0.276 HD
ATOM      7  H21 UNL     1      -4.163   0.525   1.912  1.00  0.00     0.276 HD
ENDBRANCH   3   4
BRANCH   3   8
HETATM    8  C3  UNL     1      -2.729   0.060  -0.174  1.00  0.00     0.009 A 
HETATM    9  C4  UNL     1      -3.758  -0.457  -0.938  1.00  0.00     0.098 A 
HETATM   10  N3  UNL     1      -3.365  -1.597  -1.505  1.00  0.00    -0.374 N 
HETATM   11  C5  UNL     1      -2.091  -1.816  -1.110  1.00  0.00     0.095 A 
ATOM     12  H3  UNL     1      -3.920  -2.192  -2.120  1.00  0.00     0.164 HD
HETATM   13  C6  UNL     1      -1.668  -0.815  -0.290  1.00  0.00    -0.031 A 
BRANCH  13  14
HETATM   14  C7  UNL     1      -0.375  -0.590   0.398  1.00  0.00     0.060 C 
BRANCH  14  15
HETATM   15  C8  UNL     1       0.626  -1.671   0.125  1.00  0.00     0.126 C 
BRANCH  15  16
HETATM   16  N4  UNL     1       1.839  -1.339   0.847  1.00  0.00    -0.376 N 
ATOM     17  H4  UNL     1       1.976  -1.778   1.757  1.00  0.00     0.161 HD
BRANCH  16  18
HETATM   18  C9  UNL     1       2.746  -0.546   0.440  1.00  0.00     0.100 A 
HETATM   19  C10 UNL     1       3.838  -0.357   1.283  1.00  0.00     0.048 A 
HETATM   20  C11 UNL     1       4.862   0.492   0.900  1.00  0.00     0.005 A 
HETATM   21  C12 UNL     1       4.758   1.127  -0.319  1.00  0.00     0.017 A 
HETATM   22  C13 UNL     1       3.668   0.937  -1.158  1.00  0.00     0.089 A 
HETATM   23  N5  UNL     1       2.711   0.107  -0.737  1.00  0.00    -0.353 N 
ATOM     24  H5  UNL     1       1.905  -0.041  -1.344  1.00  0.00     0.166 HD
ENDBRANCH  16  18
ENDBRANCH  15  16
ENDBRANCH  14  15
ENDBRANCH  13  14
ENDBRANCH   3   8
TORSDOF 6
