REMARK  6 active torsions:
REMARK  status: ('A' for Active; 'I' for Inactive)
REMARK    1  A    between atoms: C2_2  and  C4_4 
REMARK    2  A    between atoms: C4_4  and  C5_5 
REMARK    3  A    between atoms: C5_5  and  N1_6 
REMARK    4  A    between atoms: C5_5  and  C7_11 
REMARK    5  A    between atoms: C7_11  and  O1_12 
REMARK    6  A    between atoms: C7_11  and  C8_14 
ROOT
HETATM    1  C5  UNL     1      -0.070   0.592   0.203  1.00  0.00     0.117 C 
ENDROOT
BRANCH   1   2
HETATM    2  C4  UNL     1      -0.860  -0.596   0.687  1.00  0.00     0.032 C 
BRANCH   2   3
HETATM    3  C2  UNL     1      -2.297  -0.552   0.206  1.00  0.00    -0.021 C 
HETATM    4  C1  UNL     1      -2.345  -0.550  -1.307  1.00  0.00     0.009 C 
HETATM    5  C3  UNL     1      -3.073  -1.741   0.709  1.00  0.00     0.009 C 
ENDBRANCH   2   3
ENDBRANCH   1   2
BRANCH   1   6
HETATM    6  N1  UNL     1      -0.646   1.809   0.675  1.00  0.00    -0.359 N 
HETATM    7  C6  UNL     1      -0.633   2.920  -0.020  1.00  0.00     0.197 C 
HETATM    8  N2  UNL     1      -1.225   4.100   0.508  1.00  0.00    -0.067 NA
HETATM    9  N3  UNL     1      -0.021   2.909  -1.296  1.00  0.00    -0.067 NA
ATOM     10  H1  UNL     1      -1.088   1.815   1.594  1.00  0.00     0.162 HD
ENDBRANCH   1   6
BRANCH   1  11
HETATM   11  C7  UNL     1       1.327   0.481   0.805  1.00  0.00     0.174 C 
BRANCH  11  12
HETATM   12  O1  UNL     1       2.104   1.589   0.393  1.00  0.00    -0.389 OA
ATOM     13  H1  UNL     1       2.974   1.520   0.768  1.00  0.00     0.210 HD
ENDBRANCH  11  12
BRANCH  11  14
HETATM   14  C8  UNL     1       2.033  -0.733   0.336  1.00  0.00    -0.025 A 
HETATM   15  C9  UNL     1       2.555  -0.832  -0.937  1.00  0.00     0.027 A 
HETATM   16  C10 UNL     1       3.209  -1.943  -1.389  1.00  0.00     0.088 A 
HETATM   17  N4  UNL     1       3.364  -2.991  -0.584  1.00  0.00    -0.375 N 
HETATM   18  C11 UNL     1       2.876  -2.955   0.672  1.00  0.00     0.088 A 
ATOM     19  H4  UNL     1       3.852  -3.822  -0.917  1.00  0.00     0.164 HD
HETATM   20  C12 UNL     1       2.201  -1.827   1.158  1.00  0.00     0.027 A 
ENDBRANCH  11  14
ENDBRANCH   1  11
TORSDOF 6
