REMARK  11 active torsions:
REMARK  status: ('A' for Active; 'I' for Inactive)
REMARK    1  A    between atoms: C2_2  and  C3_3 
REMARK    2  A    between atoms: C3_3  and  C4_4 
REMARK    3  A    between atoms: C3_3  and  N4_21 
REMARK    4  A    between atoms: C4_4  and  N1_5 
REMARK       I    between atoms: N1_5  and  C5_7 
REMARK    5  A    between atoms: C5_7  and  C6_9 
REMARK    6  A    between atoms: C6_9  and  N2_12 
REMARK    7  A    between atoms: N2_12  and  C9_14 
REMARK    8  A    between atoms: C9_14  and  C11_16 
REMARK       I    between atoms: C11_16  and  N3_18 
REMARK    9  A    between atoms: N4_21  and  C13_23 
REMARK   10  A    between atoms: C13_23  and  C14_24 
REMARK   11  A    between atoms: C13_23  and  C15_26 
ROOT
HETATM    1  N1  UNL     1      -0.619   1.835  -0.534  1.00  0.00    -0.357 N 
ATOM      2  H1  UNL     1      -0.574   2.034  -1.533  1.00  0.00     0.162 HD
HETATM    3  C5  UNL     1       0.463   1.128   0.043  1.00  0.00     0.244 C 
HETATM    4  O1  UNL     1       0.453   0.858   1.265  1.00  0.00    -0.271 OA
ENDROOT
BRANCH   1   5
HETATM    5  C4  UNL     1      -1.766   2.289   0.177  1.00  0.00     0.147 C 
BRANCH   5   6
HETATM    6  C3  UNL     1      -2.570   1.193   0.854  1.00  0.00     0.095 C 
BRANCH   6   7
HETATM    7  C2  UNL     1      -3.732   1.886   1.534  1.00  0.00     0.022 C 
HETATM    8  C1  UNL     1      -3.288   2.900   2.552  1.00  0.00     0.007 C 
ENDBRANCH   6   7
BRANCH   6   9
HETATM    9  N4  UNL     1      -3.120   0.264  -0.050  1.00  0.00    -0.400 N 
ATOM     10  H4  UNL     1      -2.939   0.384  -1.047  1.00  0.00     0.154 HD
BRANCH   9  11
HETATM   11  C13 UNL     1      -3.898  -0.807   0.360  1.00  0.00     0.209 C 
BRANCH  11  12
HETATM   12  C14 UNL     1      -3.270  -1.822   1.234  1.00  0.00     0.263 C 
HETATM   13  O3  UNL     1      -2.110  -1.686   1.557  1.00  0.00    -0.304 OA
ENDBRANCH  11  12
BRANCH  11  14
HETATM   14  C15 UNL     1      -4.481  -1.507  -0.841  1.00  0.00     0.151 C 
HETATM   15  C16 UNL     1      -5.344  -2.691  -0.640  1.00  0.00     0.093 C 
HETATM   16  O4  UNL     1      -4.251  -1.113  -1.960  1.00  0.00    -0.296 OA
ENDBRANCH  11  14
ENDBRANCH   9  11
ENDBRANCH   6   9
ENDBRANCH   5   6
ENDBRANCH   1   5
BRANCH   3  17
HETATM   17  C6  UNL     1       1.646   0.680  -0.767  1.00  0.00     0.100 C 
HETATM   18  C7  UNL     1       2.323   1.967  -1.230  1.00  0.00     0.048 C 
HETATM   19  C8  UNL     1       1.093  -0.097  -1.931  1.00  0.00     0.048 C 
BRANCH  17  20
HETATM   20  N2  UNL     1       2.527  -0.022   0.077  1.00  0.00    -0.393 N 
ATOM     21  H2  UNL     1       2.392   0.004   1.088  1.00  0.00     0.155 HD
BRANCH  20  22
HETATM   22  C9  UNL     1       3.597  -0.762  -0.472  1.00  0.00     0.166 C 
HETATM   23  C10 UNL     1       4.626   0.017  -1.211  1.00  0.00     0.042 C 
BRANCH  22  24
HETATM   24  C11 UNL     1       4.269  -1.467   0.658  1.00  0.00     0.239 C 
HETATM   25  O2  UNL     1       3.913  -1.341   1.860  1.00  0.00    -0.271 OA
HETATM   26  N3  UNL     1       5.355  -2.316   0.374  1.00  0.00    -0.364 N 
HETATM   27  C12 UNL     1       6.067  -3.041   1.415  1.00  0.00     0.149 C 
ATOM     28  H3  UNL     1       5.653  -2.427  -0.595  1.00  0.00     0.161 HD
ENDBRANCH  22  24
ENDBRANCH  20  22
ENDBRANCH  17  20
ENDBRANCH   3  17
TORSDOF 11
