REMARK  4 active torsions:
REMARK  status: ('A' for Active; 'I' for Inactive)
REMARK    1  A    between atoms: C5_6  and  C6_7 
REMARK    2  A    between atoms: C6_7  and  O3_9 
REMARK    3  A    between atoms: O3_9  and  C7_10 
REMARK    4  A    between atoms: C7_10  and  C8_11 
ROOT
HETATM    1  C7  UNL     1       0.474  -2.044   1.390  1.00  0.00     0.211 C 
ENDROOT
BRANCH   1   2
HETATM    2  O3  UNL     1       1.588  -1.279   1.152  1.00  0.00    -0.315 OA
BRANCH   2   3
HETATM    3  C6  UNL     1       2.160  -0.844   0.001  1.00  0.00     0.297 C 
HETATM    4  O2  UNL     1       1.635  -1.172  -1.098  1.00  0.00    -0.259 OA
BRANCH   3   5
HETATM    5  C5  UNL     1       3.379   0.004   0.002  1.00  0.00     0.092 A 
HETATM    6  C3  UNL     1       3.402   1.377   0.033  1.00  0.00     0.067 A 
HETATM    7  O1  UNL     1       4.654   1.783   0.023  1.00  0.00    -0.317 OA
HETATM    8  C4  UNL     1       2.195   2.250   0.070  1.00  0.00     0.078 C 
HETATM    9  C2  UNL     1       5.494   0.777  -0.012  1.00  0.00     0.072 A 
HETATM   10  C1  UNL     1       6.983   0.815  -0.033  1.00  0.00     0.078 C 
HETATM   11  C16 UNL     1       4.698  -0.375  -0.026  1.00  0.00     0.082 A 
HETATM   12 CL1  UNL     1       5.257  -2.026  -0.072  1.00  0.00    -0.081 Cl
ENDBRANCH   3   5
ENDBRANCH   2   3
ENDBRANCH   1   2
BRANCH   1  13
HETATM   13  C8  UNL     1      -0.814  -1.370   1.025  1.00  0.00     0.149 C 
HETATM   14  C9  UNL     1      -1.915  -2.405   1.345  1.00  0.00     0.037 C 
HETATM   15  C10 UNL     1      -3.200  -1.601   1.285  1.00  0.00     0.040 C 
HETATM   16  C11 UNL     1      -3.305  -0.920  -0.019  1.00  0.00     0.180 C 
HETATM   17  O4  UNL     1      -3.757   0.400   0.177  1.00  0.00    -0.346 OA
HETATM   18  C15 UNL     1      -2.094  -0.763  -0.816  1.00  0.00     0.292 C 
HETATM   19  C12 UNL     1      -3.339   1.087  -0.957  1.00  0.00     0.160 C 
HETATM   20  C13 UNL     1      -3.311   2.559  -0.608  1.00  0.00     0.078 C 
HETATM   21  C14 UNL     1      -4.290   0.903  -2.106  1.00  0.00     0.078 C 
HETATM   22  O5  UNL     1      -2.083   0.582  -1.202  1.00  0.00    -0.324 OA
HETATM   23  O6  UNL     1      -0.897  -1.080  -0.274  1.00  0.00    -0.351 OA
ENDBRANCH   1  13
TORSDOF 4
