REMARK  4 active torsions:
REMARK  status: ('A' for Active; 'I' for Inactive)
REMARK    1  A    between atoms: C1_2  and  C2_3 
REMARK    2  A    between atoms: C1_2  and  O2_6 
REMARK    3  A    between atoms: C2_3  and  C3_4 
REMARK    4  A    between atoms: O2_6  and  C4_7 
ROOT
HETATM    1  C4  UNL     1       2.805   1.152   0.083  1.00  0.00     0.132 C 
HETATM    2  C5  UNL     1       2.035   1.247  -1.212  1.00  0.00     0.038 C 
HETATM    3  C6  UNL     1       0.590   1.618  -0.991  1.00  0.00     0.077 C 
HETATM    4  C7  UNL     1      -0.136   0.602  -0.142  1.00  0.00     0.230 C 
HETATM    5  C8  UNL     1       0.740   0.037   0.947  1.00  0.00     0.077 C 
HETATM    6  C9  UNL     1       1.904   0.941   1.272  1.00  0.00     0.038 C 
HETATM    7  O3  UNL     1      -0.607  -0.468  -0.904  1.00  0.00    -0.195 OA
HETATM    8  O4  UNL     1      -1.508  -1.087  -0.170  1.00  0.00    -0.194 OA
HETATM    9  C10 UNL     1      -2.655  -0.311  -0.177  1.00  0.00     0.237 C 
HETATM   10  O5  UNL     1      -2.345   1.018  -0.300  1.00  0.00    -0.194 OA
HETATM   11  O6  UNL     1      -1.250   1.244   0.398  1.00  0.00    -0.195 OA
HETATM   12  C11 UNL     1      -3.511  -0.510   1.041  1.00  0.00     0.055 C 
HETATM   13  C12 UNL     1      -4.760   0.312   0.869  1.00  0.00     0.015 C 
HETATM   14  C13 UNL     1      -5.366  -0.309  -0.383  1.00  0.00    -0.009 C 
HETATM   15  C14 UNL     1      -4.605   0.245  -1.596  1.00  0.00     0.015 C 
HETATM   16  C15 UNL     1      -3.553  -0.829  -1.282  1.00  0.00     0.059 C 
HETATM   17  C16 UNL     1      -4.647  -1.605  -0.614  1.00  0.00    -0.001 C 
HETATM   18  C17 UNL     1      -4.074  -1.912   0.753  1.00  0.00     0.015 C 
ENDROOT
BRANCH   1  19
HETATM   19  O2  UNL     1       3.669   0.035  -0.008  1.00  0.00    -0.316 OA
BRANCH  19  20
HETATM   20  C1  UNL     1       5.044   0.148   0.116  1.00  0.00     0.260 C 
HETATM   21  O1  UNL     1       5.545   1.273   0.316  1.00  0.00    -0.265 OA
BRANCH  20  22
HETATM   22  C2  UNL     1       5.923  -1.052   0.014  1.00  0.00     0.126 C 
BRANCH  22  23
HETATM   23  C3  UNL     1       7.381  -0.665   0.184  1.00  0.00     0.124 C 
HETATM   24 CL1  UNL     1       7.633   0.085   1.774  1.00  0.00    -0.130 Cl
ENDBRANCH  22  23
ENDBRANCH  20  22
ENDBRANCH  19  20
ENDBRANCH   1  19
TORSDOF 4
