REMARK  4 active torsions:
REMARK  status: ('A' for Active; 'I' for Inactive)
REMARK    1  A    between atoms: C3_5  and  N2_6 
REMARK    2  A    between atoms: C10_14  and  C11_15 
REMARK    3  A    between atoms: C11_15  and  O2_17 
REMARK    4  A    between atoms: O2_17  and  C12_18 
ROOT
HETATM    1  C1  UNL     1       1.253   1.203   1.021  1.00  0.00     0.070 C 
HETATM    2  C2  UNL     1       0.357   0.294   0.201  1.00  0.00     0.030 A 
HETATM    3  N1  UNL     1      -0.927   0.238   0.382  1.00  0.00    -0.339 N 
ATOM      4  H1  UNL     1      -1.359   0.824   1.096  1.00  0.00     0.168 HD
HETATM    5  C3  UNL     1      -1.677  -0.558  -0.337  1.00  0.00     0.147 A 
HETATM    6  S1  UNL     1      -0.502  -1.297  -1.360  1.00  0.00    -0.046 SA
HETATM    7  C10 UNL     1       0.891  -0.509  -0.770  1.00  0.00     0.105 A 
ENDROOT
BRANCH   7   8
HETATM    8  C11 UNL     1       2.287  -0.657  -1.182  1.00  0.00     0.303 C 
HETATM    9  O1  UNL     1       2.593  -1.455  -2.135  1.00  0.00    -0.259 OA
BRANCH   8  10
HETATM   10  O2  UNL     1       3.327   0.022  -0.601  1.00  0.00    -0.304 OA
BRANCH  10  11
HETATM   11  C12 UNL     1       4.687  -0.144  -1.025  1.00  0.00     0.203 C 
HETATM   12  C13 UNL     1       5.269   1.086  -1.635  1.00  0.00     0.050 C 
HETATM   13  C14 UNL     1       5.542   2.219  -0.721  1.00  0.00     0.077 C 
HETATM   14  S2  UNL     1       6.058   1.713   0.933  1.00  0.00    -0.162 SA
HETATM   15  C15 UNL     1       6.044  -0.058   1.152  1.00  0.00     0.154 C 
HETATM   16  C16 UNL     1       5.502  -0.798   0.000  1.00  0.00     0.165 C 
HETATM   17  O3  UNL     1       5.784  -2.005  -0.036  1.00  0.00    -0.294 OA
ENDBRANCH  10  11
ENDBRANCH   8  10
ENDBRANCH   7   8
BRANCH   5  18
HETATM   18  N2  UNL     1      -3.105  -0.774  -0.302  1.00  0.00    -0.361 N 
HETATM   19  C4  UNL     1      -3.626  -1.713   0.638  1.00  0.00     0.125 C 
HETATM   20  C5  UNL     1      -4.491  -1.092   1.711  1.00  0.00     0.020 C 
HETATM   21  C6  UNL     1      -5.832  -0.646   1.177  1.00  0.00     0.002 C 
HETATM   22  C7  UNL     1      -5.634   0.555   0.263  1.00  0.00     0.002 C 
HETATM   23  C8  UNL     1      -5.301   0.008  -1.095  1.00  0.00     0.020 C 
HETATM   24  C9  UNL     1      -3.814   0.024  -1.273  1.00  0.00     0.125 C 
ENDBRANCH   5  18
TORSDOF 4
