REMARK  3 active torsions:
REMARK  status: ('A' for Active; 'I' for Inactive)
REMARK    1  A    between atoms: C3_5  and  C4_6 
REMARK       I    between atoms: N2_10  and  C8_11 
REMARK    2  A    between atoms: C8_11  and  C9_13 
REMARK    3  A    between atoms: C11_16  and  C12_17 
ROOT
HETATM    1  C4  UNL     1      -2.840   0.588   0.011  1.00  0.00     0.072 C 
HETATM    2  C5  UNL     1      -2.108  -0.092   1.108  1.00  0.00     0.015 C 
HETATM    3  C6  UNL     1      -1.137  -1.158   0.702  1.00  0.00     0.021 C 
HETATM    4  C7  UNL     1      -0.444  -0.846  -0.609  1.00  0.00     0.126 C 
HETATM    5  N2  UNL     1      -0.646   0.533  -0.882  1.00  0.00    -0.346 N 
HETATM    6  C8  UNL     1       0.244   1.620  -0.843  1.00  0.00     0.270 C 
HETATM    7  O1  UNL     1      -0.201   2.796  -1.155  1.00  0.00    -0.266 OA
HETATM    8  C16 UNL     1      -2.048   0.841  -1.246  1.00  0.00     0.138 C 
ENDROOT
BRANCH   6   9
HETATM    9  C9  UNL     1       1.676   1.534  -0.469  1.00  0.00     0.108 A 
HETATM   10  C10 UNL     1       2.486   2.649  -0.460  1.00  0.00     0.086 A 
HETATM   11  S1  UNL     1       3.991   1.970   0.036  1.00  0.00    -0.086 SA
HETATM   12  C11 UNL     1       3.496   0.349   0.194  1.00  0.00     0.057 A 
HETATM   13  N3  UNL     1       2.239   0.413  -0.133  1.00  0.00    -0.349 N 
ATOM     14  H3  UNL     1       1.680  -0.440  -0.125  1.00  0.00     0.166 HD
BRANCH  12  15
HETATM   15  C12 UNL     1       4.248  -0.872   0.595  1.00  0.00     0.069 C 
HETATM   16  C13 UNL     1       5.460  -1.084  -0.291  1.00  0.00     0.040 C 
HETATM   17  C14 UNL     1       6.517  -0.315   0.463  1.00  0.00     0.168 C 
HETATM   18  O2  UNL     1       6.168  -0.275   1.782  1.00  0.00    -0.390 OA
HETATM   19  C15 UNL     1       4.888  -0.710   1.951  1.00  0.00     0.179 C 
ENDBRANCH  12  15
ENDBRANCH   6   9
BRANCH   1  20
HETATM   20  C3  UNL     1      -4.102  -0.180  -0.355  1.00  0.00     0.093 A 
HETATM   21  N1  UNL     1      -5.288   0.348  -0.222  1.00  0.00    -0.342 N 
HETATM   22  C2  UNL     1      -6.352  -0.362  -0.554  1.00  0.00     0.065 A 
ATOM     23  H1  UNL     1      -5.393   1.298   0.134  1.00  0.00     0.167 HD
HETATM   24  C1  UNL     1      -7.807   0.047  -0.481  1.00  0.00     0.078 C 
HETATM   25  S2  UNL     1      -5.656  -1.827  -1.075  1.00  0.00    -0.000 SA
HETATM   26  N4  UNL     1      -4.043  -1.433  -0.831  1.00  0.00    -0.314 N 
ATOM     27  H4  UNL     1      -3.218  -2.007  -1.003  1.00  0.00     0.175 HD
ENDBRANCH   1  20
TORSDOF 3
