REMARK  4 active torsions:
REMARK  status: ('A' for Active; 'I' for Inactive)
REMARK    1  A    between atoms: C3_4  and  N2_5 
REMARK    2  A    between atoms: C4_8  and  N3_9 
REMARK    3  A    between atoms: N3_9  and  C5_11 
REMARK    4  A    between atoms: C12_18  and  N4_19 
ROOT
HETATM    1  N1  UNL     1       3.753  -2.046  -0.350  1.00  0.00    -0.100 NA
HETATM    2  C1  UNL     1       2.323  -1.908  -0.345  1.00  0.00     0.075 A 
HETATM    3  C2  UNL     1       1.537  -2.970  -0.701  1.00  0.00     0.067 A 
HETATM    4  C3  UNL     1       0.129  -2.922  -0.742  1.00  0.00     0.131 A 
HETATM    5  C4  UNL     1      -0.512  -1.754  -0.407  1.00  0.00     0.064 A 
HETATM    6  C11 UNL     1       0.289  -0.685  -0.050  1.00  0.00     0.063 A 
HETATM    7  C12 UNL     1       1.695  -0.739  -0.011  1.00  0.00     0.057 A 
ENDROOT
BRANCH   5   8
HETATM    8  N3  UNL     1      -1.932  -1.641  -0.348  1.00  0.00    -0.383 N 
ATOM      9  H3  UNL     1      -2.443  -2.517  -0.455  1.00  0.00     0.160 HD
BRANCH   8  10
HETATM   10  C5  UNL     1      -2.734  -0.493  -0.163  1.00  0.00     0.081 C 
HETATM   11  C6  UNL     1      -2.593   0.612  -1.160  1.00  0.00     0.025 C 
HETATM   12  C7  UNL     1      -2.983   1.950  -0.546  1.00  0.00     0.002 C 
HETATM   13  C8  UNL     1      -4.233   1.824   0.292  1.00  0.00     0.000 C 
HETATM   14  C9  UNL     1      -4.181   0.754   1.329  1.00  0.00     0.002 C 
HETATM   15  C10 UNL     1      -2.791   0.082   1.216  1.00  0.00     0.025 C 
ENDBRANCH   8  10
ENDBRANCH   5   8
BRANCH   4  16
HETATM   16  N2  UNL     1      -0.567  -4.093  -1.136  1.00  0.00    -0.113 N 
HETATM   17  O1  UNL     1      -1.586  -4.006  -1.824  1.00  0.00    -0.532 OA
HETATM   18  O2  UNL     1      -0.055  -5.357  -0.788  1.00  0.00    -0.532 OA
ENDBRANCH   4  16
BRANCH   7  19
HETATM   19  N4  UNL     1       2.395   0.415   0.407  1.00  0.00    -0.375 N 
HETATM   20  C13 UNL     1       1.745   1.706   0.188  1.00  0.00     0.149 C 
HETATM   21  C14 UNL     1       2.716   2.805  -0.088  1.00  0.00     0.187 C 
HETATM   22  O3  UNL     1       4.025   2.597   0.143  1.00  0.00    -0.388 OA
HETATM   23  C15 UNL     1       4.523   1.328   0.093  1.00  0.00     0.187 C 
HETATM   24  C16 UNL     1       3.664   0.497   1.055  1.00  0.00     0.149 C 
ENDBRANCH   7  19
TORSDOF 4
