REMARK  8 active torsions:
REMARK  status: ('A' for Active; 'I' for Inactive)
REMARK    1  A    between atoms: N1_1  and  N2_4 
REMARK    2  A    between atoms: N2_4  and  N3_5 
REMARK    3  A    between atoms: N3_5  and  C1_7 
REMARK    4  A    between atoms: C4_10  and  N4_11 
REMARK    5  A    between atoms: C5_14  and  S1_15 
REMARK    6  A    between atoms: S1_15  and  N5_16 
REMARK    7  A    between atoms: S1_15  and  N6_20 
REMARK    8  A    between atoms: N6_20  and  C6_22 
ROOT
HETATM    1  C1  UNL     1       4.492   0.561   0.187  1.00  0.00     0.064 A 
HETATM    2  C2  UNL     1       4.865  -0.586   0.853  1.00  0.00     0.034 A 
HETATM    3  C3  UNL     1       3.966  -1.580   1.111  1.00  0.00     0.040 A 
HETATM    4  C4  UNL     1       2.625  -1.427   0.687  1.00  0.00     0.124 A 
HETATM    5  C5  UNL     1       2.221  -0.309   0.028  1.00  0.00     0.093 A 
HETATM    6  C12 UNL     1       3.202   0.673  -0.203  1.00  0.00     0.058 A 
ENDROOT
BRANCH   5   7
HETATM    7  S1  UNL     1       0.591  -0.024  -0.503  1.00  0.00     0.136 S 
HETATM    8  O3  UNL     1       0.610   1.202  -1.394  1.00  0.00    -0.223 OA
BRANCH   7   9
HETATM    9  N5  UNL     1       0.206  -1.203  -1.444  1.00  0.00    -0.341 N 
ATOM     10  H52 UNL     1       0.808  -1.988  -1.693  1.00  0.00     0.167 HD
ATOM     11  H51 UNL     1      -0.751  -1.036  -1.756  1.00  0.00     0.167 HD
ENDBRANCH   7   9
BRANCH   7  12
HETATM   12  N6  UNL     1      -0.441   0.158   0.820  1.00  0.00    -0.327 N 
ATOM     13  H6  UNL     1      -0.073   0.196   1.771  1.00  0.00     0.171 HD
BRANCH  12  14
HETATM   14  C6  UNL     1      -1.832   0.257   0.574  1.00  0.00     0.091 C 
HETATM   15  C7  UNL     1      -2.414  -0.929  -0.182  1.00  0.00     0.026 C 
HETATM   16  C8  UNL     1      -3.911  -0.894   0.128  1.00  0.00     0.002 C 
HETATM   17  C9  UNL     1      -4.543   0.374  -0.341  1.00  0.00     0.000 C 
HETATM   18  C10 UNL     1      -3.587   1.424  -0.793  1.00  0.00     0.002 C 
HETATM   19  C11 UNL     1      -2.332   1.528   0.010  1.00  0.00     0.026 C 
ENDBRANCH  12  14
ENDBRANCH   7  12
ENDBRANCH   5   7
BRANCH   4  20
HETATM   20  N4  UNL     1       1.775  -2.508   0.950  1.00  0.00    -0.114 N 
HETATM   21  O1  UNL     1       0.600  -2.428   1.222  1.00  0.00    -0.532 OA
HETATM   22  O2  UNL     1       2.315  -3.798   0.923  1.00  0.00    -0.532 OA
ENDBRANCH   4  20
BRANCH   1  23
HETATM   23  N3  UNL     1       5.485   1.563  -0.052  1.00  0.00    -0.217 N 
ATOM     24  H3  UNL     1       6.432   1.479   0.319  1.00  0.00     0.203 HD
BRANCH  23  25
HETATM   25  N2  UNL     1       5.140   2.524  -0.723  1.00  0.00    -0.243 NA
BRANCH  25  26
HETATM   26  N1  UNL     1       4.927   3.584  -1.292  1.00  0.00    -0.260 N 
ATOM     27  H12 UNL     1       5.645   3.996  -0.696  1.00  0.00     0.193 HD
ATOM     28  H11 UNL     1       4.639   4.386  -1.852  1.00  0.00     0.193 HD
ENDBRANCH  25  26
ENDBRANCH  23  25
ENDBRANCH   1  23
TORSDOF 8
