REMARK  4 active torsions:
REMARK  status: ('A' for Active; 'I' for Inactive)
REMARK    1  A    between atoms: C2_2  and  C3_3 
REMARK    2  A    between atoms: C3_3  and  C4_4 
REMARK    3  A    between atoms: C8_12  and  N2_13 
REMARK    4  A    between atoms: N2_13  and  C9_15 
ROOT
HETATM    1  C4  UNL     1       3.116   0.730  -0.947  1.00  0.00     0.115 C 
HETATM    2  S1  UNL     1       3.354  -1.064  -1.021  1.00  0.00    -0.147 SA
HETATM    3  C5  UNL     1       2.754  -1.713   0.584  1.00  0.00     0.135 C 
HETATM    4  C6  UNL     1       1.257  -1.643   0.533  1.00  0.00     0.055 A 
HETATM    5  N1  UNL     1       0.591  -2.780   0.798  1.00  0.00    -0.321 N 
ATOM      6  H1  UNL     1       1.107  -3.631   1.022  1.00  0.00     0.169 HD
HETATM    7  C7  UNL     1      -0.759  -2.799   0.769  1.00  0.00     0.289 A 
HETATM    8  O1  UNL     1      -1.393  -3.861   1.016  1.00  0.00    -0.264 OA
HETATM    9  C8  UNL     1      -1.399  -1.615   0.461  1.00  0.00     0.173 A 
HETATM   10  N3  UNL     1      -0.720  -0.478   0.197  1.00  0.00    -0.331 N 
ATOM     11  H3  UNL     1      -1.234   0.374  -0.026  1.00  0.00     0.168 HD
HETATM   12  C14 UNL     1       0.634  -0.453   0.224  1.00  0.00     0.096 A 
HETATM   13  S2  UNL     1       1.547   1.043  -0.119  1.00  0.00    -0.095 SA
ENDROOT
BRANCH   9  14
HETATM   14  N2  UNL     1      -2.830  -1.637   0.431  1.00  0.00    -0.345 N 
ATOM     15  H2  UNL     1      -3.342  -2.496   0.631  1.00  0.00     0.163 HD
BRANCH  14  16
HETATM   16  C9  UNL     1      -3.538  -0.411   0.110  1.00  0.00     0.222 C 
HETATM   17  C10 UNL     1      -5.028  -0.642   0.130  1.00  0.00     0.054 C 
HETATM   18  C11 UNL     1      -5.671   0.505  -0.630  1.00  0.00     0.006 C 
HETATM   19  C12 UNL     1      -4.850   1.743  -0.340  1.00  0.00     0.026 C 
HETATM   20  C13 UNL     1      -4.135   1.625   1.011  1.00  0.00     0.170 C 
HETATM   21  O2  UNL     1      -3.163   0.631   0.956  1.00  0.00    -0.367 OA
ENDBRANCH  14  16
ENDBRANCH   9  14
BRANCH   1  22
HETATM   22  C3  UNL     1       4.276   1.372  -0.188  1.00  0.00     0.026 C 
BRANCH  22  23
HETATM   23  C2  UNL     1       5.591   1.081  -0.881  1.00  0.00    -0.003 C 
HETATM   24  C1  UNL     1       6.758   1.690  -0.171  1.00  0.00     0.005 C 
ENDBRANCH  22  23
ENDBRANCH   1  22
TORSDOF 4
