REMARK  5 active torsions:
REMARK  status: ('A' for Active; 'I' for Inactive)
REMARK    1  A    between atoms: C1_2  and  C2_3 
REMARK       I    between atoms: C1_2  and  N2_11 
REMARK    2  A    between atoms: C2_3  and  O2_4 
REMARK    3  A    between atoms: O2_4  and  C3_5 
REMARK    4  A    between atoms: N2_11  and  C6_13 
REMARK    5  A    between atoms: C9_17  and  O3_18 
ROOT
HETATM    1  C6  UNL     1       0.091  -0.600  -0.540  1.00  0.00     0.111 A 
HETATM    2  S2  UNL     1       1.349  -1.201  -1.612  1.00  0.00    -0.073 SA
HETATM    3  C7  UNL     1       2.688  -1.001  -0.603  1.00  0.00    -0.006 A 
HETATM    4  C8  UNL     1       2.163  -0.485   0.528  1.00  0.00    -0.009 A 
HETATM    5  C9  UNL     1       0.817  -0.274   0.566  1.00  0.00     0.106 A 
HETATM    6  C10 UNL     1       3.049  -0.159   1.718  1.00  0.00     0.042 C 
HETATM    7  C11 UNL     1       3.799   1.074   1.306  1.00  0.00     0.005 C 
HETATM    8  C12 UNL     1       4.612   0.989   0.090  1.00  0.00     0.001 C 
HETATM    9  C13 UNL     1       5.074  -0.294  -0.436  1.00  0.00     0.005 C 
HETATM   10  C14 UNL     1       4.111  -1.316  -0.896  1.00  0.00     0.047 C 
ENDROOT
BRANCH   1  11
HETATM   11  N2  UNL     1      -1.282  -0.534  -0.882  1.00  0.00    -0.317 N 
HETATM   12  C1  UNL     1      -2.350  -0.079  -0.113  1.00  0.00     0.246 C 
HETATM   13  O1  UNL     1      -2.332   0.371   1.048  1.00  0.00    -0.271 OA
ATOM     14  H2  UNL     1      -1.520  -0.864  -1.817  1.00  0.00     0.169 HD
BRANCH  12  15
HETATM   15  C2  UNL     1      -3.719  -0.133  -0.764  1.00  0.00     0.278 C 
BRANCH  15  16
HETATM   16  O2  UNL     1      -4.655   0.359   0.149  1.00  0.00    -0.340 OA
BRANCH  16  17
HETATM   17  C3  UNL     1      -6.038   0.442  -0.154  1.00  0.00     0.093 A 
HETATM   18  C4  UNL     1      -6.562   0.061  -1.325  1.00  0.00     0.133 A 
HETATM   19  N1  UNL     1      -7.881   0.189  -1.489  1.00  0.00    -0.335 N 
HETATM   20  S1  UNL     1      -8.411   0.833  -0.034  1.00  0.00    -0.024 SA
ATOM     21  H1  UNL     1      -8.438  -0.050  -2.310  1.00  0.00     0.173 HD
HETATM   22  C5  UNL     1      -6.919   0.934   0.781  1.00  0.00     0.106 A 
ENDBRANCH  16  17
ENDBRANCH  15  16
ENDBRANCH  12  15
ENDBRANCH   1  11
BRANCH   5  23
HETATM   23  O3  UNL     1       0.164   0.269   1.712  1.00  0.00    -0.357 OA
ATOM     24  H3  UNL     1       0.670   0.496   2.483  1.00  0.00     0.217 HD
ENDBRANCH   5  23
TORSDOF 5
