REMARK  6 active torsions:
REMARK  status: ('A' for Active; 'I' for Inactive)
REMARK       I    between atoms: C1_2  and  N1_3 
REMARK    1  A    between atoms: C1_2  and  C11_22 
REMARK    2  A    between atoms: N2_5  and  C2_7 
REMARK    3  A    between atoms: C3_8  and  O2_9 
REMARK    4  A    between atoms: N3_12  and  C5_13 
REMARK    5  A    between atoms: C5_13  and  C6_14 
REMARK    6  A    between atoms: C10_19  and  O4_20 
ROOT
HETATM    1  C2  UNL     1      -0.521  -0.083   0.666  1.00  0.00     0.134 A 
HETATM    2  C3  UNL     1      -0.767  -1.389   1.025  1.00  0.00     0.113 A 
HETATM    3  C4  UNL     1      -2.095  -1.521   1.334  1.00  0.00     0.132 A 
HETATM    4  N3  UNL     1      -2.687  -0.303   1.172  1.00  0.00    -0.331 N 
HETATM    5  C10 UNL     1      -1.741   0.562   0.770  1.00  0.00     0.174 A 
ENDROOT
BRANCH   1   6
HETATM    6  N2  UNL     1       0.708   0.525   0.265  1.00  0.00    -0.292 N 
HETATM    7  N1  UNL     1       1.380  -0.035  -0.626  1.00  0.00    -0.269 N 
HETATM    8  C1  UNL     1       2.610   0.454  -1.118  1.00  0.00     0.240 C 
ATOM      9  H1  UNL     1       1.017  -0.901  -1.024  1.00  0.00     0.190 HD
HETATM   10  O1  UNL     1       2.614   1.508  -1.803  1.00  0.00    -0.271 OA
ATOM     11  H2  UNL     1       1.028   1.393   0.695  1.00  0.00     0.187 HD
BRANCH   8  12
HETATM   12  C11 UNL     1       3.850  -0.301  -0.802  1.00  0.00     0.079 C 
HETATM   13  C12 UNL     1       5.058   0.365  -1.405  1.00  0.00     0.014 C 
HETATM   14  C13 UNL     1       6.290  -0.048  -0.631  1.00  0.00     0.001 C 
HETATM   15  C14 UNL     1       6.202   0.629   0.726  1.00  0.00     0.000 C 
HETATM   16  C15 UNL     1       4.857   0.465   1.367  1.00  0.00     0.001 C 
HETATM   17  C16 UNL     1       3.993  -0.557   0.675  1.00  0.00     0.014 C 
ENDBRANCH   8  12
ENDBRANCH   1   6
BRANCH   2  18
HETATM   18  O2  UNL     1       0.247  -2.363   1.041  1.00  0.00    -0.357 OA
ATOM     19  H2  UNL     1       0.077  -3.264   1.289  1.00  0.00     0.218 HD
ENDBRANCH   2  18
BRANCH   5  20
HETATM   20  O4  UNL     1      -1.951   1.905   0.499  1.00  0.00    -0.344 OA
ATOM     21  H4  UNL     1      -2.788   2.348   0.570  1.00  0.00     0.219 HD
ENDBRANCH   5  20
BRANCH   4  22
HETATM   22  C5  UNL     1      -4.098  -0.116   1.421  1.00  0.00     0.162 C 
BRANCH  22  23
HETATM   23  C6  UNL     1      -4.933  -0.371   0.200  1.00  0.00     0.139 C 
HETATM   24  C7  UNL     1      -4.586   0.545  -0.936  1.00  0.00     0.035 C 
HETATM   25  C8  UNL     1      -5.842   0.350  -1.805  1.00  0.00     0.029 C 
HETATM   26  C9  UNL     1      -6.892   0.171  -0.734  1.00  0.00     0.168 C 
HETATM   27  O3  UNL     1      -6.281  -0.283   0.415  1.00  0.00    -0.384 OA
ENDBRANCH  22  23
ENDBRANCH   4  22
TORSDOF 6
