REMARK  4 active torsions:
REMARK  status: ('A' for Active; 'I' for Inactive)
REMARK    1  A    between atoms: N1_4  and  C4_5 
REMARK    2  A    between atoms: C4_5  and  C5_6 
REMARK    3  A    between atoms: C5_6  and  C6_7 
REMARK    4  A    between atoms: C6_7  and  N2_8 
ROOT
HETATM    1  C5  UNL     1      -0.234  -0.619   0.086  1.00  0.00     0.042 C 
ENDROOT
BRANCH   1   2
HETATM    2  C4  UNL     1       0.955  -1.491  -0.158  1.00  0.00     0.129 C 
BRANCH   2   3
HETATM    3  N1  UNL     1       2.121  -0.602  -0.241  1.00  0.00    -0.366 N 
HETATM    4  C3  UNL     1       2.825  -0.295   0.866  1.00  0.00     0.090 A 
HETATM    5  C2  UNL     1       3.931   0.536   0.872  1.00  0.00     0.017 A 
HETATM    6  C1  UNL     1       4.324   1.076  -0.339  1.00  0.00     0.003 A 
HETATM    7  C10 UNL     1       3.621   0.776  -1.479  1.00  0.00     0.017 A 
HETATM    8  C9  UNL     1       2.533  -0.057  -1.407  1.00  0.00     0.090 A 
ENDBRANCH   2   3
ENDBRANCH   1   2
BRANCH   1   9
HETATM    9  C6  UNL     1      -1.499  -1.469   0.183  1.00  0.00     0.145 C 
BRANCH   9  10
HETATM   10  N2  UNL     1      -2.589  -0.541   0.400  1.00  0.00    -0.312 N 
HETATM   11  C7  UNL     1      -3.086   0.412  -0.600  1.00  0.00     0.165 C 
HETATM   12  C8  UNL     1      -3.638   1.481   0.310  1.00  0.00     0.162 C 
HETATM   13  N3  UNL     1      -3.965   0.769   1.521  1.00  0.00    -0.321 N 
HETATM   14  N4  UNL     1      -3.376  -0.323   1.530  1.00  0.00    -0.249 N 
ATOM     15  H3  UNL     1      -4.584   1.110   2.256  1.00  0.00     0.181 HD
ATOM     16  H4  UNL     1      -3.460  -0.997   2.291  1.00  0.00     0.207 HD
ENDBRANCH   9  10
ENDBRANCH   1   9
TORSDOF 4
