REMARK  4 active torsions:
REMARK  status: ('A' for Active; 'I' for Inactive)
REMARK    1  A    between atoms: C2_2  and  N1_3 
REMARK    2  A    between atoms: C6_8  and  O1_9 
REMARK    3  A    between atoms: C6_8  and  C7_11 
REMARK    4  A    between atoms: C7_11  and  C8_12 
ROOT
HETATM    1  N1  UNL     1      -1.012   0.295   0.312  1.00  0.00    -0.017 N 
HETATM    2  C3  UNL     1      -1.747  -0.958   0.521  1.00  0.00     0.275 C 
HETATM    3  C4  UNL     1      -1.775  -1.655  -0.840  1.00  0.00     0.303 C 
HETATM    4  N2  UNL     1      -0.685  -0.921  -1.514  1.00  0.00     0.119 N 
HETATM    5  C5  UNL     1       0.534  -1.452  -1.008  1.00  0.00     0.314 C 
HETATM    6  C6  UNL     1       1.224  -0.663   0.049  1.00  0.00     0.115 C 
HETATM    7  C9  UNL     1       0.295   0.157   0.872  1.00  0.00     0.285 C 
HETATM    8  C10 UNL     1      -1.018   0.410  -1.118  1.00  0.00     0.513 C 
ENDROOT
BRANCH   6   9
HETATM    9  O1  UNL     1       1.887  -1.543   0.940  1.00  0.00    -0.386 OA
ATOM     10  H1  UNL     1       2.327  -1.039   1.615  1.00  0.00     0.210 HD
ENDBRANCH   6   9
BRANCH   6  11
HETATM   11  C7  UNL     1       2.341   0.148  -0.572  1.00  0.00     0.110 C 
BRANCH  11  12
HETATM   12  C8  UNL     1       3.071   0.958   0.416  1.00  0.00     0.234 C 
HETATM   13  O2  UNL     1       3.992   1.657   0.048  1.00  0.00    -0.307 OA
ENDBRANCH  11  12
ENDBRANCH   6  11
BRANCH   1  14
HETATM   14  C2  UNL     1      -1.721   1.378   0.869  1.00  0.00     0.194 C 
HETATM   15  C1  UNL     1      -1.470   2.615   0.439  1.00  0.00     0.038 C 
ENDBRANCH   1  14
TORSDOF 4
