REMARK  4 active torsions:
REMARK  status: ('A' for Active; 'I' for Inactive)
REMARK    1  A    between atoms: C4_4  and  C5_5 
REMARK    2  A    between atoms: C5_5  and  N1_6 
REMARK    3  A    between atoms: C8_9  and  N2_10 
REMARK    4  A    between atoms: N2_10  and  C9_12 
ROOT
HETATM    1  C1  UNL     1       6.189   1.015   0.599  1.00  0.00     0.027 C 
HETATM    2  C2  UNL     1       5.135   0.428   0.514  1.00  0.00    -0.026 C 
HETATM    3  C3  UNL     1       3.903  -0.248   0.396  1.00  0.00    -0.010 C 
HETATM    4  C4  UNL     1       2.855  -0.826   0.285  1.00  0.00    -0.047 C 
ENDROOT
BRANCH   4   5
HETATM    5  C5  UNL     1       1.601  -1.524   0.138  1.00  0.00     0.156 C 
BRANCH   5   6
HETATM    6  N1  UNL     1       0.600  -0.821  -0.566  1.00  0.00    -0.363 N 
HETATM    7  C6  UNL     1      -0.604  -1.550  -0.680  1.00  0.00     0.130 C 
HETATM    8  C7  UNL     1      -1.666  -1.065   0.294  1.00  0.00     0.045 C 
HETATM    9  C8  UNL     1      -1.914   0.386  -0.139  1.00  0.00     0.090 C 
HETATM   10  C10 UNL     1      -0.662   1.126   0.266  1.00  0.00     0.069 C 
HETATM   11  C11 UNL     1       0.530   0.565  -0.419  1.00  0.00     0.066 C 
BRANCH   9  12
HETATM   12  N2  UNL     1      -3.102   0.922   0.407  1.00  0.00    -0.363 N 
ATOM     13  H2  UNL     1      -3.217   0.966   1.420  1.00  0.00     0.162 HD
BRANCH  12  14
HETATM   14  C9  UNL     1      -4.130   1.397  -0.433  1.00  0.00     0.348 C 
HETATM   15  O1  UNL     1      -3.980   1.341  -1.676  1.00  0.00    -0.284 OA
ENDBRANCH  12  14
ENDBRANCH   9  12
ENDBRANCH   5   6
ENDBRANCH   4   5
TORSDOF 4
