REMARK  4 active torsions:
REMARK  status: ('A' for Active; 'I' for Inactive)
REMARK    1  A    between atoms: N1_3  and  C3_4 
REMARK    2  A    between atoms: C3_4  and  C4_5 
REMARK    3  A    between atoms: C4_5  and  C5_6 
REMARK    4  A    between atoms: C5_6  and  N2_7 
ROOT
HETATM    1  C4  UNL     1       0.369  -1.292  -0.638  1.00  0.00     0.042 C 
ENDROOT
BRANCH   1   2
HETATM    2  C3  UNL     1      -0.432  -1.241   0.596  1.00  0.00     0.129 C 
BRANCH   2   3
HETATM    3  N1  UNL     1      -1.658  -0.499   0.553  1.00  0.00    -0.364 N 
HETATM    4  C2  UNL     1      -2.788  -1.158   0.146  1.00  0.00     0.107 A 
HETATM    5  C1  UNL     1      -4.018  -0.541   0.086  1.00  0.00     0.104 A 
HETATM    6  N5  UNL     1      -4.144   0.748   0.434  1.00  0.00    -0.373 N 
HETATM    7  C9  UNL     1      -3.068   1.414   0.833  1.00  0.00     0.104 A 
ATOM      8  H5  UNL     1      -5.053   1.209   0.393  1.00  0.00     0.164 HD
HETATM    9  C8  UNL     1      -1.833   0.770   0.886  1.00  0.00     0.107 A 
ENDBRANCH   2   3
ENDBRANCH   1   2
BRANCH   1  10
HETATM   10  C5  UNL     1       0.965  -0.072  -1.202  1.00  0.00     0.151 C 
BRANCH  10  11
HETATM   11  N2  UNL     1       1.969   0.536  -0.370  1.00  0.00    -0.287 N 
HETATM   12  C6  UNL     1       3.304   0.229  -0.413  1.00  0.00     0.201 A 
HETATM   13  N3  UNL     1       3.973   0.974   0.467  1.00  0.00    -0.346 N 
HETATM   14  C7  UNL     1       3.039   1.758   1.068  1.00  0.00     0.198 A 
ATOM     15  H3  UNL     1       4.976   0.959   0.651  1.00  0.00     0.167 HD
HETATM   16  N4  UNL     1       1.861   1.456   0.531  1.00  0.00    -0.293 N 
ATOM     17  H4  UNL     1       0.980   1.896   0.797  1.00  0.00     0.188 HD
ENDBRANCH  10  11
ENDBRANCH   1  10
TORSDOF 4
