REMARK  4 active torsions:
REMARK  status: ('A' for Active; 'I' for Inactive)
REMARK    1  A    between atoms: N2_5  and  C4_6 
REMARK    2  A    between atoms: C4_6  and  C5_7 
REMARK    3  A    between atoms: C5_7  and  C6_8 
REMARK    4  A    between atoms: C6_8  and  N3_9 
ROOT
HETATM    1  C5  UNL     1       0.827  -0.789  -0.551  1.00  0.00     0.011 C 
ENDROOT
BRANCH   1   2
HETATM    2  C4  UNL     1      -0.367  -1.547  -0.181  1.00  0.00     0.157 C 
BRANCH   2   3
HETATM    3  N2  UNL     1      -1.524  -0.731   0.053  1.00  0.00    -0.348 N 
HETATM    4  C3  UNL     1      -2.403  -0.390  -0.903  1.00  0.00     0.109 A 
HETATM    5  C2  UNL     1      -3.376   0.385  -0.351  1.00  0.00     0.108 A 
HETATM    6  N1  UNL     1      -3.076   0.508   0.940  1.00  0.00    -0.356 N 
HETATM    7  C1  UNL     1      -3.896   1.277   1.872  1.00  0.00     0.156 C 
HETATM    8  C9  UNL     1      -1.957  -0.165   1.189  1.00  0.00     0.184 A 
ENDBRANCH   2   3
ENDBRANCH   1   2
BRANCH   1   9
HETATM    9  C6  UNL     1       1.902  -0.868   0.211  1.00  0.00     0.096 C 
BRANCH   9  10
HETATM   10  N3  UNL     1       3.102  -0.137  -0.116  1.00  0.00    -0.312 N 
HETATM   11  C7  UNL     1       4.255  -0.130   0.568  1.00  0.00     0.205 A 
HETATM   12  N4  UNL     1       5.101   0.666  -0.065  1.00  0.00    -0.295 N 
HETATM   13  N5  UNL     1       4.521   1.172  -1.142  1.00  0.00    -0.295 N 
ATOM     14  H4  UNL     1       6.057   0.861   0.232  1.00  0.00     0.187 HD
HETATM   15  C8  UNL     1       3.283   0.673  -1.171  1.00  0.00     0.205 A 
ATOM     16  H5  UNL     1       4.937   1.815  -1.816  1.00  0.00     0.187 HD
ENDBRANCH   9  10
ENDBRANCH   1   9
TORSDOF 4
