REMARK  7 active torsions:
REMARK  status: ('A' for Active; 'I' for Inactive)
REMARK    1  A    between atoms: C2_2  and  C3_3 
REMARK       I    between atoms: C3_3  and  N1_5 
REMARK    2  A    between atoms: N1_5  and  C4_7 
REMARK    3  A    between atoms: C4_7  and  C5_8 
REMARK    4  A    between atoms: C5_8  and  C6_9 
REMARK    5  A    between atoms: C7_10  and  C8_11 
REMARK    6  A    between atoms: C8_11  and  C9_12 
REMARK    7  A    between atoms: C9_12  and  C10_14 
ROOT
HETATM    1  C10 UNL     1       5.197   0.270  -0.216  1.00  0.00     0.202 C 
HETATM    2  C11 UNL     1       5.601   1.075   0.930  1.00  0.00     0.066 C 
HETATM    3  N2  UNL     1       5.914   1.719   1.836  1.00  0.00    -0.197 NA
ENDROOT
BRANCH   1   4
HETATM    4  C9  UNL     1       3.728   0.065  -0.269  1.00  0.00     0.150 C 
HETATM    5  O2  UNL     1       3.007   0.543   0.579  1.00  0.00    -0.296 OA
BRANCH   4   6
HETATM    6  C8  UNL     1       3.153  -0.723  -1.360  1.00  0.00     0.173 C 
BRANCH   6   7
HETATM    7  C7  UNL     1       1.703  -0.777  -1.189  1.00  0.00    -0.099 C 
HETATM    8  C6  UNL     1       0.507  -0.812  -1.057  1.00  0.00    -0.105 C 
BRANCH   8   9
HETATM    9  C5  UNL     1      -0.954  -0.844  -0.911  1.00  0.00     0.113 C 
BRANCH   9  10
HETATM   10  C4  UNL     1      -1.336   0.187   0.101  1.00  0.00     0.135 C 
BRANCH  10  11
HETATM   11  N1  UNL     1      -2.771   0.189   0.277  1.00  0.00    -0.357 N 
HETATM   12  C3  UNL     1      -3.422   1.079   1.190  1.00  0.00     0.240 C 
HETATM   13  O1  UNL     1      -2.682   1.865   1.837  1.00  0.00    -0.269 OA
ATOM     14  H1  UNL     1      -3.337  -0.463  -0.266  1.00  0.00     0.162 HD
BRANCH  12  15
HETATM   15  C2  UNL     1      -4.861   1.084   1.369  1.00  0.00     0.064 C 
HETATM   16  C1  UNL     1      -5.675   0.281   0.715  1.00  0.00     0.017 C 
ENDBRANCH  12  15
ENDBRANCH  10  11
ENDBRANCH   9  10
ENDBRANCH   8   9
ENDBRANCH   6   7
ENDBRANCH   4   6
ENDBRANCH   1   4
TORSDOF 7
