REMARK  6 active torsions:
REMARK  status: ('A' for Active; 'I' for Inactive)
REMARK    1  A    between atoms: C1_2  and  C2_3 
REMARK    2  A    between atoms: C2_3  and  C3_4 
REMARK    3  A    between atoms: C3_4  and  C4_6 
REMARK    4  A    between atoms: C4_6  and  C5_7 
REMARK    5  A    between atoms: C5_7  and  S1_8 
REMARK    6  A    between atoms: C8_11  and  O3_12 
ROOT
HETATM    1  S1  UNL     1      -1.251   0.640  -0.741  1.00  0.00    -0.217 SA
HETATM    2  C6  UNL     1      -1.885  -1.004  -1.019  1.00  0.00     0.066 C 
HETATM    3  C7  UNL     1      -3.257  -0.817  -0.380  1.00  0.00     0.042 C 
HETATM    4  C8  UNL     1      -2.894  -0.299   1.004  1.00  0.00     0.127 C 
HETATM    5  C9  UNL     1      -2.166   1.019   0.761  1.00  0.00     0.095 C 
ENDROOT
BRANCH   1   6
HETATM    6  C5  UNL     1       0.465   0.600  -0.300  1.00  0.00     0.071 C 
BRANCH   6   7
HETATM    7  C4  UNL     1       1.286  -0.030  -1.387  1.00  0.00     0.088 C 
BRANCH   7   8
HETATM    8  C3  UNL     1       2.718  -0.024  -0.936  1.00  0.00     0.134 C 
HETATM    9  O2  UNL     1       3.557  -0.495  -1.678  1.00  0.00    -0.298 OA
BRANCH   8  10
HETATM   10  C2  UNL     1       3.102   0.530   0.360  1.00  0.00     0.147 C 
BRANCH  10  11
HETATM   11  C1  UNL     1       4.556   0.432   0.598  1.00  0.00     0.238 C 
HETATM   12  O1  UNL     1       5.307  -0.056  -0.209  1.00  0.00    -0.306 OA
ENDBRANCH  10  11
ENDBRANCH   8  10
ENDBRANCH   7   8
ENDBRANCH   6   7
ENDBRANCH   1   6
BRANCH   4  13
HETATM   13  O3  UNL     1      -2.074  -1.220   1.616  1.00  0.00    -0.395 OA
ATOM     14  H3  UNL     1      -1.847  -0.897   2.480  1.00  0.00     0.210 HD
ENDBRANCH   4  13
TORSDOF 6
