REMARK  5 active torsions:
REMARK  status: ('A' for Active; 'I' for Inactive)
REMARK    1  A    between atoms: C1_2  and  S1_3 
REMARK    2  A    between atoms: S1_3  and  C2_5 
REMARK    3  A    between atoms: C2_5  and  O3_6 
REMARK    4  A    between atoms: O3_6  and  C3_7 
REMARK    5  A    between atoms: C3_7  and  C4_9 
ROOT
HETATM    1  C3  UNL     1       0.161  -0.796   0.756  1.00  0.00     0.263 C 
HETATM    2  O4  UNL     1      -0.086  -1.289   1.888  1.00  0.00    -0.265 OA
ENDROOT
BRANCH   1   3
HETATM    3  O3  UNL     1       1.461  -0.508   0.458  1.00  0.00    -0.308 OA
BRANCH   3   4
HETATM    4  C2  UNL     1       2.559  -0.722   1.329  1.00  0.00     0.295 C 
BRANCH   4   5
HETATM    5  S1  UNL     1       4.001  -0.173   0.435  1.00  0.00     0.102 S 
HETATM    6  O2  UNL     1       4.393  -1.186  -0.810  1.00  0.00    -0.248 OA
BRANCH   5   7
HETATM    7  C1  UNL     1       3.912   1.496  -0.001  1.00  0.00     0.338 C 
HETATM    8  O1  UNL     1       4.906   2.114  -0.293  1.00  0.00    -0.292 OA
ENDBRANCH   5   7
ENDBRANCH   4   5
ENDBRANCH   3   4
ENDBRANCH   1   3
BRANCH   1   9
HETATM    9  C4  UNL     1      -0.898  -0.530  -0.230  1.00  0.00     0.085 C 
HETATM   10  C5  UNL     1      -2.275  -0.913   0.276  1.00  0.00     0.014 C 
HETATM   11  C6  UNL     1      -3.111  -0.365  -0.886  1.00  0.00     0.001 C 
HETATM   12  C7  UNL     1      -2.410   0.923  -1.268  1.00  0.00     0.001 C 
HETATM   13  C8  UNL     1      -1.104   0.943  -0.500  1.00  0.00     0.014 C 
ENDBRANCH   1   9
TORSDOF 5
