REMARK  8 active torsions:
REMARK  status: ('A' for Active; 'I' for Inactive)
REMARK    1  A    between atoms: C1_2  and  C2_4 
REMARK    2  A    between atoms: C2_4  and  C3_5 
REMARK    3  A    between atoms: C3_5  and  C4_6 
REMARK    4  A    between atoms: C4_6  and  C5_7 
REMARK    5  A    between atoms: C5_7  and  C6_8 
REMARK    6  A    between atoms: C6_8  and  C7_9 
REMARK    7  A    between atoms: C8_10  and  N1_11 
REMARK    8  A    between atoms: N1_11  and  C9_13 
ROOT
HETATM    1  C6  UNL     1      -0.606   0.961   1.661  1.00  0.00     0.096 C 
ENDROOT
BRANCH   1   2
HETATM    2  C5  UNL     1      -1.255  -0.297   2.081  1.00  0.00     0.012 C 
BRANCH   2   3
HETATM    3  C4  UNL     1      -1.919  -1.160   1.096  1.00  0.00     0.001 C 
BRANCH   3   4
HETATM    4  C3  UNL     1      -3.048  -0.683   0.290  1.00  0.00     0.010 C 
BRANCH   4   5
HETATM    5  C2  UNL     1      -2.856   0.439  -0.656  1.00  0.00     0.113 C 
BRANCH   5   6
HETATM    6  C1  UNL     1      -4.178   0.691  -1.361  1.00  0.00     0.172 C 
HETATM    7  O1  UNL     1      -4.923   1.641  -1.016  1.00  0.00    -0.648 OA
HETATM    8  O2  UNL     1      -4.524  -0.153  -2.377  1.00  0.00    -0.648 OA
ENDBRANCH   5   6
ENDBRANCH   4   5
ENDBRANCH   3   4
ENDBRANCH   2   3
ENDBRANCH   1   2
BRANCH   1   9
HETATM    9  C7  UNL     1       0.437   0.750   0.638  1.00  0.00    -0.084 C 
HETATM   10  C8  UNL     1       1.304   0.589  -0.184  1.00  0.00     0.006 C 
BRANCH  10  11
HETATM   11  N1  UNL     1       2.346   0.412  -1.138  1.00  0.00    -0.346 N 
ATOM     12  H1  UNL     1       2.285   0.829  -2.067  1.00  0.00     0.170 HD
BRANCH  11  13
HETATM   13  C9  UNL     1       3.490  -0.375  -0.751  1.00  0.00     0.090 A 
HETATM   14  C10 UNL     1       4.649  -0.518  -1.710  1.00  0.00     0.028 A 
HETATM   15  C11 UNL     1       4.807   0.271  -0.462  1.00  0.00     0.028 A 
ENDBRANCH  11  13
ENDBRANCH  10  11
ENDBRANCH   1   9
TORSDOF 8
