REMARK  5 active torsions:
REMARK  status: ('A' for Active; 'I' for Inactive)
REMARK    1  A    between atoms: C3_3  and  N1_4 
REMARK       I    between atoms: N1_4  and  C5_7 
REMARK    2  A    between atoms: C5_7  and  C6_9 
REMARK    3  A    between atoms: C6_9  and  N3_10 
REMARK    4  A    between atoms: N3_10  and  C7_13 
REMARK    5  A    between atoms: C7_13  and  C8_14 
ROOT
HETATM    1  C1  UNL     1      -4.257   1.196  -0.882  1.00  0.00     0.014 C 
HETATM    2  C2  UNL     1      -3.770   0.101  -0.780  1.00  0.00    -0.096 C 
HETATM    3  C3  UNL     1      -3.178  -1.239  -0.662  1.00  0.00     0.236 C 
ENDROOT
BRANCH   3   4
HETATM    4  N1  UNL     1      -2.701  -1.440   0.682  1.00  0.00    -0.242 N 
HETATM    5  C4  UNL     1      -3.557  -1.986   1.638  1.00  0.00     0.187 C 
HETATM    6  N2  UNL     1      -4.266  -2.462   2.444  1.00  0.00    -0.172 NA
HETATM    7  C5  UNL     1      -1.381  -1.096   1.057  1.00  0.00     0.259 C 
HETATM    8  O1  UNL     1      -0.964  -1.270   2.229  1.00  0.00    -0.270 OA
BRANCH   7   9
HETATM    9  C6  UNL     1      -0.474  -0.519   0.049  1.00  0.00     0.335 C 
BRANCH   9  10
HETATM   10  N3  UNL     1       0.811  -0.241   0.628  1.00  0.00    -0.067 N 
ATOM     11  H32 UNL     1       0.716   0.354   1.451  1.00  0.00     0.277 HD
ATOM     12  H31 UNL     1       1.199  -1.076   1.067  1.00  0.00     0.277 HD
BRANCH  10  13
HETATM   13  C7  UNL     1       1.744   0.324  -0.304  1.00  0.00     0.237 C 
BRANCH  13  14
HETATM   14  C8  UNL     1       3.043   0.572   0.406  1.00  0.00     0.011 A 
HETATM   15  C9  UNL     1       4.215   1.152  -0.283  1.00  0.00     0.007 A 
HETATM   16  C10 UNL     1       3.413   2.019   0.591  1.00  0.00     0.007 A 
ENDBRANCH  13  14
ENDBRANCH  10  13
ENDBRANCH   9  10
ENDBRANCH   7   9
ENDBRANCH   3   4
TORSDOF 5
