REMARK  7 active torsions:
REMARK  status: ('A' for Active; 'I' for Inactive)
REMARK    1  A    between atoms: N1_1  and  C1_4 
REMARK    2  A    between atoms: C4_11  and  N4_12 
REMARK    3  A    between atoms: N4_12  and  C5_14 
REMARK    4  A    between atoms: C5_14  and  C6_15 
REMARK    5  A    between atoms: C6_15  and  N5_16 
REMARK    6  A    between atoms: C9_19  and  C10_20 
REMARK    7  A    between atoms: C13_27  and  N8_28 
ROOT
HETATM    1  C1  UNL     1       3.447   3.035  -1.727  1.00  0.00     0.679 A 
HETATM    2  N2  UNL     1       2.125   3.076  -1.506  1.00  0.00    -0.174 N 
ATOM      3  H2  UNL     1       1.580   3.863  -1.858  1.00  0.00     0.186 HD
HETATM    4  C2  UNL     1       1.510   2.095  -0.827  1.00  0.00     0.151 A 
HETATM    5  N3  UNL     1       0.182   2.130  -0.616  1.00  0.00    -0.346 N 
ATOM      6  H3  UNL     1      -0.361   2.918  -0.969  1.00  0.00     0.167 HD
HETATM    7  C3  UNL     1      -0.448   1.136   0.057  1.00  0.00     0.138 A 
HETATM    8  C4  UNL     1       0.279   0.072   0.533  1.00  0.00     0.117 A 
HETATM    9  N7  UNL     1       1.626   0.047   0.314  1.00  0.00    -0.336 N 
ATOM     10  H7  UNL     1       2.162  -0.745   0.669  1.00  0.00     0.168 HD
HETATM   11  C12 UNL     1       2.278   1.017  -0.347  1.00  0.00     0.124 A 
HETATM   12  C13 UNL     1       3.634   0.996  -0.584  1.00  0.00     0.150 A 
HETATM   13  N9  UNL     1       4.195   2.040  -1.291  1.00  0.00    -0.175 N 
ATOM     14  H9  UNL     1       5.198   2.042  -1.478  1.00  0.00     0.186 HD
ENDROOT
BRANCH   8  15
HETATM   15  N4  UNL     1      -0.309  -0.876   1.172  1.00  0.00    -0.373 N 
ATOM     16  H4  UNL     1       0.259  -1.652   1.513  1.00  0.00     0.161 HD
BRANCH  15  17
HETATM   17  C5  UNL     1      -1.730  -0.903   1.433  1.00  0.00     0.151 C 
BRANCH  17  18
HETATM   18  C6  UNL     1      -2.404  -1.427   0.176  1.00  0.00     0.292 C 
BRANCH  18  19
HETATM   19  N5  UNL     1      -3.832  -1.497   0.324  1.00  0.00     0.090 N 
HETATM   20  C7  UNL     1      -4.369  -2.017  -0.939  1.00  0.00     0.273 C 
HETATM   21  C8  UNL     1      -5.865  -1.886  -0.665  1.00  0.00     0.045 C 
HETATM   22  C9  UNL     1      -5.933  -0.605   0.123  1.00  0.00     0.105 C 
HETATM   23  C11 UNL     1      -4.474  -0.206   0.375  1.00  0.00     0.286 C 
BRANCH  22  24
HETATM   24  C10 UNL     1      -6.654   0.410  -0.664  1.00  0.00     0.237 C 
HETATM   25  N6  UNL     1      -6.884   1.739  -0.177  1.00  0.00    -0.062 NA
HETATM   26  O1  UNL     1      -7.088   0.125  -1.797  1.00  0.00    -0.276 OA
ENDBRANCH  22  24
ENDBRANCH  18  19
ENDBRANCH  17  18
ENDBRANCH  15  17
ENDBRANCH   8  15
BRANCH  12  27
HETATM   27  N8  UNL     1       4.468  -0.013  -0.083  1.00  0.00    -0.365 N 
HETATM   28  C14 UNL     1       4.522  -0.852   1.081  1.00  0.00     0.124 C 
HETATM   29  C15 UNL     1       6.001  -1.028   1.393  1.00  0.00     0.021 C 
HETATM   30  C16 UNL     1       6.695  -0.345   0.237  1.00  0.00     0.021 C 
HETATM   31  C17 UNL     1       5.662  -0.458  -0.860  1.00  0.00     0.124 C 
ENDBRANCH  12  27
BRANCH   1  32
HETATM   32  N1  UNL     1       3.988   4.006  -2.387  1.00  0.00    -0.234 N 
ATOM     33  H12 UNL     1       3.410   4.775  -2.724  1.00  0.00     0.174 HD
ATOM     34  H11 UNL     1       4.994   3.975  -2.555  1.00  0.00     0.174 HD
ENDBRANCH   1  32
TORSDOF 7
