REMARK  7 active torsions:
REMARK  status: ('A' for Active; 'I' for Inactive)
REMARK    1  A    between atoms: N1_1  and  C1_4 
REMARK    2  A    between atoms: C2_7  and  N3_8 
REMARK    3  A    between atoms: C7_16  and  N5_17 
REMARK    4  A    between atoms: N5_17  and  C8_19 
REMARK    5  A    between atoms: C8_19  and  C9_20 
REMARK    6  A    between atoms: C9_20  and  C10_21 
REMARK    7  A    between atoms: C10_21  and  N6_22 
ROOT
HETATM    1  C1  UNL     1       0.940   2.426  -0.348  1.00  0.00     0.705 A 
HETATM    2  N2  UNL     1       2.212   2.081  -0.034  1.00  0.00    -0.022 N 
ATOM      3  H2  UNL     1       2.816   2.715   0.489  1.00  0.00     0.203 HD
HETATM    4  C2  UNL     1       2.655   0.867  -0.438  1.00  0.00     0.709 A 
HETATM    5  N4  UNL     1       1.840   0.042  -1.130  1.00  0.00    -0.021 N 
ATOM      6  H4  UNL     1       2.195  -0.868  -1.424  1.00  0.00     0.203 HD
HETATM    7  C7  UNL     1       0.577   0.378  -1.445  1.00  0.00     0.707 A 
HETATM    8  N8  UNL     1       0.141   1.585  -1.042  1.00  0.00    -0.022 N 
ATOM      9  H8  UNL     1      -0.812   1.872  -1.265  1.00  0.00     0.203 HD
ENDROOT
BRANCH   7  10
HETATM   10  N5  UNL     1      -0.184  -0.421  -2.102  1.00  0.00    -0.225 N 
ATOM     11  H5  UNL     1       0.201  -1.324  -2.378  1.00  0.00     0.177 HD
BRANCH  10  12
HETATM   12  C8  UNL     1      -1.539  -0.130  -2.474  1.00  0.00     0.139 C 
BRANCH  12  13
HETATM   13  C9  UNL     1      -2.218  -1.424  -2.836  1.00  0.00     0.042 C 
BRANCH  13  14
HETATM   14  C10 UNL     1      -2.250  -2.374  -1.694  1.00  0.00     0.154 C 
BRANCH  14  15
HETATM   15  N6  UNL     1      -2.995  -1.811  -0.588  1.00  0.00    -0.256 N 
HETATM   16  N7  UNL     1      -2.510  -1.114   0.423  1.00  0.00    -0.295 N 
HETATM   17  C11 UNL     1      -3.513  -0.781   1.248  1.00  0.00     0.064 A 
ATOM     18  H7  UNL     1      -1.529  -0.868   0.555  1.00  0.00     0.187 HD
HETATM   19  C12 UNL     1      -3.564  -0.079   2.416  1.00  0.00     0.032 A 
HETATM   20  C16 UNL     1      -4.703  -1.281   0.758  1.00  0.00     0.061 A 
HETATM   21  C13 UNL     1      -4.757   0.130   3.092  1.00  0.00     0.002 A 
HETATM   22  C14 UNL     1      -5.938  -0.379   2.583  1.00  0.00     0.001 A 
HETATM   23  C15 UNL     1      -5.902  -1.088   1.408  1.00  0.00     0.019 A 
HETATM   24  C17 UNL     1      -4.348  -1.930  -0.407  1.00  0.00     0.274 A 
HETATM   25  O2  UNL     1      -5.081  -2.536  -1.201  1.00  0.00    -0.266 OA
ENDBRANCH  14  15
ENDBRANCH  13  14
ENDBRANCH  12  13
ENDBRANCH  10  12
ENDBRANCH   7  10
BRANCH   4  26
HETATM   26  N3  UNL     1       3.975   0.451  -0.137  1.00  0.00    -0.213 N 
HETATM   27  C3  UNL     1       5.028   0.784  -1.072  1.00  0.00     0.167 C 
HETATM   28  C4  UNL     1       6.081   1.531  -0.243  1.00  0.00     0.188 C 
HETATM   29  O1  UNL     1       6.492   0.780   0.849  1.00  0.00    -0.388 OA
HETATM   30  C5  UNL     1       5.472   0.469   1.720  1.00  0.00     0.188 C 
HETATM   31  C6  UNL     1       4.337  -0.289   1.051  1.00  0.00     0.167 C 
ENDBRANCH   4  26
BRANCH   1  32
HETATM   32  N1  UNL     1       0.454   3.577   0.009  1.00  0.00    -0.234 N 
ATOM     33  H12 UNL     1       1.057   4.212   0.533  1.00  0.00     0.174 HD
ATOM     34  H11 UNL     1      -0.504   3.837  -0.227  1.00  0.00     0.174 HD
ENDBRANCH   1  32
TORSDOF 7
