REMARK  5 active torsions:
REMARK  status: ('A' for Active; 'I' for Inactive)
REMARK       I    between atoms: C1_2  and  N1_3 
REMARK    1  A    between atoms: C1_2  and  C7_17 
REMARK    2  A    between atoms: N1_3  and  N2_5 
REMARK       I    between atoms: N2_5  and  C2_7 
REMARK       I    between atoms: C2_7  and  N3_9 
REMARK    3  A    between atoms: N6_24  and  C12_26 
REMARK    4  A    between atoms: C12_26  and  C13_27 
REMARK    5  A    between atoms: C13_27  and  N7_28 
ROOT
HETATM    1  C7  UNL     1      -1.651   1.098  -1.214  1.00  0.00     0.077 A 
HETATM    2  C8  UNL     1      -2.856   1.805  -1.333  1.00  0.00     0.022 A 
HETATM    3  C9  UNL     1      -3.820   1.417  -2.231  1.00  0.00     0.018 A 
HETATM    4  C10 UNL     1      -3.538   0.307  -2.999  1.00  0.00     0.089 A 
HETATM    5  N5  UNL     1      -2.391  -0.367  -2.880  1.00  0.00    -0.352 N 
ATOM      6  H5  UNL     1      -2.247  -1.180  -3.479  1.00  0.00     0.166 HD
HETATM    7  C11 UNL     1      -1.404  -0.033  -2.007  1.00  0.00     0.116 A 
HETATM    8  N6  UNL     1      -0.321  -0.809  -1.713  1.00  0.00    -0.374 N 
ATOM      9  H6  UNL     1       0.173  -0.557  -0.857  1.00  0.00     0.161 HD
ENDROOT
BRANCH   1  10
HETATM   10  C1  UNL     1      -0.582   1.695  -0.475  1.00  0.00     0.273 C 
HETATM   11  O1  UNL     1       0.608   1.388  -0.644  1.00  0.00    -0.266 OA
HETATM   12  N1  UNL     1      -0.820   2.709   0.527  1.00  0.00    -0.262 N 
ATOM     13  H1  UNL     1      -1.780   2.979   0.742  1.00  0.00     0.190 HD
BRANCH  12  14
HETATM   14  N2  UNL     1       0.213   3.320   1.198  1.00  0.00    -0.249 N 
HETATM   15  C2  UNL     1       1.034   2.564   2.079  1.00  0.00     0.337 C 
HETATM   16  O2  UNL     1       0.760   1.339   2.202  1.00  0.00    -0.245 OA
HETATM   17  N3  UNL     1       2.120   3.108   2.806  1.00  0.00    -0.330 N 
HETATM   18  C3  UNL     1       2.889   2.216   3.660  1.00  0.00     0.155 C 
HETATM   19  C6  UNL     1       2.518   4.483   2.756  1.00  0.00     0.155 C 
HETATM   20  C4  UNL     1       4.364   2.442   3.511  1.00  0.00     0.252 C 
HETATM   21  N4  UNL     1       4.726   3.812   3.382  1.00  0.00    -0.072 N 
HETATM   22  C5  UNL     1       4.001   4.517   2.368  1.00  0.00     0.252 C 
ATOM     23  H42 UNL     1       4.641   4.290   4.279  1.00  0.00     0.277 HD
ATOM     24  H41 UNL     1       5.731   3.903   3.231  1.00  0.00     0.277 HD
ATOM     25  H2  UNL     1       0.390   4.315   1.064  1.00  0.00     0.192 HD
ENDBRANCH  12  14
ENDBRANCH   1  10
BRANCH   8  26
HETATM   26  C12 UNL     1       0.242  -1.956  -2.446  1.00  0.00     0.151 C 
BRANCH  26  27
HETATM   27  C13 UNL     1      -0.841  -2.975  -2.658  1.00  0.00     0.292 C 
BRANCH  27  28
HETATM   28  N7  UNL     1      -1.344  -3.375  -1.351  1.00  0.00     0.094 N 
HETATM   29  C14 UNL     1      -2.560  -4.174  -1.510  1.00  0.00     0.298 C 
HETATM   30  C15 UNL     1      -3.022  -4.516  -0.109  1.00  0.00     0.198 C 
HETATM   31  O3  UNL     1      -2.113  -5.350   0.513  1.00  0.00    -0.388 OA
HETATM   32  C16 UNL     1      -0.920  -5.466  -0.151  1.00  0.00     0.198 C 
HETATM   33  C17 UNL     1      -0.349  -4.158  -0.630  1.00  0.00     0.298 C 
ENDBRANCH  27  28
ENDBRANCH  26  27
ENDBRANCH   8  26
TORSDOF 5
