REMARK  6 active torsions:
REMARK  status: ('A' for Active; 'I' for Inactive)
REMARK    1  A    between atoms: N2_5  and  C4_6 
REMARK    2  A    between atoms: C4_6  and  C5_7 
REMARK    3  A    between atoms: C5_7  and  N3_8 
REMARK    4  A    between atoms: N5_13  and  C7_14 
REMARK    5  A    between atoms: C7_14  and  C8_15 
REMARK    6  A    between atoms: C16_26  and  N7_27 
ROOT
HETATM    1  N3  UNL     1      -0.452  -0.365   0.489  1.00  0.00    -0.164 N 
HETATM    2  C6  UNL     1      -1.246   0.126  -0.512  1.00  0.00     0.683 A 
HETATM    3  N4  UNL     1      -0.889   1.123  -1.210  1.00  0.00    -0.234 N 
ATOM      4  H41 UNL     1      -1.481   1.489  -1.956  1.00  0.00     0.174 HD
ATOM      5  H42 UNL     1      -0.033   1.671  -1.126  1.00  0.00     0.174 HD
HETATM    6  N5  UNL     1      -2.372  -0.594  -0.622  1.00  0.00    -0.170 N 
HETATM    7  C14 UNL     1      -2.279  -1.560   0.328  1.00  0.00     0.165 A 
HETATM    8  C15 UNL     1      -3.065  -2.615   0.721  1.00  0.00     0.291 A 
HETATM    9  O1  UNL     1      -4.153  -2.790   0.114  1.00  0.00    -0.265 OA
HETATM   10  N6  UNL     1      -2.718  -3.474   1.726  1.00  0.00    -0.154 N 
ATOM     11  H6  UNL     1      -3.332  -4.245   1.988  1.00  0.00     0.187 HD
HETATM   12  C16 UNL     1      -1.556  -3.280   2.357  1.00  0.00     0.680 A 
HETATM   13  N8  UNL     1      -0.755  -2.266   2.005  1.00  0.00    -0.174 N 
ATOM     14  H8  UNL     1       0.128  -2.136   2.498  1.00  0.00     0.186 HD
HETATM   15  C17 UNL     1      -1.087  -1.408   1.011  1.00  0.00     0.172 A 
ENDROOT
BRANCH   1  16
HETATM   16  C5  UNL     1       0.827   0.122   0.924  1.00  0.00     0.179 C 
BRANCH  16  17
HETATM   17  C4  UNL     1       1.973  -0.526   0.182  1.00  0.00     0.293 C 
BRANCH  17  18
HETATM   18  N2  UNL     1       3.269  -0.047   0.607  1.00  0.00     0.093 N 
HETATM   19  C3  UNL     1       3.548   1.310   0.265  1.00  0.00     0.302 C 
HETATM   20  C2  UNL     1       4.500   1.370  -0.916  1.00  0.00     0.302 C 
HETATM   21  N1  UNL     1       5.771   0.858  -0.492  1.00  0.00     0.087 N 
HETATM   22  C1  UNL     1       6.389   1.829   0.388  1.00  0.00     0.310 C 
HETATM   23  C19 UNL     1       5.665  -0.414   0.194  1.00  0.00     0.302 C 
HETATM   24  C18 UNL     1       4.268  -0.981   0.136  1.00  0.00     0.302 C 
ENDBRANCH  17  18
ENDBRANCH  16  17
ENDBRANCH   1  16
BRANCH   6  25
HETATM   25  C7  UNL     1      -3.434  -0.398  -1.562  1.00  0.00     0.186 C 
BRANCH  25  26
HETATM   26  C8  UNL     1      -4.432   0.634  -1.211  1.00  0.00    -0.039 A 
HETATM   27  C9  UNL     1      -4.373   1.910  -1.798  1.00  0.00     0.009 A 
HETATM   28  C10 UNL     1      -5.265   2.915  -1.515  1.00  0.00     0.001 A 
HETATM   29  C11 UNL     1      -6.287   2.716  -0.620  1.00  0.00     0.000 A 
HETATM   30  C12 UNL     1      -6.385   1.486  -0.023  1.00  0.00     0.001 A 
HETATM   31  C13 UNL     1      -5.464   0.476  -0.327  1.00  0.00     0.009 A 
ENDBRANCH  25  26
ENDBRANCH   6  25
BRANCH  12  32
HETATM   32  N7  UNL     1      -1.196  -4.071   3.317  1.00  0.00    -0.234 N 
ATOM     33  H72 UNL     1      -1.806  -4.843   3.585  1.00  0.00     0.174 HD
ATOM     34  H71 UNL     1      -0.309  -3.923   3.799  1.00  0.00     0.174 HD
ENDBRANCH  12  32
TORSDOF 6
