REMARK  6 active torsions:
REMARK  status: ('A' for Active; 'I' for Inactive)
REMARK       I    between atoms: C1_2  and  N1_3 
REMARK       I    between atoms: C1_2  and  N6_24 
REMARK    1  A    between atoms: N1_3  and  C2_5 
REMARK    2  A    between atoms: C2_5  and  C3_6 
REMARK    3  A    between atoms: C3_6  and  O2_7 
REMARK    4  A    between atoms: C3_6  and  C4_9 
REMARK    5  A    between atoms: C4_9  and  N2_10 
REMARK    6  A    between atoms: N3_13  and  C7_14 
ROOT
HETATM    1  C4  UNL     1      -0.262   1.232  -1.558  1.00  0.00     0.091 C 
ENDROOT
BRANCH   1   2
HETATM    2  C3  UNL     1       0.927   0.802  -0.738  1.00  0.00     0.174 C 
BRANCH   2   3
HETATM    3  C2  UNL     1       2.138   1.495  -1.323  1.00  0.00     0.161 C 
BRANCH   3   4
HETATM    4  N1  UNL     1       3.371   1.192  -0.663  1.00  0.00    -0.340 N 
HETATM    5  C1  UNL     1       3.957  -0.086  -0.546  1.00  0.00     0.328 C 
HETATM    6  O1  UNL     1       3.343  -1.057  -1.071  1.00  0.00    -0.246 OA
HETATM    7  N6  UNL     1       5.188  -0.259   0.138  1.00  0.00    -0.274 N 
HETATM    8  C13 UNL     1       5.738  -1.576   0.228  1.00  0.00     0.141 C 
HETATM    9  S1  UNL     1       5.965   1.158   0.837  1.00  0.00    -0.049 SA
HETATM   10  C14 UNL     1       7.241  -1.608   0.310  1.00  0.00     0.022 C 
HETATM   11  C15 UNL     1       7.788  -0.723   1.397  1.00  0.00     0.013 C 
HETATM   12  C16 UNL     1       7.745   0.734   0.981  1.00  0.00     0.098 C 
ATOM     13  H1  UNL     1       3.872   1.972  -0.238  1.00  0.00     0.164 HD
ENDBRANCH   3   4
ENDBRANCH   2   3
BRANCH   2  14
HETATM   14  O2  UNL     1       0.837   1.213   0.584  1.00  0.00    -0.389 OA
ATOM     15  H2  UNL     1       0.077   0.778   0.951  1.00  0.00     0.210 HD
ENDBRANCH   2  14
ENDBRANCH   1   2
BRANCH   1  16
HETATM   16  N2  UNL     1      -1.508   0.749  -1.115  1.00  0.00    -0.387 N 
HETATM   17  C5  UNL     1      -1.973   1.273   0.136  1.00  0.00     0.152 C 
HETATM   18  C6  UNL     1      -3.498   1.409  -0.004  1.00  0.00     0.294 C 
HETATM   19  N3  UNL     1      -3.965   0.225  -0.625  1.00  0.00     0.114 N 
HETATM   20  C11 UNL     1      -3.113  -0.914  -0.579  1.00  0.00     0.294 C 
HETATM   21  C12 UNL     1      -1.792  -0.629  -1.311  1.00  0.00     0.152 C 
BRANCH  19  22
HETATM   22  C7  UNL     1      -5.308  -0.065  -0.309  1.00  0.00     0.324 C 
HETATM   23  C8  UNL     1      -5.607  -0.331   1.146  1.00  0.00     0.077 C 
HETATM   24  C9  UNL     1      -7.122  -0.470   1.357  1.00  0.00     0.124 C 
HETATM   25  N4  UNL     1      -7.788  -0.755   0.085  1.00  0.00    -0.386 N 
HETATM   26  C10 UNL     1      -7.085  -1.462  -0.925  1.00  0.00     0.172 C 
ATOM     27  H4  UNL     1      -8.748  -0.449  -0.074  1.00  0.00     0.160 HD
HETATM   28  N5  UNL     1      -5.856  -1.143  -1.144  1.00  0.00    -0.357 N 
ATOM     29  H5  UNL     1      -5.296  -1.612  -1.856  1.00  0.00     0.162 HD
ENDBRANCH  19  22
ENDBRANCH   1  16
TORSDOF 6
