REMARK  9 active torsions:
REMARK  status: ('A' for Active; 'I' for Inactive)
REMARK    1  A    between atoms: C2_2  and  O1_3 
REMARK    2  A    between atoms: O1_3  and  C3_4 
REMARK    3  A    between atoms: C3_4  and  C4_6 
REMARK    4  A    between atoms: C4_6  and  C5_7 
REMARK    5  A    between atoms: C9_14  and  O3_15 
REMARK    6  A    between atoms: O3_15  and  C10_16 
REMARK    7  A    between atoms: C10_16  and  C11_18 
REMARK    8  A    between atoms: C19_26  and  C20_27 
REMARK    9  A    between atoms: C23_30  and  O5_31 
ROOT
HETATM    1  C5  UNL     1       2.362  -0.219   1.013  1.00  0.00     0.140 C 
HETATM    2  C6  UNL     1       2.212   1.145   0.480  1.00  0.00     0.085 C 
HETATM    3  C7  UNL     1       0.810   1.623   0.358  1.00  0.00    -0.006 C 
HETATM    4  N1  UNL     1       0.518   2.855   0.236  1.00  0.00    -0.405 N 
ATOM      5  H11 UNL     1      -0.444   3.183   0.152  1.00  0.00     0.155 HD
ATOM      6  H12 UNL     1       1.263   3.551   0.219  1.00  0.00     0.155 HD
HETATM    7  C8  UNL     1      -0.260   0.623   0.383  1.00  0.00     0.124 C 
HETATM    8  C9  UNL     1      -1.312   0.735  -0.650  1.00  0.00     0.151 C 
HETATM    9  C14 UNL     1      -1.711  -0.678  -1.026  1.00  0.00     0.031 C 
HETATM   10  C15 UNL     1      -3.066  -1.007  -0.508  1.00  0.00     0.009 C 
HETATM   11  C16 UNL     1      -2.942  -2.220   0.373  1.00  0.00     0.005 C 
HETATM   12  C17 UNL     1      -1.481  -2.105   0.799  1.00  0.00    -0.004 C 
HETATM   13  C18 UNL     1      -0.999  -3.297   1.531  1.00  0.00     0.011 C 
HETATM   14  C19 UNL     1      -0.703  -1.614  -0.346  1.00  0.00     0.029 C 
HETATM   15  C23 UNL     1       0.415  -0.692  -0.043  1.00  0.00     0.182 C 
HETATM   16  O6  UNL     1       1.253  -1.031   0.962  1.00  0.00    -0.347 OA
ENDROOT
BRANCH   1  17
HETATM   17  C4  UNL     1       3.541  -0.937   0.390  1.00  0.00     0.143 C 
BRANCH  17  18
HETATM   18  C3  UNL     1       4.825  -0.238   0.639  1.00  0.00     0.261 C 
HETATM   19  O2  UNL     1       5.868  -0.751   0.157  1.00  0.00    -0.265 OA
BRANCH  18  20
HETATM   20  O1  UNL     1       4.965   0.924   1.354  1.00  0.00    -0.322 OA
BRANCH  20  21
HETATM   21  C2  UNL     1       6.185   1.588   1.591  1.00  0.00     0.174 C 
HETATM   22  C1  UNL     1       6.883   2.017   0.333  1.00  0.00     0.034 C 
ENDBRANCH  20  21
ENDBRANCH  18  20
ENDBRANCH  17  18
ENDBRANCH   1  17
BRANCH  15  23
HETATM   23  O5  UNL     1       1.110  -0.434  -1.233  1.00  0.00    -0.364 OA
ATOM     24  H5  UNL     1       1.527  -1.246  -1.496  1.00  0.00     0.213 HD
ENDBRANCH  15  23
BRANCH  14  25
HETATM   25  C20 UNL     1      -0.267  -2.595  -1.370  1.00  0.00    -0.008 C 
HETATM   26  C21 UNL     1       0.733  -3.614  -0.942  1.00  0.00     0.010 C 
HETATM   27  C22 UNL     1      -1.379  -3.338  -2.072  1.00  0.00     0.010 C 
ENDBRANCH  14  25
BRANCH   8  28
HETATM   28  O3  UNL     1      -2.404   1.452  -0.098  1.00  0.00    -0.314 OA
BRANCH  28  29
HETATM   29  C10 UNL     1      -2.943   2.585  -0.635  1.00  0.00     0.262 C 
HETATM   30  O4  UNL     1      -2.431   3.030  -1.712  1.00  0.00    -0.265 OA
BRANCH  29  31
HETATM   31  C11 UNL     1      -4.092   3.272   0.021  1.00  0.00     0.077 C 
HETATM   32  C12 UNL     1      -5.307   2.390   0.132  1.00  0.00     0.020 C 
HETATM   33  C13 UNL     1      -4.368   4.537  -0.745  1.00  0.00     0.020 C 
ENDBRANCH  29  31
ENDBRANCH  28  29
ENDBRANCH   8  28
TORSDOF 9
