REMARK  7 active torsions:
REMARK  status: ('A' for Active; 'I' for Inactive)
REMARK    1  A    between atoms: C10_11  and  C11_12 
REMARK    2  A    between atoms: C11_12  and  C12_13 
REMARK    3  A    between atoms: C12_13  and  O2_14 
REMARK    4  A    between atoms: C12_13  and  C13_16 
REMARK    5  A    between atoms: C15_18  and  C16_19 
REMARK    6  A    between atoms: C17_20  and  O3_21 
REMARK    7  A    between atoms: C19_24  and  O4_25 
ROOT
HETATM    1  C1  UNL     1       0.656  -1.459  -2.768  1.00  0.00     0.015 C 
HETATM    2  C2  UNL     1       0.470  -0.549  -1.872  1.00  0.00    -0.082 C 
HETATM    3  C3  UNL     1      -0.388   0.586  -2.199  1.00  0.00     0.036 C 
HETATM    4  C4  UNL     1      -1.435   0.885  -1.141  1.00  0.00     0.036 C 
HETATM    5  C5  UNL     1      -2.065  -0.334  -0.565  1.00  0.00     0.126 C 
HETATM    6  O1  UNL     1      -1.132  -1.356  -0.330  1.00  0.00    -0.380 OA
HETATM    7  C6  UNL     1      -0.070  -0.802   0.384  1.00  0.00     0.130 C 
HETATM    8  C7  UNL     1       0.028  -1.624   1.607  1.00  0.00     0.033 C 
HETATM    9  C8  UNL     1      -1.144  -1.080   2.470  1.00  0.00     0.003 C 
HETATM   10  C9  UNL     1      -2.418  -1.280   1.752  1.00  0.00     0.007 C 
HETATM   11  C10 UNL     1      -2.781  -0.160   0.739  1.00  0.00     0.017 C 
HETATM   12  C15 UNL     1       1.119  -0.752  -0.539  1.00  0.00     0.052 C 
ENDROOT
BRANCH  12  13
HETATM   13  C16 UNL     1       1.994   0.427  -0.305  1.00  0.00     0.062 C 
HETATM   14  C17 UNL     1       3.117   0.597  -1.240  1.00  0.00     0.131 C 
HETATM   15  C18 UNL     1       4.330  -0.267  -0.859  1.00  0.00     0.106 C 
HETATM   16  C19 UNL     1       4.687   0.133   0.566  1.00  0.00     0.198 C 
HETATM   17  O5  UNL     1       3.573  -0.333   1.341  1.00  0.00    -0.337 OA
HETATM   18  C23 UNL     1       4.598   1.573   0.711  1.00  0.00     0.043 C 
HETATM   19  C21 UNL     1       2.538   0.526   1.100  1.00  0.00     0.207 C 
HETATM   20  C22 UNL     1       3.227   1.836   1.219  1.00  0.00     0.189 C 
HETATM   21  O6  UNL     1       2.757   2.909   1.647  1.00  0.00    -0.290 OA
HETATM   22  C24 UNL     1       5.444   2.547   0.458  1.00  0.00     0.028 C 
BRANCH  14  23
HETATM   23  O3  UNL     1       2.912   0.445  -2.575  1.00  0.00    -0.395 OA
ATOM     24  H3  UNL     1       3.637   0.555  -3.179  1.00  0.00     0.210 HD
ENDBRANCH  14  23
BRANCH  16  25
HETATM   25  O4  UNL     1       5.735  -0.538   1.074  1.00  0.00    -0.356 OA
HETATM   26  C20 UNL     1       6.987  -0.409   0.630  1.00  0.00     0.206 C 
ENDBRANCH  16  25
ENDBRANCH  12  13
BRANCH  11  27
HETATM   27  C11 UNL     1      -4.260  -0.353   0.583  1.00  0.00     0.038 C 
BRANCH  27  28
HETATM   28  C12 UNL     1      -5.041   0.503  -0.310  1.00  0.00     0.118 C 
BRANCH  28  29
HETATM   29  O2  UNL     1      -4.731   0.480  -1.654  1.00  0.00    -0.396 OA
ATOM     30  H2  UNL     1      -5.238   1.036  -2.234  1.00  0.00     0.210 HD
ENDBRANCH  28  29
BRANCH  28  31
HETATM   31  C13 UNL     1      -6.500  -0.009  -0.250  1.00  0.00     0.027 C 
HETATM   32  C14 UNL     1      -7.045   0.067   1.140  1.00  0.00     0.007 C 
ENDBRANCH  28  31
ENDBRANCH  27  28
ENDBRANCH  11  27
TORSDOF 7
