REMARK  6 active torsions:
REMARK  status: ('A' for Active; 'I' for Inactive)
REMARK    1  A    between atoms: C2_2  and  C3_3 
REMARK    2  A    between atoms: C5_12  and  C6_13 
REMARK    3  A    between atoms: C10_20  and  C11_21 
REMARK    4  A    between atoms: C14_28  and  O1_29 
REMARK    5  A    between atoms: O1_29  and  C15_30 
REMARK    6  A    between atoms: C15_30  and  C16_31 
ROOT
HETATM    1  C6  UNL     1       2.667  -0.001   0.464  1.00  0.00     0.078 A 
HETATM    2  N4  UNL     1       2.470   1.272   0.840  1.00  0.00    -0.329 N 
ATOM      3  H4  UNL     1       3.194   1.972   1.001  1.00  0.00     0.168 HD
HETATM    4  C7  UNL     1       1.127   1.459   0.967  1.00  0.00     0.201 A 
HETATM    5  F1  UNL     1       0.551   2.626   1.333  1.00  0.00    -0.185 F 
HETATM    6  C8  UNL     1       0.444   0.315   0.676  1.00  0.00     0.050 A 
HETATM    7  C9  UNL     1      -0.915  -0.018   0.645  1.00  0.00     0.032 A 
HETATM    8  C10 UNL     1      -1.335  -1.274   0.296  1.00  0.00    -0.005 A 
HETATM    9  C19 UNL     1      -0.344  -2.179  -0.019  1.00  0.00     0.101 A 
HETATM   10  N7  UNL     1       0.952  -1.833   0.021  1.00  0.00    -0.362 N 
ATOM     11  H7  UNL     1       1.636  -2.550  -0.222  1.00  0.00     0.165 HD
HETATM   12  C20 UNL     1       1.421  -0.623   0.354  1.00  0.00     0.075 A 
ENDROOT
BRANCH   8  13
HETATM   13  C11 UNL     1      -2.719  -1.721   0.231  1.00  0.00     0.029 A 
HETATM   14  C12 UNL     1      -3.055  -2.938   0.778  1.00  0.00     0.035 A 
HETATM   15  C13 UNL     1      -4.357  -3.375   0.725  1.00  0.00     0.108 A 
HETATM   16  N5  UNL     1      -5.293  -2.609   0.139  1.00  0.00    -0.310 N 
HETATM   17  N6  UNL     1      -4.960  -1.443  -0.381  1.00  0.00    -0.280 N 
ATOM     18  H5  UNL     1      -6.261  -2.929   0.096  1.00  0.00     0.186 HD
HETATM   19  C14 UNL     1      -3.710  -0.968  -0.359  1.00  0.00     0.168 A 
ATOM     20  H6  UNL     1      -5.688  -0.879  -0.819  1.00  0.00     0.189 HD
BRANCH  19  21
HETATM   21  O1  UNL     1      -3.337   0.252  -0.900  1.00  0.00    -0.334 OA
BRANCH  21  22
HETATM   22  C15 UNL     1      -4.223   1.143  -1.538  1.00  0.00     0.185 C 
BRANCH  22  23
HETATM   23  C16 UNL     1      -5.333   1.613  -0.659  1.00  0.00     0.047 A 
HETATM   24  C17 UNL     1      -4.947   2.361   0.603  1.00  0.00     0.047 A 
HETATM   25  C18 UNL     1      -5.513   3.110  -0.563  1.00  0.00     0.176 A 
HETATM   26  F2  UNL     1      -6.782   3.629  -0.425  1.00  0.00    -0.249 F 
ENDBRANCH  22  23
ENDBRANCH  21  22
ENDBRANCH  19  21
ENDBRANCH   8  13
BRANCH   1  27
HETATM   27  C5  UNL     1       3.965  -0.649   0.137  1.00  0.00     0.062 A 
HETATM   28  C3  UNL     1       5.160   0.016  -0.145  1.00  0.00     0.042 A 
HETATM   29  N1  UNL     1       6.073  -0.980  -0.331  1.00  0.00    -0.302 N 
HETATM   30  N2  UNL     1       5.568  -2.152  -0.194  1.00  0.00    -0.285 N 
ATOM     31  H1  UNL     1       7.054  -0.811  -0.555  1.00  0.00     0.186 HD
HETATM   32  C4  UNL     1       4.255  -1.995   0.099  1.00  0.00     0.128 A 
ATOM     33  H2  UNL     1       6.064  -3.038  -0.288  1.00  0.00     0.188 HD
HETATM   34  N3  UNL     1       3.489  -2.999   0.315  1.00  0.00    -0.384 N 
ATOM     35  H32 UNL     1       3.704  -3.996   0.287  1.00  0.00     0.157 HD
ATOM     36  H31 UNL     1       2.500  -2.881   0.536  1.00  0.00     0.157 HD
BRANCH  28  37
HETATM   37  C2  UNL     1       5.455   1.449  -0.247  1.00  0.00     0.055 C 
HETATM   38  C1  UNL     1       4.910   2.094  -1.514  1.00  0.00     0.011 C 
ENDBRANCH  28  37
ENDBRANCH   1  27
TORSDOF 6
