REMARK  9 active torsions:
REMARK  status: ('A' for Active; 'I' for Inactive)
REMARK    1  A    between atoms: C6_8  and  C7_9 
REMARK    2  A    between atoms: C7_9  and  N2_10 
REMARK    3  A    between atoms: C7_9  and  O3_23 
REMARK    4  A    between atoms: N2_10  and  C8_12 
REMARK    5  A    between atoms: C8_12  and  C9_13 
REMARK    6  A    between atoms: C8_12  and  C10_20 
REMARK    7  A    between atoms: C9_13  and  O1_14 
REMARK    8  A    between atoms: N3_16  and  O2_18 
REMARK    9  A    between atoms: O3_23  and  C13_24 
ROOT
HETATM    1  C7  UNL     1      -0.502  -0.149   0.658  1.00  0.00     0.254 C 
ENDROOT
BRANCH   1   2
HETATM    2  C6  UNL     1       0.751  -0.914   0.784  1.00  0.00     0.018 A 
HETATM    3  C5  UNL     1       1.169  -1.597   1.901  1.00  0.00     0.101 A 
HETATM    4  N1  UNL     1       2.349  -2.173   1.683  1.00  0.00    -0.364 N 
HETATM    5  C4  UNL     1       2.704  -1.869   0.425  1.00  0.00     0.043 A 
ATOM      6  H1  UNL     1       2.881  -2.737   2.345  1.00  0.00     0.165 HD
HETATM    7  C3  UNL     1       3.835  -2.230  -0.272  1.00  0.00     0.040 A 
HETATM    8  C18 UNL     1       1.733  -1.091  -0.155  1.00  0.00     0.005 A 
HETATM    9  C2  UNL     1       4.025  -1.821  -1.574  1.00  0.00    -0.021 A 
HETATM   10  C1  UNL     1       5.265  -2.223  -2.326  1.00  0.00     0.051 C 
HETATM   11  C20 UNL     1       3.055  -1.036  -2.174  1.00  0.00     0.123 A 
HETATM   12  C19 UNL     1       1.929  -0.684  -1.460  1.00  0.00     0.057 A 
HETATM   13  F2  UNL     1       3.256  -0.640  -3.454  1.00  0.00    -0.206 F 
ENDBRANCH   1   2
BRANCH   1  14
HETATM   14  N2  UNL     1      -0.374   1.135   0.091  1.00  0.00    -0.381 N 
ATOM     15  H2  UNL     1      -0.882   1.350  -0.767  1.00  0.00     0.157 HD
BRANCH  14  16
HETATM   16  C8  UNL     1       0.424   2.116   0.667  1.00  0.00     0.159 C 
BRANCH  16  17
HETATM   17  C9  UNL     1       0.098   2.598   2.020  1.00  0.00     0.158 C 
HETATM   18  N3  UNL     1      -0.897   2.237   2.741  1.00  0.00    -0.249 N 
ATOM     19  H3  UNL     1      -1.550   1.547   2.370  1.00  0.00     0.196 HD
BRANCH  17  20
HETATM   20  O1  UNL     1       0.958   3.542   2.566  1.00  0.00    -0.347 OA
ATOM     21  H1  UNL     1       0.748   3.853   3.439  1.00  0.00     0.219 HD
ENDBRANCH  17  20
BRANCH  18  22
HETATM   22  O2  UNL     1      -1.113   2.747   3.993  1.00  0.00    -0.288 OA
ATOM     23  H2  UNL     1      -1.851   2.479   4.528  1.00  0.00     0.244 HD
ENDBRANCH  18  22
ENDBRANCH  16  17
BRANCH  16  24
HETATM   24  C10 UNL     1       0.339   3.368  -0.229  1.00  0.00     0.008 C 
HETATM   25  C11 UNL     1       0.837   3.026  -1.610  1.00  0.00     0.012 C 
HETATM   26  C12 UNL     1      -1.091   3.834  -0.355  1.00  0.00     0.012 C 
ENDBRANCH  16  24
ENDBRANCH  14  16
ENDBRANCH   1  14
BRANCH   1  27
HETATM   27  O3  UNL     1      -1.460  -0.815  -0.110  1.00  0.00    -0.354 OA
BRANCH  27  28
HETATM   28  C13 UNL     1      -2.602  -1.142   0.552  1.00  0.00     0.162 C 
HETATM   29  C14 UNL     1      -2.746  -2.652   0.530  1.00  0.00     0.061 C 
HETATM   30  C15 UNL     1      -4.047  -3.116  -0.044  1.00  0.00     0.170 C 
HETATM   31  O4  UNL     1      -4.402  -2.552  -1.241  1.00  0.00    -0.388 OA
HETATM   32  C16 UNL     1      -3.959  -1.272  -1.457  1.00  0.00     0.207 C 
HETATM   33  C17 UNL     1      -3.863  -0.599  -0.082  1.00  0.00     0.222 C 
HETATM   34  F1  UNL     1      -3.851   0.739  -0.278  1.00  0.00    -0.244 F 
ENDBRANCH  27  28
ENDBRANCH   1  27
TORSDOF 9
