REMARK  10 active torsions:
REMARK  status: ('A' for Active; 'I' for Inactive)
REMARK    1  A    between atoms: C2_2  and  C3_6 
REMARK    2  A    between atoms: C3_6  and  C4_8 
REMARK    3  A    between atoms: C5_9  and  C6_10 
REMARK    4  A    between atoms: C10_14  and  N2_15 
REMARK    5  A    between atoms: N2_15  and  C11_17 
REMARK    6  A    between atoms: C12_18  and  N3_19 
REMARK    7  A    between atoms: N3_19  and  C13_21 
REMARK    8  A    between atoms: C13_21  and  C14_22 
REMARK    9  A    between atoms: C13_21  and  C17_25 
REMARK   10  A    between atoms: C17_25  and  O1_27 
ROOT
HETATM    1  N2  UNL     1      -0.853  -1.727   0.161  1.00  0.00    -0.351 N 
ATOM      2  H2  UNL     1      -1.358  -2.381  -0.438  1.00  0.00     0.166 HD
ENDROOT
BRANCH   1   3
HETATM    3  C10 UNL     1       0.547  -1.561   0.019  1.00  0.00     0.036 A 
HETATM    4  C9  UNL     1       1.224  -2.280  -0.924  1.00  0.00     0.038 A 
HETATM    5  C7  UNL     1       2.582  -2.106  -1.047  1.00  0.00    -0.038 A 
HETATM    6  C6  UNL     1       3.268  -1.231  -0.246  1.00  0.00     0.062 A 
HETATM    7  C8  UNL     1       3.340  -2.888  -2.079  1.00  0.00     0.050 C 
HETATM    8  C22 UNL     1       2.577  -0.507   0.706  1.00  0.00     0.137 A 
HETATM    9  C21 UNL     1       1.233  -0.684   0.823  1.00  0.00     0.073 A 
HETATM   10  F2  UNL     1       3.250   0.355   1.496  1.00  0.00    -0.204 F 
BRANCH   6  11
HETATM   11  C5  UNL     1       4.693  -1.058  -0.385  1.00  0.00    -0.060 C 
HETATM   12  C4  UNL     1       5.875  -0.897  -0.511  1.00  0.00    -0.058 C 
BRANCH  12  13
HETATM   13  C3  UNL     1       7.322  -0.675  -0.677  1.00  0.00     0.293 C 
HETATM   14  F1  UNL     1       7.558  -0.452  -2.027  1.00  0.00    -0.230 F 
BRANCH  13  15
HETATM   15  C2  UNL     1       7.791   0.450   0.147  1.00  0.00     0.022 C 
HETATM   16  C1  UNL     1       7.219   1.799  -0.071  1.00  0.00     0.066 C 
HETATM   17  N1  UNL     1       8.678   0.271   1.037  1.00  0.00    -0.403 N 
ATOM     18  H12 UNL     1       9.003   1.051   1.608  1.00  0.00     0.155 HD
ATOM     19  H11 UNL     1       9.072  -0.658   1.187  1.00  0.00     0.155 HD
ENDBRANCH  13  15
ENDBRANCH  12  13
ENDBRANCH   6  11
ENDBRANCH   1   3
BRANCH   1  20
HETATM   20  C11 UNL     1      -1.556  -0.963   1.160  1.00  0.00     0.118 A 
HETATM   21  C12 UNL     1      -2.202   0.237   1.296  1.00  0.00     0.114 A 
HETATM   22  C19 UNL     1      -2.464  -0.044   2.610  1.00  0.00     0.252 A 
HETATM   23  O2  UNL     1      -3.028   0.453   3.632  1.00  0.00    -0.281 OA
HETATM   24  C20 UNL     1      -1.817  -1.247   2.472  1.00  0.00     0.253 A 
HETATM   25  O3  UNL     1      -1.556  -2.237   3.238  1.00  0.00    -0.281 OA
BRANCH  21  26
HETATM   26  N3  UNL     1      -2.473   1.320   0.454  1.00  0.00    -0.377 N 
ATOM     27  H3  UNL     1      -1.728   2.010   0.356  1.00  0.00     0.160 HD
BRANCH  26  28
HETATM   28  C13 UNL     1      -3.681   1.579  -0.293  1.00  0.00     0.113 C 
BRANCH  28  29
HETATM   29  C14 UNL     1      -4.065   0.528  -1.251  1.00  0.00     0.003 C 
HETATM   30  C15 UNL     1      -5.298   0.894  -2.106  1.00  0.00     0.011 C 
HETATM   31  C16 UNL     1      -4.402  -0.825  -0.647  1.00  0.00     0.011 C 
ENDBRANCH  28  29
BRANCH  28  32
HETATM   32  C17 UNL     1      -4.700   1.954   0.759  1.00  0.00     0.137 C 
HETATM   33  C18 UNL     1      -5.995   2.501   0.290  1.00  0.00     0.041 C 
BRANCH  32  34
HETATM   34  O1  UNL     1      -4.075   3.068   1.417  1.00  0.00    -0.394 OA
ATOM     35  H1  UNL     1      -4.715   3.304   2.078  1.00  0.00     0.210 HD
ENDBRANCH  32  34
ENDBRANCH  28  32
ENDBRANCH  26  28
ENDBRANCH  21  26
ENDBRANCH   1  20
TORSDOF 10
