REMARK  10 active torsions:
REMARK  status: ('A' for Active; 'I' for Inactive)
REMARK    1  A    between atoms: N1_4  and  C4_5 
REMARK    2  A    between atoms: C6_7  and  S1_8 
REMARK    3  A    between atoms: S1_8  and  S2_9 
REMARK    4  A    between atoms: S2_9  and  C7_10 
REMARK    5  A    between atoms: C7_10  and  N3_14 
REMARK    6  A    between atoms: N3_14  and  C8_16 
REMARK    7  A    between atoms: C11_20  and  C12_21 
REMARK    8  A    between atoms: C15_26  and  C16_27 
REMARK    9  A    between atoms: C16_27  and  C17_28 
REMARK   10  A    between atoms: C17_28  and  O2_29 
ROOT
HETATM    1  C4  UNL     1      -3.299   0.587   1.024  1.00  0.00     0.233 C 
HETATM    2  C5  UNL     1      -2.126   0.898   0.130  1.00  0.00     0.073 C 
HETATM    3  C6  UNL     1      -1.765  -0.512  -0.356  1.00  0.00     0.092 C 
HETATM    4  C15 UNL     1      -3.114  -1.155  -0.356  1.00  0.00     0.141 C 
HETATM    5  O3  UNL     1      -3.608  -0.757   0.881  1.00  0.00    -0.360 OA
ENDROOT
BRANCH   3   6
HETATM    6  S1  UNL     1      -0.962  -0.514  -1.950  1.00  0.00    -0.082 SA
BRANCH   6   7
HETATM    7  S2  UNL     1       0.932   0.395  -1.880  1.00  0.00    -0.021 SA
BRANCH   7   8
HETATM    8  C7  UNL     1       2.227  -0.800  -1.505  1.00  0.00     0.146 C 
HETATM    9  N2  UNL     1       1.859  -2.019  -1.327  1.00  0.00    -0.379 N 
ATOM     10  H22 UNL     1       0.876  -2.283  -1.398  1.00  0.00     0.158 HD
ATOM     11  H21 UNL     1       2.592  -2.696  -1.115  1.00  0.00     0.158 HD
BRANCH   8  12
HETATM   12  N3  UNL     1       3.575  -0.438  -1.407  1.00  0.00    -0.344 N 
ATOM     13  H3  UNL     1       3.973   0.238  -2.059  1.00  0.00     0.164 HD
BRANCH  12  14
HETATM   14  C8  UNL     1       4.398  -1.026  -0.379  1.00  0.00     0.229 C 
HETATM   15  O1  UNL     1       4.174  -0.567   0.919  1.00  0.00    -0.360 OA
HETATM   16  C9  UNL     1       5.553  -0.555   1.168  1.00  0.00     0.133 C 
HETATM   17  C10 UNL     1       5.995   0.782   1.665  1.00  0.00     0.042 C 
HETATM   18  C14 UNL     1       5.828  -0.601  -0.324  1.00  0.00     0.064 C 
HETATM   19  C11 UNL     1       6.794   1.345   0.528  1.00  0.00     0.054 C 
HETATM   20  C13 UNL     1       6.168   0.792  -0.739  1.00  0.00     0.021 C 
BRANCH  19  21
HETATM   21  C12 UNL     1       8.220   0.832   0.588  1.00  0.00     0.357 C 
HETATM   22  F1  UNL     1       8.986   1.321  -0.433  1.00  0.00    -0.214 F 
HETATM   23  F2  UNL     1       8.829   1.179   1.781  1.00  0.00    -0.214 F 
ENDBRANCH  19  21
ENDBRANCH  12  14
ENDBRANCH   8  12
ENDBRANCH   7   8
ENDBRANCH   6   7
ENDBRANCH   3   6
BRANCH   4  24
HETATM   24  C16 UNL     1      -3.033  -2.637  -0.506  1.00  0.00     0.059 C 
BRANCH  24  25
HETATM   25  C17 UNL     1      -2.259  -3.294   0.594  1.00  0.00     0.166 C 
BRANCH  25  26
HETATM   26  O2  UNL     1      -2.251  -4.670   0.355  1.00  0.00    -0.401 OA
ATOM     27  H2  UNL     1      -1.760  -5.087   1.053  1.00  0.00     0.209 HD
ENDBRANCH  25  26
ENDBRANCH  24  25
ENDBRANCH   4  24
BRANCH   1  28
HETATM   28  N1  UNL     1      -4.459   1.395   0.709  1.00  0.00    -0.282 N 
HETATM   29  C3  UNL     1      -5.613   0.799   0.361  1.00  0.00     0.110 A 
HETATM   30  C2  UNL     1      -6.714   1.595   0.062  1.00  0.00     0.022 A 
HETATM   31  C1  UNL     1      -7.958   0.887  -0.315  1.00  0.00     0.056 C 
HETATM   32  C19 UNL     1      -6.612   2.963   0.124  1.00  0.00     0.256 A 
HETATM   33  N4  UNL     1      -5.435   3.523   0.477  1.00  0.00    -0.275 N 
HETATM   34  O5  UNL     1      -7.632   3.644  -0.155  1.00  0.00    -0.267 OA
HETATM   35  C18 UNL     1      -4.380   2.742   0.763  1.00  0.00     0.331 A 
ATOM     36  H4  UNL     1      -5.347   4.538   0.526  1.00  0.00     0.173 HD
HETATM   37  O4  UNL     1      -3.280   3.256   1.094  1.00  0.00    -0.246 OA
ENDBRANCH   1  28
TORSDOF 10
