REMARK  0 active torsions:
REMARK  status: ('A' for Active; 'I' for Inactive)
ROOT
HETATM    1  O1  UNL     1      -2.910  -1.033   0.422  1.00  0.00    -0.247 OA
HETATM    2  C1  UNL     1      -1.769  -0.497   0.239  1.00  0.00     0.328 A 
HETATM    3  N1  UNL     1      -1.708   0.833   0.059  1.00  0.00    -0.273 N 
ATOM      4  H1  UNL     1      -2.551   1.408   0.066  1.00  0.00     0.173 HD
HETATM    5  C2  UNL     1      -0.495   1.377  -0.131  1.00  0.00     0.281 A 
HETATM    6  O2  UNL     1      -0.430   2.618  -0.300  1.00  0.00    -0.265 OA
HETATM    7  C3  UNL     1       0.666   0.633  -0.148  1.00  0.00     0.160 A 
HETATM    8  N2  UNL     1       1.970   0.868  -0.308  1.00  0.00    -0.276 N 
ATOM      9  H2  UNL     1       2.377   1.789  -0.469  1.00  0.00     0.184 HD
HETATM   10  N3  UNL     1       2.664  -0.257  -0.229  1.00  0.00    -0.020 NA
HETATM   11  N4  UNL     1       1.804  -1.240  -0.016  1.00  0.00    -0.267 N 
ATOM     12  H4  UNL     1       2.047  -2.225   0.088  1.00  0.00     0.186 HD
HETATM   13  C4  UNL     1       0.559  -0.735   0.041  1.00  0.00     0.156 A 
HETATM   14  N5  UNL     1      -0.658  -1.254   0.229  1.00  0.00    -0.291 N 
ATOM     15  H5  UNL     1      -0.747  -2.260   0.370  1.00  0.00     0.172 HD
ENDROOT
TORSDOF 0
