REMARK  2 active torsions:
REMARK  status: ('A' for Active; 'I' for Inactive)
REMARK    1  A    between atoms: N1_1  and  C1_4 
REMARK    2  A    between atoms: N3_8  and  O1_9 
ROOT
HETATM    1  C1  UNL     1      -0.240  -1.126   0.116  1.00  0.00     0.132 A 
HETATM    2  N2  UNL     1       1.087  -1.313   0.213  1.00  0.00    -0.335 N 
ATOM      3  H2  UNL     1       1.463  -2.246   0.380  1.00  0.00     0.168 HD
HETATM    4  C2  UNL     1       1.920  -0.255   0.088  1.00  0.00     0.217 A 
HETATM    5  N3  UNL     1       1.457   0.988  -0.132  1.00  0.00    -0.200 N 
HETATM    6  C3  UNL     1       0.129   1.240  -0.240  1.00  0.00     0.181 A 
HETATM    7  N4  UNL     1      -0.605   2.347  -0.453  1.00  0.00    -0.267 N 
ATOM      8  H4  UNL     1      -0.255   3.296  -0.585  1.00  0.00     0.190 HD
HETATM    9  N5  UNL     1      -1.870   1.962  -0.457  1.00  0.00    -0.240 N 
ATOM     10  H5  UNL     1      -2.665   2.585  -0.597  1.00  0.00     0.208 HD
HETATM   11  N6  UNL     1      -1.963   0.665  -0.256  1.00  0.00    -0.279 N 
ATOM     12  H6  UNL     1      -2.833   0.134  -0.216  1.00  0.00     0.189 HD
HETATM   13  C4  UNL     1      -0.729   0.152  -0.112  1.00  0.00     0.141 A 
ENDROOT
BRANCH   1  14
HETATM   14  N1  UNL     1      -1.072  -2.100   0.228  1.00  0.00    -0.383 N 
ATOM     15  H12 UNL     1      -0.712  -3.040   0.396  1.00  0.00     0.157 HD
ATOM     16  H11 UNL     1      -2.079  -1.958   0.154  1.00  0.00     0.157 HD
ENDBRANCH   1  14
BRANCH   5  17
HETATM   17  O1  UNL     1       2.319   2.061  -0.258  1.00  0.00    -0.280 OA
ATOM     18  H1  UNL     1       1.992   2.939  -0.413  1.00  0.00     0.245 HD
ENDBRANCH   5  17
TORSDOF 2
