REMARK  2 active torsions:
REMARK  status: ('A' for Active; 'I' for Inactive)
REMARK    1  A    between atoms: N1_1  and  C1_4 
REMARK    2  A    between atoms: N5_14  and  O1_15 
ROOT
HETATM    1  C1  UNL     1      -1.562  -0.446  -0.226  1.00  0.00     0.694 A 
HETATM    2  N2  UNL     1      -0.470  -1.227  -0.387  1.00  0.00    -0.172 N 
ATOM      3  H2  UNL     1      -0.597  -2.197  -0.677  1.00  0.00     0.186 HD
HETATM    4  C2  UNL     1       0.776  -0.771  -0.178  1.00  0.00     0.170 A 
HETATM    5  N3  UNL     1       2.023  -1.244  -0.240  1.00  0.00    -0.335 N 
ATOM      6  H3  UNL     1       2.268  -2.198  -0.504  1.00  0.00     0.168 HD
HETATM    7  C3  UNL     1       2.915  -0.289   0.094  1.00  0.00     0.183 A 
HETATM    8  N4  UNL     1       2.229   0.832   0.379  1.00  0.00    -0.332 N 
ATOM      9  H4  UNL     1       2.652   1.716   0.662  1.00  0.00     0.168 HD
HETATM   10  C4  UNL     1       0.903   0.625   0.238  1.00  0.00     0.198 A 
HETATM   11  N5  UNL     1      -0.198   1.370   0.388  1.00  0.00    -0.128 N 
HETATM   12  N6  UNL     1      -1.379   0.831   0.158  1.00  0.00    -0.104 N 
ATOM     13  H6  UNL     1      -2.205   1.418   0.278  1.00  0.00     0.208 HD
ENDROOT
BRANCH   1  14
HETATM   14  N1  UNL     1      -2.757  -0.921  -0.438  1.00  0.00    -0.233 N 
ATOM     15  H12 UNL     1      -2.896  -1.889  -0.729  1.00  0.00     0.174 HD
ATOM     16  H11 UNL     1      -3.581  -0.332  -0.317  1.00  0.00     0.174 HD
ENDBRANCH   1  14
BRANCH  11  17
HETATM   17  O1  UNL     1      -0.087   2.684   0.778  1.00  0.00    -0.266 OA
ATOM     18  H1  UNL     1      -0.869   3.213   0.885  1.00  0.00     0.247 HD
ENDBRANCH  11  17
TORSDOF 2
