REMARK  0 active torsions:
REMARK  status: ('A' for Active; 'I' for Inactive)
ROOT
HETATM    1  N1  UNL     1      -1.514  -1.703  -0.206  1.00  0.00    -0.080 NA
HETATM    2  C1  UNL     1      -0.341  -0.905  -0.083  1.00  0.00     0.150 A 
HETATM    3  N2  UNL     1       0.902  -1.415  -0.056  1.00  0.00    -0.295 N 
ATOM      4  H2  UNL     1       1.011  -2.427  -0.127  1.00  0.00     0.172 HD
HETATM    5  C2  UNL     1       2.010  -0.660   0.060  1.00  0.00     0.328 A 
HETATM    6  O1  UNL     1       3.156  -1.189   0.081  1.00  0.00    -0.247 OA
HETATM    7  N3  UNL     1       1.948   0.679   0.158  1.00  0.00    -0.274 N 
ATOM      8  H3  UNL     1       2.796   1.239   0.246  1.00  0.00     0.173 HD
HETATM    9  C3  UNL     1       0.741   1.254   0.137  1.00  0.00     0.277 A 
HETATM   10  O2  UNL     1       0.652   2.523   0.228  1.00  0.00    -0.266 OA
HETATM   11  C4  UNL     1      -0.407   0.491   0.019  1.00  0.00     0.155 A 
HETATM   12  N4  UNL     1      -1.697   1.055  -0.007  1.00  0.00    -0.093 NA
ENDROOT
TORSDOF 0
