REMARK  6 active torsions:
REMARK  status: ('A' for Active; 'I' for Inactive)
REMARK       I    between atoms: N1_2  and  C2_4 
REMARK    1  A    between atoms: C2_4  and  C3_6 
REMARK    2  A    between atoms: C5_10  and  N3_11 
REMARK    3  A    between atoms: N3_11  and  N4_13 
REMARK       I    between atoms: N4_13  and  C6_15 
REMARK    4  A    between atoms: C6_15  and  C7_17 
REMARK    5  A    between atoms: C7_17  and  N5_18 
REMARK    6  A    between atoms: C7_17  and  C8_22 
ROOT
HETATM    1  N3  UNL     1       0.305   0.577   0.228  1.00  0.00    -0.129 N 
ATOM      2  H3  UNL     1       0.274   1.596   0.218  1.00  0.00     0.205 HD
ENDROOT
BRANCH   1   3
HETATM    3  C5  UNL     1       1.449  -0.037   0.149  1.00  0.00     0.697 A 
HETATM    4  N2  UNL     1       1.626  -1.369   0.153  1.00  0.00    -0.198 N 
HETATM    5  C4  UNL     1       2.937  -1.656   0.058  1.00  0.00     0.142 A 
ATOM      6  H2  UNL     1       0.878  -2.059   0.218  1.00  0.00     0.183 HD
HETATM    7  C3  UNL     1       3.630  -0.461  -0.009  1.00  0.00     0.132 A 
HETATM    8  N6  UNL     1       2.676   0.500   0.051  1.00  0.00    -0.183 N 
ATOM      9  H6  UNL     1       2.866   1.502   0.025  1.00  0.00     0.184 HD
BRANCH   7  10
HETATM   10  C2  UNL     1       5.067  -0.254  -0.120  1.00  0.00     0.269 C 
HETATM   11  N1  UNL     1       5.605   1.054  -0.176  1.00  0.00    -0.360 N 
HETATM   12  C1  UNL     1       7.023   1.320  -0.286  1.00  0.00     0.149 C 
ATOM     13  H1  UNL     1       4.963   1.846  -0.137  1.00  0.00     0.162 HD
HETATM   14  O1  UNL     1       5.821  -1.249  -0.164  1.00  0.00    -0.266 OA
ENDBRANCH   7  10
ENDBRANCH   1   3
BRANCH   1  15
HETATM   15  N4  UNL     1      -0.865  -0.144   0.325  1.00  0.00    -0.254 N 
HETATM   16  C6  UNL     1      -1.955   0.202  -0.523  1.00  0.00     0.267 C 
HETATM   17  O2  UNL     1      -1.865   1.144  -1.348  1.00  0.00    -0.269 OA
ATOM     18  H4  UNL     1      -0.949  -0.911   0.992  1.00  0.00     0.190 HD
BRANCH  16  19
HETATM   19  C7  UNL     1      -3.235  -0.541  -0.460  1.00  0.00     0.279 C 
BRANCH  19  20
HETATM   20  N5  UNL     1      -3.199  -1.594   0.529  1.00  0.00    -0.066 N 
ATOM     21  H53 UNL     1      -2.412  -2.224   0.372  1.00  0.00     0.275 HD
ATOM     22  H52 UNL     1      -2.934  -1.233   1.446  1.00  0.00     0.275 HD
ATOM     23  H51 UNL     1      -4.080  -2.106   0.572  1.00  0.00     0.275 HD
ENDBRANCH  19  20
BRANCH  19  24
HETATM   24  C8  UNL     1      -4.384   0.407  -0.251  1.00  0.00     0.017 C 
HETATM   25  C9  UNL     1      -4.275   1.199   1.018  1.00  0.00     0.012 C 
HETATM   26  C10 UNL     1      -5.681  -0.366  -0.267  1.00  0.00     0.012 C 
ENDBRANCH  19  24
ENDBRANCH  16  19
ENDBRANCH   1  15
TORSDOF 6
