REMARK  3 active torsions:
REMARK  status: ('A' for Active; 'I' for Inactive)
REMARK    1  A    between atoms: C3_3  and  C4_4 
REMARK       I    between atoms: C4_4  and  N1_6 
REMARK       I    between atoms: N1_6  and  C5_8 
REMARK       I    between atoms: C5_8  and  N2_9 
REMARK       I    between atoms: C5_8  and  N3_13 
REMARK    2  A    between atoms: C9_20  and  S1_21 
REMARK    3  A    between atoms: S1_21  and  N4_22 
ROOT
HETATM    1  C1  UNL     1      -0.469   0.212   1.607  1.00  0.00     0.051 C 
HETATM    2  C2  UNL     1      -0.943   0.220   0.223  1.00  0.00    -0.023 A 
HETATM    3  C3  UNL     1      -0.102   0.562  -0.820  1.00  0.00     0.039 A 
HETATM    4  C6  UNL     1      -0.592   0.574  -2.136  1.00  0.00     0.017 A 
HETATM    5  C7  UNL     1      -1.902   0.242  -2.358  1.00  0.00     0.003 A 
HETATM    6  C8  UNL     1      -2.711  -0.094  -1.315  1.00  0.00     0.026 A 
HETATM    7  C9  UNL     1      -2.286  -0.124   0.010  1.00  0.00     0.086 A 
ENDROOT
BRANCH   3   8
HETATM    8  C4  UNL     1       1.321   0.831  -0.689  1.00  0.00     0.255 C 
HETATM    9  O1  UNL     1       1.791   1.806  -1.341  1.00  0.00    -0.268 OA
HETATM   10  N1  UNL     1       2.228   0.101   0.092  1.00  0.00    -0.307 N 
HETATM   11  C5  UNL     1       3.629   0.398   0.207  1.00  0.00     0.483 C 
ATOM     12  H1  UNL     1       1.868  -0.697   0.615  1.00  0.00     0.166 HD
HETATM   13  N2  UNL     1       4.413  -0.436  -0.710  1.00  0.00    -0.033 N 
HETATM   14  N3  UNL     1       4.182   0.241   1.516  1.00  0.00    -0.033 N 
ATOM     15  H23 UNL     1       4.225  -1.429  -0.572  1.00  0.00     0.278 HD
ATOM     16  H22 UNL     1       4.086  -0.350  -1.672  1.00  0.00     0.278 HD
ATOM     17  H21 UNL     1       5.408  -0.225  -0.628  1.00  0.00     0.278 HD
ATOM     18  H33 UNL     1       3.651   0.793   2.189  1.00  0.00     0.278 HD
ATOM     19  H32 UNL     1       3.993  -0.699   1.865  1.00  0.00     0.278 HD
ATOM     20  H31 UNL     1       5.177   0.452   1.598  1.00  0.00     0.278 HD
ENDBRANCH   3   8
BRANCH   7  21
HETATM   21  S1  UNL     1      -3.372  -0.485   1.306  1.00  0.00     0.257 S 
HETATM   22  O2  UNL     1      -3.619   0.777   2.137  1.00  0.00    -0.201 OA
HETATM   23  O3  UNL     1      -2.777  -1.531   2.203  1.00  0.00    -0.201 OA
BRANCH  21  24
HETATM   24  N4  UNL     1      -4.877  -1.001   0.738  1.00  0.00    -0.324 N 
ATOM     25  H42 UNL     1      -5.102  -1.084  -0.253  1.00  0.00     0.169 HD
ATOM     26  H41 UNL     1      -5.518  -1.214   1.503  1.00  0.00     0.169 HD
ENDBRANCH  21  24
ENDBRANCH   7  21
TORSDOF 3
