REMARK  6 active torsions:
REMARK  status: ('A' for Active; 'I' for Inactive)
REMARK    1  A    between atoms: N1_2  and  C2_5 
REMARK    2  A    between atoms: C2_5  and  C3_6 
REMARK    3  A    between atoms: C2_5  and  C4_13 
REMARK       I    between atoms: C3_6  and  N2_8 
REMARK    4  A    between atoms: N2_8  and  N3_10 
REMARK       I    between atoms: C4_13  and  N4_15 
REMARK    5  A    between atoms: N4_15  and  N5_17 
REMARK       I    between atoms: N5_17  and  C5_19 
REMARK    6  A    between atoms: C5_19  and  C6_21 
ROOT
HETATM    1  C4  UNL     1      -1.523  -0.736   0.562  1.00  0.00     0.276 C 
HETATM    2  O2  UNL     1      -1.062  -0.774   1.754  1.00  0.00    -0.269 OA
HETATM    3  N4  UNL     1      -0.617  -0.744  -0.528  1.00  0.00    -0.265 N 
ATOM      4  H4  UNL     1      -0.966  -0.721  -1.486  1.00  0.00     0.190 HD
ENDROOT
BRANCH   1   5
HETATM    5  C2  UNL     1      -2.982  -0.689   0.317  1.00  0.00     0.370 C 
BRANCH   5   6
HETATM    6  N1  UNL     1      -3.623  -0.908   1.631  1.00  0.00    -0.057 N 
HETATM    7  C1  UNL     1      -3.392  -2.285   1.994  1.00  0.00     0.268 C 
ATOM      8  H12 UNL     1      -4.610  -0.652   1.641  1.00  0.00     0.278 HD
ATOM      9  H11 UNL     1      -3.309  -0.249   2.343  1.00  0.00     0.278 HD
ENDBRANCH   5   6
BRANCH   5  10
HETATM   10  C3  UNL     1      -3.390   0.692  -0.125  1.00  0.00     0.276 C 
HETATM   11  O1  UNL     1      -4.095   1.406   0.651  1.00  0.00    -0.269 OA
HETATM   12  N2  UNL     1      -3.041   1.250  -1.353  1.00  0.00    -0.274 N 
ATOM     13  H2  UNL     1      -2.479   0.702  -2.004  1.00  0.00     0.189 HD
BRANCH  12  14
HETATM   14  N3  UNL     1      -3.448   2.565  -1.725  1.00  0.00    -0.343 N 
ATOM     15  H32 UNL     1      -4.010   3.099  -1.062  1.00  0.00     0.176 HD
ATOM     16  H31 UNL     1      -3.192   2.974  -2.624  1.00  0.00     0.176 HD
ENDBRANCH  12  14
ENDBRANCH   5  10
ENDBRANCH   1   5
BRANCH   3  17
HETATM   17  N5  UNL     1       0.762  -0.784  -0.279  1.00  0.00    -0.263 N 
HETATM   18  C5  UNL     1       1.547   0.342  -0.659  1.00  0.00     0.270 C 
HETATM   19  O3  UNL     1       0.985   1.346  -1.206  1.00  0.00    -0.266 OA
ATOM     20  H5  UNL     1       1.191  -1.597   0.162  1.00  0.00     0.190 HD
BRANCH  18  21
HETATM   21  C6  UNL     1       2.985   0.359  -0.429  1.00  0.00     0.033 A 
HETATM   22  C7  UNL     1       3.562   1.546  -0.011  1.00  0.00     0.017 A 
HETATM   23  C8  UNL     1       4.929   1.638   0.212  1.00  0.00     0.001 A 
HETATM   24  C9  UNL     1       5.715   0.520   0.010  1.00  0.00     0.000 A 
HETATM   25  C10 UNL     1       5.166  -0.683  -0.410  1.00  0.00     0.001 A 
HETATM   26  C11 UNL     1       3.793  -0.733  -0.621  1.00  0.00     0.017 A 
ENDBRANCH  18  21
ENDBRANCH   3  17
TORSDOF 6
