REMARK  14 active torsions:
REMARK  status: ('A' for Active; 'I' for Inactive)
REMARK    1  A    between atoms: C2_2  and  C3_3 
REMARK    2  A    between atoms: C4_4  and  C6_6 
REMARK    3  A    between atoms: C6_6  and  C7_7 
REMARK    4  A    between atoms: C7_7  and  C8_8 
REMARK    5  A    between atoms: C9_9  and  C10_10 
REMARK    6  A    between atoms: N1_11  and  O1_13 
REMARK    7  A    between atoms: O1_13  and  C11_14 
REMARK    8  A    between atoms: C11_14  and  C12_15 
REMARK    9  A    between atoms: N2_16  and  O2_18 
REMARK   10  A    between atoms: C13_22  and  C15_24 
REMARK   11  A    between atoms: C24_34  and  C26_36 
REMARK   12  A    between atoms: C26_36  and  C27_37 
REMARK   13  A    between atoms: C27_37  and  C28_38 
REMARK   14  A    between atoms: C34_44  and  O6_45 
ROOT
HETATM    1  C3  UNL     1       1.626   0.684  -0.040  1.00  0.00     0.065 C 
HETATM    2  C4  UNL     1       2.897   0.434   0.769  1.00  0.00     0.100 C 
HETATM    3  C5  UNL     1       2.710   1.076   2.196  1.00  0.00     0.050 C 
HETATM    4  O3  UNL     1       2.776  -0.895   1.075  1.00  0.00    -0.228 OA
HETATM    5  O4  UNL     1       1.468  -0.882   1.454  1.00  0.00    -0.224 OA
HETATM    6  C13 UNL     1       0.842  -0.582   0.235  1.00  0.00     0.125 C 
HETATM    7  C14 UNL     1       1.444  -1.729  -0.608  1.00  0.00     0.055 C 
ENDROOT
BRANCH   6   8
HETATM    8  C15 UNL     1      -0.621  -0.576   0.191  1.00  0.00    -0.013 C 
HETATM    9  C16 UNL     1      -1.369   0.667   0.525  1.00  0.00     0.041 C 
HETATM   10  C17 UNL     1      -2.846   0.454   0.653  1.00  0.00     0.019 C 
HETATM   11  C18 UNL     1      -3.729   0.482  -0.533  1.00  0.00    -0.005 C 
HETATM   12  C19 UNL     1      -3.339   1.804  -1.271  1.00  0.00     0.021 C 
HETATM   13  C20 UNL     1      -3.541  -0.609  -1.551  1.00  0.00    -0.006 C 
HETATM   14  C24 UNL     1      -5.146   0.677  -0.139  1.00  0.00    -0.015 C 
HETATM   15  C21 UNL     1      -4.711  -1.537  -1.553  1.00  0.00     0.176 C 
HETATM   16  C31 UNL     1      -2.200  -1.206  -1.769  1.00  0.00     0.029 C 
HETATM   17  O5  UNL     1      -4.777  -2.737  -1.341  1.00  0.00    -0.288 OA
HETATM   18  C22 UNL     1      -5.977  -0.822  -1.863  1.00  0.00     0.052 C 
HETATM   19  C23 UNL     1      -6.164   0.262  -1.174  1.00  0.00    -0.013 C 
HETATM   20  C32 UNL     1      -1.500  -0.536  -2.927  1.00  0.00     0.027 C 
HETATM   21  C33 UNL     1      -2.487  -2.596  -2.429  1.00  0.00     0.027 C 
HETATM   22  C34 UNL     1      -1.425  -1.554  -0.575  1.00  0.00     0.061 C 
HETATM   23  C25 UNL     1      -5.440   2.234  -0.086  1.00  0.00     0.021 C 
BRANCH  22  24
HETATM   24  O6  UNL     1      -0.863  -2.836  -0.621  1.00  0.00    -0.363 OA
ATOM     25  H6  UNL     1      -1.379  -3.464  -1.113  1.00  0.00     0.217 HD
ENDBRANCH  22  24
BRANCH  14  26
HETATM   26  C26 UNL     1      -5.689   0.222   1.157  1.00  0.00     0.014 C 
BRANCH  26  27
HETATM   27  C27 UNL     1      -5.299   0.700   2.466  1.00  0.00     0.005 C 
BRANCH  27  28
HETATM   28  C28 UNL     1      -6.200   0.001   3.535  1.00  0.00    -0.023 C 
HETATM   29  C29 UNL     1      -7.652   0.313   3.298  1.00  0.00     0.009 C 
HETATM   30  C30 UNL     1      -5.909  -1.454   3.651  1.00  0.00     0.009 C 
ENDBRANCH  27  28
ENDBRANCH  26  27
ENDBRANCH  14  26
ENDBRANCH   6   8
BRANCH   1  31
HETATM   31  C2  UNL     1       1.758   1.178  -1.377  1.00  0.00     0.007 C 
HETATM   32  C1  UNL     1       2.371   0.557  -2.530  1.00  0.00     0.006 C 
ENDBRANCH   1  31
BRANCH   2  33
HETATM   33  C6  UNL     1       4.096   1.007   0.226  1.00  0.00     0.045 C 
BRANCH  33  34
HETATM   34  C7  UNL     1       5.325   0.665   1.042  1.00  0.00     0.030 C 
BRANCH  34  35
HETATM   35  C8  UNL     1       6.470   1.423   0.377  1.00  0.00    -0.025 C 
HETATM   36  C9  UNL     1       7.463   0.753  -0.154  1.00  0.00     0.015 C 
BRANCH  36  37
HETATM   37  C10 UNL     1       8.567   1.469  -0.793  1.00  0.00     0.114 C 
HETATM   38  N1  UNL     1       9.557   1.061  -1.351  1.00  0.00    -0.278 N 
ATOM     39  H1  UNL     1      10.068   1.885  -1.669  1.00  0.00     0.193 HD
BRANCH  38  40
HETATM   40  O1  UNL     1      10.251   0.038  -1.721  1.00  0.00    -0.276 OA
BRANCH  40  41
HETATM   41  C11 UNL     1       9.936  -1.341  -1.342  1.00  0.00     0.247 C 
BRANCH  41  42
HETATM   42  C12 UNL     1      10.993  -1.648  -0.268  1.00  0.00     0.115 C 
HETATM   43  N2  UNL     1      11.814  -0.695  -0.032  1.00  0.00    -0.282 N 
ATOM     44  H2  UNL     1      11.742   0.189  -0.535  1.00  0.00     0.193 HD
BRANCH  43  45
HETATM   45  O2  UNL     1      12.822  -0.890   0.938  1.00  0.00    -0.290 OA
ATOM     46  H2  UNL     1      13.431  -0.183   1.113  1.00  0.00     0.244 HD
ENDBRANCH  43  45
ENDBRANCH  41  42
ENDBRANCH  40  41
ENDBRANCH  38  40
ENDBRANCH  36  37
ENDBRANCH  34  35
ENDBRANCH  33  34
ENDBRANCH   2  33
TORSDOF 14
