REMARK  15 active torsions:
REMARK  status: ('A' for Active; 'I' for Inactive)
REMARK    1  A    between atoms: C2_2  and  C3_3 
REMARK    2  A    between atoms: C3_3  and  C4_4 
REMARK    3  A    between atoms: C13_14  and  C14_15 
REMARK    4  A    between atoms: C14_15  and  C15_16 
REMARK    5  A    between atoms: C15_16  and  C16_17 
REMARK    6  A    between atoms: C16_17  and  C17_18 
REMARK    7  A    between atoms: C16_17  and  C28_34 
REMARK    8  A    between atoms: C17_18  and  O1_19 
REMARK    9  A    between atoms: O1_19  and  C18_20 
REMARK   10  A    between atoms: C18_20  and  C19_22 
REMARK   11  A    between atoms: C20_23  and  C21_24 
REMARK   12  A    between atoms: C24_27  and  O3_28 
REMARK   13  A    between atoms: C25_30  and  O4_31 
REMARK   14  A    between atoms: C32_39  and  O6_40 
REMARK   15  A    between atoms: C34_43  and  O7_44 
ROOT
HETATM    1  C4  UNL     1      -3.747   1.931   1.835  1.00  0.00    -0.035 C 
HETATM    2  C5  UNL     1      -2.717   2.672   2.663  1.00  0.00     0.016 C 
HETATM    3  C6  UNL     1      -4.606   2.962   1.204  1.00  0.00     0.014 C 
HETATM    4  C7  UNL     1      -4.495   3.061  -0.302  1.00  0.00    -0.016 C 
HETATM    5  C8  UNL     1      -5.031   4.456  -0.656  1.00  0.00     0.010 C 
HETATM    6  C9  UNL     1      -3.015   3.056  -0.559  1.00  0.00     0.029 C 
HETATM    7  C10 UNL     1      -2.496   1.624  -0.329  1.00  0.00     0.050 C 
HETATM    8  C11 UNL     1      -2.834   0.918  -1.643  1.00  0.00     0.031 C 
HETATM    9  C12 UNL     1      -1.053   1.794  -0.292  1.00  0.00     0.069 C 
HETATM   10  N1  UNL     1       0.112   1.960  -0.281  1.00  0.00    -0.196 NA
HETATM   11  C13 UNL     1      -3.090   0.992   0.843  1.00  0.00     0.019 C 
ENDROOT
BRANCH  11  12
HETATM   12  C14 UNL     1      -2.357  -0.132   1.521  1.00  0.00     0.035 C 
BRANCH  12  13
HETATM   13  C15 UNL     1      -1.685  -1.091   0.648  1.00  0.00    -0.012 C 
BRANCH  13  14
HETATM   14  C16 UNL     1      -0.434  -1.606   0.800  1.00  0.00    -0.004 C 
BRANCH  14  15
HETATM   15  C17 UNL     1       0.327  -1.172   1.952  1.00  0.00     0.158 C 
BRANCH  15  16
HETATM   16  O1  UNL     1       1.457  -0.478   1.795  1.00  0.00    -0.287 OA
BRANCH  16  17
HETATM   17  C18 UNL     1       2.611  -0.501   1.127  1.00  0.00     0.287 C 
HETATM   18  O2  UNL     1       2.833  -1.422   0.353  1.00  0.00    -0.260 OA
BRANCH  17  19
HETATM   19  C19 UNL     1       3.578   0.562   1.324  1.00  0.00     0.083 C 
HETATM   20  C20 UNL     1       4.715   0.803   0.872  1.00  0.00     0.017 C 
BRANCH  20  21
HETATM   21  C21 UNL     1       5.670   0.241  -0.015  1.00  0.00    -0.033 A 
HETATM   22  C22 UNL     1       5.762  -1.057  -0.399  1.00  0.00     0.014 A 
HETATM   23  C23 UNL     1       6.678  -1.501  -1.365  1.00  0.00     0.040 A 
HETATM   24  C24 UNL     1       7.534  -0.612  -1.964  1.00  0.00     0.099 A 
HETATM   25  C25 UNL     1       7.489   0.730  -1.609  1.00  0.00     0.102 A 
HETATM   26  C27 UNL     1       6.590   1.104  -0.678  1.00  0.00     0.051 A 
BRANCH  24  27
HETATM   27  O3  UNL     1       8.438  -1.050  -2.917  1.00  0.00    -0.358 OA
ATOM     28  H3  UNL     1       9.031  -0.434  -3.332  1.00  0.00     0.217 HD
ENDBRANCH  24  27
BRANCH  25  29
HETATM   29  O4  UNL     1       8.379   1.555  -2.254  1.00  0.00    -0.353 OA
HETATM   30  C26 UNL     1       8.392   2.932  -1.957  1.00  0.00     0.210 C 
ENDBRANCH  25  29
ENDBRANCH  20  21
ENDBRANCH  17  19
ENDBRANCH  16  17
ENDBRANCH  15  16
ENDBRANCH  14  15
BRANCH  14  31
HETATM   31  C28 UNL     1      -0.047  -2.616  -0.219  1.00  0.00     0.012 A 
HETATM   32  C29 UNL     1      -0.524  -2.462  -1.515  1.00  0.00     0.054 A 
HETATM   33  C30 UNL     1      -0.356  -3.458  -2.486  1.00  0.00     0.102 A 
HETATM   34  O5  UNL     1      -0.796  -3.336  -3.701  1.00  0.00    -0.353 OA
HETATM   35  C32 UNL     1       0.327  -4.619  -2.058  1.00  0.00     0.101 A 
HETATM   36  C31 UNL     1      -1.239  -3.203  -4.912  1.00  0.00     0.210 C 
HETATM   37  C33 UNL     1       0.800  -4.785  -0.794  1.00  0.00     0.077 A 
HETATM   38  C34 UNL     1       0.607  -3.760   0.149  1.00  0.00     0.082 A 
BRANCH  35  39
HETATM   39  O6  UNL     1       0.500  -5.611  -3.013  1.00  0.00    -0.358 OA
ATOM     40  H6  UNL     1       0.959  -6.391  -2.725  1.00  0.00     0.217 HD
ENDBRANCH  35  39
BRANCH  38  41
HETATM   41  O7  UNL     1       1.095  -3.971   1.427  1.00  0.00    -0.355 OA
HETATM   42  C35 UNL     1       1.760  -5.172   1.757  1.00  0.00     0.210 C 
ENDBRANCH  38  41
ENDBRANCH  14  31
ENDBRANCH  13  14
ENDBRANCH  12  13
ENDBRANCH  11  12
BRANCH   1  43
HETATM   43  C3  UNL     1      -4.597   1.146   2.847  1.00  0.00     0.036 C 
BRANCH  43  44
HETATM   44  C2  UNL     1      -5.265   2.016   3.804  1.00  0.00    -0.036 C 
HETATM   45  C1  UNL     1      -6.575   2.050   3.902  1.00  0.00     0.007 C 
ENDBRANCH  43  44
ENDBRANCH   1  43
TORSDOF 15
