REMARK  14 active torsions:
REMARK  status: ('A' for Active; 'I' for Inactive)
REMARK    1  A    between atoms: C2_2  and  O1_3 
REMARK    2  A    between atoms: O1_3  and  C3_4 
REMARK    3  A    between atoms: C3_4  and  C4_6 
REMARK    4  A    between atoms: C4_6  and  C5_7 
REMARK    5  A    between atoms: C4_6  and  C16_20 
REMARK    6  A    between atoms: C5_7  and  S1_8 
REMARK    7  A    between atoms: S1_8  and  S2_9 
REMARK    8  A    between atoms: S2_9  and  C6_10 
REMARK    9  A    between atoms: C6_10  and  C7_11 
REMARK   10  A    between atoms: C8_12  and  C9_13 
REMARK   11  A    between atoms: C16_20  and  O3_21 
REMARK   12  A    between atoms: C16_20  and  C17_23 
REMARK   13  A    between atoms: C17_23  and  S3_24 
REMARK   14  A    between atoms: S3_24  and  C18_25 
ROOT
HETATM    1  C18 UNL     1      -4.806  -0.056  -0.253  1.00  0.00     0.002 C 
HETATM    2  C19 UNL     1      -5.028   0.645   0.802  1.00  0.00     0.044 C 
HETATM    3  C20 UNL     1      -3.953   1.302   1.525  1.00  0.00     0.097 C 
HETATM    4  N1  UNL     1      -3.106   1.852   2.141  1.00  0.00    -0.192 NA
HETATM    5  C21 UNL     1      -6.368   0.890   1.430  1.00  0.00     0.002 C 
HETATM    6  C22 UNL     1      -6.369   0.162   2.703  1.00  0.00     0.015 C 
HETATM    7  C23 UNL     1      -6.556  -1.288   2.505  1.00  0.00     0.001 C 
HETATM    8  C24 UNL     1      -5.895  -1.963   1.370  1.00  0.00     0.001 C 
HETATM    9  C25 UNL     1      -6.447  -1.814   0.008  1.00  0.00     0.012 C 
HETATM   10  C26 UNL     1      -6.127  -0.622  -0.800  1.00  0.00     0.060 C 
HETATM   11  C27 UNL     1      -7.103   0.513  -0.777  1.00  0.00     0.232 C 
HETATM   12  C28 UNL     1      -7.577   0.507   0.669  1.00  0.00     0.051 C 
HETATM   13  N2  UNL     1      -6.553   1.824  -0.961  1.00  0.00     0.089 N 
HETATM   14  C29 UNL     1      -7.032   2.363  -2.213  1.00  0.00     0.310 C 
HETATM   15  C30 UNL     1      -6.874   2.786   0.058  1.00  0.00     0.273 C 
HETATM   16  C31 UNL     1      -6.430   2.398   1.470  1.00  0.00     0.045 C 
ENDROOT
BRANCH   1  17
HETATM   17  S3  UNL     1      -3.333  -0.444  -1.114  1.00  0.00    -0.130 SA
BRANCH  17  18
HETATM   18  C17 UNL     1      -1.818   0.200  -0.445  1.00  0.00     0.112 C 
BRANCH  18  19
HETATM   19  C16 UNL     1      -0.670  -0.256  -1.354  1.00  0.00     0.142 C 
BRANCH  19  20
HETATM   20  C4  UNL     1       0.641   0.261  -0.825  1.00  0.00     0.125 C 
BRANCH  20  21
HETATM   21  C3  UNL     1       0.927  -0.205   0.539  1.00  0.00     0.266 C 
HETATM   22  O2  UNL     1       1.201   0.654   1.444  1.00  0.00    -0.265 OA
BRANCH  21  23
HETATM   23  O1  UNL     1       0.905  -1.551   0.857  1.00  0.00    -0.321 OA
BRANCH  23  24
HETATM   24  C2  UNL     1       1.191  -1.909   2.187  1.00  0.00     0.174 C 
HETATM   25  C1  UNL     1       1.142  -3.383   2.437  1.00  0.00     0.034 C 
ENDBRANCH  23  24
ENDBRANCH  21  23
ENDBRANCH  20  21
BRANCH  20  26
HETATM   26  C5  UNL     1       0.714   1.750  -0.936  1.00  0.00     0.103 C 
BRANCH  26  27
HETATM   27  S1  UNL     1       2.343   2.396  -0.501  1.00  0.00    -0.096 SA
BRANCH  27  28
HETATM   28  S2  UNL     1       3.771   1.762  -1.899  1.00  0.00    -0.094 SA
BRANCH  28  29
HETATM   29  C6  UNL     1       4.542   0.203  -1.397  1.00  0.00     0.112 C 
BRANCH  29  30
HETATM   30  C7  UNL     1       5.544  -0.235  -2.380  1.00  0.00    -0.019 C 
HETATM   31  C8  UNL     1       6.812  -0.423  -2.144  1.00  0.00    -0.025 C 
BRANCH  31  32
HETATM   32  C9  UNL     1       7.498  -0.237  -0.860  1.00  0.00     0.011 C 
HETATM   33  C10 UNL     1       8.239  -1.515  -0.447  1.00  0.00     0.009 C 
HETATM   34  C11 UNL     1       8.673  -1.305   0.989  1.00  0.00     0.001 C 
HETATM   35  C12 UNL     1       9.602  -0.132   1.116  1.00  0.00     0.000 C 
HETATM   36  C13 UNL     1       9.085   1.096   0.419  1.00  0.00     0.005 C 
HETATM   37  C14 UNL     1       8.603   0.821  -0.984  1.00  0.00    -0.011 C 
HETATM   38  C15 UNL     1       9.716   0.391  -1.880  1.00  0.00     0.010 C 
ENDBRANCH  31  32
ENDBRANCH  29  30
ENDBRANCH  28  29
ENDBRANCH  27  28
ENDBRANCH  26  27
ENDBRANCH  20  26
ENDBRANCH  19  20
BRANCH  19  39
HETATM   39  O3  UNL     1      -0.660  -1.660  -1.389  1.00  0.00    -0.394 OA
ATOM     40  H3  UNL     1      -1.487  -1.986  -1.723  1.00  0.00     0.210 HD
ENDBRANCH  19  39
ENDBRANCH  18  19
ENDBRANCH  17  18
ENDBRANCH   1  17
TORSDOF 14
