REMARK  17 active torsions:
REMARK  status: ('A' for Active; 'I' for Inactive)
REMARK    1  A    between atoms: C11_11  and  O1_12 
REMARK    2  A    between atoms: C12_14  and  O2_15 
REMARK    3  A    between atoms: O2_15  and  C13_16 
REMARK    4  A    between atoms: C13_16  and  C14_21 
REMARK    5  A    between atoms: N1_17  and  O3_19 
REMARK    6  A    between atoms: C14_21  and  C15_22 
REMARK    7  A    between atoms: C14_21  and  C19_26 
REMARK    8  A    between atoms: C15_22  and  C16_23 
REMARK    9  A    between atoms: C16_23  and  C17_24 
REMARK   10  A    between atoms: C19_26  and  C20_27 
REMARK   11  A    between atoms: C23_30  and  C25_32 
REMARK   12  A    between atoms: C25_32  and  O4_33 
REMARK   13  A    between atoms: O4_33  and  C26_34 
REMARK   14  A    between atoms: C26_34  and  C27_36 
REMARK   15  A    between atoms: C31_40  and  C33_42 
REMARK   16  A    between atoms: C33_42  and  C34_43 
REMARK   17  A    between atoms: C34_43  and  O7_45 
ROOT
HETATM    1  C1  UNL     1      -1.980  -1.972   3.225  1.00  0.00     0.015 C 
HETATM    2  C2  UNL     1      -1.756  -2.012   1.947  1.00  0.00    -0.079 C 
HETATM    3  C3  UNL     1      -0.319  -2.052   1.548  1.00  0.00     0.035 C 
HETATM    4  C4  UNL     1       0.230  -0.673   1.703  1.00  0.00     0.021 C 
HETATM    5  C5  UNL     1      -0.434   0.389   0.853  1.00  0.00     0.009 C 
HETATM    6  C6  UNL     1      -0.943   1.418   1.890  1.00  0.00     0.023 C 
HETATM    7  C7  UNL     1      -1.488  -0.169  -0.002  1.00  0.00    -0.061 C 
HETATM    8  C8  UNL     1      -1.221  -0.391  -1.304  1.00  0.00    -0.015 C 
HETATM    9  C9  UNL     1       0.077  -0.114  -1.961  1.00  0.00     0.035 C 
HETATM   10  C10 UNL     1       0.996  -1.281  -2.024  1.00  0.00     0.017 C 
HETATM   11  C11 UNL     1       0.625   1.126  -1.343  1.00  0.00     0.156 C 
HETATM   12  C12 UNL     1       0.648   1.189   0.127  1.00  0.00     0.172 C 
HETATM   13  C23 UNL     1      -2.894  -0.627   0.242  1.00  0.00     0.014 C 
HETATM   14  C24 UNL     1      -3.600   0.308   1.179  1.00  0.00     0.023 C 
HETATM   15  C31 UNL     1      -2.850  -2.016   0.936  1.00  0.00     0.001 C 
HETATM   16  C32 UNL     1      -2.539  -3.123  -0.036  1.00  0.00     0.021 C 
ENDROOT
BRANCH  12  17
HETATM   17  O2  UNL     1       1.918   0.901   0.640  1.00  0.00    -0.328 OA
BRANCH  17  18
HETATM   18  C13 UNL     1       3.131   1.477   0.302  1.00  0.00     0.142 C 
HETATM   19  N1  UNL     1       3.007   2.654  -0.262  1.00  0.00    -0.251 N 
ATOM     20  H1  UNL     1       2.059   3.009  -0.389  1.00  0.00     0.196 HD
BRANCH  19  21
HETATM   21  O3  UNL     1       4.014   3.436  -0.688  1.00  0.00    -0.288 OA
ATOM     22  H3  UNL     1       3.924   4.289  -1.097  1.00  0.00     0.244 HD
ENDBRANCH  19  21
BRANCH  18  23
HETATM   23  C14 UNL     1       4.430   0.847   0.550  1.00  0.00     0.062 C 
BRANCH  23  24
HETATM   24  C15 UNL     1       4.593   0.676   2.044  1.00  0.00     0.013 C 
BRANCH  24  25
HETATM   25  C16 UNL     1       5.880   0.042   2.441  1.00  0.00     0.000 C 
BRANCH  25  26
HETATM   26  C17 UNL     1       7.115   0.771   2.039  1.00  0.00    -0.005 C 
HETATM   27  C18 UNL     1       7.078   2.146   2.682  1.00  0.00     0.005 C 
ENDBRANCH  25  26
ENDBRANCH  24  25
ENDBRANCH  23  24
BRANCH  23  28
HETATM   28  C19 UNL     1       4.685  -0.391  -0.213  1.00  0.00     0.016 C 
BRANCH  28  29
HETATM   29  C20 UNL     1       4.687  -0.174  -1.686  1.00  0.00    -0.022 C 
HETATM   30  C21 UNL     1       4.936  -1.532  -2.337  1.00  0.00     0.009 C 
HETATM   31  C22 UNL     1       5.823   0.717  -2.147  1.00  0.00     0.009 C 
ENDBRANCH  28  29
ENDBRANCH  23  28
ENDBRANCH  18  23
ENDBRANCH  17  18
ENDBRANCH  12  17
BRANCH  11  32
HETATM   32  O1  UNL     1      -0.194   2.193  -1.830  1.00  0.00    -0.392 OA
ATOM     33  H1  UNL     1       0.155   2.984  -1.436  1.00  0.00     0.210 HD
ENDBRANCH  11  32
BRANCH  13  34
HETATM   34  C25 UNL     1      -3.735  -0.802  -0.953  1.00  0.00     0.194 C 
BRANCH  34  35
HETATM   35  O4  UNL     1      -4.009   0.191  -1.837  1.00  0.00    -0.317 OA
BRANCH  35  36
HETATM   36  C26 UNL     1      -4.693   1.331  -1.945  1.00  0.00     0.283 C 
HETATM   37  O5  UNL     1      -5.370   1.721  -0.967  1.00  0.00    -0.260 OA
BRANCH  36  38
HETATM   38  C27 UNL     1      -4.687   2.158  -3.174  1.00  0.00     0.084 C 
HETATM   39  C28 UNL     1      -5.383   3.262  -3.212  1.00  0.00    -0.082 C 
HETATM   40  C29 UNL     1      -5.366   4.101  -4.484  1.00  0.00     0.043 C 
HETATM   41  C30 UNL     1      -6.218   3.812  -2.127  1.00  0.00     0.043 C 
ENDBRANCH  36  38
ENDBRANCH  35  36
ENDBRANCH  34  35
ENDBRANCH  13  34
BRANCH  15  42
HETATM   42  C33 UNL     1      -4.132  -2.364   1.609  1.00  0.00     0.126 C 
BRANCH  42  43
HETATM   43  C34 UNL     1      -4.186  -3.684   2.261  1.00  0.00     0.259 C 
HETATM   44  O6  UNL     1      -3.285  -4.529   2.260  1.00  0.00    -0.265 OA
BRANCH  43  45
HETATM   45  O7  UNL     1      -5.363  -4.022   2.948  1.00  0.00    -0.326 OA
HETATM   46  C35 UNL     1      -5.471  -5.274   3.593  1.00  0.00     0.213 C 
ENDBRANCH  43  45
ENDBRANCH  42  43
ENDBRANCH  15  42
TORSDOF 17
