REMARK  16 active torsions:
REMARK  status: ('A' for Active; 'I' for Inactive)
REMARK    1  A    between atoms: C2_2  and  N1_3 
REMARK    2  A    between atoms: C3_4  and  O1_5 
REMARK    3  A    between atoms: C4_7  and  C5_8 
REMARK    4  A    between atoms: C7_10  and  C8_11 
REMARK    5  A    between atoms: C8_11  and  C9_12 
REMARK    6  A    between atoms: C9_12  and  C10_13 
REMARK    7  A    between atoms: C10_13  and  N2_14 
REMARK    8  A    between atoms: N2_14  and  C11_17 
REMARK    9  A    between atoms: C11_17  and  C13_19 
REMARK   10  A    between atoms: C13_19  and  C14_20 
REMARK   11  A    between atoms: C14_20  and  C15_21 
REMARK   12  A    between atoms: C15_21  and  C16_22 
REMARK   13  A    between atoms: C16_22  and  C17_23 
REMARK   14  A    between atoms: C17_23  and  O3_25 
REMARK   15  A    between atoms: O3_25  and  C18_26 
REMARK   16  A    between atoms: N3_41  and  C32_42 
ROOT
HETATM    1  N2  UNL     1       2.089  -0.417   0.048  1.00  0.00    -0.068 N 
ATOM      2  H21 UNL     1       2.478  -0.741  -0.838  1.00  0.00     0.277 HD
ATOM      3  H22 UNL     1       2.058   0.582  -0.155  1.00  0.00     0.277 HD
ENDROOT
BRANCH   1   4
HETATM    4  C10 UNL     1       2.970  -0.713   1.163  1.00  0.00     0.233 C 
BRANCH   4   5
HETATM    5  C9  UNL     1       4.329  -0.129   1.002  1.00  0.00     0.031 C 
BRANCH   5   6
HETATM    6  C8  UNL     1       5.088  -0.585  -0.199  1.00  0.00     0.029 C 
BRANCH   6   7
HETATM    7  C7  UNL     1       6.427   0.064  -0.268  1.00  0.00    -0.019 C 
HETATM    8  C5  UNL     1       7.586  -0.517  -0.191  1.00  0.00    -0.046 C 
HETATM    9  C6  UNL     1       7.579  -1.993   0.083  1.00  0.00     0.049 C 
BRANCH   8  10
HETATM   10  C4  UNL     1       8.841   0.192  -0.269  1.00  0.00     0.089 A 
HETATM   11  C3  UNL     1      10.018  -0.527  -0.537  1.00  0.00     0.161 A 
HETATM   12  N1  UNL     1      11.244   0.072  -0.553  1.00  0.00    -0.304 N 
HETATM   13  C34 UNL     1      11.357   1.388  -0.310  1.00  0.00     0.185 A 
HETATM   14  N3  UNL     1      10.274   2.124  -0.050  1.00  0.00    -0.290 N 
HETATM   15  S1  UNL     1      12.841   2.061  -0.340  1.00  0.00    -0.040 SA
HETATM   16  C31 UNL     1       9.031   1.530  -0.030  1.00  0.00     0.264 A 
HETATM   17  O4  UNL     1       8.051   2.266   0.224  1.00  0.00    -0.267 OA
BRANCH  11  18
HETATM   18  O1  UNL     1       9.935  -1.875  -0.796  1.00  0.00    -0.345 OA
ATOM     19  H1  UNL     1       9.081  -2.292  -0.785  1.00  0.00     0.219 HD
ENDBRANCH  11  18
BRANCH  12  20
HETATM   20  C2  UNL     1      12.455  -0.691  -0.834  1.00  0.00     0.129 C 
HETATM   21  C1  UNL     1      12.779  -0.723  -2.306  1.00  0.00     0.027 C 
ENDBRANCH  12  20
BRANCH  14  22
HETATM   22  C32 UNL     1      10.360   3.545   0.214  1.00  0.00     0.130 C 
HETATM   23  C33 UNL     1      10.537   3.843   1.687  1.00  0.00     0.027 C 
ENDBRANCH  14  22
ENDBRANCH   8  10
ENDBRANCH   6   7
ENDBRANCH   5   6
ENDBRANCH   4   5
ENDBRANCH   1   4
BRANCH   1  24
HETATM   24  C11 UNL     1       0.755  -0.964   0.287  1.00  0.00     0.204 C 
HETATM   25  C12 UNL     1       0.838  -2.460   0.378  1.00  0.00     0.044 C 
BRANCH  24  26
HETATM   26  C13 UNL     1      -0.195  -0.578  -0.750  1.00  0.00     0.005 C 
BRANCH  26  27
HETATM   27  C14 UNL     1      -1.507  -0.645  -0.561  1.00  0.00    -0.002 C 
BRANCH  27  28
HETATM   28  C15 UNL     1      -2.040  -1.114   0.702  1.00  0.00     0.006 C 
BRANCH  28  29
HETATM   29  C16 UNL     1      -3.310  -1.190   0.945  1.00  0.00     0.082 C 
BRANCH  29  30
HETATM   30  C17 UNL     1      -4.419  -0.857   0.100  1.00  0.00     0.283 C 
HETATM   31  O2  UNL     1      -4.393  -0.418  -1.069  1.00  0.00    -0.260 OA
BRANCH  30  32
HETATM   32  O3  UNL     1      -5.719  -1.025   0.598  1.00  0.00    -0.313 OA
BRANCH  32  33
HETATM   33  C18 UNL     1      -6.878  -0.721  -0.153  1.00  0.00     0.133 C 
HETATM   34  C19 UNL     1      -7.722  -1.918  -0.435  1.00  0.00     0.033 C 
HETATM   35  C20 UNL     1      -8.866  -1.488  -1.318  1.00  0.00     0.012 C 
HETATM   36  C21 UNL     1      -9.763  -0.472  -0.650  1.00  0.00    -0.036 C 
HETATM   37  C22 UNL     1     -11.012  -1.211  -0.208  1.00  0.00     0.016 C 
HETATM   38  C23 UNL     1     -10.209   0.520  -1.697  1.00  0.00     0.010 C 
HETATM   39  C28 UNL     1      -9.146   0.149   0.558  1.00  0.00    -0.031 C 
HETATM   40  C24 UNL     1      -9.465   1.813  -1.681  1.00  0.00     0.001 C 
HETATM   41  C25 UNL     1      -9.475   2.486  -0.336  1.00  0.00     0.005 C 
HETATM   42  C26 UNL     1      -9.792   1.526   0.768  1.00  0.00    -0.010 C 
HETATM   43  C27 UNL     1      -9.230   2.104   2.053  1.00  0.00     0.011 C 
HETATM   44  C29 UNL     1      -9.467  -0.641   1.809  1.00  0.00     0.016 C 
HETATM   45  C30 UNL     1      -7.682   0.384   0.467  1.00  0.00     0.042 C 
ENDBRANCH  32  33
ENDBRANCH  30  32
ENDBRANCH  29  30
ENDBRANCH  28  29
ENDBRANCH  27  28
ENDBRANCH  26  27
ENDBRANCH  24  26
ENDBRANCH   1  24
TORSDOF 16
