REMARK  5 active torsions:
REMARK  status: ('A' for Active; 'I' for Inactive)
REMARK    1  A    between atoms: C2_2  and  S1_3 
REMARK    2  A    between atoms: S1_3  and  C3_4 
REMARK    3  A    between atoms: C5_6  and  O1_7 
REMARK    4  A    between atoms: C9_13  and  O3_14 
REMARK    5  A    between atoms: C10_16  and  O4_17 
ROOT
HETATM    1  C3  UNL     1      -0.730  -0.510   0.668  1.00  0.00     0.079 C 
HETATM    2  C4  UNL     1      -0.148  -1.915   0.502  1.00  0.00     0.052 C 
HETATM    3  C5  UNL     1       1.377  -1.914   0.296  1.00  0.00     0.150 C 
HETATM    4  C6  UNL     1       1.636  -0.527   0.150  1.00  0.00     0.181 C 
HETATM    5  O2  UNL     1       0.792  -0.224  -0.937  1.00  0.00    -0.374 OA
HETATM    6  C7  UNL     1      -0.203   0.511  -0.275  1.00  0.00     0.138 C 
HETATM    7  C8  UNL     1       0.612   1.640   0.281  1.00  0.00     0.067 C 
HETATM    8  C9  UNL     1       2.056   1.689  -0.217  1.00  0.00     0.152 C 
HETATM    9  C10 UNL     1       2.747   0.315  -0.133  1.00  0.00     0.178 C 
ENDROOT
BRANCH   1  10
HETATM   10  S1  UNL     1      -2.521  -0.767   0.565  1.00  0.00    -0.162 SA
BRANCH  10  11
HETATM   11  C2  UNL     1      -3.330  -0.163  -0.867  1.00  0.00     0.070 C 
HETATM   12  C1  UNL     1      -4.654   0.477  -0.456  1.00  0.00     0.016 C 
ENDBRANCH  10  11
ENDBRANCH   1  10
BRANCH   3  13
HETATM   13  O1  UNL     1       1.928  -2.446   1.473  1.00  0.00    -0.393 OA
ATOM     14  H1  UNL     1       2.869  -2.445   1.346  1.00  0.00     0.210 HD
ENDBRANCH   3  13
BRANCH   8  15
HETATM   15  O3  UNL     1       2.726   2.634   0.531  1.00  0.00    -0.393 OA
ATOM     16  H3  UNL     1       3.624   2.664   0.221  1.00  0.00     0.210 HD
ENDBRANCH   8  15
BRANCH   9  17
HETATM   17  O4  UNL     1       3.479   0.046  -1.273  1.00  0.00    -0.390 OA
ATOM     18  H4  UNL     1       4.221   0.608  -1.462  1.00  0.00     0.210 HD
ENDBRANCH   9  17
TORSDOF 5
