REMARK  2 active torsions:
REMARK  status: ('A' for Active; 'I' for Inactive)
REMARK    1  A    between atoms: C3_7  and  N3_8 
REMARK    2  A    between atoms: C5_11  and  C6_12 
ROOT
HETATM    1  C1  UNL     1       3.923  -2.121   0.214  1.00  0.00     0.149 C 
HETATM    2  N1  UNL     1       2.656  -2.013  -0.458  1.00  0.00    -0.366 N 
ATOM      3  H1  UNL     1       2.401  -2.732  -1.135  1.00  0.00     0.162 HD
HETATM    4  C2  UNL     1       1.810  -1.027  -0.238  1.00  0.00     0.176 C 
HETATM    5  N2  UNL     1       1.991   0.048   0.642  1.00  0.00    -0.336 N 
ATOM      6  H2  UNL     1       2.838   0.219   1.183  1.00  0.00     0.165 HD
HETATM    7  C3  UNL     1       0.820   0.873   0.676  1.00  0.00     0.229 C 
HETATM    8  C5  UNL     1      -0.003   0.339  -0.441  1.00  0.00     0.063 C 
HETATM    9  N4  UNL     1       0.503  -0.878  -0.846  1.00  0.00    -0.330 N 
ATOM     10  H4  UNL     1       0.042  -1.550  -1.460  1.00  0.00     0.168 HD
ENDROOT
BRANCH   8  11
HETATM   11  C6  UNL     1      -1.449   0.633  -0.306  1.00  0.00     0.207 C 
HETATM   12  O1  UNL     1      -1.992   0.767  -1.570  1.00  0.00    -0.353 OA
HETATM   13  C7  UNL     1      -2.119  -0.496  -2.079  1.00  0.00     0.340 C 
HETATM   14  O2  UNL     1      -2.223  -1.359  -1.011  1.00  0.00    -0.354 OA
HETATM   15  C8  UNL     1      -2.271  -0.558   0.143  1.00  0.00     0.087 C 
HETATM   16  C9  UNL     1      -1.860  -1.280   1.351  1.00  0.00     0.049 C 
HETATM   17  C10 UNL     1      -3.721  -0.054   0.220  1.00  0.00     0.049 C 
ENDBRANCH   8  11
BRANCH   7  18
HETATM   18  N3  UNL     1       1.013   2.259   0.462  1.00  0.00    -0.401 N 
HETATM   19  C4  UNL     1       2.236   2.889   0.581  1.00  0.00     0.142 C 
ATOM     20  H3  UNL     1       0.203   2.824   0.206  1.00  0.00     0.155 HD
ENDBRANCH   7  18
TORSDOF 2
