REMARK  5 active torsions:
REMARK  status: ('A' for Active; 'I' for Inactive)
REMARK    1  A    between atoms: O1_2  and  C2_3 
REMARK    2  A    between atoms: C5_7  and  C6_8 
REMARK    3  A    between atoms: C8_10  and  N1_11 
REMARK    4  A    between atoms: C9_15  and  O3_16 
REMARK    5  A    between atoms: C11_19  and  O4_20 
ROOT
HETATM    1  C6  UNL     1       0.233   0.017  -0.368  1.00  0.00     0.048 C 
HETATM    2  C7  UNL     1       0.548   0.005   1.095  1.00  0.00     0.045 C 
HETATM    3  C8  UNL     1       1.849  -0.723   1.311  1.00  0.00     0.212 C 
HETATM    4  C9  UNL     1       2.658  -0.825   0.046  1.00  0.00     0.151 C 
HETATM    5  C10 UNL     1       2.677   0.512  -0.649  1.00  0.00     0.066 C 
HETATM    6  C11 UNL     1       1.292   0.811  -1.127  1.00  0.00     0.127 C 
ENDROOT
BRANCH   1   7
HETATM    7  C5  UNL     1      -1.093   0.653  -0.683  1.00  0.00     0.157 C 
HETATM    8  C2  UNL     1      -2.260  -0.027  -0.039  1.00  0.00     0.152 C 
HETATM    9  C3  UNL     1      -3.339   1.056  -0.183  1.00  0.00     0.061 C 
HETATM   10  C4  UNL     1      -2.504   2.301  -0.186  1.00  0.00     0.171 C 
HETATM   11  O2  UNL     1      -1.181   1.945  -0.193  1.00  0.00    -0.383 OA
BRANCH   8  12
HETATM   12  O1  UNL     1      -2.596  -1.158  -0.782  1.00  0.00    -0.388 OA
HETATM   13  C1  UNL     1      -2.709  -2.287   0.024  1.00  0.00     0.202 C 
ENDBRANCH   8  12
ENDBRANCH   1   7
BRANCH   6  14
HETATM   14  O4  UNL     1       1.144   0.551  -2.490  1.00  0.00    -0.395 OA
ATOM     15  H4  UNL     1       1.803   1.045  -2.963  1.00  0.00     0.210 HD
ENDBRANCH   6  14
BRANCH   3  16
HETATM   16  N1  UNL     1       2.670  -0.085   2.330  1.00  0.00    -0.073 N 
ATOM     17  H13 UNL     1       2.828   0.899   2.114  1.00  0.00     0.274 HD
ATOM     18  H12 UNL     1       2.157   0.022   3.205  1.00  0.00     0.274 HD
ATOM     19  H11 UNL     1       3.551  -0.578   2.476  1.00  0.00     0.274 HD
ENDBRANCH   3  16
BRANCH   4  20
HETATM   20  O3  UNL     1       3.979  -1.157   0.337  1.00  0.00    -0.393 OA
ATOM     21  H3  UNL     1       4.490  -1.221  -0.461  1.00  0.00     0.210 HD
ENDBRANCH   4  20
TORSDOF 5
