REMARK  6 active torsions:
REMARK  status: ('A' for Active; 'I' for Inactive)
REMARK    1  A    between atoms: C2_2  and  O2_4 
REMARK    2  A    between atoms: O2_4  and  C3_5 
REMARK    3  A    between atoms: C12_14  and  O3_15 
REMARK    4  A    between atoms: C20_24  and  C22_26 
REMARK    5  A    between atoms: C22_26  and  C23_27 
REMARK    6  A    between atoms: C23_27  and  C24_28 
ROOT
HETATM    1  C3  UNL     1      -2.401  -0.185   0.989  1.00  0.00     0.230 C 
HETATM    2  C4  UNL     1      -1.895   1.187   1.388  1.00  0.00     0.058 C 
HETATM    3  C5  UNL     1      -1.408   2.080   0.313  1.00  0.00    -0.011 C 
HETATM    4  C6  UNL     1      -2.133   3.429   0.576  1.00  0.00     0.010 C 
HETATM    5  C7  UNL     1       0.050   2.356   0.392  1.00  0.00     0.049 C 
HETATM    6  C8  UNL     1       0.927   1.751  -0.656  1.00  0.00     0.111 C 
HETATM    7  C9  UNL     1       2.079   2.740  -0.916  1.00  0.00     0.054 C 
HETATM    8  C10 UNL     1       0.266   1.388  -1.920  1.00  0.00     0.016 C 
HETATM    9  C11 UNL     1      -0.385   0.398  -2.397  1.00  0.00     0.033 C 
HETATM   10  C12 UNL     1      -0.847  -0.902  -2.006  1.00  0.00     0.070 C 
HETATM   11  C13 UNL     1      -1.761  -1.458  -1.027  1.00  0.00     0.079 C 
HETATM   12  C14 UNL     1      -3.100  -1.716  -1.702  1.00  0.00     0.046 C 
HETATM   13  C15 UNL     1      -1.281  -2.809  -0.466  1.00  0.00     0.072 C 
HETATM   14  C16 UNL     1      -0.772  -2.036   0.649  1.00  0.00     0.048 C 
HETATM   15  C17 UNL     1      -1.067  -2.704   1.973  1.00  0.00     0.043 C 
HETATM   16  C18 UNL     1       0.596  -1.427   0.688  1.00  0.00     0.003 C 
HETATM   17  C19 UNL     1       1.728  -1.531   0.171  1.00  0.00     0.012 C 
HETATM   18  C20 UNL     1       3.069  -0.823   0.280  1.00  0.00     0.111 C 
HETATM   19  C21 UNL     1       3.720  -0.739   1.582  1.00  0.00     0.054 C 
HETATM   20  O4  UNL     1       2.815   0.542  -0.165  1.00  0.00    -0.225 OA
HETATM   21  O5  UNL     1       1.517   0.694  -0.074  1.00  0.00    -0.225 OA
HETATM   22  N2  UNL     1      -1.681  -1.000   0.229  1.00  0.00    -0.360 N 
ENDROOT
BRANCH  18  23
HETATM   23  C22 UNL     1       3.971  -1.347  -0.821  1.00  0.00     0.050 C 
BRANCH  23  24
HETATM   24  C23 UNL     1       5.323  -0.753  -0.821  1.00  0.00     0.047 C 
BRANCH  24  25
HETATM   25  C24 UNL     1       5.347   0.711  -0.998  1.00  0.00     0.052 C 
HETATM   26  N1  UNL     1       6.113   1.496  -0.341  1.00  0.00    -0.411 N 
ATOM     27  H12 UNL     1       6.738   1.068   0.342  1.00  0.00     0.155 HD
ATOM     28  H11 UNL     1       6.130   2.508  -0.463  1.00  0.00     0.155 HD
ENDBRANCH  24  25
ENDBRANCH  23  24
ENDBRANCH  18  23
BRANCH   1  29
HETATM   29  O2  UNL     1      -3.706   0.106   0.473  1.00  0.00    -0.296 OA
BRANCH  29  30
HETATM   30  C2  UNL     1      -4.808  -0.218   1.234  1.00  0.00     0.256 C 
HETATM   31  C1  UNL     1      -6.205   0.062   0.749  1.00  0.00     0.126 C 
HETATM   32  O1  UNL     1      -4.719  -0.759   2.365  1.00  0.00    -0.266 OA
ENDBRANCH  29  30
ENDBRANCH   1  29
BRANCH  10  33
HETATM   33  O3  UNL     1      -0.313  -1.882  -2.720  1.00  0.00    -0.362 OA
ATOM     34  H3  UNL     1      -0.619  -2.743  -2.461  1.00  0.00     0.217 HD
ENDBRANCH  10  33
TORSDOF 6
