REMARK  7 active torsions:
REMARK  status: ('A' for Active; 'I' for Inactive)
REMARK    1  A    between atoms: O1_2  and  C2_3 
REMARK    2  A    between atoms: C4_5  and  C5_6 
REMARK    3  A    between atoms: C14_17  and  C15_18 
REMARK    4  A    between atoms: C15_18  and  C16_19 
REMARK    5  A    between atoms: C20_23  and  O4_24 
REMARK    6  A    between atoms: C23_28  and  O5_29 
REMARK    7  A    between atoms: C25_31  and  O6_32 
ROOT
HETATM    1  C5  UNL     1      -2.312   1.553   0.665  1.00  0.00     0.017 C 
HETATM    2  C6  UNL     1      -1.179   1.203   0.208  1.00  0.00    -0.040 C 
HETATM    3  C7  UNL     1      -0.365   2.319  -0.480  1.00  0.00     0.073 C 
HETATM    4  C8  UNL     1       1.096   1.951  -0.179  1.00  0.00     0.175 C 
HETATM    5  O2  UNL     1       1.101   1.264   1.019  1.00  0.00    -0.233 OA
HETATM    6  O3  UNL     1       0.670   0.030   0.975  1.00  0.00    -0.225 OA
HETATM    7  C9  UNL     1      -0.500  -0.077   0.181  1.00  0.00     0.116 C 
HETATM    8  C10 UNL     1      -1.220  -1.297   0.654  1.00  0.00     0.054 C 
HETATM    9  C11 UNL     1      -0.057  -0.434  -1.271  1.00  0.00     0.051 C 
HETATM   10  C12 UNL     1       1.413  -0.262  -1.292  1.00  0.00     0.006 C 
HETATM   11  C13 UNL     1       2.119  -0.596  -2.576  1.00  0.00     0.042 C 
HETATM   12  C14 UNL     1       3.358   0.257  -2.383  1.00  0.00    -0.047 C 
HETATM   13  C20 UNL     1       3.041   1.327  -1.668  1.00  0.00     0.053 C 
HETATM   14  C21 UNL     1       1.629   1.265  -1.351  1.00  0.00     0.079 C 
ENDROOT
BRANCH   1  15
HETATM   15  C4  UNL     1      -3.385   0.877   1.373  1.00  0.00    -0.030 A 
HETATM   16  C3  UNL     1      -4.669   0.884   0.797  1.00  0.00     0.051 A 
HETATM   17  C2  UNL     1      -5.769   0.363   1.396  1.00  0.00     0.104 A 
HETATM   18  C25 UNL     1      -5.612  -0.217   2.662  1.00  0.00     0.133 A 
HETATM   19  C23 UNL     1      -4.370  -0.258   3.289  1.00  0.00     0.104 A 
HETATM   20  C22 UNL     1      -3.295   0.296   2.612  1.00  0.00     0.051 A 
BRANCH  17  21
HETATM   21  O1  UNL     1      -7.019   0.368   0.843  1.00  0.00    -0.353 OA
HETATM   22  C1  UNL     1      -7.399   0.901  -0.402  1.00  0.00     0.210 C 
ENDBRANCH  17  21
BRANCH  18  23
HETATM   23  O6  UNL     1      -6.685  -0.769   3.335  1.00  0.00    -0.356 OA
ATOM     24  H6  UNL     1      -6.579  -1.162   4.193  1.00  0.00     0.218 HD
ENDBRANCH  18  23
BRANCH  19  25
HETATM   25  O5  UNL     1      -4.267  -0.802   4.464  1.00  0.00    -0.353 OA
HETATM   26  C24 UNL     1      -3.457  -1.145   5.487  1.00  0.00     0.210 C 
ENDBRANCH  19  25
ENDBRANCH   1  15
BRANCH  13  27
HETATM   27  O4  UNL     1       3.965   2.311  -1.318  1.00  0.00    -0.364 OA
ATOM     28  H4  UNL     1       3.738   3.078  -0.806  1.00  0.00     0.217 HD
ENDBRANCH  13  27
BRANCH  12  29
HETATM   29  C15 UNL     1       4.672  -0.132  -2.955  1.00  0.00     0.064 C 
BRANCH  29  30
HETATM   30  C16 UNL     1       5.093  -1.425  -2.354  1.00  0.00    -0.020 C 
HETATM   31  C17 UNL     1       6.193  -1.524  -1.666  1.00  0.00    -0.091 C 
HETATM   32  C18 UNL     1       7.100  -0.401  -1.423  1.00  0.00     0.042 C 
HETATM   33  C19 UNL     1       6.577  -2.855  -1.088  1.00  0.00     0.042 C 
ENDBRANCH  29  30
ENDBRANCH  12  29
TORSDOF 7
