REMARK  12 active torsions:
REMARK  status: ('A' for Active; 'I' for Inactive)
REMARK    1  A    between atoms: C2_2  and  C3_3 
REMARK    2  A    between atoms: C3_3  and  C4_4 
REMARK    3  A    between atoms: C3_3  and  C28_42 
REMARK    4  A    between atoms: C4_4  and  C5_5 
REMARK    5  A    between atoms: C5_5  and  C6_6 
REMARK    6  A    between atoms: C9_10  and  O2_11 
REMARK    7  A    between atoms: O2_11  and  C10_12 
REMARK    8  A    between atoms: C10_12  and  C11_14 
REMARK    9  A    between atoms: C11_14  and  N1_15 
REMARK   10  A    between atoms: C11_14  and  C16_27 
REMARK       I    between atoms: N1_15  and  C12_17 
REMARK       I    between atoms: C12_17  and  N2_19 
REMARK   11  A    between atoms: N2_19  and  C13_21 
REMARK   12  A    between atoms: C27_39  and  O6_40 
ROOT
HETATM    1  C6  UNL     1      -3.070  -0.587   0.342  1.00  0.00     0.125 C 
HETATM    2  O1  UNL     1      -1.812  -0.190   0.003  1.00  0.00    -0.385 OA
HETATM    3  C7  UNL     1      -1.430  -0.213  -1.295  1.00  0.00     0.180 C 
HETATM    4  C8  UNL     1       0.005  -0.644  -1.537  1.00  0.00     0.095 C 
HETATM    5  C9  UNL     1       0.721  -1.017  -0.292  1.00  0.00     0.278 C 
HETATM    6  O5  UNL     1       0.467  -2.265   0.212  1.00  0.00    -0.354 OA
HETATM    7  C19 UNL     1       0.067  -3.248  -0.613  1.00  0.00     0.135 C 
HETATM    8  C20 UNL     1      -1.403  -3.537  -0.344  1.00  0.00     0.033 C 
HETATM    9  C21 UNL     1      -1.938  -2.763   0.813  1.00  0.00     0.009 C 
HETATM   10  C22 UNL     1      -3.258  -2.073   0.529  1.00  0.00     0.011 C 
HETATM   11  C23 UNL     1      -4.046  -2.739  -0.568  1.00  0.00     0.012 C 
HETATM   12  C24 UNL     1       0.374  -3.075  -2.069  1.00  0.00     0.005 C 
HETATM   13  C25 UNL     1       1.836  -3.495  -2.275  1.00  0.00     0.020 C 
HETATM   14  C26 UNL     1      -0.464  -4.087  -2.831  1.00  0.00     0.020 C 
HETATM   15  C27 UNL     1       0.124  -1.706  -2.604  1.00  0.00     0.139 C 
ENDROOT
BRANCH   5  16
HETATM   16  O2  UNL     1       2.121  -0.878  -0.372  1.00  0.00    -0.287 OA
BRANCH  16  17
HETATM   17  C10 UNL     1       2.887  -0.044   0.398  1.00  0.00     0.284 C 
HETATM   18  O3  UNL     1       2.277   0.654   1.250  1.00  0.00    -0.263 OA
BRANCH  17  19
HETATM   19  C11 UNL     1       4.341  -0.013   0.194  1.00  0.00     0.189 C 
BRANCH  19  20
HETATM   20  N1  UNL     1       5.007   0.902   1.097  1.00  0.00    -0.329 N 
HETATM   21  C12 UNL     1       5.835   1.963   0.659  1.00  0.00     0.322 C 
HETATM   22  O4  UNL     1       6.048   2.181  -0.578  1.00  0.00    -0.247 OA
HETATM   23  N2  UNL     1       6.457   2.820   1.588  1.00  0.00    -0.289 N 
ATOM     24  H2  UNL     1       6.304   2.672   2.586  1.00  0.00     0.172 HD
ATOM     25  H1  UNL     1       4.873   0.776   2.100  1.00  0.00     0.165 HD
BRANCH  23  26
HETATM   26  C13 UNL     1       7.309   3.906   1.154  1.00  0.00     0.152 A 
HETATM   27  N3  UNL     1       7.628   4.250  -0.086  1.00  0.00    -0.346 N 
HETATM   28  C14 UNL     1       8.410   5.258  -0.293  1.00  0.00     0.097 A 
ATOM     29  H3  UNL     1       7.257   3.720  -0.875  1.00  0.00     0.167 HD
HETATM   30  C15 UNL     1       8.880   5.937   0.804  1.00  0.00     0.070 A 
HETATM   31  S1  UNL     1       8.151   5.062   2.083  1.00  0.00    -0.064 SA
ENDBRANCH  23  26
ENDBRANCH  19  20
BRANCH  19  32
HETATM   32  C16 UNL     1       4.924  -1.404   0.399  1.00  0.00     0.010 C 
HETATM   33  C17 UNL     1       4.673  -1.940   1.770  1.00  0.00     0.012 C 
HETATM   34  C18 UNL     1       6.376  -1.466   0.039  1.00  0.00     0.012 C 
ENDBRANCH  19  32
ENDBRANCH  17  19
ENDBRANCH  16  17
ENDBRANCH   5  16
BRANCH  15  35
HETATM   35  O6  UNL     1      -1.002  -1.645  -3.446  1.00  0.00    -0.394 OA
ATOM     36  H6  UNL     1      -0.927  -2.313  -4.117  1.00  0.00     0.210 HD
ENDBRANCH  15  35
BRANCH   1  37
HETATM   37  C5  UNL     1      -4.194   0.041  -0.445  1.00  0.00     0.033 C 
BRANCH  37  38
HETATM   38  C4  UNL     1      -4.282   1.525  -0.328  1.00  0.00     0.007 C 
BRANCH  38  39
HETATM   39  C3  UNL     1      -4.544   2.119   1.009  1.00  0.00    -0.012 C 
BRANCH  39  40
HETATM   40  C2  UNL     1      -5.822   1.822   1.687  1.00  0.00     0.000 C 
HETATM   41  C1  UNL     1      -6.182   0.435   2.039  1.00  0.00     0.005 C 
ENDBRANCH  39  40
BRANCH  39  42
HETATM   42  C28 UNL     1      -4.299   3.649   0.954  1.00  0.00    -0.019 C 
HETATM   43  C29 UNL     1      -4.243   4.222   2.340  1.00  0.00     0.010 C 
HETATM   44  C30 UNL     1      -5.361   4.349   0.173  1.00  0.00     0.010 C 
ENDBRANCH  39  42
ENDBRANCH  38  39
ENDBRANCH  37  38
ENDBRANCH   1  37
TORSDOF 12
