REMARK  13 active torsions:
REMARK  status: ('A' for Active; 'I' for Inactive)
REMARK    1  A    between atoms: C2_2  and  C4_4 
REMARK    2  A    between atoms: C4_4  and  C5_5 
REMARK    3  A    between atoms: C4_4  and  O6_27 
REMARK    4  A    between atoms: C5_5  and  C6_6 
REMARK    5  A    between atoms: C6_6  and  C7_11 
REMARK    6  A    between atoms: N1_7  and  O1_9 
REMARK       I    between atoms: C7_11  and  N2_13 
REMARK    7  A    between atoms: N2_13  and  O3_15 
REMARK    8  A    between atoms: O3_15  and  C8_16 
REMARK    9  A    between atoms: C8_16  and  N3_17 
REMARK   10  A    between atoms: C8_16  and  C11_23 
REMARK       I    between atoms: N3_17  and  C9_19 
REMARK   11  A    between atoms: C9_19  and  O5_21 
REMARK   12  A    between atoms: C11_23  and  C13_25 
REMARK   13  A    between atoms: O6_27  and  C15_28 
ROOT
HETATM    1  C4  UNL     1      -0.701  -1.347  -1.875  1.00  0.00     0.155 C 
ENDROOT
BRANCH   1   2
HETATM    2  C2  UNL     1      -0.835  -2.865  -1.832  1.00  0.00    -0.064 C 
HETATM    3  C1  UNL     1      -1.735  -3.506  -1.135  1.00  0.00     0.016 C 
HETATM    4  C3  UNL     1       0.124  -3.734  -2.610  1.00  0.00     0.045 C 
ENDBRANCH   1   2
BRANCH   1   5
HETATM    5  C5  UNL     1      -1.974  -0.880  -1.157  1.00  0.00     0.101 C 
BRANCH   5   6
HETATM    6  C6  UNL     1      -2.176   0.567  -1.148  1.00  0.00     0.104 C 
HETATM    7  N1  UNL     1      -1.499   1.330  -1.914  1.00  0.00    -0.268 N 
ATOM      8  H1  UNL     1      -0.806   0.912  -2.536  1.00  0.00     0.194 HD
BRANCH   7   9
HETATM    9  O1  UNL     1      -1.671   2.716  -1.933  1.00  0.00    -0.290 OA
ATOM     10  H1  UNL     1      -1.167   3.284  -2.503  1.00  0.00     0.244 HD
ENDBRANCH   7   9
BRANCH   6  11
HETATM   11  C7  UNL     1      -3.207   1.162  -0.333  1.00  0.00     0.289 C 
HETATM   12  O2  UNL     1      -3.425   2.394  -0.383  1.00  0.00    -0.264 OA
HETATM   13  N2  UNL     1      -3.977   0.363   0.524  1.00  0.00    -0.227 N 
ATOM     14  H2  UNL     1      -3.769  -0.635   0.543  1.00  0.00     0.198 HD
BRANCH  13  15
HETATM   15  O3  UNL     1      -4.980   0.805   1.334  1.00  0.00    -0.251 OA
BRANCH  15  16
HETATM   16  C8  UNL     1      -6.225   0.602   0.660  1.00  0.00     0.259 C 
BRANCH  16  17
HETATM   17  N3  UNL     1      -6.750  -0.682   1.145  1.00  0.00    -0.308 N 
HETATM   18  C9  UNL     1      -6.760  -1.774   0.252  1.00  0.00     0.362 C 
HETATM   19  O4  UNL     1      -6.322  -1.615  -0.941  1.00  0.00    -0.238 OA
ATOM     20  H3  UNL     1      -7.097  -0.781   2.099  1.00  0.00     0.167 HD
BRANCH  18  21
HETATM   21  O5  UNL     1      -7.233  -3.020   0.640  1.00  0.00    -0.309 OA
HETATM   22  C10 UNL     1      -7.183  -4.056  -0.348  1.00  0.00     0.215 C 
ENDBRANCH  18  21
ENDBRANCH  16  17
BRANCH  16  23
HETATM   23  C11 UNL     1      -7.093   1.761   0.954  1.00  0.00     0.033 C 
HETATM   24  C12 UNL     1      -7.354   1.889   2.455  1.00  0.00     0.014 C 
BRANCH  23  25
HETATM   25  C13 UNL     1      -8.379   1.857   0.213  1.00  0.00     0.004 C 
HETATM   26  C14 UNL     1      -9.330   0.720   0.408  1.00  0.00     0.005 C 
ENDBRANCH  23  25
ENDBRANCH  16  23
ENDBRANCH  15  16
ENDBRANCH  13  15
ENDBRANCH   6  11
ENDBRANCH   5   6
ENDBRANCH   1   5
BRANCH   1  27
HETATM   27  O6  UNL     1       0.417  -1.143  -1.145  1.00  0.00    -0.375 OA
BRANCH  27  28
HETATM   28  C15 UNL     1       1.514  -0.505  -1.470  1.00  0.00     0.131 C 
HETATM   29  C16 UNL     1       2.652  -1.458  -1.977  1.00  0.00     0.034 C 
HETATM   30  C17 UNL     1       3.903  -0.622  -1.895  1.00  0.00     0.013 C 
HETATM   31  C18 UNL     1       3.580   0.565  -1.120  1.00  0.00    -0.030 C 
HETATM   32  C19 UNL     1       3.266   1.679  -2.131  1.00  0.00     0.016 C 
HETATM   33  C20 UNL     1       4.523   1.134  -0.170  1.00  0.00     0.004 C 
HETATM   34  C32 UNL     1       2.294   0.229  -0.418  1.00  0.00    -0.010 C 
HETATM   35  C21 UNL     1       5.851   1.587  -0.599  1.00  0.00     0.007 C 
HETATM   36  C29 UNL     1       4.851   0.413   1.112  1.00  0.00    -0.029 C 
HETATM   37  C22 UNL     1       6.454   2.041   0.725  1.00  0.00     0.010 C 
HETATM   38  C23 UNL     1       5.548   1.516   1.834  1.00  0.00    -0.036 C 
HETATM   39  C24 UNL     1       4.715   2.596   2.434  1.00  0.00     0.016 C 
HETATM   40  C25 UNL     1       6.365   1.038   3.029  1.00  0.00     0.010 C 
HETATM   41  C26 UNL     1       7.340  -0.019   2.739  1.00  0.00     0.001 C 
HETATM   42  C27 UNL     1       6.702  -1.146   2.005  1.00  0.00     0.001 C 
HETATM   43  C28 UNL     1       5.696  -0.782   0.975  1.00  0.00     0.011 C 
HETATM   44  C30 UNL     1       3.516   0.029   1.713  1.00  0.00     0.011 C 
HETATM   45  C31 UNL     1       2.634  -0.691   0.745  1.00  0.00     0.013 C 
HETATM   46  C33 UNL     1       1.543   1.364   0.128  1.00  0.00     0.018 C 
ENDBRANCH  27  28
ENDBRANCH   1  27
TORSDOF 13
