REMARK  11 active torsions:
REMARK  status: ('A' for Active; 'I' for Inactive)
REMARK    1  A    between atoms: C2_2  and  C3_3 
REMARK    2  A    between atoms: C5_6  and  C6_7 
REMARK    3  A    between atoms: C7_8  and  C8_9 
REMARK    4  A    between atoms: C10_11  and  C11_12 
REMARK    5  A    between atoms: C12_13  and  O2_14 
REMARK    6  A    between atoms: C13_16  and  O3_17 
REMARK    7  A    between atoms: C16_20  and  C17_21 
REMARK    8  A    between atoms: C17_21  and  C21_25 
REMARK    9  A    between atoms: C18_22  and  C19_23 
REMARK   10  A    between atoms: C22_28  and  C23_29 
REMARK   11  A    between atoms: C33_42  and  O9_43 
ROOT
HETATM    1  C11 UNL     1      -1.240   1.184   0.230  1.00  0.00     0.011 A 
HETATM    2  C12 UNL     1      -0.905   2.097   1.220  1.00  0.00     0.110 A 
HETATM    3  C13 UNL     1      -1.799   3.019   1.712  1.00  0.00     0.102 A 
HETATM    4  C15 UNL     1      -3.045   3.014   1.189  1.00  0.00     0.053 A 
HETATM    5  C16 UNL     1      -3.429   2.104   0.174  1.00  0.00    -0.006 A 
HETATM    6  C22 UNL     1      -2.550   1.178  -0.322  1.00  0.00     0.003 A 
ENDROOT
BRANCH   1   7
HETATM    7  C10 UNL     1      -0.358   0.134  -0.206  1.00  0.00     0.021 C 
HETATM    8  C8  UNL     1       0.107  -0.805   0.604  1.00  0.00    -0.061 C 
HETATM    9  C9  UNL     1      -0.370  -0.842   2.008  1.00  0.00     0.048 C 
BRANCH   8  10
HETATM   10  C7  UNL     1       0.991  -1.864   0.144  1.00  0.00     0.005 C 
HETATM   11  C6  UNL     1       2.323  -2.206   0.547  1.00  0.00     0.006 C 
BRANCH  11  12
HETATM   12  C5  UNL     1       3.538  -1.427   0.376  1.00  0.00     0.153 C 
HETATM   13  O1  UNL     1       4.608  -2.303   0.893  1.00  0.00    -0.364 OA
HETATM   14  C3  UNL     1       5.702  -2.136   0.030  1.00  0.00     0.101 C 
HETATM   15  C4  UNL     1       6.932  -2.656   0.719  1.00  0.00     0.053 C 
HETATM   16  C33 UNL     1       5.913  -0.651  -0.232  1.00  0.00     0.157 C 
HETATM   17  C32 UNL     1       5.352   0.064   0.961  1.00  0.00     0.046 C 
HETATM   18  C29 UNL     1       3.800  -0.093   0.894  1.00  0.00    -0.016 C 
HETATM   19  C30 UNL     1       3.370   1.046   0.004  1.00  0.00     0.018 C 
HETATM   20  C31 UNL     1       3.362   0.179   2.302  1.00  0.00     0.018 C 
BRANCH  14  21
HETATM   21  C2  UNL     1       5.545  -2.826  -1.262  1.00  0.00     0.003 C 
HETATM   22  C1  UNL     1       6.015  -4.052  -1.464  1.00  0.00     0.010 C 
ENDBRANCH  14  21
BRANCH  16  23
HETATM   23  O9  UNL     1       7.281  -0.377  -0.397  1.00  0.00    -0.392 OA
ATOM     24  H9  UNL     1       7.413   0.550  -0.560  1.00  0.00     0.210 HD
ENDBRANCH  16  23
ENDBRANCH  11  12
ENDBRANCH   8  10
ENDBRANCH   1   7
BRANCH   2  25
HETATM   25  O2  UNL     1       0.386   2.085   1.732  1.00  0.00    -0.357 OA
ATOM     26  H2  UNL     1       0.615   2.710   2.410  1.00  0.00     0.217 HD
ENDBRANCH   2  25
BRANCH   6  27
HETATM   27  C23 UNL     1      -2.930   0.189  -1.308  1.00  0.00     0.237 C 
HETATM   28  O6  UNL     1      -2.795  -1.156  -0.669  1.00  0.00    -0.302 OA
HETATM   29  C24 UNL     1      -2.758  -2.102  -1.652  1.00  0.00     0.275 C 
HETATM   30  O7  UNL     1      -3.077  -3.316  -1.460  1.00  0.00    -0.264 OA
HETATM   31  C25 UNL     1      -2.305  -1.469  -2.894  1.00  0.00     0.104 C 
HETATM   32  C26 UNL     1      -1.024  -2.048  -3.398  1.00  0.00     0.034 C 
HETATM   33  C27 UNL     1      -3.408  -1.560  -3.949  1.00  0.00     0.034 C 
HETATM   34  C28 UNL     1      -2.208  -0.022  -2.533  1.00  0.00     0.178 C 
HETATM   35  O8  UNL     1      -1.590   0.759  -3.247  1.00  0.00    -0.293 OA
ENDBRANCH   6  27
BRANCH   3  36
HETATM   36  O3  UNL     1      -1.389   3.903   2.711  1.00  0.00    -0.353 OA
HETATM   37  C14 UNL     1      -2.244   4.872   3.263  1.00  0.00     0.210 C 
ENDBRANCH   3  36
BRANCH   5  38
HETATM   38  C17 UNL     1      -4.847   2.167  -0.193  1.00  0.00     0.048 C 
HETATM   39  C18 UNL     1      -5.698   2.099   0.798  1.00  0.00    -0.008 C 
BRANCH  39  40
HETATM   40  C19 UNL     1      -7.149   2.123   0.859  1.00  0.00     0.024 C 
HETATM   41  C20 UNL     1      -7.569   0.813   1.569  1.00  0.00     0.009 C 
ENDBRANCH  39  40
BRANCH  38  42
HETATM   42  C21 UNL     1      -5.260   2.445  -1.531  1.00  0.00     0.209 C 
HETATM   43  O4  UNL     1      -6.488   2.583  -1.899  1.00  0.00    -0.644 OA
HETATM   44  O5  UNL     1      -4.350   2.615  -2.601  1.00  0.00    -0.644 OA
ENDBRANCH  38  42
ENDBRANCH   5  38
TORSDOF 11
