REMARK  14 active torsions:
REMARK  status: ('A' for Active; 'I' for Inactive)
REMARK    1  A    between atoms: C4_4  and  C5_5 
REMARK    2  A    between atoms: C5_5  and  C6_6 
REMARK    3  A    between atoms: C8_8  and  C9_9 
REMARK    4  A    between atoms: C12_13  and  C13_14 
REMARK    5  A    between atoms: C13_14  and  C14_15 
REMARK    6  A    between atoms: C14_15  and  O2_16 
REMARK    7  A    between atoms: C14_15  and  C15_18 
REMARK    8  A    between atoms: C18_23  and  C19_24 
REMARK    9  A    between atoms: C21_27  and  O6_28 
REMARK   10  A    between atoms: C24_32  and  C26_34 
REMARK   11  A    between atoms: C26_34  and  C27_35 
REMARK   12  A    between atoms: C27_35  and  C28_36 
REMARK   13  A    between atoms: C28_36  and  O8_38 
REMARK   14  A    between atoms: O8_38  and  C29_39 
ROOT
HETATM    1  C15 UNL     1       1.287  -0.759  -1.483  1.00  0.00    -0.035 C 
HETATM    2  C16 UNL     1       1.130  -1.801  -2.303  1.00  0.00     0.088 C 
HETATM    3  C17 UNL     1       2.093  -2.864  -2.507  1.00  0.00     0.283 C 
HETATM    4  O3  UNL     1       1.874  -3.841  -3.301  1.00  0.00    -0.260 OA
HETATM    5  O4  UNL     1       3.251  -2.781  -1.810  1.00  0.00    -0.307 OA
HETATM    6  C18 UNL     1       3.663  -1.371  -1.553  1.00  0.00     0.180 C 
HETATM    7  C24 UNL     1       2.564  -0.767  -0.741  1.00  0.00     0.014 C 
HETATM    8  C25 UNL     1       2.317  -1.813   0.381  1.00  0.00     0.023 C 
ENDROOT
BRANCH   1   9
HETATM    9  C14 UNL     1       0.168   0.163  -1.483  1.00  0.00     0.150 C 
BRANCH   9  10
HETATM   10  C13 UNL     1      -0.418   0.815  -0.354  1.00  0.00     0.069 C 
BRANCH  10  11
HETATM   11  C12 UNL     1      -0.859   0.257   0.900  1.00  0.00     0.133 C 
HETATM   12  O1  UNL     1      -1.342   1.349   1.678  1.00  0.00    -0.379 OA
HETATM   13  C8  UNL     1      -2.528   1.866   1.330  1.00  0.00     0.125 C 
HETATM   14  C7  UNL     1      -3.678   0.854   1.334  1.00  0.00     0.038 C 
HETATM   15  C6  UNL     1      -3.218  -0.262   0.432  1.00  0.00     0.002 C 
HETATM   16  C30 UNL     1      -1.914  -0.768   0.980  1.00  0.00    -0.017 C 
HETATM   17  C31 UNL     1      -2.139  -1.018   2.478  1.00  0.00     0.018 C 
HETATM   18  C32 UNL     1      -1.580  -2.139   0.452  1.00  0.00     0.018 C 
BRANCH  13  19
HETATM   19  C9  UNL     1      -2.841   3.009   2.295  1.00  0.00     0.006 C 
HETATM   20  C10 UNL     1      -4.135   3.709   1.849  1.00  0.00     0.012 C 
HETATM   21  C11 UNL     1      -3.052   2.568   3.701  1.00  0.00     0.012 C 
ENDBRANCH  13  19
BRANCH  15  22
HETATM   22  C5  UNL     1      -4.234  -1.354   0.262  1.00  0.00     0.033 C 
BRANCH  22  23
HETATM   23  C4  UNL     1      -5.473  -0.801  -0.324  1.00  0.00    -0.024 C 
HETATM   24  C2  UNL     1      -5.960  -1.223  -1.484  1.00  0.00    -0.091 C 
HETATM   25  C1  UNL     1      -5.277  -2.296  -2.275  1.00  0.00     0.042 C 
HETATM   26  C3  UNL     1      -7.212  -0.621  -2.014  1.00  0.00     0.042 C 
ENDBRANCH  22  23
ENDBRANCH  15  22
ENDBRANCH  10  11
ENDBRANCH   9  10
BRANCH   9  27
HETATM   27  O2  UNL     1       0.406   1.085  -2.505  1.00  0.00    -0.391 OA
ATOM     28  H2  UNL     1       0.795   0.652  -3.255  1.00  0.00     0.210 HD
ENDBRANCH   9  27
ENDBRANCH   1   9
BRANCH   7  29
HETATM   29  C26 UNL     1       3.012   0.444  -0.082  1.00  0.00     0.026 C 
BRANCH  29  30
HETATM   30  C27 UNL     1       3.323   1.690  -0.826  1.00  0.00     0.113 C 
BRANCH  30  31
HETATM   31  C28 UNL     1       3.830   2.733   0.163  1.00  0.00     0.267 C 
HETATM   32  O7  UNL     1       4.164   3.879  -0.207  1.00  0.00    -0.265 OA
BRANCH  31  33
HETATM   33  O8  UNL     1       3.925   2.407   1.499  1.00  0.00    -0.230 OA
BRANCH  33  34
HETATM   34  C29 UNL     1       4.372   3.278   2.473  1.00  0.00     0.380 C 
HETATM   35  N1  UNL     1       4.473   2.951   3.850  1.00  0.00    -0.032 NA
HETATM   36  O9  UNL     1       4.711   4.434   2.121  1.00  0.00    -0.242 OA
ENDBRANCH  33  34
ENDBRANCH  31  33
ENDBRANCH  30  31
ENDBRANCH  29  30
ENDBRANCH   7  29
BRANCH   6  37
HETATM   37  C19 UNL     1       5.010  -1.477  -1.061  1.00  0.00     0.005 A 
HETATM   38  C20 UNL     1       5.613  -1.517   0.136  1.00  0.00     0.155 A 
HETATM   39  O5  UNL     1       6.936  -1.700   0.013  1.00  0.00    -0.299 OA
HETATM   40  C21 UNL     1       7.213  -1.783  -1.243  1.00  0.00     0.189 A 
HETATM   41  C22 UNL     1       6.076  -1.655  -1.971  1.00  0.00     0.007 A 
HETATM   42  C23 UNL     1       5.981  -1.695  -3.460  1.00  0.00     0.054 C 
BRANCH  40  43
HETATM   43  O6  UNL     1       8.492  -1.974  -1.746  1.00  0.00    -0.340 OA
ATOM     44  H6  UNL     1       8.696  -2.035  -2.672  1.00  0.00     0.220 HD
ENDBRANCH  40  43
ENDBRANCH   6  37
TORSDOF 14
