REMARK  9 active torsions:
REMARK  status: ('A' for Active; 'I' for Inactive)
REMARK    1  A    between atoms: C4_4  and  C5_5 
REMARK    2  A    between atoms: C5_5  and  C6_6 
REMARK    3  A    between atoms: C5_5  and  N1_14 
REMARK    4  A    between atoms: C6_6  and  C7_7 
REMARK    5  A    between atoms: C7_7  and  C8_8 
REMARK    6  A    between atoms: N1_14  and  C13_16 
REMARK    7  A    between atoms: C13_16  and  C14_17 
REMARK    8  A    between atoms: C13_16  and  C23_33 
REMARK    9  A    between atoms: C16_19  and  C17_20 
REMARK       I    between atoms: C17_20  and  N2_22 
ROOT
HETATM    1  C17 UNL     1       3.582   2.202  -1.112  1.00  0.00     0.281 C 
HETATM    2  O2  UNL     1       3.781   3.021  -2.087  1.00  0.00    -0.265 OA
HETATM    3  N2  UNL     1       4.536   2.241  -0.078  1.00  0.00    -0.325 N 
HETATM    4  C18 UNL     1       4.543   1.405   1.100  1.00  0.00     0.153 C 
HETATM    5  C19 UNL     1       5.879   1.638   1.822  1.00  0.00     0.187 C 
HETATM    6  O3  UNL     1       6.907   1.570   0.908  1.00  0.00    -0.387 OA
HETATM    7  C20 UNL     1       6.950   2.764   0.215  1.00  0.00     0.208 C 
HETATM    8  C21 UNL     1       5.600   3.220  -0.185  1.00  0.00     0.218 C 
HETATM    9  C22 UNL     1       5.210   4.423   0.581  1.00  0.00     0.087 C 
HETATM   10  N3  UNL     1       4.911   5.363   1.202  1.00  0.00    -0.195 NA
ENDROOT
BRANCH   1  11
HETATM   11  C16 UNL     1       2.409   1.350  -1.201  1.00  0.00     0.168 A 
HETATM   12  C15 UNL     1       1.895   0.413  -0.343  1.00  0.00     0.074 A 
HETATM   13  C14 UNL     1       0.752  -0.105  -0.932  1.00  0.00     0.058 A 
HETATM   14  N4  UNL     1       0.615   0.514  -2.082  1.00  0.00    -0.263 N 
HETATM   15  O4  UNL     1       1.580   1.354  -2.227  1.00  0.00    -0.232 OA
ATOM     16  H4  UNL     1      -0.136   0.355  -2.753  1.00  0.00     0.194 HD
BRANCH  13  17
HETATM   17  C13 UNL     1      -0.141  -1.185  -0.296  1.00  0.00     0.133 C 
BRANCH  17  18
HETATM   18  N1  UNL     1      -1.432  -0.807  -0.554  1.00  0.00    -0.404 N 
ATOM     19  H1  UNL     1      -1.546  -0.137  -1.314  1.00  0.00     0.154 HD
BRANCH  18  20
HETATM   20  C5  UNL     1      -2.607  -1.204   0.069  1.00  0.00     0.100 C 
BRANCH  20  21
HETATM   21  C4  UNL     1      -3.204  -2.536   0.086  1.00  0.00    -0.000 C 
HETATM   22  C2  UNL     1      -3.802  -3.206  -1.048  1.00  0.00    -0.089 C 
HETATM   23  C1  UNL     1      -4.971  -2.432  -1.681  1.00  0.00     0.042 C 
HETATM   24  C3  UNL     1      -3.021  -3.808  -2.110  1.00  0.00     0.042 C 
ENDBRANCH  20  21
BRANCH  20  25
HETATM   25  C6  UNL     1      -2.295  -0.882   1.617  1.00  0.00     0.029 C 
BRANCH  25  26
HETATM   26  C7  UNL     1      -1.788   0.477   1.801  1.00  0.00     0.007 C 
BRANCH  26  27
HETATM   27  C8  UNL     1      -2.748   1.560   1.332  1.00  0.00    -0.010 C 
HETATM   28  C9  UNL     1      -2.076   2.911   1.575  1.00  0.00     0.031 C 
HETATM   29  C10 UNL     1      -3.128   4.002   1.483  1.00  0.00     0.168 C 
HETATM   30  O1  UNL     1      -4.273   3.531   0.839  1.00  0.00    -0.391 OA
HETATM   31  C11 UNL     1      -4.958   2.581   1.552  1.00  0.00     0.168 C 
HETATM   32  C12 UNL     1      -4.017   1.591   2.171  1.00  0.00     0.031 C 
ENDBRANCH  26  27
ENDBRANCH  25  26
ENDBRANCH  20  25
ENDBRANCH  18  20
ENDBRANCH  17  18
BRANCH  17  33
HETATM   33  C23 UNL     1       0.337  -2.508  -0.772  1.00  0.00     0.014 C 
HETATM   34  C24 UNL     1       0.393  -2.627  -2.261  1.00  0.00     0.007 C 
HETATM   35  C25 UNL     1       1.855  -2.723  -2.665  1.00  0.00     0.000 C 
HETATM   36  C26 UNL     1       2.659  -2.881  -1.420  1.00  0.00     0.000 C 
HETATM   37  C27 UNL     1       1.705  -2.881  -0.253  1.00  0.00     0.007 C 
ENDBRANCH  17  33
ENDBRANCH  13  17
ENDBRANCH   1  11
TORSDOF 9
