REMARK  15 active torsions:
REMARK  status: ('A' for Active; 'I' for Inactive)
REMARK    1  A    between atoms: C2_2  and  C4_4 
REMARK    2  A    between atoms: C4_4  and  O2_6 
REMARK    3  A    between atoms: O2_6  and  C5_7 
REMARK    4  A    between atoms: C5_7  and  C6_8 
REMARK    5  A    between atoms: C6_8  and  C8_10 
REMARK    6  A    between atoms: C8_10  and  N1_11 
REMARK    7  A    between atoms: C8_10  and  C22_27 
REMARK    8  A    between atoms: N1_11  and  C9_12 
REMARK    9  A    between atoms: C9_12  and  C11_14 
REMARK   10  A    between atoms: N2_15  and  C12_17 
REMARK   11  A    between atoms: C13_18  and  C14_19 
REMARK   12  A    between atoms: C15_20  and  C16_21 
REMARK   13  A    between atoms: C22_27  and  O4_29 
REMARK   14  A    between atoms: O4_29  and  C23_30 
REMARK   15  A    between atoms: C29_36  and  O5_37 
ROOT
HETATM    1  C8  UNL     1      -1.345   0.574   1.615  1.00  0.00     0.268 C 
ENDROOT
BRANCH   1   2
HETATM    2  C6  UNL     1      -1.350   1.870   0.755  1.00  0.00     0.052 C 
HETATM    3  C7  UNL     1      -0.038   2.608   1.059  1.00  0.00     0.016 C 
BRANCH   2   4
HETATM    4  C5  UNL     1      -2.508   2.734   1.054  1.00  0.00     0.187 C 
BRANCH   4   5
HETATM    5  O2  UNL     1      -2.498   3.957   0.321  1.00  0.00    -0.317 OA
BRANCH   5   6
HETATM    6  C4  UNL     1      -2.528   4.076  -1.041  1.00  0.00     0.288 C 
HETATM    7  O1  UNL     1      -2.563   3.033  -1.732  1.00  0.00    -0.260 OA
BRANCH   6   8
HETATM    8  C2  UNL     1      -2.519   5.364  -1.732  1.00  0.00     0.004 C 
HETATM    9  C1  UNL     1      -2.550   5.377  -3.046  1.00  0.00     0.024 C 
HETATM   10  C3  UNL     1      -2.480   6.654  -0.982  1.00  0.00     0.054 C 
ENDBRANCH   6   8
ENDBRANCH   5   6
ENDBRANCH   4   5
ENDBRANCH   2   4
ENDBRANCH   1   2
BRANCH   1  11
HETATM   11  N1  UNL     1      -0.272  -0.204   1.358  1.00  0.00    -0.435 NA
BRANCH  11  12
HETATM   12  C9  UNL     1       0.688  -0.889   1.137  1.00  0.00     0.090 C 
HETATM   13  C10 UNL     1       0.731  -2.007   0.107  1.00  0.00     0.086 C 
BRANCH  12  14
HETATM   14  C11 UNL     1       1.982  -0.705   1.863  1.00  0.00     0.126 C 
HETATM   15  N2  UNL     1       2.951  -1.469   1.576  1.00  0.00    -0.372 N 
ATOM     16  H2  UNL     1       2.780  -2.172   0.857  1.00  0.00     0.164 HD
BRANCH  15  17
HETATM   17  C12 UNL     1       4.234  -1.449   2.143  1.00  0.00     0.087 C 
HETATM   18  C13 UNL     1       5.316  -1.044   1.416  1.00  0.00     0.017 C 
BRANCH  18  19
HETATM   19  C14 UNL     1       5.124  -0.639   0.068  1.00  0.00     0.002 C 
HETATM   20  C15 UNL     1       5.899  -0.216  -0.845  1.00  0.00     0.011 C 
BRANCH  20  21
HETATM   21  C16 UNL     1       7.311   0.053  -0.941  1.00  0.00    -0.036 A 
HETATM   22  C17 UNL     1       7.814   0.456  -2.203  1.00  0.00     0.011 A 
HETATM   23  C18 UNL     1       9.146   0.747  -2.365  1.00  0.00     0.001 A 
HETATM   24  C19 UNL     1      10.053   0.666  -1.339  1.00  0.00     0.000 A 
HETATM   25  C20 UNL     1       9.574   0.276  -0.115  1.00  0.00     0.001 A 
HETATM   26  C21 UNL     1       8.222  -0.023   0.071  1.00  0.00     0.011 A 
ENDBRANCH  20  21
ENDBRANCH  18  19
ENDBRANCH  15  17
ENDBRANCH  12  14
ENDBRANCH  11  12
ENDBRANCH   1  11
BRANCH   1  27
HETATM   27  C22 UNL     1      -2.593  -0.171   1.287  1.00  0.00     0.295 C 
HETATM   28  O3  UNL     1      -3.742   0.159   1.623  1.00  0.00    -0.262 OA
BRANCH  27  29
HETATM   29  O4  UNL     1      -2.548  -1.357   0.537  1.00  0.00    -0.311 OA
BRANCH  29  30
HETATM   30  C23 UNL     1      -3.706  -2.073   0.209  1.00  0.00     0.160 C 
HETATM   31  C24 UNL     1      -3.630  -3.382   1.016  1.00  0.00     0.035 C 
HETATM   32  C25 UNL     1      -4.962  -3.623   1.736  1.00  0.00     0.002 C 
HETATM   33  C26 UNL     1      -6.131  -3.448   0.811  1.00  0.00     0.000 C 
HETATM   34  C27 UNL     1      -5.732  -3.995  -0.545  1.00  0.00     0.002 C 
HETATM   35  C28 UNL     1      -5.244  -2.959  -1.498  1.00  0.00     0.034 C 
HETATM   36  C29 UNL     1      -3.869  -2.431  -1.223  1.00  0.00     0.147 C 
BRANCH  36  37
HETATM   37  O5  UNL     1      -2.933  -3.371  -1.652  1.00  0.00    -0.393 OA
ATOM     38  H5  UNL     1      -3.037  -3.600  -2.568  1.00  0.00     0.210 HD
ENDBRANCH  36  37
ENDBRANCH  29  30
ENDBRANCH  27  29
ENDBRANCH   1  27
TORSDOF 15
