REMARK  7 active torsions:
REMARK  status: ('A' for Active; 'I' for Inactive)
REMARK    1  A    between atoms: O1_2  and  C2_3 
REMARK    2  A    between atoms: C7_10  and  C8_11 
REMARK    3  A    between atoms: C10_14  and  C11_15 
REMARK    4  A    between atoms: N2_21  and  C14_22 
REMARK    5  A    between atoms: C14_22  and  C15_23 
REMARK    6  A    between atoms: C20_31  and  C21_32 
REMARK    7  A    between atoms: C21_32  and  O5_33 
ROOT
HETATM    1  C8  UNL     1      -2.077   0.249   1.038  1.00  0.00    -0.007 A 
HETATM    2  C9  UNL     1      -1.498   1.368   1.565  1.00  0.00     0.063 A 
HETATM    3  S1  UNL     1       0.130   1.183   1.236  1.00  0.00    -0.100 SA
HETATM    4  C10 UNL     1       0.077  -0.381   0.397  1.00  0.00     0.030 A 
HETATM    5  C20 UNL     1      -1.245  -0.647   0.429  1.00  0.00    -0.005 A 
ENDROOT
BRANCH   4   6
HETATM    6  C11 UNL     1       1.297  -0.979  -0.127  1.00  0.00     0.057 A 
HETATM    7  C12 UNL     1       1.606  -2.287  -0.157  1.00  0.00     0.094 A 
HETATM    8  C13 UNL     1       2.796  -2.673  -0.781  1.00  0.00     0.261 A 
HETATM    9  O2  UNL     1       3.075  -3.878  -0.808  1.00  0.00    -0.267 OA
HETATM   10  N1  UNL     1       3.643  -1.807  -1.346  1.00  0.00    -0.261 N 
HETATM   11  N2  UNL     1       3.341  -0.504  -1.315  1.00  0.00    -0.248 N 
ATOM     12  H1  UNL     1       4.501  -2.133  -1.791  1.00  0.00     0.190 HD
HETATM   13  C19 UNL     1       2.220  -0.100  -0.733  1.00  0.00     0.274 A 
HETATM   14  O4  UNL     1       1.918   1.115  -0.694  1.00  0.00    -0.266 OA
BRANCH  11  15
HETATM   15  C14 UNL     1       4.262   0.457  -1.922  1.00  0.00     0.217 C 
BRANCH  15  16
HETATM   16  C15 UNL     1       5.263   0.928  -0.965  1.00  0.00     0.074 A 
HETATM   17  C16 UNL     1       5.166   2.029  -0.155  1.00  0.00     0.060 A 
HETATM   18  C17 UNL     1       6.348   2.085   0.583  1.00  0.00     0.058 A 
HETATM   19 CL3  UNL     1       6.749   3.300   1.777  1.00  0.00    -0.082 Cl
HETATM   20  C18 UNL     1       7.096   1.006   0.173  1.00  0.00     0.166 A 
HETATM   21  O3  UNL     1       6.415   0.372  -0.726  1.00  0.00    -0.324 OA
ENDBRANCH  15  16
ENDBRANCH  11  15
ENDBRANCH   4   6
BRANCH   5  22
HETATM   22  C21 UNL     1      -1.898  -1.820  -0.296  1.00  0.00     0.205 C 
BRANCH  22  23
HETATM   23  O5  UNL     1      -1.115  -2.625  -0.997  1.00  0.00    -0.396 OA
ATOM     24  H5  UNL     1      -1.522  -3.355  -1.448  1.00  0.00     0.209 HD
ENDBRANCH  22  23
ENDBRANCH   5  22
BRANCH   1  25
HETATM   25  C7  UNL     1      -3.552   0.072   1.218  1.00  0.00     0.012 A 
HETATM   26  C2  UNL     1      -4.405   1.037   0.695  1.00  0.00     0.101 A 
HETATM   27  C3  UNL     1      -5.763   0.960   0.888  1.00  0.00     0.069 A 
HETATM   28 CL1  UNL     1      -6.801   2.188   0.218  1.00  0.00    -0.081 Cl
HETATM   29  C4  UNL     1      -6.323  -0.074   1.603  1.00  0.00     0.050 A 
HETATM   30  C5  UNL     1      -5.479  -1.029   2.120  1.00  0.00     0.036 A 
HETATM   31 CL2  UNL     1      -6.157  -2.372   3.046  1.00  0.00    -0.084 Cl
HETATM   32  C6  UNL     1      -4.097  -0.952   1.926  1.00  0.00     0.039 A 
BRANCH  26  33
HETATM   33  O1  UNL     1      -3.829   2.074  -0.024  1.00  0.00    -0.353 OA
HETATM   34  C1  UNL     1      -3.620   2.003  -1.424  1.00  0.00     0.210 C 
ENDBRANCH  26  33
ENDBRANCH   1  25
TORSDOF 7
