REMARK  7 active torsions:
REMARK  status: ('A' for Active; 'I' for Inactive)
REMARK    1  A    between atoms: O1_1  and  C1_3 
REMARK    2  A    between atoms: C1_3  and  C2_4 
REMARK    3  A    between atoms: C1_3  and  C9_15 
REMARK    4  A    between atoms: C2_4  and  O2_5 
REMARK    5  A    between atoms: O2_5  and  C3_6 
REMARK    6  A    between atoms: C9_15  and  N1_16 
REMARK    7  A    between atoms: C10_17  and  C11_18 
ROOT
HETATM    1  N1  UNL     1      -0.660  -0.459  -0.152  1.00  0.00    -0.326 N 
HETATM    2  C10 UNL     1      -1.356   0.686  -0.048  1.00  0.00     0.089 A 
HETATM    3  N3  UNL     1      -2.652   0.344   0.080  1.00  0.00    -0.343 N 
ATOM      4  H3  UNL     1      -3.411   1.018   0.178  1.00  0.00     0.167 HD
HETATM    5  C16 UNL     1      -2.831  -0.997   0.064  1.00  0.00     0.075 A 
HETATM    6  C17 UNL     1      -3.845  -1.891   0.148  1.00  0.00    -0.015 A 
HETATM    7  C18 UNL     1      -3.512  -3.219   0.078  1.00  0.00    -0.007 A 
HETATM    8  S1  UNL     1      -1.817  -3.172  -0.101  1.00  0.00    -0.074 SA
HETATM    9  C19 UNL     1      -1.571  -1.486  -0.083  1.00  0.00     0.105 A 
HETATM   10  C20 UNL     1      -4.567  -4.298   0.163  1.00  0.00     0.047 C 
HETATM   11  C21 UNL     1      -5.833  -3.935  -0.527  1.00  0.00     0.005 C 
HETATM   12  C22 UNL     1      -6.044  -2.477  -0.743  1.00  0.00     0.005 C 
HETATM   13  C23 UNL     1      -5.345  -1.656   0.313  1.00  0.00     0.042 C 
ENDROOT
BRANCH   1  14
HETATM   14  C9  UNL     1       0.733  -0.683  -0.300  1.00  0.00     0.165 C 
BRANCH  14  15
HETATM   15  C1  UNL     1       1.494  -0.875   0.996  1.00  0.00     0.160 C 
BRANCH  15  16
HETATM   16  O1  UNL     1       1.015  -1.974   1.708  1.00  0.00    -0.392 OA
ATOM     17  H1  UNL     1       0.077  -1.916   1.844  1.00  0.00     0.210 HD
ENDBRANCH  15  16
BRANCH  15  18
HETATM   18  C2  UNL     1       2.974  -0.967   0.782  1.00  0.00     0.209 C 
BRANCH  18  19
HETATM   19  O2  UNL     1       3.428   0.159   0.059  1.00  0.00    -0.345 OA
BRANCH  19  20
HETATM   20  C3  UNL     1       4.773   0.308  -0.269  1.00  0.00     0.112 A 
HETATM   21  C4  UNL     1       5.275  -0.194  -1.452  1.00  0.00     0.070 A 
HETATM   22 CL1  UNL     1       4.133  -1.027  -2.517  1.00  0.00    -0.081 Cl
HETATM   23  C5  UNL     1       6.600  -0.066  -1.809  1.00  0.00     0.050 A 
HETATM   24  C6  UNL     1       7.489   0.587  -0.972  1.00  0.00     0.037 A 
HETATM   25 CL2  UNL     1       9.169   0.765  -1.397  1.00  0.00    -0.084 Cl
HETATM   26  C7  UNL     1       6.988   1.091   0.213  1.00  0.00     0.050 A 
HETATM   27  C8  UNL     1       5.661   0.959   0.565  1.00  0.00     0.070 A 
HETATM   28 CL3  UNL     1       5.048   1.604   2.070  1.00  0.00    -0.081 Cl
ENDBRANCH  19  20
ENDBRANCH  18  19
ENDBRANCH  15  18
ENDBRANCH  14  15
ENDBRANCH   1  14
BRANCH   2  29
HETATM   29  C11 UNL     1      -0.883   2.061  -0.064  1.00  0.00     0.057 C 
HETATM   30  C12 UNL     1      -0.385   2.618   1.250  1.00  0.00     0.031 C 
HETATM   31  C13 UNL     1      -0.150   4.114   0.987  1.00  0.00     0.114 C 
HETATM   32  N2  UNL     1      -0.703   4.549  -0.267  1.00  0.00    -0.421 N 
HETATM   33  C14 UNL     1      -0.127   3.940  -1.419  1.00  0.00     0.114 C 
ATOM     34  H2  UNL     1      -1.450   5.241  -0.327  1.00  0.00     0.153 HD
HETATM   35  C15 UNL     1       0.073   2.435  -1.153  1.00  0.00     0.031 C 
ENDBRANCH   2  29
TORSDOF 7
