REMARK  8 active torsions:
REMARK  status: ('A' for Active; 'I' for Inactive)
REMARK    1  A    between atoms: N1_2  and  C2_4 
REMARK    2  A    between atoms: C4_6  and  S1_7 
REMARK    3  A    between atoms: C8_14  and  S2_15 
REMARK    4  A    between atoms: S2_15  and  C9_16 
REMARK    5  A    between atoms: N2_18  and  C11_20 
REMARK    6  A    between atoms: C11_20  and  C12_21 
REMARK    7  A    between atoms: C11_20  and  C16_25 
REMARK    8  A    between atoms: C12_21  and  C13_22 
ROOT
HETATM    1  C9  UNL     1       1.126   0.468  -1.864  1.00  0.00     0.120 A 
HETATM    2  C10 UNL     1       1.538   1.082  -0.612  1.00  0.00     0.143 A 
HETATM    3  N2  UNL     1       1.642   0.264   0.467  1.00  0.00    -0.338 N 
ATOM      4  H2  UNL     1       1.508  -0.746   0.420  1.00  0.00     0.167 HD
HETATM    5  N3  UNL     1       1.665   2.368  -0.907  1.00  0.00    -0.280 N 
ATOM      6  H3  UNL     1       1.949   3.083  -0.238  1.00  0.00     0.189 HD
HETATM    7  N4  UNL     1       1.374   2.614  -2.192  1.00  0.00    -0.259 N 
HETATM    8  C17 UNL     1       1.376   3.911  -2.878  1.00  0.00     0.181 C 
HETATM    9  C18 UNL     1       1.045   1.445  -2.777  1.00  0.00     0.282 A 
HETATM   10  O3  UNL     1       0.721   1.392  -4.034  1.00  0.00    -0.265 OA
ENDROOT
BRANCH   1  11
HETATM   11  S2  UNL     1       0.816  -1.284  -2.098  1.00  0.00    -0.077 SA
BRANCH  11  12
HETATM   12  C8  UNL     1      -0.708  -1.809  -1.324  1.00  0.00     0.054 A 
HETATM   13  C2  UNL     1      -1.902  -1.365  -1.830  1.00  0.00     0.048 A 
HETATM   14  C3  UNL     1      -3.127  -1.643  -1.185  1.00  0.00     0.054 A 
HETATM   15  C4  UNL     1      -3.109  -2.378  -0.038  1.00  0.00     0.062 A 
HETATM   16  C6  UNL     1      -1.933  -2.846   0.477  1.00  0.00     0.048 A 
HETATM   17  C7  UNL     1      -0.724  -2.573  -0.157  1.00  0.00     0.054 A 
HETATM   18 CL1  UNL     1       0.756  -3.309   0.403  1.00  0.00    -0.083 Cl
BRANCH  13  19
HETATM   19  N1  UNL     1      -1.929  -0.658  -3.056  1.00  0.00    -0.393 N 
HETATM   20  C1  UNL     1      -3.090   0.010  -3.587  1.00  0.00     0.146 C 
ATOM     21  H1  UNL     1      -1.068  -0.619  -3.601  1.00  0.00     0.159 HD
ENDBRANCH  13  19
BRANCH  15  22
HETATM   22  S1  UNL     1      -4.603  -2.642   0.883  1.00  0.00     0.172 S 
HETATM   23  C5  UNL     1      -5.070  -1.072   1.612  1.00  0.00     0.167 C 
HETATM   24  O1  UNL     1      -5.658  -3.204   0.052  1.00  0.00    -0.223 OA
HETATM   25  O2  UNL     1      -4.290  -3.561   2.019  1.00  0.00    -0.223 OA
ENDBRANCH  15  22
ENDBRANCH  11  12
ENDBRANCH   1  11
BRANCH   3  26
HETATM   26  C11 UNL     1       2.026   1.109   1.935  1.00  0.00     0.067 C 
BRANCH  26  27
HETATM   27  C12 UNL     1       3.355   0.802   1.781  1.00  0.00     0.034 C 
BRANCH  27  28
HETATM   28  C13 UNL     1       4.038   0.143   2.764  1.00  0.00    -0.085 C 
HETATM   29  C14 UNL     1       3.249  -0.223   3.940  1.00  0.00     0.043 C 
HETATM   30  C15 UNL     1       5.446  -0.218   2.640  1.00  0.00     0.043 C 
ENDBRANCH  27  28
ENDBRANCH  26  27
BRANCH  26  31
HETATM   31  C16 UNL     1       0.806   1.405   2.029  1.00  0.00     0.130 C 
HETATM   32 CL2  UNL     1      -0.565   1.088   1.073  1.00  0.00    -0.068 Cl
HETATM   33 CL3  UNL     1       0.440   2.392   3.538  1.00  0.00    -0.068 Cl
ENDBRANCH  26  31
ENDBRANCH   3  26
TORSDOF 8
