REMARK  8 active torsions:
REMARK  status: ('A' for Active; 'I' for Inactive)
REMARK    1  A    between atoms: O1_2  and  C2_3 
REMARK    2  A    between atoms: C4_5  and  C5_6 
REMARK       I    between atoms: C5_6  and  N1_8 
REMARK    3  A    between atoms: N1_8  and  C6_10 
REMARK    4  A    between atoms: C6_10  and  N2_12 
REMARK    5  A    between atoms: N2_12  and  C7_14 
REMARK    6  A    between atoms: C10_18  and  N3_19 
REMARK    7  A    between atoms: C18_31  and  O3_32 
REMARK    8  A    between atoms: C20_34  and  O4_35 
ROOT
HETATM    1  C6  UNL     1       0.248  -0.959   0.278  1.00  0.00     0.179 C 
HETATM    2  S1  UNL     1       0.766  -2.532   0.544  1.00  0.00    -0.040 SA
ENDROOT
BRANCH   1   3
HETATM    3  N1  UNL     1      -1.131  -0.777   0.508  1.00  0.00    -0.299 N 
HETATM    4  C5  UNL     1      -1.916   0.382   0.402  1.00  0.00     0.258 C 
HETATM    5  O2  UNL     1      -1.444   1.469   0.066  1.00  0.00    -0.267 OA
ATOM      6  H1  UNL     1      -1.635  -1.616   0.795  1.00  0.00     0.171 HD
BRANCH   4   7
HETATM    7  C4  UNL     1      -3.363   0.319   0.701  1.00  0.00     0.037 A 
HETATM    8  C3  UNL     1      -3.992   1.277   1.428  1.00  0.00     0.057 A 
HETATM    9  C2  UNL     1      -5.365   1.184   1.690  1.00  0.00     0.105 A 
HETATM   10  C20 UNL     1      -6.082   0.116   1.208  1.00  0.00     0.135 A 
HETATM   11  C18 UNL     1      -5.453  -0.883   0.454  1.00  0.00     0.105 A 
HETATM   12  C17 UNL     1      -4.090  -0.730   0.232  1.00  0.00     0.057 A 
BRANCH   9  13
HETATM   13  O1  UNL     1      -6.021   2.149   2.430  1.00  0.00    -0.353 OA
HETATM   14  C1  UNL     1      -5.324   3.259   2.949  1.00  0.00     0.210 C 
ENDBRANCH   9  13
BRANCH  10  15
HETATM   15  O4  UNL     1      -7.432  -0.057   1.417  1.00  0.00    -0.351 OA
HETATM   16  C21 UNL     1      -8.411   0.420   0.542  1.00  0.00     0.210 C 
ENDBRANCH  10  15
BRANCH  11  17
HETATM   17  O3  UNL     1      -6.128  -1.975  -0.054  1.00  0.00    -0.353 OA
HETATM   18  C19 UNL     1      -5.404  -2.929  -0.802  1.00  0.00     0.210 C 
ENDBRANCH  11  17
ENDBRANCH   4   7
ENDBRANCH   1   3
BRANCH   1  19
HETATM   19  N2  UNL     1       1.119   0.017  -0.201  1.00  0.00    -0.330 N 
ATOM     20  H2  UNL     1       0.690   0.915  -0.426  1.00  0.00     0.168 HD
BRANCH  19  21
HETATM   21  C7  UNL     1       2.504  -0.061  -0.418  1.00  0.00     0.076 A 
HETATM   22  C8  UNL     1       3.380  -0.979   0.090  1.00  0.00     0.059 A 
HETATM   23  C9  UNL     1       4.764  -0.933  -0.137  1.00  0.00     0.065 A 
HETATM   24 CL1  UNL     1       5.801  -2.160   0.557  1.00  0.00    -0.082 Cl
HETATM   25  C10 UNL     1       5.314   0.060  -0.896  1.00  0.00     0.086 A 
HETATM   26  C15 UNL     1       4.451   0.993  -1.417  1.00  0.00     0.103 A 
HETATM   27 CL2  UNL     1       5.124   2.270  -2.403  1.00  0.00    -0.078 Cl
HETATM   28  C16 UNL     1       3.099   0.955  -1.200  1.00  0.00     0.167 A 
HETATM   29  F1  UNL     1       2.282   1.914  -1.749  1.00  0.00    -0.202 F 
BRANCH  25  30
HETATM   30  N3  UNL     1       6.719   0.121  -1.113  1.00  0.00    -0.313 N 
HETATM   31  C11 UNL     1       7.545   1.115  -0.649  1.00  0.00     0.188 A 
HETATM   32  N4  UNL     1       8.797   0.847  -1.037  1.00  0.00    -0.354 N 
HETATM   33  C12 UNL     1       8.840  -0.290  -1.745  1.00  0.00     0.022 A 
ATOM     34  H4  UNL     1       9.607   1.428  -0.823  1.00  0.00     0.166 HD
HETATM   35  C13 UNL     1      10.050  -0.911  -2.344  1.00  0.00     0.069 C 
HETATM   36  C14 UNL     1       7.528  -0.718  -1.774  1.00  0.00     0.122 A 
ENDBRANCH  25  30
ENDBRANCH  19  21
ENDBRANCH   1  19
TORSDOF 8
