REMARK  13 active torsions:
REMARK  status: ('A' for Active; 'I' for Inactive)
REMARK    1  A    between atoms: C2_2  and  C4_4 
REMARK    2  A    between atoms: C2_2  and  O4_39 
REMARK    3  A    between atoms: C4_4  and  N1_5 
REMARK    4  A    between atoms: N1_5  and  C5_8 
REMARK    5  A    between atoms: C7_10  and  C8_11 
REMARK    6  A    between atoms: C9_12  and  C10_13 
REMARK    7  A    between atoms: C10_13  and  C11_14 
REMARK    8  A    between atoms: C11_14  and  C12_15 
REMARK    9  A    between atoms: C16_22  and  C17_23 
REMARK   10  A    between atoms: C17_23  and  O1_24 
REMARK   11  A    between atoms: C17_23  and  N2_26 
REMARK   12  A    between atoms: C20_29  and  O2_30 
REMARK   13  A    between atoms: O4_39  and  C27_40 
ROOT
HETATM    1  C27 UNL     1      -4.669  -3.288  -1.983  1.00  0.00     0.292 C 
HETATM    2  C28 UNL     1      -4.942  -4.683  -1.656  1.00  0.00     0.085 C 
HETATM    3  N3  UNL     1      -5.157  -5.796  -1.420  1.00  0.00    -0.195 NA
ENDROOT
BRANCH   1   4
HETATM    4  O4  UNL     1      -5.296  -2.361  -1.222  1.00  0.00    -0.366 OA
BRANCH   4   5
HETATM    5  C2  UNL     1      -5.073  -2.304   0.108  1.00  0.00     0.078 C 
HETATM    6  C1  UNL     1      -5.932  -1.131   0.626  1.00  0.00     0.047 C 
HETATM    7  C3  UNL     1      -5.484  -3.483   0.930  1.00  0.00     0.047 C 
BRANCH   5   8
HETATM    8  C4  UNL     1      -3.653  -1.953   0.497  1.00  0.00     0.269 C 
BRANCH   8   9
HETATM    9  N1  UNL     1      -3.250  -0.670  -0.005  1.00  0.00    -0.068 N 
ATOM     10  H12 UNL     1      -3.384  -0.609  -1.014  1.00  0.00     0.277 HD
ATOM     11  H11 UNL     1      -3.897   0.062   0.288  1.00  0.00     0.277 HD
BRANCH   9  12
HETATM   12  C5  UNL     1      -1.883  -0.345   0.367  1.00  0.00     0.194 C 
HETATM   13  C6  UNL     1      -1.677   1.112   0.172  1.00  0.00     0.085 C 
HETATM   14  C7  UNL     1      -0.229   1.526   0.319  1.00  0.00     0.127 C 
HETATM   15  C13 UNL     1       0.478   0.740   1.347  1.00  0.00     0.056 C 
HETATM   16  O3  UNL     1       0.420   1.688  -0.864  1.00  0.00    -0.358 OA
HETATM   17  C14 UNL     1       1.046  -0.571   1.052  1.00  0.00    -0.006 C 
HETATM   18  C15 UNL     1       2.537  -0.546   0.628  1.00  0.00     0.047 C 
HETATM   19  C26 UNL     1       0.280  -1.589   0.324  1.00  0.00     0.011 C 
HETATM   20  C16 UNL     1       2.697  -0.321  -0.830  1.00  0.00    -0.008 C 
HETATM   21  C22 UNL     1       1.860   0.166  -1.775  1.00  0.00     0.016 C 
HETATM   22  C23 UNL     1       0.470   0.669  -1.744  1.00  0.00     0.147 C 
HETATM   23  C24 UNL     1      -0.494  -0.409  -1.745  1.00  0.00     0.042 C 
HETATM   24  C25 UNL     1      -0.873  -1.094  -0.499  1.00  0.00     0.019 C 
BRANCH  14  25
HETATM   25  C8  UNL     1      -0.321   2.916   0.871  1.00  0.00    -0.068 C 
HETATM   26  C9  UNL     1      -0.388   4.039   1.339  1.00  0.00    -0.103 C 
BRANCH  26  27
HETATM   27  C10 UNL     1      -0.449   5.386   1.881  1.00  0.00     0.103 C 
BRANCH  27  28
HETATM   28  C11 UNL     1      -1.302   6.260   0.976  1.00  0.00     0.129 C 
BRANCH  28  29
HETATM   29  C12 UNL     1      -1.395   7.666   1.495  1.00  0.00     0.388 C 
HETATM   30  F1  UNL     1      -2.196   8.371   0.591  1.00  0.00    -0.171 F 
HETATM   31  F2  UNL     1      -0.102   8.202   1.501  1.00  0.00    -0.171 F 
HETATM   32  F3  UNL     1      -1.987   7.738   2.722  1.00  0.00    -0.171 F 
ENDBRANCH  28  29
ENDBRANCH  27  28
ENDBRANCH  26  27
ENDBRANCH  14  25
BRANCH  20  33
HETATM   33  C17 UNL     1       3.975  -0.670  -1.390  1.00  0.00     0.144 C 
BRANCH  33  34
HETATM   34  O1  UNL     1       4.090  -0.494  -2.680  1.00  0.00    -0.346 OA
ATOM     35  H1  UNL     1       4.934  -0.725  -3.050  1.00  0.00     0.219 HD
ENDBRANCH  33  34
BRANCH  33  36
HETATM   36  N2  UNL     1       5.122  -1.165  -0.781  1.00  0.00    -0.359 N 
HETATM   37  C18 UNL     1       5.450  -1.463   0.562  1.00  0.00     0.127 C 
HETATM   38  C19 UNL     1       6.969  -1.545   0.687  1.00  0.00     0.053 C 
HETATM   39  C20 UNL     1       7.485  -1.282  -0.711  1.00  0.00     0.137 C 
HETATM   40  C21 UNL     1       6.321  -1.497  -1.627  1.00  0.00     0.156 C 
BRANCH  39  41
HETATM   41  O2  UNL     1       7.966   0.020  -0.776  1.00  0.00    -0.394 OA
ATOM     42  H2  UNL     1       8.290   0.185  -1.654  1.00  0.00     0.210 HD
ENDBRANCH  39  41
ENDBRANCH  33  36
ENDBRANCH  20  33
ENDBRANCH   9  12
ENDBRANCH   8   9
ENDBRANCH   5   8
ENDBRANCH   4   5
ENDBRANCH   1   4
TORSDOF 13
