REMARK  9 active torsions:
REMARK  status: ('A' for Active; 'I' for Inactive)
REMARK    1  A    between atoms: N2_5  and  C4_6 
REMARK    2  A    between atoms: C7_9  and  N3_10 
REMARK    3  A    between atoms: N3_10  and  C8_12 
REMARK    4  A    between atoms: C10_18  and  N6_19 
REMARK    5  A    between atoms: N6_19  and  C11_21 
REMARK    6  A    between atoms: N7_24  and  C14_25 
REMARK    7  A    between atoms: C14_25  and  C15_26 
REMARK    8  A    between atoms: C15_26  and  C16_27 
REMARK    9  A    between atoms: C19_30  and  C20_31 
ROOT
HETATM    1  C8  UNL     1       0.512  -1.139   0.260  1.00  0.00     0.679 A 
HETATM    2  N4  UNL     1      -0.454  -1.837   0.889  1.00  0.00    -0.174 N 
ATOM      3  H4  UNL     1      -0.185  -2.494   1.622  1.00  0.00     0.186 HD
HETATM    4  C9  UNL     1      -1.770  -1.701   0.587  1.00  0.00     0.165 A 
HETATM    5  N5  UNL     1      -2.894  -2.268   1.058  1.00  0.00    -0.174 N 
ATOM      6  H5  UNL     1      -2.945  -2.968   1.798  1.00  0.00     0.186 HD
HETATM    7  C10 UNL     1      -3.935  -1.757   0.391  1.00  0.00     0.682 A 
HETATM    8  N7  UNL     1      -3.480  -0.880  -0.489  1.00  0.00    -0.178 N 
HETATM    9  C22 UNL     1      -2.149  -0.822  -0.393  1.00  0.00     0.112 A 
HETATM   10  C23 UNL     1      -1.151  -0.107  -1.036  1.00  0.00     0.140 A 
HETATM   11  N8  UNL     1       0.151  -0.277  -0.700  1.00  0.00    -0.200 N 
ATOM     12  H8  UNL     1       0.868   0.261  -1.186  1.00  0.00     0.183 HD
ENDROOT
BRANCH   1  13
HETATM   13  N3  UNL     1       1.725  -1.288   0.566  1.00  0.00    -0.221 N 
ATOM     14  H3  UNL     1       1.913  -1.962   1.308  1.00  0.00     0.178 HD
BRANCH  13  15
HETATM   15  C7  UNL     1       2.881  -0.637   0.012  1.00  0.00     0.099 C 
HETATM   16  C6  UNL     1       3.902  -0.515   1.124  1.00  0.00     0.028 C 
HETATM   17  C5  UNL     1       5.039  -1.460   0.909  1.00  0.00     0.027 C 
HETATM   18  C4  UNL     1       5.768  -1.238  -0.403  1.00  0.00     0.079 C 
HETATM   19  C25 UNL     1       4.804  -1.114  -1.543  1.00  0.00     0.027 C 
HETATM   20  C24 UNL     1       3.375  -1.449  -1.141  1.00  0.00     0.028 C 
BRANCH  18  21
HETATM   21  N2  UNL     1       6.788  -0.262  -0.359  1.00  0.00    -0.405 N 
HETATM   22  C3  UNL     1       7.856  -0.605   0.535  1.00  0.00     0.147 C 
HETATM   23  C2  UNL     1       9.047   0.310   0.355  1.00  0.00     0.291 C 
HETATM   24  N1  UNL     1       8.673   1.683   0.216  1.00  0.00     0.087 N 
HETATM   25  C1  UNL     1       9.778   2.577   0.074  1.00  0.00     0.310 C 
HETATM   26  C27 UNL     1       7.724   1.849  -0.892  1.00  0.00     0.291 C 
HETATM   27  C26 UNL     1       6.467   1.099  -0.422  1.00  0.00     0.147 C 
ENDBRANCH  18  21
ENDBRANCH  13  15
ENDBRANCH   1  13
BRANCH   7  28
HETATM   28  N6  UNL     1      -5.149  -2.126   0.624  1.00  0.00    -0.221 N 
ATOM     29  H6  UNL     1      -5.891  -1.693   0.074  1.00  0.00     0.178 HD
BRANCH  28  30
HETATM   30  C11 UNL     1      -5.525  -3.099   1.598  1.00  0.00     0.099 A 
HETATM   31  C12 UNL     1      -6.965  -3.632   1.426  1.00  0.00     0.028 A 
HETATM   32  C13 UNL     1      -5.793  -4.512   1.228  1.00  0.00     0.028 A 
ENDBRANCH  28  30
ENDBRANCH   7  28
BRANCH   8  33
HETATM   33  C14 UNL     1      -4.215  -0.054  -1.428  1.00  0.00     0.148 C 
BRANCH  33  34
HETATM   34  C15 UNL     1      -4.565   1.302  -0.955  1.00  0.00     0.025 C 
BRANCH  34  35
HETATM   35  C16 UNL     1      -5.438   1.458   0.218  1.00  0.00    -0.012 C 
HETATM   36  C17 UNL     1      -5.582   2.970   0.461  1.00  0.00     0.005 C 
HETATM   37  C18 UNL     1      -6.600   3.365  -0.561  1.00  0.00     0.014 C 
HETATM   38  C19 UNL     1      -7.632   2.283  -0.467  1.00  0.00     0.094 C 
HETATM   39  C21 UNL     1      -6.880   1.091  -0.002  1.00  0.00     0.018 C 
BRANCH  38  40
HETATM   40  C20 UNL     1      -8.790   2.672   0.426  1.00  0.00     0.391 C 
HETATM   41  F1  UNL     1      -8.429   2.947   1.708  1.00  0.00    -0.171 F 
HETATM   42  F2  UNL     1      -9.375   3.803  -0.141  1.00  0.00    -0.171 F 
HETATM   43  F3  UNL     1      -9.761   1.692   0.435  1.00  0.00    -0.171 F 
ENDBRANCH  38  40
ENDBRANCH  34  35
ENDBRANCH  33  34
ENDBRANCH   8  33
TORSDOF 9
