REMARK  7 active torsions:
REMARK  status: ('A' for Active; 'I' for Inactive)
REMARK    1  A    between atoms: C2_3  and  C3_4 
REMARK    2  A    between atoms: C3_4  and  N2_5 
REMARK    3  A    between atoms: C6_8  and  N3_9 
REMARK    4  A    between atoms: C7_12  and  N5_13 
REMARK    5  A    between atoms: N5_13  and  C8_15 
REMARK    6  A    between atoms: C14_24  and  C15_25 
REMARK    7  A    between atoms: C16_28  and  C17_29 
ROOT
HETATM    1  N1  UNL     1       7.952   0.205   0.516  1.00  0.00    -0.197 NA
HETATM    2  C1  UNL     1       6.863   0.536   0.757  1.00  0.00     0.060 C 
HETATM    3  C2  UNL     1       5.495   0.964   1.049  1.00  0.00     0.154 C 
ENDROOT
BRANCH   3   4
HETATM    4  C3  UNL     1       4.576   0.814  -0.146  1.00  0.00     0.286 C 
BRANCH   4   5
HETATM    5  N2  UNL     1       3.258   1.266   0.277  1.00  0.00     0.089 N 
HETATM    6  C4  UNL     1       2.282   1.207  -0.766  1.00  0.00     0.274 C 
HETATM    7  C5  UNL     1       1.645  -0.124  -0.865  1.00  0.00     0.057 C 
HETATM    8  C6  UNL     1       0.929  -0.569   0.433  1.00  0.00     0.111 C 
HETATM    9  C22 UNL     1       1.355   0.496   1.466  1.00  0.00     0.057 C 
HETATM   10  C23 UNL     1       2.893   0.556   1.481  1.00  0.00     0.274 C 
BRANCH   8  11
HETATM   11  N3  UNL     1      -0.487  -0.548   0.243  1.00  0.00    -0.288 N 
HETATM   12  N4  UNL     1      -1.091   0.662   0.132  1.00  0.00    -0.282 N 
HETATM   13  C7  UNL     1      -2.384   0.487  -0.100  1.00  0.00     0.138 A 
ATOM     14  H4  UNL     1      -0.623   1.565   0.214  1.00  0.00     0.189 HD
HETATM   15  C14 UNL     1      -2.616  -0.902  -0.140  1.00  0.00     0.099 A 
HETATM   16  C16 UNL     1      -1.376  -1.525   0.086  1.00  0.00     0.052 A 
BRANCH  13  17
HETATM   17  N5  UNL     1      -3.331   1.344  -0.247  1.00  0.00    -0.336 N 
ATOM     18  H5  UNL     1      -4.263   0.969  -0.424  1.00  0.00     0.168 HD
BRANCH  17  19
HETATM   19  C8  UNL     1      -3.217   2.734  -0.190  1.00  0.00     0.112 A 
HETATM   20  C9  UNL     1      -2.530   3.454  -1.139  1.00  0.00     0.147 A 
HETATM   21  F1  UNL     1      -1.950   2.790  -2.156  1.00  0.00    -0.204 F 
HETATM   22  C10 UNL     1      -2.465   4.839  -1.006  1.00  0.00     0.064 A 
HETATM   23  C11 UNL     1      -3.079   5.490   0.059  1.00  0.00     0.017 A 
HETATM   24 BR1  UNL     1      -2.935   7.370   0.157  1.00  0.00    -0.051 Br
HETATM   25  C12 UNL     1      -3.771   4.774   1.016  1.00  0.00     0.064 A 
HETATM   26  C13 UNL     1      -3.824   3.402   0.867  1.00  0.00     0.147 A 
HETATM   27  F2  UNL     1      -4.487   2.674   1.777  1.00  0.00    -0.204 F 
ENDBRANCH  17  19
ENDBRANCH  13  17
BRANCH  15  28
HETATM   28  C15 UNL     1      -3.913  -1.502  -0.371  1.00  0.00     0.270 C 
HETATM   29  N6  UNL     1      -5.068  -0.662  -0.618  1.00  0.00    -0.057 NA
HETATM   30  O1  UNL     1      -4.124  -2.706  -0.376  1.00  0.00    -0.271 OA
ENDBRANCH  15  28
BRANCH  16  31
HETATM   31  C17 UNL     1      -1.197  -2.978   0.054  1.00  0.00     0.038 C 
HETATM   32  C18 UNL     1      -0.107  -3.613   0.805  1.00  0.00     0.011 C 
HETATM   33  C19 UNL     1       0.780  -4.299  -0.246  1.00  0.00     0.001 C 
HETATM   34  C20 UNL     1      -0.355  -4.802  -1.182  1.00  0.00     0.001 C 
HETATM   35  C21 UNL     1      -1.021  -3.465  -1.391  1.00  0.00     0.011 C 
ENDBRANCH  16  31
ENDBRANCH   8  11
ENDBRANCH   4   5
ENDBRANCH   3   4
TORSDOF 7
