REMARK  6 active torsions:
REMARK  status: ('A' for Active; 'I' for Inactive)
REMARK    1  A    between atoms: C2_2  and  C3_3 
REMARK    2  A    between atoms: C2_2  and  N4_17 
REMARK    3  A    between atoms: C3_3  and  N1_4 
REMARK    4  A    between atoms: C8_12  and  C9_13 
REMARK    5  A    between atoms: C13_22  and  O1_23 
REMARK    6  A    between atoms: O1_23  and  C14_24 
ROOT
HETATM    1  C9  UNL     1      -3.839  -1.740   0.278  1.00  0.00     0.113 C 
HETATM    2  C10 UNL     1      -4.965  -2.568  -0.294  1.00  0.00     0.027 C 
HETATM    3  C11 UNL     1      -4.040  -1.571   1.713  1.00  0.00     0.065 C 
HETATM    4  N3  UNL     1      -4.200  -1.460   2.857  1.00  0.00    -0.197 NA
ENDROOT
BRANCH   1   5
HETATM    5  C8  UNL     1      -3.729  -0.384  -0.441  1.00  0.00     0.126 C 
HETATM    6  N1  UNL     1      -2.673   0.329   0.133  1.00  0.00    -0.382 N 
HETATM    7  C4  UNL     1      -2.853   1.398   1.002  1.00  0.00     0.091 C 
HETATM    8  C5  UNL     1      -4.252   1.894   1.117  1.00  0.00     0.220 C 
HETATM    9  C6  UNL     1      -4.425   3.147   0.265  1.00  0.00     0.046 C 
HETATM   10  N2  UNL     1      -5.278   0.968   0.784  1.00  0.00    -0.065 N 
HETATM   11  C7  UNL     1      -5.046   0.313  -0.469  1.00  0.00     0.259 C 
ATOM     12  H22 UNL     1      -5.415   0.289   1.532  1.00  0.00     0.278 HD
ATOM     13  H21 UNL     1      -6.194   1.416   0.799  1.00  0.00     0.278 HD
BRANCH   6  14
HETATM   14  C3  UNL     1      -1.347  -0.173  -0.072  1.00  0.00     0.147 C 
BRANCH  14  15
HETATM   15  C2  UNL     1      -0.458   0.795  -0.815  1.00  0.00     0.113 C 
HETATM   16  C1  UNL     1      -1.062   1.087  -2.205  1.00  0.00     0.034 C 
BRANCH  15  17
HETATM   17  N4  UNL     1       0.855   0.452  -0.924  1.00  0.00    -0.220 N 
HETATM   18  C12 UNL     1       1.760  -0.368  -0.803  1.00  0.00     0.680 A 
HETATM   19  N5  UNL     1       3.055  -0.047  -1.133  1.00  0.00    -0.169 N 
HETATM   20  N6  UNL     1       1.573  -1.622  -0.346  1.00  0.00    -0.201 N 
HETATM   21  C13 UNL     1       4.079  -0.902  -1.018  1.00  0.00     0.181 A 
ATOM     22  H5  UNL     1       3.246   0.892  -1.484  1.00  0.00     0.186 HD
HETATM   23  C20 UNL     1       3.844  -2.174  -0.547  1.00  0.00     0.078 A 
HETATM   24 BR1  UNL     1       5.246  -3.475  -0.345  1.00  0.00    -0.045 Br
HETATM   25  C21 UNL     1       2.549  -2.532  -0.205  1.00  0.00     0.129 A 
ATOM     26  H6  UNL     1       0.625  -1.898  -0.090  1.00  0.00     0.183 HD
ATOM     27  H4  UNL     1       1.312   1.290  -1.284  1.00  0.00     0.178 HD
BRANCH  21  28
HETATM   28  O1  UNL     1       5.368  -0.542  -1.361  1.00  0.00    -0.290 OA
BRANCH  28  29
HETATM   29  C14 UNL     1       6.392  -0.091  -0.596  1.00  0.00     0.099 A 
HETATM   30  C15 UNL     1       7.604  -0.801  -0.605  1.00  0.00     0.041 A 
HETATM   31  C16 UNL     1       8.697  -0.442   0.125  1.00  0.00     0.026 A 
HETATM   32  C17 UNL     1       8.673   0.666   0.934  1.00  0.00     0.035 A 
HETATM   33 CL1  UNL     1      10.094   1.093   1.852  1.00  0.00    -0.084 Cl
HETATM   34  C18 UNL     1       7.511   1.392   0.975  1.00  0.00     0.050 A 
HETATM   35  C19 UNL     1       6.393   1.018   0.223  1.00  0.00     0.069 A 
HETATM   36 CL2  UNL     1       4.947   1.993   0.311  1.00  0.00    -0.081 Cl
ENDBRANCH  28  29
ENDBRANCH  21  28
ENDBRANCH  15  17
ENDBRANCH  14  15
ENDBRANCH   6  14
ENDBRANCH   1   5
TORSDOF 6
