REMARK  7 active torsions:
REMARK  status: ('A' for Active; 'I' for Inactive)
REMARK    1  A    between atoms: C1_2  and  C2_4 
REMARK    2  A    between atoms: C2_4  and  N2_5 
REMARK    3  A    between atoms: C2_4  and  C7_17 
REMARK    4  A    between atoms: N2_5  and  C3_7 
REMARK    5  A    between atoms: C9_22  and  N6_23 
REMARK    6  A    between atoms: C10_27  and  O5_28 
REMARK    7  A    between atoms: N7_30  and  N8_31 
ROOT
HETATM    1  C7  UNL     1      -0.847   0.603  -0.006  1.00  0.00     0.213 C 
HETATM    2  N5  UNL     1      -2.101   1.255   0.265  1.00  0.00    -0.338 N 
ATOM      3  H5  UNL     1      -2.150   2.263   0.416  1.00  0.00     0.164 HD
HETATM    4  C8  UNL     1      -3.281   0.437   0.315  1.00  0.00     0.253 C 
HETATM    5  O4  UNL     1      -4.280   0.854   0.908  1.00  0.00    -0.271 OA
HETATM    6  C9  UNL     1      -3.309  -0.894  -0.337  1.00  0.00     0.319 C 
HETATM    7  C10 UNL     1      -1.981  -1.340  -0.853  1.00  0.00     0.253 C 
HETATM    8  N7  UNL     1      -1.031  -0.311  -1.125  1.00  0.00    -0.181 NA
ENDROOT
BRANCH   1   9
HETATM    9  C2  UNL     1       0.295   1.488  -0.315  1.00  0.00     0.211 C 
BRANCH   9  10
HETATM   10  C1  UNL     1       0.719   2.439   0.734  1.00  0.00     0.257 C 
HETATM   11  N1  UNL     1      -0.194   3.177   1.520  1.00  0.00    -0.060 NA
HETATM   12  O1  UNL     1       1.957   2.660   1.005  1.00  0.00    -0.274 OA
ENDBRANCH   9  10
BRANCH   9  13
HETATM   13  N2  UNL     1       1.449   0.839  -0.861  1.00  0.00    -0.360 N 
ATOM     14  H2  UNL     1       1.629   1.023  -1.848  1.00  0.00     0.162 HD
BRANCH  13  15
HETATM   15  C3  UNL     1       2.362  -0.009  -0.235  1.00  0.00     0.111 A 
HETATM   16  C4  UNL     1       3.423  -0.538  -0.943  1.00  0.00     0.122 A 
HETATM   17  C5  UNL     1       4.348  -1.388  -0.370  1.00  0.00     0.252 A 
HETATM   18  O2  UNL     1       5.309  -1.868  -1.009  1.00  0.00    -0.268 OA
HETATM   19  N3  UNL     1       4.204  -1.709   0.922  1.00  0.00    -0.275 N 
HETATM   20  C6  UNL     1       3.174  -1.192   1.599  1.00  0.00     0.328 A 
ATOM     21  H3  UNL     1       4.866  -2.335   1.380  1.00  0.00     0.173 HD
HETATM   22  O3  UNL     1       3.022  -1.486   2.827  1.00  0.00    -0.247 OA
HETATM   23  N4  UNL     1       2.251  -0.350   1.049  1.00  0.00    -0.294 N 
ATOM     24  H4  UNL     1       1.484   0.014   1.615  1.00  0.00     0.172 HD
ENDBRANCH  13  15
ENDBRANCH   9  13
ENDBRANCH   1   9
BRANCH   8  25
HETATM   25  N8  UNL     1      -1.282   0.364  -2.319  1.00  0.00    -0.359 NA
ATOM     26  H82 UNL     1      -0.603   1.100  -2.513  1.00  0.00     0.171 HD
ATOM     27  H81 UNL     1      -1.411  -0.276  -3.103  1.00  0.00     0.171 HD
ENDBRANCH   8  25
BRANCH   7  28
HETATM   28  O5  UNL     1      -1.389  -2.316  -0.050  1.00  0.00    -0.377 OA
ATOM     29  H5  UNL     1      -0.544  -2.600  -0.378  1.00  0.00     0.211 HD
ENDBRANCH   7  28
BRANCH   6  30
HETATM   30  N6  UNL     1      -3.780  -1.831   0.683  1.00  0.00    -0.063 N 
ATOM     31  H63 UNL     1      -3.229  -1.809   1.541  1.00  0.00     0.275 HD
ATOM     32  H62 UNL     1      -4.671  -1.564   1.101  1.00  0.00     0.275 HD
ATOM     33  H61 UNL     1      -3.799  -2.747   0.234  1.00  0.00     0.275 HD
ENDBRANCH   6  30
TORSDOF 7
