REMARK  9 active torsions:
REMARK  status: ('A' for Active; 'I' for Inactive)
REMARK    1  A    between atoms: N1_1  and  N2_4 
REMARK    2  A    between atoms: C1_6  and  C2_8 
REMARK    3  A    between atoms: C3_9  and  C4_10 
REMARK    4  A    between atoms: C4_10  and  N4_11 
REMARK    5  A    between atoms: C4_10  and  N5_15 
REMARK    6  A    between atoms: N7_21  and  O1_22 
REMARK    7  A    between atoms: C5_24  and  C6_25 
REMARK    8  A    between atoms: N8_26  and  N9_28 
REMARK    9  A    between atoms: N9_28  and  C7_30 
ROOT
HETATM    1  C2  UNL     1      -1.573  -0.372   0.125  1.00  0.00     0.067 A 
HETATM    2  C3  UNL     1      -2.546  -0.926  -0.668  1.00  0.00     0.101 A 
HETATM    3  N6  UNL     1      -1.970  -1.845  -1.518  1.00  0.00    -0.274 N 
ATOM      4  H6  UNL     1      -2.463  -2.405  -2.214  1.00  0.00     0.189 HD
HETATM    5  N7  UNL     1      -0.686  -1.878  -1.281  1.00  0.00    -0.161 N 
HETATM    6  C5  UNL     1      -0.391  -0.990  -0.278  1.00  0.00     0.113 A 
ENDROOT
BRANCH   6   7
HETATM    7  C6  UNL     1       0.930  -0.763   0.240  1.00  0.00     0.142 C 
HETATM    8  N8  UNL     1       1.923  -1.441  -0.262  1.00  0.00    -0.295 N 
ATOM      9  H8  UNL     1       1.731  -2.111  -1.007  1.00  0.00     0.186 HD
BRANCH   8  10
HETATM   10  N9  UNL     1       3.213  -1.291   0.169  1.00  0.00    -0.132 N 
ATOM     11  H9  UNL     1       3.660  -2.134   0.528  1.00  0.00     0.205 HD
BRANCH  10  12
HETATM   12  C7  UNL     1       3.926  -0.244   0.181  1.00  0.00     0.704 A 
HETATM   13  N10 UNL     1       3.567   0.976  -0.233  1.00  0.00    -0.139 N 
HETATM   14  C8  UNL     1       4.391   2.039  -0.182  1.00  0.00     0.342 A 
ATOM     15  H10 UNL     1       2.626   1.107  -0.604  1.00  0.00     0.189 HD
HETATM   16  O2  UNL     1       4.023   3.193  -0.584  1.00  0.00    -0.246 OA
HETATM   17  N11 UNL     1       5.641   1.882   0.308  1.00  0.00    -0.260 N 
HETATM   18  C9  UNL     1       6.046   0.664   0.739  1.00  0.00     0.342 A 
ATOM     19  H11 UNL     1       6.277   2.678   0.353  1.00  0.00     0.175 HD
HETATM   20  O3  UNL     1       7.206   0.530   1.191  1.00  0.00    -0.246 OA
HETATM   21  N12 UNL     1       5.196  -0.374   0.673  1.00  0.00    -0.139 N 
ATOM     22  H12 UNL     1       5.507  -1.289   1.000  1.00  0.00     0.189 HD
ENDBRANCH  10  12
ENDBRANCH   8  10
ENDBRANCH   6   7
BRANCH   1  23
HETATM   23  C1  UNL     1      -1.786   0.620   1.146  1.00  0.00     0.145 C 
HETATM   24  N2  UNL     1      -2.932   1.110   1.440  1.00  0.00    -0.294 N 
ATOM     25  H2  UNL     1      -3.743   0.777   0.919  1.00  0.00     0.187 HD
HETATM   26  N3  UNL     1      -0.704   1.154   1.937  1.00  0.00    -0.080 NA
BRANCH  24  27
HETATM   27  N1  UNL     1      -3.137   2.065   2.422  1.00  0.00    -0.344 N 
ATOM     28  H12 UNL     1      -2.315   2.387   2.933  1.00  0.00     0.176 HD
ATOM     29  H11 UNL     1      -4.050   2.455   2.656  1.00  0.00     0.176 HD
ENDBRANCH  24  27
ENDBRANCH   1  23
BRANCH   5  30
HETATM   30  O1  UNL     1       0.277  -2.667  -1.911  1.00  0.00    -0.267 OA
ATOM     31  H1  UNL     1       1.211  -2.691  -1.739  1.00  0.00     0.247 HD
ENDBRANCH   5  30
BRANCH   2  32
HETATM   32  C4  UNL     1      -3.988  -0.674  -0.724  1.00  0.00     0.429 C 
BRANCH  32  33
HETATM   33  N4  UNL     1      -4.443  -0.570  -2.132  1.00  0.00    -0.045 N 
ATOM     34  H43 UNL     1      -3.915   0.132  -2.650  1.00  0.00     0.277 HD
ATOM     35  H42 UNL     1      -4.180  -1.391  -2.677  1.00  0.00     0.277 HD
ATOM     36  H41 UNL     1      -5.447  -0.395  -2.171  1.00  0.00     0.277 HD
ENDBRANCH  32  33
BRANCH  32  37
HETATM   37  N5  UNL     1      -4.651  -1.861  -0.199  1.00  0.00    -0.045 N 
ATOM     38  H53 UNL     1      -4.376  -2.718  -0.678  1.00  0.00     0.277 HD
ATOM     39  H52 UNL     1      -4.326  -2.122   0.732  1.00  0.00     0.277 HD
ATOM     40  H51 UNL     1      -5.655  -1.686  -0.238  1.00  0.00     0.277 HD
ENDBRANCH  32  37
ENDBRANCH   2  32
TORSDOF 9
