REMARK  7 active torsions:
REMARK  status: ('A' for Active; 'I' for Inactive)
REMARK    1  A    between atoms: N1_1  and  C1_5 
REMARK    2  A    between atoms: C1_5  and  O1_6 
REMARK    3  A    between atoms: O1_6  and  C2_7 
REMARK    4  A    between atoms: C2_7  and  C3_9 
REMARK    5  A    between atoms: C3_9  and  N2_10 
REMARK    6  A    between atoms: C4_17  and  N4_18 
REMARK    7  A    between atoms: N4_18  and  N5_20 
REMARK       I    between atoms: C5_22  and  N7_24 
REMARK       I    between atoms: N7_24  and  C6_26 
ROOT
HETATM    1  C3  UNL     1       1.798  -0.392  -0.543  1.00  0.00     0.424 C 
HETATM    2  N3  UNL     1       0.371  -0.488  -0.812  1.00  0.00     0.006 N 
ATOM      3  H31 UNL     1       0.179  -0.982  -1.684  1.00  0.00     0.284 HD
ATOM      4  H32 UNL     1      -0.032   0.416  -1.060  1.00  0.00     0.284 HD
HETATM    5  C4  UNL     1      -0.301  -1.087   0.302  1.00  0.00     0.395 C 
HETATM    6  C7  UNL     1       0.457  -2.260   0.817  1.00  0.00     0.276 C 
HETATM    7  O3  UNL     1       0.080  -2.872   1.847  1.00  0.00    -0.269 OA
HETATM    8  N9  UNL     1       1.631  -2.728   0.163  1.00  0.00    -0.290 N 
ATOM      9  H9  UNL     1       1.968  -3.683   0.286  1.00  0.00     0.172 HD
HETATM   10  C8  UNL     1       2.311  -1.797  -0.672  1.00  0.00     0.297 C 
HETATM   11  O4  UNL     1       3.247  -2.128  -1.437  1.00  0.00    -0.268 OA
ENDROOT
BRANCH   1  12
HETATM   12  C2  UNL     1       2.484   0.469  -1.501  1.00  0.00     0.189 C 
HETATM   13  S1  UNL     1       1.573   1.237  -2.617  1.00  0.00    -0.052 SA
BRANCH  12  14
HETATM   14  O1  UNL     1       3.835   0.675  -1.529  1.00  0.00    -0.313 OA
BRANCH  14  15
HETATM   15  C1  UNL     1       4.608   1.169  -0.468  1.00  0.00     0.405 C 
BRANCH  15  16
HETATM   16  N1  UNL     1       5.991   1.232  -0.921  1.00  0.00    -0.058 N 
ATOM     17  H13 UNL     1       6.332   0.340  -1.279  1.00  0.00     0.276 HD
ATOM     18  H12 UNL     1       6.103   1.772  -1.779  1.00  0.00     0.276 HD
ATOM     19  H11 UNL     1       6.553   1.591  -0.149  1.00  0.00     0.276 HD
ENDBRANCH  15  16
ENDBRANCH  14  15
ENDBRANCH  12  14
ENDBRANCH   1  12
BRANCH   1  20
HETATM   20  N2  UNL     1       1.954  -0.029   0.824  1.00  0.00    -0.029 N 
ATOM     21  H23 UNL     1       2.945   0.035   1.058  1.00  0.00     0.278 HD
ATOM     22  H22 UNL     1       1.673   0.942   0.962  1.00  0.00     0.278 HD
ATOM     23  H21 UNL     1       1.475  -0.631   1.494  1.00  0.00     0.278 HD
ENDBRANCH   1  20
BRANCH   5  24
HETATM   24  N4  UNL     1      -1.621  -1.552  -0.068  1.00  0.00    -0.296 N 
ATOM     25  H4  UNL     1      -1.844  -2.542   0.031  1.00  0.00     0.183 HD
BRANCH  24  26
HETATM   26  N5  UNL     1      -2.599  -0.679  -0.558  1.00  0.00    -0.275 N 
HETATM   27  C5  UNL     1      -3.397  -0.030   0.202  1.00  0.00     0.210 C 
HETATM   28  N6  UNL     1      -3.291  -0.198   1.607  1.00  0.00    -0.062 NA
HETATM   29  N7  UNL     1      -4.370   0.841  -0.344  1.00  0.00    -0.284 N 
HETATM   30  C6  UNL     1      -5.258   1.564   0.494  1.00  0.00     0.335 C 
ATOM     31  H7  UNL     1      -4.434   0.951  -1.356  1.00  0.00     0.172 HD
HETATM   32  N8  UNL     1      -6.239   2.439  -0.009  1.00  0.00    -0.040 NA
HETATM   33  O2  UNL     1      -5.170   1.420   1.731  1.00  0.00    -0.251 OA
ATOM     34  H5  UNL     1      -2.679  -0.555  -1.567  1.00  0.00     0.189 HD
ENDBRANCH  24  26
ENDBRANCH   5  24
TORSDOF 7
