REMARK  6 active torsions:
REMARK  status: ('A' for Active; 'I' for Inactive)
REMARK    1  A    between atoms: N1_1  and  O1_4 
REMARK    2  A    between atoms: O1_4  and  C1_5 
REMARK    3  A    between atoms: C8_22  and  N5_23 
REMARK       I    between atoms: N5_23  and  C9_25 
REMARK    4  A    between atoms: C9_25  and  C10_27 
REMARK    5  A    between atoms: C10_27  and  N6_28 
REMARK    6  A    between atoms: C10_27  and  C11_32 
ROOT
HETATM    1  C1  UNL     1      -0.233   1.095   0.103  1.00  0.00     0.379 C 
HETATM    2  N2  UNL     1      -1.298   1.232   1.052  1.00  0.00    -0.042 N 
ATOM      3  H21 UNL     1      -0.961   1.666   1.911  1.00  0.00     0.280 HD
ATOM      4  H22 UNL     1      -1.574   0.321   1.418  1.00  0.00     0.280 HD
HETATM    5  C2  UNL     1      -2.443   1.942   0.539  1.00  0.00     0.263 C 
HETATM    6  C3  UNL     1      -3.411   1.051  -0.193  1.00  0.00     0.260 C 
HETATM    7  N3  UNL     1      -2.787  -0.047  -0.862  1.00  0.00    -0.072 N 
ATOM      8  H31 UNL     1      -1.824  -0.157  -0.545  1.00  0.00     0.277 HD
ATOM      9  H32 UNL     1      -2.622   0.180  -1.843  1.00  0.00     0.277 HD
HETATM   10  C4  UNL     1      -3.496  -1.286  -0.748  1.00  0.00     0.252 C 
HETATM   11  C5  UNL     1      -3.208  -1.864   0.618  1.00  0.00     0.150 C 
HETATM   12  N4  UNL     1      -1.998  -2.612   0.707  1.00  0.00    -0.353 N 
ATOM     13  H4  UNL     1      -1.958  -3.470   0.158  1.00  0.00     0.162 HD
HETATM   14  C6  UNL     1      -0.839  -2.301   1.473  1.00  0.00     0.289 C 
HETATM   15  O2  UNL     1      -0.344  -3.194   2.268  1.00  0.00    -0.264 OA
HETATM   16  C7  UNL     1      -0.140  -1.023   1.436  1.00  0.00     0.243 C 
HETATM   17  O3  UNL     1       0.105  -0.446   2.554  1.00  0.00    -0.285 OA
HETATM   18  C8  UNL     1       0.325  -0.306   0.235  1.00  0.00     0.223 C 
ENDROOT
BRANCH  18  19
HETATM   19  N5  UNL     1       1.784  -0.202   0.382  1.00  0.00    -0.343 N 
HETATM   20  C9  UNL     1       2.674  -0.700  -0.576  1.00  0.00     0.260 C 
HETATM   21  O4  UNL     1       2.218  -1.258  -1.605  1.00  0.00    -0.271 OA
ATOM     22  H5  UNL     1       2.162   0.251   1.214  1.00  0.00     0.163 HD
BRANCH  20  23
HETATM   23  C10 UNL     1       4.155  -0.584  -0.407  1.00  0.00     0.374 C 
BRANCH  23  24
HETATM   24  N6  UNL     1       4.503   0.068   0.821  1.00  0.00    -0.056 N 
ATOM     25  H63 UNL     1       4.048   0.978   0.900  1.00  0.00     0.275 HD
ATOM     26  H62 UNL     1       4.074  -0.396   1.622  1.00  0.00     0.275 HD
ATOM     27  H61 UNL     1       5.513   0.147   0.936  1.00  0.00     0.275 HD
ENDBRANCH  23  24
BRANCH  23  28
HETATM   28  C11 UNL     1       4.750   0.156  -1.529  1.00  0.00     0.214 C 
HETATM   29  O5  UNL     1       5.430   1.175  -1.319  1.00  0.00    -0.646 OA
HETATM   30  O6  UNL     1       4.550  -0.284  -2.817  1.00  0.00    -0.646 OA
ENDBRANCH  23  28
ENDBRANCH  20  23
ENDBRANCH  18  19
BRANCH   1  31
HETATM   31  O1  UNL     1       0.784   2.044   0.329  1.00  0.00    -0.251 OA
BRANCH  31  32
HETATM   32  N1  UNL     1       1.002   2.841  -0.720  1.00  0.00    -0.309 N 
ATOM     33  H12 UNL     1       0.477   2.758  -1.590  1.00  0.00     0.184 HD
ATOM     34  H11 UNL     1       1.738   3.528  -0.556  1.00  0.00     0.184 HD
ENDBRANCH  31  32
ENDBRANCH   1  31
TORSDOF 6
