REMARK  6 active torsions:
REMARK  status: ('A' for Active; 'I' for Inactive)
REMARK    1  A    between atoms: O1_1  and  C1_3 
REMARK    2  A    between atoms: C8_12  and  N2_13 
REMARK    3  A    between atoms: N2_13  and  N3_15 
REMARK    4  A    between atoms: C9_17  and  C10_18 
REMARK    5  A    between atoms: N4_20  and  C12_21 
REMARK    6  A    between atoms: C12_21  and  C13_22 
ROOT
HETATM    1  C10 UNL     1      -0.378  -1.344   0.928  1.00  0.00     0.007 A 
HETATM    2  C11 UNL     1      -0.798  -0.439  -0.004  1.00  0.00     0.104 A 
HETATM    3  N4  UNL     1      -1.868  -0.646  -0.822  1.00  0.00    -0.361 N 
HETATM    4  C19 UNL     1      -2.550  -1.781  -0.721  1.00  0.00     0.103 A 
HETATM    5  C20 UNL     1      -2.194  -2.763   0.202  1.00  0.00    -0.009 A 
HETATM    6  C21 UNL     1      -2.916  -3.930   0.292  1.00  0.00     0.013 A 
HETATM    7  C22 UNL     1      -2.609  -4.926   1.185  1.00  0.00     0.001 A 
HETATM    8  C23 UNL     1      -1.531  -4.707   2.002  1.00  0.00     0.001 A 
HETATM    9  C24 UNL     1      -0.795  -3.528   1.918  1.00  0.00     0.013 A 
HETATM   10  C25 UNL     1      -1.118  -2.540   1.016  1.00  0.00    -0.012 A 
ENDROOT
BRANCH   1  11
HETATM   11  C9  UNL     1       0.758  -1.135   1.770  1.00  0.00     0.120 C 
HETATM   12  N3  UNL     1       1.508  -0.148   1.866  1.00  0.00    -0.310 N 
ATOM     13  H3  UNL     1       2.231  -0.319   2.564  1.00  0.00     0.186 HD
BRANCH  12  14
HETATM   14  N2  UNL     1       1.656   1.074   1.331  1.00  0.00    -0.296 N 
ATOM     15  H2  UNL     1       0.887   1.738   1.418  1.00  0.00     0.187 HD
BRANCH  14  16
HETATM   16  C8  UNL     1       2.826   1.486   0.652  1.00  0.00     0.111 A 
HETATM   17  C1  UNL     1       2.989   2.733   0.036  1.00  0.00     0.170 A 
HETATM   18  N1  UNL     1       4.215   2.775  -0.498  1.00  0.00    -0.334 N 
HETATM   19  C2  UNL     1       4.866   1.622  -0.267  1.00  0.00     0.046 A 
ATOM     20  H1  UNL     1       4.601   3.569  -1.008  1.00  0.00     0.168 HD
HETATM   21  C3  UNL     1       6.122   1.185  -0.602  1.00  0.00     0.030 A 
HETATM   22  C7  UNL     1       4.004   0.810   0.453  1.00  0.00     0.023 A 
HETATM   23  C4  UNL     1       6.558  -0.063  -0.234  1.00  0.00     0.002 A 
HETATM   24  C5  UNL     1       5.694  -0.855   0.478  1.00  0.00     0.001 A 
HETATM   25  C6  UNL     1       4.435  -0.448   0.827  1.00  0.00     0.016 A 
BRANCH  17  26
HETATM   26  O1  UNL     1       2.050   3.771  -0.022  1.00  0.00    -0.344 OA
ATOM     27  H1  UNL     1       1.179   3.741   0.357  1.00  0.00     0.219 HD
ENDBRANCH  17  26
ENDBRANCH  14  16
ENDBRANCH  12  14
ENDBRANCH   1  11
BRANCH   3  28
HETATM   28  C12 UNL     1      -2.218   0.369  -1.770  1.00  0.00     0.166 C 
BRANCH  28  29
HETATM   29  C13 UNL     1      -3.166   1.325  -1.167  1.00  0.00    -0.040 A 
HETATM   30  C14 UNL     1      -2.651   2.453  -0.566  1.00  0.00     0.009 A 
HETATM   31  C15 UNL     1      -3.489   3.387   0.021  1.00  0.00     0.001 A 
HETATM   32  C16 UNL     1      -4.859   3.237   0.032  1.00  0.00     0.000 A 
HETATM   33  C17 UNL     1      -5.356   2.104  -0.573  1.00  0.00     0.001 A 
HETATM   34  C18 UNL     1      -4.526   1.159  -1.165  1.00  0.00     0.009 A 
ENDBRANCH  28  29
ENDBRANCH   3  28
TORSDOF 6
