REMARK  5 active torsions:
REMARK  status: ('A' for Active; 'I' for Inactive)
REMARK    1  A    between atoms: N1_1  and  C1_4 
REMARK    2  A    between atoms: C6_9  and  C7_10 
REMARK    3  A    between atoms: N2_12  and  C9_13 
REMARK    4  A    between atoms: C9_13  and  C10_14 
REMARK    5  A    between atoms: C15_19  and  C16_20 
ROOT
HETATM    1  C7  UNL     1       1.064  -1.361   0.879  1.00  0.00     0.062 A 
HETATM    2  C8  UNL     1      -0.088  -0.592   1.090  1.00  0.00     0.126 A 
HETATM    3  N2  UNL     1      -0.995  -1.370   1.692  1.00  0.00    -0.303 N 
HETATM    4  C22 UNL     1      -0.451  -2.595   1.864  1.00  0.00     0.327 A 
HETATM    5  O1  UNL     1      -1.040  -3.548   2.397  1.00  0.00    -0.246 OA
HETATM    6  N3  UNL     1       0.796  -2.586   1.371  1.00  0.00    -0.306 N 
ATOM      7  H3  UNL     1       1.438  -3.379   1.369  1.00  0.00     0.171 HD
ENDROOT
BRANCH   1   8
HETATM    8  C6  UNL     1       2.302  -0.916   0.251  1.00  0.00    -0.007 A 
HETATM    9  C5  UNL     1       2.432   0.376  -0.207  1.00  0.00     0.027 A 
HETATM   10  C4  UNL     1       3.606   0.806  -0.805  1.00  0.00    -0.008 A 
HETATM   11  C3  UNL     1       3.678   2.118  -1.246  1.00  0.00     0.017 A 
HETATM   12  C25 UNL     1       4.676  -0.054  -0.956  1.00  0.00     0.044 A 
HETATM   13  C2  UNL     1       4.863   2.514  -1.838  1.00  0.00     0.049 A 
HETATM   14  C1  UNL     1       5.923   1.634  -1.979  1.00  0.00     0.099 A 
HETATM   15  N4  UNL     1       5.825   0.383  -1.547  1.00  0.00    -0.342 N 
ATOM     16  H4  UNL     1       6.613  -0.255  -1.658  1.00  0.00     0.167 HD
HETATM   17  C24 UNL     1       4.550  -1.352  -0.498  1.00  0.00     0.031 A 
HETATM   18  C23 UNL     1       3.357  -1.759   0.101  1.00  0.00     0.016 A 
BRANCH  14  19
HETATM   19  N1  UNL     1       7.000   2.091  -2.548  1.00  0.00    -0.385 N 
ATOM     20  H12 UNL     1       7.075   3.053  -2.880  1.00  0.00     0.157 HD
ATOM     21  H11 UNL     1       7.781   1.443  -2.652  1.00  0.00     0.157 HD
ENDBRANCH  14  19
ENDBRANCH   1   8
BRANCH   3  22
HETATM   22  C9  UNL     1      -2.306  -1.005   2.117  1.00  0.00     0.172 C 
BRANCH  22  23
HETATM   23  C10 UNL     1      -3.402  -1.249   1.195  1.00  0.00    -0.029 A 
HETATM   24  C11 UNL     1      -4.134  -2.427   1.372  1.00  0.00     0.010 A 
HETATM   25  C12 UNL     1      -5.146  -2.786   0.540  1.00  0.00     0.001 A 
HETATM   26  C13 UNL     1      -5.487  -1.973  -0.531  1.00  0.00     0.001 A 
HETATM   27  C14 UNL     1      -4.770  -0.820  -0.701  1.00  0.00     0.013 A 
HETATM   28  C15 UNL     1      -3.717  -0.430   0.153  1.00  0.00    -0.018 A 
BRANCH  28  29
HETATM   29  C16 UNL     1      -3.087   0.866  -0.139  1.00  0.00    -0.025 A 
HETATM   30  C17 UNL     1      -3.017   1.922   0.729  1.00  0.00     0.012 A 
HETATM   31  C18 UNL     1      -2.408   3.121   0.407  1.00  0.00     0.001 A 
HETATM   32  C19 UNL     1      -1.842   3.283  -0.834  1.00  0.00     0.000 A 
HETATM   33  C20 UNL     1      -1.887   2.247  -1.744  1.00  0.00     0.001 A 
HETATM   34  C21 UNL     1      -2.508   1.048  -1.393  1.00  0.00     0.012 A 
ENDBRANCH  28  29
ENDBRANCH  22  23
ENDBRANCH   3  22
TORSDOF 5
