REMARK  4 active torsions:
REMARK  status: ('A' for Active; 'I' for Inactive)
REMARK    1  A    between atoms: S1_2  and  N1_4 
REMARK    2  A    between atoms: S1_2  and  C14_23 
REMARK    3  A    between atoms: N1_4  and  C1_6 
REMARK    4  A    between atoms: C4_9  and  C5_10 
ROOT
HETATM    1  C1  UNL     1       0.859   1.722  -0.774  1.00  0.00     0.042 A 
HETATM    2  C2  UNL     1      -0.233   2.457  -1.282  1.00  0.00     0.031 A 
HETATM    3  C3  UNL     1      -1.497   1.960  -1.185  1.00  0.00     0.017 A 
HETATM    4  C4  UNL     1      -1.750   0.733  -0.592  1.00  0.00     0.008 A 
HETATM    5  C12 UNL     1      -0.671   0.038  -0.107  1.00  0.00     0.017 A 
HETATM    6  C13 UNL     1       0.645   0.505  -0.183  1.00  0.00     0.031 A 
ENDROOT
BRANCH   1   7
HETATM    7  N1  UNL     1       2.151   2.271  -0.884  1.00  0.00    -0.281 N 
ATOM      8  H1  UNL     1       2.431   2.637  -1.794  1.00  0.00     0.179 HD
BRANCH   7   9
HETATM    9  S1  UNL     1       3.267   2.370   0.368  1.00  0.00     0.264 S 
HETATM   10  O1  UNL     1       4.522   3.063  -0.176  1.00  0.00    -0.200 OA
HETATM   11  O2  UNL     1       2.714   3.244   1.504  1.00  0.00    -0.200 OA
BRANCH   9  12
HETATM   12  C14 UNL     1       3.786   0.852   1.012  1.00  0.00     0.092 A 
HETATM   13  C15 UNL     1       3.559   0.548   2.339  1.00  0.00     0.026 A 
HETATM   14  C16 UNL     1       3.978  -0.638   2.873  1.00  0.00     0.004 A 
HETATM   15  C17 UNL     1       4.642  -1.551   2.070  1.00  0.00     0.030 A 
HETATM   16  C18 UNL     1       4.887  -1.283   0.739  1.00  0.00     0.043 A 
HETATM   17  N4  UNL     1       5.492  -1.965  -0.250  1.00  0.00    -0.365 N 
HETATM   18  C21 UNL     1       4.449  -0.068   0.222  1.00  0.00     0.015 A 
HETATM   19  C19 UNL     1       5.448  -1.219  -1.368  1.00  0.00     0.089 A 
ATOM     20  H4  UNL     1       5.913  -2.890  -0.166  1.00  0.00     0.165 HD
HETATM   21  C20 UNL     1       4.796  -0.017  -1.101  1.00  0.00     0.032 A 
ENDBRANCH   9  12
ENDBRANCH   7   9
ENDBRANCH   1   7
BRANCH   4  22
HETATM   22  C5  UNL     1      -3.115   0.203  -0.490  1.00  0.00     0.116 A 
HETATM   23  N2  UNL     1      -4.215   0.829  -0.944  1.00  0.00    -0.340 N 
HETATM   24  C6  UNL     1      -5.308   0.062  -0.688  1.00  0.00     0.060 A 
ATOM     25  H2  UNL     1      -4.227   1.737  -1.408  1.00  0.00     0.167 HD
HETATM   26  C7  UNL     1      -6.658   0.210  -0.929  1.00  0.00     0.032 A 
HETATM   27  C11 UNL     1      -4.873  -1.078  -0.055  1.00  0.00     0.060 A 
HETATM   28  C8  UNL     1      -7.556  -0.763  -0.544  1.00  0.00     0.002 A 
HETATM   29  C9  UNL     1      -7.139  -1.915   0.092  1.00  0.00     0.002 A 
HETATM   30  C10 UNL     1      -5.784  -2.043   0.323  1.00  0.00     0.032 A 
HETATM   31  N3  UNL     1      -3.529  -0.948   0.044  1.00  0.00    -0.340 N 
ATOM     32  H3  UNL     1      -2.913  -1.640   0.471  1.00  0.00     0.167 HD
ENDBRANCH   4  22
TORSDOF 4
