REMARK  15 active torsions:
REMARK  status: ('A' for Active; 'I' for Inactive)
REMARK    1  A    between atoms: C2_2  and  C3_3 
REMARK    2  A    between atoms: C3_3  and  C4_4 
REMARK    3  A    between atoms: C3_3  and  N3_19 
REMARK    4  A    between atoms: C4_4  and  C5_5 
REMARK    5  A    between atoms: C5_5  and  C6_6 
REMARK    6  A    between atoms: C6_6  and  C7_7 
REMARK    7  A    between atoms: C7_7  and  C8_8 
REMARK    8  A    between atoms: C8_8  and  N1_9 
REMARK    9  A    between atoms: N1_9  and  C9_11 
REMARK       I    between atoms: N3_19  and  C15_21 
REMARK   10  A    between atoms: C15_21  and  O2_23 
REMARK   11  A    between atoms: O2_23  and  C16_24 
REMARK   12  A    between atoms: C21_29  and  N4_30 
REMARK       I    between atoms: N4_30  and  C22_32 
REMARK   13  A    between atoms: C22_32  and  C23_34 
REMARK   14  A    between atoms: C23_34  and  S1_35 
REMARK   15  A    between atoms: S1_35  and  C24_38 
ROOT
HETATM    1  O2  UNL     1      -0.686  -0.475  -0.274  1.00  0.00    -0.297 OA
ENDROOT
BRANCH   1   2
HETATM    2  C15 UNL     1       0.677  -0.776  -0.120  1.00  0.00     0.361 C 
HETATM    3  N3  UNL     1       1.617   0.079   0.503  1.00  0.00    -0.332 N 
ATOM      4  H3  UNL     1       1.333   0.983   0.880  1.00  0.00     0.165 HD
HETATM    5  O1  UNL     1       1.020  -1.901  -0.588  1.00  0.00    -0.238 OA
BRANCH   3   6
HETATM    6  C3  UNL     1       2.987  -0.362   0.591  1.00  0.00     0.086 C 
BRANCH   6   7
HETATM    7  C2  UNL     1       3.251  -0.760   2.054  1.00  0.00     0.021 C 
HETATM    8  C1  UNL     1       4.653  -1.310   2.223  1.00  0.00     0.007 C 
ENDBRANCH   6   7
BRANCH   6   9
HETATM    9  C4  UNL     1       3.992   0.707   0.175  1.00  0.00     0.025 C 
BRANCH   9  10
HETATM   10  C5  UNL     1       3.790   1.141  -1.231  1.00  0.00     0.002 C 
BRANCH  10  11
HETATM   11  C6  UNL     1       4.706   2.177  -1.711  1.00  0.00     0.002 C 
BRANCH  11  12
HETATM   12  C7  UNL     1       6.143   1.964  -1.896  1.00  0.00     0.020 C 
BRANCH  12  13
HETATM   13  C8  UNL     1       6.997   1.557  -0.757  1.00  0.00     0.121 C 
BRANCH  13  14
HETATM   14  N1  UNL     1       8.400   1.552  -1.260  1.00  0.00    -0.376 N 
ATOM     15  H1  UNL     1       8.659   1.957  -2.160  1.00  0.00     0.161 HD
BRANCH  14  16
HETATM   16  C9  UNL     1       9.268   0.996  -0.472  1.00  0.00     0.101 A 
HETATM   17  C10 UNL     1       8.960   0.439   0.748  1.00  0.00     0.054 A 
HETATM   18  C11 UNL     1       9.905  -0.164   1.574  1.00  0.00    -0.057 A 
HETATM   19  C12 UNL     1       9.499  -0.749   2.874  1.00  0.00     0.048 C 
HETATM   20  C13 UNL     1      11.202  -0.200   1.144  1.00  0.00     0.024 A 
HETATM   21  C14 UNL     1      11.498   0.366  -0.086  1.00  0.00     0.090 A 
HETATM   22  N2  UNL     1      10.574   0.940  -0.866  1.00  0.00    -0.353 N 
ATOM     23  H2  UNL     1      10.848   1.339  -1.764  1.00  0.00     0.166 HD
ENDBRANCH  14  16
ENDBRANCH  13  14
ENDBRANCH  12  13
ENDBRANCH  11  12
ENDBRANCH  10  11
ENDBRANCH   9  10
ENDBRANCH   6   9
ENDBRANCH   3   6
ENDBRANCH   1   2
BRANCH   1  24
HETATM   24  C16 UNL     1      -1.570  -1.363  -0.888  1.00  0.00     0.146 C 
HETATM   25  C17 UNL     1      -2.352  -0.855  -2.042  1.00  0.00     0.019 C 
HETATM   26  C18 UNL     1      -3.120  -2.073  -2.597  1.00  0.00     0.012 C 
HETATM   27  C27 UNL     1      -3.367   0.187  -1.725  1.00  0.00     0.038 C 
HETATM   28  C19 UNL     1      -4.052  -2.625  -1.571  1.00  0.00    -0.011 C 
HETATM   29  C20 UNL     1      -5.028  -1.529  -1.204  1.00  0.00     0.035 C 
HETATM   30  C31 UNL     1      -3.344  -3.025  -0.316  1.00  0.00     0.016 C 
HETATM   31  C21 UNL     1      -4.324  -0.318  -0.659  1.00  0.00     0.034 C 
HETATM   32  C28 UNL     1      -3.454  -0.666   0.534  1.00  0.00     0.042 C 
HETATM   33  C29 UNL     1      -2.571  -1.817   0.175  1.00  0.00    -0.014 C 
HETATM   34  C30 UNL     1      -1.749  -2.165   1.409  1.00  0.00     0.018 C 
BRANCH  31  35
HETATM   35  N4  UNL     1      -5.329   0.671  -0.362  1.00  0.00    -0.351 N 
HETATM   36  C22 UNL     1      -6.329   0.472   0.617  1.00  0.00     0.232 C 
HETATM   37  O3  UNL     1      -6.416  -0.570   1.311  1.00  0.00    -0.273 OA
ATOM     38  H4  UNL     1      -5.318   1.550  -0.879  1.00  0.00     0.163 HD
BRANCH  36  39
HETATM   39  C23 UNL     1      -7.389   1.501   0.917  1.00  0.00     0.243 C 
BRANCH  39  40
HETATM   40  S1  UNL     1      -8.973   0.914   0.355  1.00  0.00     0.156 S 
HETATM   41  O4  UNL     1      -8.932   0.656  -1.121  1.00  0.00    -0.227 OA
HETATM   42  O5  UNL     1      -9.316  -0.377   1.036  1.00  0.00    -0.227 OA
BRANCH  40  43
HETATM   43  C24 UNL     1     -10.253   2.077   0.679  1.00  0.00     0.101 C 
HETATM   44  C25 UNL     1     -10.119   3.321  -0.152  1.00  0.00     0.026 C 
HETATM   45  C26 UNL     1     -11.578   1.403   0.287  1.00  0.00     0.026 C 
ENDBRANCH  40  43
ENDBRANCH  39  40
ENDBRANCH  36  39
ENDBRANCH  31  35
ENDBRANCH   1  24
TORSDOF 15
