REMARK  16 active torsions:
REMARK  status: ('A' for Active; 'I' for Inactive)
REMARK    1  A    between atoms: C2_2  and  C4_4 
REMARK    2  A    between atoms: C4_4  and  C5_5 
REMARK    3  A    between atoms: C5_5  and  N1_6 
REMARK    4  A    between atoms: C5_5  and  C14_21 
REMARK       I    between atoms: N1_6  and  C6_8 
REMARK    5  A    between atoms: C6_8  and  C7_10 
REMARK    6  A    between atoms: C7_10  and  N2_11 
REMARK    7  A    between atoms: C7_10  and  C8_15 
REMARK       I    between atoms: C14_21  and  N3_23 
REMARK    8  A    between atoms: C16_26  and  C17_27 
REMARK    9  A    between atoms: C17_27  and  C19_29 
REMARK   10  A    between atoms: C19_29  and  O3_30 
REMARK   11  A    between atoms: C22_34  and  N4_35 
REMARK   12  A    between atoms: N4_35  and  C23_36 
REMARK   13  A    between atoms: N4_35  and  O5_38 
REMARK   14  A    between atoms: O5_38  and  C24_39 
REMARK   15  A    between atoms: C24_39  and  C25_40 
REMARK   16  A    between atoms: C30_45  and  C31_46 
ROOT
HETATM    1  C14 UNL     1       1.191  -1.100  -0.645  1.00  0.00     0.244 C 
HETATM    2  O2  UNL     1       1.990  -1.453   0.294  1.00  0.00    -0.271 OA
HETATM    3  N3  UNL     1       0.166  -1.983  -0.929  1.00  0.00    -0.328 N 
ATOM      4  H3  UNL     1       0.490  -2.757  -1.508  1.00  0.00     0.168 HD
HETATM    5  C15 UNL     1      -1.036  -2.085  -0.669  1.00  0.00     0.028 C 
HETATM    6  C16 UNL     1      -1.789  -3.254  -1.211  1.00  0.00     0.042 C 
HETATM    7  C20 UNL     1      -2.918  -3.603  -0.329  1.00  0.00     0.017 C 
HETATM    8  C21 UNL     1      -3.911  -2.478  -0.129  1.00  0.00     0.061 C 
HETATM    9  C22 UNL     1      -3.253  -1.131  -0.187  1.00  0.00     0.055 C 
HETATM   10  C29 UNL     1      -1.818  -1.081   0.148  1.00  0.00     0.009 C 
HETATM   11  C30 UNL     1      -1.246  -0.692   1.415  1.00  0.00    -0.008 C 
ENDROOT
BRANCH   6  12
HETATM   12  C17 UNL     1      -0.945  -4.442  -1.517  1.00  0.00     0.015 C 
HETATM   13  C18 UNL     1      -1.835  -5.550  -2.053  1.00  0.00     0.012 C 
BRANCH  12  14
HETATM   14  C19 UNL     1      -0.091  -5.003  -0.454  1.00  0.00     0.169 C 
BRANCH  14  15
HETATM   15  O3  UNL     1      -0.766  -5.447   0.662  1.00  0.00    -0.400 OA
ATOM     16  H3  UNL     1      -0.216  -5.808   1.347  1.00  0.00     0.209 HD
ENDBRANCH  14  15
ENDBRANCH  12  14
ENDBRANCH   6  12
BRANCH   1  17
HETATM   17  C5  UNL     1       1.473   0.186  -1.286  1.00  0.00     0.177 C 
BRANCH  17  18
HETATM   18  C4  UNL     1       1.503   0.209  -2.750  1.00  0.00     0.038 C 
BRANCH  18  19
HETATM   19  C2  UNL     1       2.615  -0.359  -3.518  1.00  0.00    -0.020 C 
HETATM   20  C1  UNL     1       3.976   0.207  -3.324  1.00  0.00     0.009 C 
HETATM   21  C3  UNL     1       2.639  -1.900  -3.476  1.00  0.00     0.009 C 
ENDBRANCH  18  19
ENDBRANCH  17  18
BRANCH  17  22
HETATM   22  N1  UNL     1       2.602   0.890  -0.734  1.00  0.00    -0.346 N 
HETATM   23  C6  UNL     1       2.542   2.160  -0.141  1.00  0.00     0.249 C 
HETATM   24  O1  UNL     1       1.429   2.739  -0.078  1.00  0.00    -0.271 OA
ATOM     25  H1  UNL     1       3.512   0.431  -0.777  1.00  0.00     0.163 HD
BRANCH  23  26
HETATM   26  C7  UNL     1       3.765   2.793   0.397  1.00  0.00     0.278 C 
BRANCH  26  27
HETATM   27  N2  UNL     1       4.945   1.990   0.142  1.00  0.00    -0.066 N 
ATOM     28  H23 UNL     1       4.832   1.041   0.497  1.00  0.00     0.275 HD
ATOM     29  H22 UNL     1       5.043   1.779  -0.851  1.00  0.00     0.275 HD
ATOM     30  H21 UNL     1       5.789   2.427   0.513  1.00  0.00     0.275 HD
ENDBRANCH  26  27
BRANCH  26  31
HETATM   31  C8  UNL     1       3.626   3.091   1.880  1.00  0.00     0.025 C 
HETATM   32  C9  UNL     1       3.394   1.890   2.729  1.00  0.00     0.007 C 
HETATM   33  C10 UNL     1       4.415   1.733   3.830  1.00  0.00     0.000 C 
HETATM   34  C11 UNL     1       5.804   2.043   3.379  1.00  0.00     0.000 C 
HETATM   35  C12 UNL     1       5.942   3.357   2.691  1.00  0.00     0.000 C 
HETATM   36  C13 UNL     1       4.637   4.015   2.436  1.00  0.00     0.007 C 
ENDBRANCH  26  31
ENDBRANCH  23  26
ENDBRANCH  17  22
ENDBRANCH   1  17
BRANCH   9  37
HETATM   37  N4  UNL     1      -4.094  -0.107   0.305  1.00  0.00    -0.200 N 
BRANCH  37  38
HETATM   38  C23 UNL     1      -4.493   0.130   1.638  1.00  0.00     0.381 C 
HETATM   39  O4  UNL     1      -5.255   1.122   1.890  1.00  0.00    -0.281 OA
ENDBRANCH  37  38
BRANCH  37  40
HETATM   40  O5  UNL     1      -4.621   0.810  -0.595  1.00  0.00    -0.270 OA
BRANCH  40  41
HETATM   41  C24 UNL     1      -3.905   1.975  -0.604  1.00  0.00     0.210 C 
BRANCH  41  42
HETATM   42  C25 UNL     1      -4.449   3.003  -1.558  1.00  0.00    -0.027 C 
HETATM   43  C26 UNL     1      -3.603   4.277  -1.526  1.00  0.00     0.016 C 
HETATM   44  C27 UNL     1      -4.438   2.518  -2.990  1.00  0.00     0.016 C 
HETATM   45  C28 UNL     1      -5.863   3.410  -1.215  1.00  0.00     0.016 C 
ENDBRANCH  41  42
ENDBRANCH  40  41
ENDBRANCH  37  40
ENDBRANCH   9  37
BRANCH  11  46
HETATM   46  C31 UNL     1      -0.894  -1.608   2.508  1.00  0.00     0.001 C 
HETATM   47  C32 UNL     1      -0.271  -0.719   3.645  1.00  0.00     0.013 C 
HETATM   48  C33 UNL     1      -1.958  -2.360   3.224  1.00  0.00     0.013 C 
ENDBRANCH  11  46
TORSDOF 16
