REMARK  16 active torsions:
REMARK  status: ('A' for Active; 'I' for Inactive)
REMARK    1  A    between atoms: C2_2  and  C3_3 
REMARK    2  A    between atoms: C3_3  and  N2_7 
REMARK    3  A    between atoms: N2_7  and  C4_9 
REMARK    4  A    between atoms: C4_9  and  C5_10 
REMARK    5  A    between atoms: C5_10  and  C6_11 
REMARK    6  A    between atoms: C6_11  and  C7_12 
REMARK    7  A    between atoms: C7_12  and  C8_13 
REMARK    8  A    between atoms: N3_16  and  C11_17 
REMARK    9  A    between atoms: C11_17  and  C12_18 
REMARK   10  A    between atoms: C11_17  and  C16_26 
REMARK   11  A    between atoms: C12_18  and  C13_19 
REMARK   12  A    between atoms: C13_19  and  C14_20 
REMARK   13  A    between atoms: C14_20  and  C15_21 
REMARK   14  A    between atoms: C15_21  and  N4_22 
REMARK       I    between atoms: C16_26  and  N5_28 
REMARK       I    between atoms: N6_33  and  C21_34 
REMARK   15  A    between atoms: C21_34  and  S1_36 
REMARK   16  A    between atoms: S1_36  and  C22_37 
ROOT
HETATM    1  C11 UNL     1      -0.129  -1.570  -1.098  1.00  0.00     0.314 C 
ENDROOT
BRANCH   1   2
HETATM    2  N3  UNL     1       1.201  -1.665  -0.545  1.00  0.00     0.102 N 
HETATM    3  C10 UNL     1       1.252  -1.331   0.859  1.00  0.00     0.274 C 
HETATM    4  C9  UNL     1       2.657  -1.287   1.419  1.00  0.00     0.035 C 
HETATM    5  C8  UNL     1       3.579  -0.413   0.625  1.00  0.00    -0.011 C 
HETATM    6  C33 UNL     1       2.746   0.246  -0.445  1.00  0.00     0.035 C 
HETATM    7  C32 UNL     1       2.157  -0.924  -1.256  1.00  0.00     0.274 C 
BRANCH   5   8
HETATM    8  C7  UNL     1       4.340   0.589   1.424  1.00  0.00     0.005 C 
BRANCH   8   9
HETATM    9  C6  UNL     1       5.200  -0.107   2.455  1.00  0.00     0.002 C 
BRANCH   9  10
HETATM   10  C5  UNL     1       5.991   0.879   3.287  1.00  0.00     0.020 C 
BRANCH  10  11
HETATM   11  C4  UNL     1       6.913   1.719   2.459  1.00  0.00     0.121 C 
BRANCH  11  12
HETATM   12  N2  UNL     1       7.631   2.628   3.306  1.00  0.00    -0.380 N 
ATOM     13  H2  UNL     1       7.458   2.616   4.311  1.00  0.00     0.160 HD
BRANCH  12  14
HETATM   14  C3  UNL     1       8.590   3.557   2.767  1.00  0.00     0.070 C 
HETATM   15  N1  UNL     1       9.756   3.734   3.263  1.00  0.00    -0.389 N 
ATOM     16  H12 UNL     1      10.435   4.392   2.881  1.00  0.00     0.157 HD
ATOM     17  H11 UNL     1      10.061   3.210   4.083  1.00  0.00     0.157 HD
BRANCH  14  18
HETATM   18  C2  UNL     1       8.146   4.321   1.572  1.00  0.00     0.071 C 
HETATM   19  C1  UNL     1       9.191   5.269   1.071  1.00  0.00     0.013 C 
ENDBRANCH  14  18
ENDBRANCH  12  14
ENDBRANCH  11  12
ENDBRANCH  10  11
ENDBRANCH   9  10
ENDBRANCH   8   9
ENDBRANCH   5   8
ENDBRANCH   1   2
BRANCH   1  20
HETATM   20  C12 UNL     1      -0.037  -1.917  -2.580  1.00  0.00     0.046 C 
BRANCH  20  21
HETATM   21  C13 UNL     1       0.522  -3.319  -2.688  1.00  0.00     0.004 C 
BRANCH  21  22
HETATM   22  C14 UNL     1       0.656  -3.746  -4.144  1.00  0.00     0.027 C 
BRANCH  22  23
HETATM   23  C15 UNL     1       1.221  -5.158  -4.143  1.00  0.00     0.229 C 
BRANCH  23  24
HETATM   24  N4  UNL     1       1.396  -5.681  -5.461  1.00  0.00    -0.079 N 
ATOM     25  H43 UNL     1       0.526  -5.635  -5.992  1.00  0.00     0.274 HD
ATOM     26  H42 UNL     1       1.969  -5.057  -6.029  1.00  0.00     0.274 HD
ATOM     27  H41 UNL     1       1.775  -6.628  -5.460  1.00  0.00     0.274 HD
ENDBRANCH  23  24
ENDBRANCH  22  23
ENDBRANCH  21  22
ENDBRANCH  20  21
ENDBRANCH   1  20
BRANCH   1  28
HETATM   28  C16 UNL     1      -1.057  -2.561  -0.520  1.00  0.00     0.253 C 
HETATM   29  O1  UNL     1      -0.635  -3.558   0.119  1.00  0.00    -0.271 OA
HETATM   30  N5  UNL     1      -2.454  -2.468  -0.635  1.00  0.00    -0.345 N 
HETATM   31  C17 UNL     1      -3.067  -1.383  -1.318  1.00  0.00     0.136 C 
HETATM   32  C30 UNL     1      -3.347  -3.469  -0.060  1.00  0.00     0.087 C 
HETATM   33  C18 UNL     1      -4.274  -0.814  -0.594  1.00  0.00    -0.017 C 
HETATM   34  C19 UNL     1      -3.871   0.347   0.273  1.00  0.00     0.031 C 
HETATM   35  C26 UNL     1      -5.177  -0.268  -1.694  1.00  0.00     0.031 C 
HETATM   36  C27 UNL     1      -5.044  -1.875   0.139  1.00  0.00    -0.002 C 
HETATM   37  C20 UNL     1      -5.037   1.041   0.888  1.00  0.00     0.127 C 
HETATM   38  N6  UNL     1      -5.882   1.525  -0.199  1.00  0.00    -0.343 N 
HETATM   39  C21 UNL     1      -6.244   2.894  -0.308  1.00  0.00     0.282 C 
HETATM   40  C25 UNL     1      -6.324   0.523  -1.150  1.00  0.00     0.127 C 
HETATM   41  O2  UNL     1      -6.975   3.229  -1.273  1.00  0.00    -0.260 OA
HETATM   42  C28 UNL     1      -4.555  -2.170   1.516  1.00  0.00     0.007 C 
HETATM   43  C31 UNL     1      -4.739  -3.199  -0.579  1.00  0.00     0.031 C 
HETATM   44  C29 UNL     1      -3.509  -3.261   1.431  1.00  0.00     0.026 C 
BRANCH  39  45
HETATM   45  S1  UNL     1      -5.684   4.100   0.882  1.00  0.00    -0.064 SA
BRANCH  45  46
HETATM   46  C22 UNL     1      -6.309   5.735   0.469  1.00  0.00     0.057 A 
HETATM   47  C23 UNL     1      -7.835   5.879   0.580  1.00  0.00     0.017 A 
HETATM   48  C24 UNL     1      -6.930   6.606   1.509  1.00  0.00     0.017 A 
ENDBRANCH  45  46
ENDBRANCH  39  45
ENDBRANCH   1  28
TORSDOF 16
