REMARK  16 active torsions:
REMARK  status: ('A' for Active; 'I' for Inactive)
REMARK    1  A    between atoms: O1_2  and  C2_3 
REMARK    2  A    between atoms: C2_3  and  C3_5 
REMARK    3  A    between atoms: C3_5  and  C4_6 
REMARK    4  A    between atoms: C4_6  and  C5_7 
REMARK    5  A    between atoms: C5_7  and  C6_8 
REMARK    6  A    between atoms: C7_9  and  C8_10 
REMARK    7  A    between atoms: C8_10  and  C9_11 
REMARK    8  A    between atoms: C10_12  and  O3_13 
REMARK    9  A    between atoms: C11_17  and  C12_18 
REMARK   10  A    between atoms: C12_18  and  C13_19 
REMARK   11  A    between atoms: C17_26  and  C18_27 
REMARK   12  A    between atoms: C18_27  and  C19_28 
REMARK   13  A    between atoms: C25_37  and  N4_38 
REMARK   14  A    between atoms: N4_38  and  C26_40 
REMARK   15  A    between atoms: C26_40  and  C27_41 
REMARK   16  A    between atoms: C27_41  and  C28_42 
ROOT
HETATM    1  C9  UNL     1       1.593   0.867  -0.285  1.00  0.00     0.039 C 
HETATM    2  C10 UNL     1       0.601   1.069  -1.362  1.00  0.00     0.146 C 
HETATM    3  N1  UNL     1      -0.474   1.907  -1.493  1.00  0.00    -0.357 N 
ATOM      4  H1  UNL     1      -0.420   2.541  -2.290  1.00  0.00     0.162 HD
HETATM    5  C11 UNL     1      -1.690   2.050  -0.685  1.00  0.00     0.176 C 
HETATM    6  C16 UNL     1      -2.680   1.154  -1.343  1.00  0.00     0.241 C 
HETATM    7  O4  UNL     1      -3.175   1.571  -2.420  1.00  0.00    -0.271 OA
HETATM    8  N2  UNL     1      -3.105  -0.108  -0.870  1.00  0.00    -0.348 N 
ATOM      9  H2  UNL     1      -3.117  -0.863  -1.555  1.00  0.00     0.163 HD
HETATM   10  C17 UNL     1      -3.522  -0.455   0.459  1.00  0.00     0.154 C 
HETATM   11  C22 UNL     1      -2.666  -1.494   1.065  1.00  0.00     0.154 C 
HETATM   12  O5  UNL     1      -3.000  -2.041   2.081  1.00  0.00    -0.295 OA
HETATM   13  C23 UNL     1      -1.391  -1.858   0.416  1.00  0.00     0.125 C 
HETATM   14  C24 UNL     1      -0.297  -1.169   1.223  1.00  0.00     0.070 C 
HETATM   15  N3  UNL     1       0.974  -1.270   0.681  1.00  0.00    -0.355 N 
ATOM     16  H3  UNL     1       1.345  -2.211   0.816  1.00  0.00     0.166 HD
HETATM   17  C25 UNL     1       1.806  -0.554   0.075  1.00  0.00     0.111 C 
ENDROOT
BRANCH  17  18
HETATM   18  N4  UNL     1       3.096  -1.109  -0.328  1.00  0.00    -0.376 N 
ATOM     19  H4  UNL     1       3.939  -0.572  -0.123  1.00  0.00     0.161 HD
BRANCH  18  20
HETATM   20  C26 UNL     1       3.238  -2.359  -0.992  1.00  0.00     0.125 C 
BRANCH  20  21
HETATM   21  C27 UNL     1       2.920  -3.553  -0.157  1.00  0.00     0.047 C 
BRANCH  21  22
HETATM   22  C28 UNL     1       3.103  -4.825  -0.922  1.00  0.00    -0.022 C 
HETATM   23  C29 UNL     1       2.120  -5.673  -1.123  1.00  0.00    -0.084 C 
HETATM   24  C30 UNL     1       0.738  -5.416  -0.592  1.00  0.00     0.034 C 
HETATM   25  C34 UNL     1       2.320  -6.917  -1.878  1.00  0.00     0.034 C 
HETATM   26  C31 UNL     1      -0.121  -6.635  -0.866  1.00  0.00     0.004 C 
HETATM   27  C32 UNL     1       0.601  -7.835  -0.293  1.00  0.00     0.001 C 
HETATM   28  C33 UNL     1       1.771  -8.140  -1.177  1.00  0.00     0.004 C 
ENDBRANCH  21  22
ENDBRANCH  20  21
ENDBRANCH  18  20
ENDBRANCH  17  18
BRANCH   1  29
HETATM   29  C8  UNL     1       1.542   1.816   0.858  1.00  0.00     0.073 C 
BRANCH  29  30
HETATM   30  C7  UNL     1       1.799   3.204   0.336  1.00  0.00    -0.026 C 
HETATM   31  C6  UNL     1       2.833   3.904   0.793  1.00  0.00    -0.030 C 
BRANCH  31  32
HETATM   32  C5  UNL     1       3.067   5.273   0.264  1.00  0.00     0.027 C 
BRANCH  32  33
HETATM   33  C4  UNL     1       3.018   6.307   1.354  1.00  0.00     0.013 C 
BRANCH  33  34
HETATM   34  C3  UNL     1       4.037   6.096   2.417  1.00  0.00     0.111 C 
BRANCH  34  35
HETATM   35  C2  UNL     1       5.439   6.156   1.970  1.00  0.00     0.258 C 
HETATM   36  O2  UNL     1       6.317   5.859   2.838  1.00  0.00    -0.265 OA
BRANCH  35  37
HETATM   37  O1  UNL     1       5.893   6.498   0.724  1.00  0.00    -0.326 OA
HETATM   38  C1  UNL     1       7.243   6.539   0.359  1.00  0.00     0.213 C 
ENDBRANCH  35  37
ENDBRANCH  34  35
ENDBRANCH  33  34
ENDBRANCH  32  33
ENDBRANCH  31  32
ENDBRANCH  29  30
ENDBRANCH   1  29
BRANCH   2  39
HETATM   39  O3  UNL     1       0.839   0.271  -2.362  1.00  0.00    -0.346 OA
ATOM     40  H3  UNL     1       0.201   0.401  -3.054  1.00  0.00     0.219 HD
ENDBRANCH   2  39
BRANCH   5  41
HETATM   41  C12 UNL     1      -2.046   3.492  -0.704  1.00  0.00     0.038 C 
BRANCH  41  42
HETATM   42  C13 UNL     1      -3.221   3.972   0.029  1.00  0.00    -0.020 C 
HETATM   43  C14 UNL     1      -4.561   3.416  -0.369  1.00  0.00     0.009 C 
HETATM   44  C15 UNL     1      -3.059   3.955   1.540  1.00  0.00     0.009 C 
ENDBRANCH  41  42
ENDBRANCH   5  41
BRANCH  10  45
HETATM   45  C18 UNL     1      -4.948  -0.731   0.676  1.00  0.00     0.037 C 
BRANCH  45  46
HETATM   46  C19 UNL     1      -5.630  -1.808  -0.051  1.00  0.00    -0.020 C 
HETATM   47  C20 UNL     1      -5.644  -1.692  -1.555  1.00  0.00     0.009 C 
HETATM   48  C21 UNL     1      -5.287  -3.220   0.358  1.00  0.00     0.009 C 
ENDBRANCH  45  46
ENDBRANCH  10  45
TORSDOF 16
