REMARK  13 active torsions:
REMARK  status: ('A' for Active; 'I' for Inactive)
REMARK    1  A    between atoms: C2_2  and  C3_4 
REMARK    2  A    between atoms: C3_4  and  N1_5 
REMARK    3  A    between atoms: N1_5  and  C4_7 
REMARK    4  A    between atoms: N2_10  and  C7_11 
REMARK    5  A    between atoms: C7_11  and  C8_12 
REMARK    6  A    between atoms: C8_12  and  C9_13 
REMARK    7  A    between atoms: C9_13  and  C10_14 
REMARK    8  A    between atoms: C10_14  and  N3_15 
REMARK    9  A    between atoms: C10_14  and  C27_37 
REMARK       I    between atoms: N3_15  and  C11_17 
REMARK   10  A    between atoms: C11_17  and  C12_19 
REMARK   11  A    between atoms: C12_19  and  N4_20 
REMARK   12  A    between atoms: C12_19  and  C24_34 
REMARK       I    between atoms: N4_20  and  C13_22 
REMARK   13  A    between atoms: C13_22  and  C14_24 
ROOT
HETATM    1  N3  UNL     1      -0.365  -1.060   0.427  1.00  0.00    -0.332 N 
ATOM      2  H3  UNL     1      -0.027  -1.246  -0.517  1.00  0.00     0.168 HD
HETATM    3  C11 UNL     1      -1.657  -0.515   0.584  1.00  0.00     0.244 C 
HETATM    4  O2  UNL     1      -2.056  -0.281   1.752  1.00  0.00    -0.271 OA
ENDROOT
BRANCH   1   5
HETATM    5  C10 UNL     1       0.513  -1.371   1.557  1.00  0.00    -0.007 C 
BRANCH   5   6
HETATM    6  C9  UNL     1       1.648  -0.450   1.736  1.00  0.00     0.054 C 
BRANCH   6   7
HETATM    7  C8  UNL     1       2.630  -0.297   0.630  1.00  0.00     0.036 C 
BRANCH   7   8
HETATM    8  C7  UNL     1       3.731   0.704   1.013  1.00  0.00     0.272 C 
BRANCH   8   9
HETATM    9  N2  UNL     1       4.681   0.897  -0.024  1.00  0.00     0.088 N 
HETATM   10  C6  UNL     1       5.677   1.841   0.423  1.00  0.00     0.274 C 
HETATM   11  C5  UNL     1       7.033   1.696  -0.157  1.00  0.00     0.055 C 
HETATM   12  C4  UNL     1       7.060   1.178  -1.564  1.00  0.00     0.080 C 
HETATM   13  C31 UNL     1       6.046   0.079  -1.786  1.00  0.00     0.055 C 
HETATM   14  C30 UNL     1       5.353  -0.290  -0.481  1.00  0.00     0.274 C 
BRANCH  12  15
HETATM   15  N1  UNL     1       8.338   0.725  -2.021  1.00  0.00    -0.410 N 
ATOM     16  H1  UNL     1       8.816   1.181  -2.798  1.00  0.00     0.154 HD
BRANCH  15  17
HETATM   17  C3  UNL     1       8.911  -0.381  -1.350  1.00  0.00     0.192 C 
BRANCH  17  18
HETATM   18  C2  UNL     1      10.257  -0.651  -1.991  1.00  0.00     0.140 C 
HETATM   19  C1  UNL     1      11.075  -1.785  -1.466  1.00  0.00     0.092 C 
HETATM   20  O1  UNL     1      10.678   0.010  -2.894  1.00  0.00    -0.297 OA
ENDBRANCH  17  18
ENDBRANCH  15  17
ENDBRANCH  12  15
ENDBRANCH   8   9
ENDBRANCH   7   8
ENDBRANCH   6   7
ENDBRANCH   5   6
BRANCH   5  21
HETATM   21  C27 UNL     1       0.771  -2.832   1.678  1.00  0.00     0.023 C 
HETATM   22  C28 UNL     1       1.737  -3.432   0.729  1.00  0.00     0.016 C 
HETATM   23  C29 UNL     1       1.162  -3.189   3.097  1.00  0.00     0.016 C 
ENDBRANCH   5  21
ENDBRANCH   1   5
BRANCH   3  24
HETATM   24  C12 UNL     1      -2.513  -0.232  -0.590  1.00  0.00     0.180 C 
BRANCH  24  25
HETATM   25  N4  UNL     1      -3.778   0.340  -0.192  1.00  0.00    -0.347 N 
HETATM   26  C13 UNL     1      -4.984  -0.384  -0.321  1.00  0.00     0.227 C 
HETATM   27  O3  UNL     1      -5.018  -1.569  -0.782  1.00  0.00    -0.273 OA
ATOM     28  H4  UNL     1      -3.801   1.286   0.190  1.00  0.00     0.163 HD
BRANCH  26  29
HETATM   29  C14 UNL     1      -6.301   0.202   0.075  1.00  0.00     0.042 C 
HETATM   30  C15 UNL     1      -7.399  -0.814   0.039  1.00  0.00     0.024 C 
HETATM   31  C16 UNL     1      -8.684  -0.126   0.452  1.00  0.00    -0.013 C 
HETATM   32  C17 UNL     1      -9.050   0.991  -0.503  1.00  0.00     0.009 C 
HETATM   33  C21 UNL     1      -8.567   0.469   1.843  1.00  0.00     0.009 C 
HETATM   34  C18 UNL     1      -7.914   1.984  -0.539  1.00  0.00    -0.013 C 
HETATM   35  C19 UNL     1      -7.719   2.581   0.836  1.00  0.00     0.009 C 
HETATM   36  C23 UNL     1      -6.661   1.268  -0.948  1.00  0.00     0.024 C 
HETATM   37  C20 UNL     1      -7.467   1.482   1.826  1.00  0.00    -0.013 C 
HETATM   38  C22 UNL     1      -6.183   0.765   1.456  1.00  0.00     0.024 C 
ENDBRANCH  26  29
ENDBRANCH  24  25
BRANCH  24  39
HETATM   39  C24 UNL     1      -1.755   0.655  -1.534  1.00  0.00     0.009 C 
HETATM   40  C25 UNL     1      -1.415   1.930  -0.789  1.00  0.00     0.012 C 
HETATM   41  C26 UNL     1      -2.514   0.934  -2.803  1.00  0.00     0.012 C 
ENDBRANCH  24  39
ENDBRANCH   3  24
TORSDOF 13
