REMARK  17 active torsions:
REMARK  status: ('A' for Active; 'I' for Inactive)
REMARK    1  A    between atoms: C4_4  and  C5_5 
REMARK    2  A    between atoms: C7_8  and  C8_9 
REMARK    3  A    between atoms: C8_9  and  C9_10 
REMARK    4  A    between atoms: C9_10  and  C10_11 
REMARK    5  A    between atoms: C10_11  and  O2_12 
REMARK    6  A    between atoms: C10_11  and  C11_14 
REMARK    7  A    between atoms: C11_14  and  C12_15 
REMARK    8  A    between atoms: C12_15  and  O3_16 
REMARK    9  A    between atoms: C12_15  and  C13_18 
REMARK   10  A    between atoms: C13_18  and  C14_19 
REMARK   11  A    between atoms: N1_24  and  C17_25 
REMARK   12  A    between atoms: C17_25  and  C18_26 
REMARK   13  A    between atoms: C21_29  and  C22_30 
REMARK   14  A    between atoms: C22_30  and  O6_31 
REMARK   15  A    between atoms: C22_30  and  N2_33 
REMARK   16  A    between atoms: N2_33  and  C23_34 
REMARK   17  A    between atoms: N2_33  and  C26_37 
ROOT
HETATM    1  C5  UNL     1      -0.811   0.377  -1.182  1.00  0.00     0.019 C 
HETATM    2  C6  UNL     1       0.649   0.593  -1.180  1.00  0.00     0.162 C 
HETATM    3  O1  UNL     1       1.065   0.565  -2.333  1.00  0.00    -0.292 OA
HETATM    4  C7  UNL     1       1.750   0.824  -0.247  1.00  0.00     0.062 C 
HETATM    5  C15 UNL     1       1.404   1.414   1.059  1.00  0.00     0.032 C 
HETATM    6  C16 UNL     1      -0.004   2.020   0.954  1.00  0.00     0.124 C 
HETATM    7  N1  UNL     1      -0.950   1.059   1.180  1.00  0.00    -0.377 N 
HETATM    8  C21 UNL     1      -1.515   0.254   0.125  1.00  0.00     0.195 C 
ENDROOT
BRANCH   4   9
HETATM    9  C8  UNL     1       2.812   1.649  -0.992  1.00  0.00     0.015 C 
BRANCH   9  10
HETATM   10  C9  UNL     1       4.012   1.960  -0.170  1.00  0.00     0.032 C 
BRANCH  10  11
HETATM   11  C10 UNL     1       4.723   0.737   0.320  1.00  0.00     0.120 C 
BRANCH  11  12
HETATM   12  O2  UNL     1       5.833   1.156   1.084  1.00  0.00    -0.395 OA
ATOM     13  H2  UNL     1       6.284   0.380   1.395  1.00  0.00     0.210 HD
ENDBRANCH  11  12
BRANCH  11  14
HETATM   14  C11 UNL     1       5.278   0.005  -0.907  1.00  0.00     0.064 C 
BRANCH  14  15
HETATM   15  C12 UNL     1       6.006  -1.240  -0.404  1.00  0.00     0.130 C 
BRANCH  15  16
HETATM   16  O3  UNL     1       7.037  -0.837   0.447  1.00  0.00    -0.395 OA
ATOM     17  H3  UNL     1       7.490  -1.611   0.760  1.00  0.00     0.210 HD
ENDBRANCH  15  16
BRANCH  15  18
HETATM   18  C13 UNL     1       6.602  -1.905  -1.607  1.00  0.00     0.144 C 
BRANCH  18  19
HETATM   19  C14 UNL     1       7.320  -3.110  -1.201  1.00  0.00     0.175 C 
HETATM   20  O4  UNL     1       7.369  -3.452  -0.004  1.00  0.00    -0.648 OA
HETATM   21  O5  UNL     1       7.955  -3.886  -2.155  1.00  0.00    -0.648 OA
ENDBRANCH  18  19
ENDBRANCH  15  18
ENDBRANCH  14  15
ENDBRANCH  11  14
ENDBRANCH  10  11
ENDBRANCH   9  10
ENDBRANCH   4   9
BRANCH   1  22
HETATM   22  C4  UNL     1      -1.524   1.009  -2.298  1.00  0.00     0.015 C 
HETATM   23  C2  UNL     1      -1.575   2.416  -2.621  1.00  0.00    -0.087 C 
HETATM   24  C1  UNL     1      -0.366   3.207  -2.936  1.00  0.00     0.043 C 
HETATM   25  C3  UNL     1      -2.493   3.283  -1.756  1.00  0.00     0.043 C 
ENDBRANCH   1  22
BRANCH   8  26
HETATM   26  C22 UNL     1      -1.529  -1.120   0.690  1.00  0.00     0.142 C 
BRANCH  26  27
HETATM   27  O6  UNL     1      -0.458  -1.419   1.415  1.00  0.00    -0.348 OA
ATOM     28  H6  UNL     1      -0.467  -2.298   1.776  1.00  0.00     0.219 HD
ENDBRANCH  26  27
BRANCH  26  29
HETATM   29  N2  UNL     1      -2.434  -2.196   0.638  1.00  0.00    -0.351 N 
BRANCH  29  30
HETATM   30  C23 UNL     1      -1.990  -3.398   1.371  1.00  0.00     0.079 C 
HETATM   31  C24 UNL     1      -1.778  -4.613   0.562  1.00  0.00     0.032 C 
HETATM   32  C25 UNL     1      -2.876  -3.748   2.531  1.00  0.00     0.032 C 
ENDBRANCH  29  30
BRANCH  29  33
HETATM   33  C26 UNL     1      -3.697  -2.204  -0.055  1.00  0.00     0.024 C 
HETATM   34  C27 UNL     1      -3.576  -2.157  -1.570  1.00  0.00     0.037 C 
HETATM   35  C28 UNL     1      -4.626  -3.361   0.334  1.00  0.00     0.037 C 
HETATM   36  C29 UNL     1      -4.550  -0.976   0.313  1.00  0.00     0.037 C 
ENDBRANCH  29  33
ENDBRANCH  26  29
ENDBRANCH   8  26
BRANCH   7  37
HETATM   37  C17 UNL     1      -1.785   1.251   2.289  1.00  0.00     0.063 C 
BRANCH  37  38
HETATM   38  C18 UNL     1      -2.795   2.316   2.313  1.00  0.00     0.016 C 
HETATM   39  C19 UNL     1      -2.340   3.730   2.187  1.00  0.00     0.015 C 
HETATM   40  C20 UNL     1      -3.506   2.233   3.680  1.00  0.00     0.015 C 
ENDBRANCH  37  38
ENDBRANCH   7  37
TORSDOF 17
