REMARK  16 active torsions:
REMARK  status: ('A' for Active; 'I' for Inactive)
REMARK    1  A    between atoms: C4_4  and  C5_5 
REMARK    2  A    between atoms: C5_5  and  C6_6 
REMARK    3  A    between atoms: C6_6  and  C7_7 
REMARK    4  A    between atoms: C7_7  and  C8_8 
REMARK    5  A    between atoms: C8_8  and  C9_9 
REMARK    6  A    between atoms: C9_9  and  N1_10 
REMARK    7  A    between atoms: C9_9  and  C15_19 
REMARK       I    between atoms: N1_10  and  C10_12 
REMARK    8  A    between atoms: C10_12  and  O2_14 
REMARK    9  A    between atoms: O2_14  and  C11_15 
REMARK       I    between atoms: C15_19  and  N2_21 
REMARK   10  A    between atoms: N2_21  and  C16_23 
REMARK   11  A    between atoms: C16_23  and  C17_24 
REMARK   12  A    between atoms: C16_23  and  C24_31 
REMARK   13  A    between atoms: C17_24  and  C18_25 
REMARK   14  A    between atoms: C24_31  and  C25_33 
REMARK       I    between atoms: C25_33  and  N3_35 
REMARK   15  A    between atoms: N3_35  and  C26_37 
REMARK   16  A    between atoms: C26_37  and  C27_38 
ROOT
HETATM    1  C1  UNL     1      -3.167  -6.218   4.909  1.00  0.00     0.027 C 
HETATM    2  C2  UNL     1      -2.895  -5.066   4.624  1.00  0.00    -0.026 C 
HETATM    3  C3  UNL     1      -2.569  -3.725   4.287  1.00  0.00    -0.016 C 
HETATM    4  C4  UNL     1      -2.275  -2.587   4.009  1.00  0.00    -0.093 C 
ENDROOT
BRANCH   4   5
HETATM    5  C5  UNL     1      -1.919  -1.206   3.697  1.00  0.00     0.095 C 
BRANCH   5   6
HETATM    6  C6  UNL     1      -2.571  -0.836   2.377  1.00  0.00     0.012 C 
BRANCH   6   7
HETATM    7  C7  UNL     1      -2.029  -1.796   1.336  1.00  0.00     0.003 C 
BRANCH   7   8
HETATM    8  C8  UNL     1      -2.575  -1.562  -0.017  1.00  0.00     0.035 C 
BRANCH   8   9
HETATM    9  C9  UNL     1      -2.321  -0.245  -0.665  1.00  0.00     0.179 C 
BRANCH   9  10
HETATM   10  N1  UNL     1      -3.040  -0.320  -1.965  1.00  0.00    -0.324 N 
HETATM   11  C10 UNL     1      -4.050   0.616  -2.234  1.00  0.00     0.362 C 
HETATM   12  O1  UNL     1      -4.356   1.521  -1.384  1.00  0.00    -0.238 OA
ATOM     13  H1  UNL     1      -2.803  -1.039  -2.649  1.00  0.00     0.165 HD
BRANCH  11  14
HETATM   14  O2  UNL     1      -4.774   0.633  -3.405  1.00  0.00    -0.294 OA
BRANCH  14  15
HETATM   15  C11 UNL     1      -5.790   1.534  -3.733  1.00  0.00     0.061 C 
HETATM   16  C12 UNL     1      -5.294   2.972  -3.748  1.00  0.00     0.046 C 
HETATM   17  C13 UNL     1      -6.249   1.196  -5.147  1.00  0.00     0.046 C 
HETATM   18  C14 UNL     1      -6.962   1.477  -2.800  1.00  0.00     0.046 C 
ENDBRANCH  14  15
ENDBRANCH  11  14
ENDBRANCH   9  10
BRANCH   9  19
HETATM   19  C15 UNL     1      -0.905   0.052  -0.940  1.00  0.00     0.241 C 
HETATM   20  O3  UNL     1      -0.557   0.131  -2.173  1.00  0.00    -0.271 OA
HETATM   21  N2  UNL     1       0.127   0.266  -0.017  1.00  0.00    -0.347 N 
ATOM     22  H2  UNL     1      -0.089   0.211   0.978  1.00  0.00     0.163 HD
BRANCH  21  23
HETATM   23  C16 UNL     1       1.498   0.565  -0.420  1.00  0.00     0.165 C 
BRANCH  23  24
HETATM   24  C17 UNL     1       2.194   1.592   0.369  1.00  0.00     0.038 C 
BRANCH  24  25
HETATM   25  C18 UNL     1       1.628   2.986   0.407  1.00  0.00    -0.012 C 
HETATM   26  C19 UNL     1       2.625   3.786   1.277  1.00  0.00     0.005 C 
HETATM   27  C20 UNL     1       2.170   5.191   1.474  1.00  0.00     0.000 C 
HETATM   28  C21 UNL     1       0.923   5.130   2.340  1.00  0.00     0.000 C 
HETATM   29  C22 UNL     1      -0.120   4.374   1.598  1.00  0.00     0.000 C 
HETATM   30  C23 UNL     1       0.317   3.005   1.106  1.00  0.00     0.005 C 
ENDBRANCH  24  25
ENDBRANCH  23  24
BRANCH  23  31
HETATM   31  C24 UNL     1       2.250  -0.743  -0.336  1.00  0.00     0.238 C 
HETATM   32  O4  UNL     1       1.619  -1.727   0.141  1.00  0.00    -0.285 OA
BRANCH  31  33
HETATM   33  C25 UNL     1       3.617  -0.917  -0.766  1.00  0.00     0.289 C 
HETATM   34  O5  UNL     1       4.307  -0.009  -1.268  1.00  0.00    -0.264 OA
HETATM   35  N3  UNL     1       4.237  -2.178  -0.623  1.00  0.00    -0.351 N 
ATOM     36  H3  UNL     1       3.697  -2.941  -0.214  1.00  0.00     0.163 HD
BRANCH  35  37
HETATM   37  C26 UNL     1       5.608  -2.442  -1.030  1.00  0.00     0.150 C 
BRANCH  37  38
HETATM   38  C27 UNL     1       5.986  -3.853  -0.767  1.00  0.00    -0.005 C 
HETATM   39  C28 UNL     1       6.982  -4.214   0.029  1.00  0.00    -0.090 C 
HETATM   40  C29 UNL     1       7.316  -5.633   0.256  1.00  0.00     0.042 C 
HETATM   41  C30 UNL     1       7.751  -3.110   0.689  1.00  0.00     0.042 C 
ENDBRANCH  37  38
ENDBRANCH  35  37
ENDBRANCH  31  33
ENDBRANCH  23  31
ENDBRANCH  21  23
ENDBRANCH   9  19
ENDBRANCH   8   9
ENDBRANCH   7   8
ENDBRANCH   6   7
ENDBRANCH   5   6
ENDBRANCH   4   5
TORSDOF 16
