REMARK  11 active torsions:
REMARK  status: ('A' for Active; 'I' for Inactive)
REMARK    1  A    between atoms: C2_2  and  C4_4 
REMARK    2  A    between atoms: C4_4  and  N1_5 
REMARK       I    between atoms: N1_5  and  C5_7 
REMARK    3  A    between atoms: C5_7  and  C6_9 
REMARK    4  A    between atoms: C6_9  and  C7_10 
REMARK    5  A    between atoms: C6_9  and  N2_14 
REMARK    6  A    between atoms: C7_10  and  C8_11 
REMARK       I    between atoms: N2_14  and  C11_16 
REMARK    7  A    between atoms: C11_16  and  C12_18 
REMARK    8  A    between atoms: C12_18  and  N3_19 
REMARK       I    between atoms: N3_19  and  C13_21 
REMARK    9  A    between atoms: C13_21  and  C14_23 
REMARK   10  A    between atoms: C14_23  and  C15_24 
REMARK   11  A    between atoms: C14_23  and  N4_27 
ROOT
HETATM    1  C12 UNL     1      -0.546   0.604   0.456  1.00  0.00     0.114 A 
HETATM    2  C23 UNL     1      -0.513   0.465   1.969  1.00  0.00     0.041 A 
HETATM    3  C24 UNL     1      -0.915   1.770   2.567  1.00  0.00     0.003 A 
HETATM    4  C25 UNL     1      -1.283   2.699   1.459  1.00  0.00     0.003 A 
HETATM    5  C26 UNL     1      -1.015   1.977   0.153  1.00  0.00     0.041 A 
ENDROOT
BRANCH   1   6
HETATM    6  C11 UNL     1       0.774   0.336  -0.141  1.00  0.00     0.246 C 
HETATM    7  N2  UNL     1       1.939   1.114   0.083  1.00  0.00    -0.346 N 
ATOM      8  H2  UNL     1       1.875   1.937   0.682  1.00  0.00     0.163 HD
HETATM    9  O2  UNL     1       0.925  -0.668  -0.923  1.00  0.00    -0.271 OA
BRANCH   7  10
HETATM   10  C6  UNL     1       3.212   0.778  -0.509  1.00  0.00     0.177 C 
BRANCH  10  11
HETATM   11  C5  UNL     1       4.058   0.188   0.583  1.00  0.00     0.240 C 
HETATM   12  N1  UNL     1       5.382  -0.290   0.361  1.00  0.00    -0.359 N 
ATOM     13  H1  UNL     1       5.783  -0.234  -0.575  1.00  0.00     0.162 HD
HETATM   14  O1  UNL     1       3.584   0.113   1.731  1.00  0.00    -0.271 OA
BRANCH  12  15
HETATM   15  C4  UNL     1       6.168  -0.853   1.435  1.00  0.00     0.126 C 
BRANCH  15  16
HETATM   16  C2  UNL     1       7.509  -1.276   0.904  1.00  0.00    -0.005 C 
HETATM   17  C1  UNL     1       8.267  -0.121   0.322  1.00  0.00     0.011 C 
HETATM   18  C3  UNL     1       8.266  -1.986   2.010  1.00  0.00     0.011 C 
ENDBRANCH  15  16
ENDBRANCH  12  15
ENDBRANCH  10  11
BRANCH  10  19
HETATM   19  C7  UNL     1       3.954   1.848  -1.200  1.00  0.00     0.038 C 
BRANCH  19  20
HETATM   20  C8  UNL     1       3.296   2.553  -2.327  1.00  0.00    -0.020 C 
HETATM   21  C9  UNL     1       2.897   1.639  -3.463  1.00  0.00     0.009 C 
HETATM   22  C10 UNL     1       2.208   3.510  -1.957  1.00  0.00     0.009 C 
ENDBRANCH  19  20
ENDBRANCH  10  19
ENDBRANCH   7  10
ENDBRANCH   1   6
BRANCH   1  23
HETATM   23  N3  UNL     1      -1.486  -0.397  -0.059  1.00  0.00    -0.341 N 
HETATM   24  C13 UNL     1      -2.842  -0.481   0.291  1.00  0.00     0.241 C 
HETATM   25  O3  UNL     1      -3.332   0.330   1.102  1.00  0.00    -0.271 OA
ATOM     26  H3  UNL     1      -1.127  -1.084  -0.722  1.00  0.00     0.163 HD
BRANCH  24  27
HETATM   27  C14 UNL     1      -3.747  -1.527  -0.280  1.00  0.00     0.178 C 
BRANCH  27  28
HETATM   28  C15 UNL     1      -3.658  -1.368  -1.759  1.00  0.00     0.009 C 
HETATM   29  C16 UNL     1      -4.461  -2.300  -2.591  1.00  0.00     0.012 C 
HETATM   30  C17 UNL     1      -3.822   0.054  -2.250  1.00  0.00     0.012 C 
ENDBRANCH  27  28
BRANCH  27  31
HETATM   31  N4  UNL     1      -4.985  -1.643   0.341  1.00  0.00    -0.380 N 
HETATM   32  C18 UNL     1      -4.994  -2.082   1.695  1.00  0.00     0.123 C 
HETATM   33  C19 UNL     1      -6.380  -2.411   2.211  1.00  0.00     0.020 C 
HETATM   34  C20 UNL     1      -7.219  -1.160   1.929  1.00  0.00     0.007 C 
HETATM   35  C21 UNL     1      -7.426  -1.144   0.437  1.00  0.00     0.044 C 
HETATM   36  C22 UNL     1      -6.189  -1.460  -0.309  1.00  0.00     0.059 C 
ENDBRANCH  27  31
ENDBRANCH  24  27
ENDBRANCH   1  23
TORSDOF 11
