REMARK  10 active torsions:
REMARK  status: ('A' for Active; 'I' for Inactive)
REMARK    1  A    between atoms: C2_2  and  C3_3 
REMARK       I    between atoms: C3_3  and  N1_5 
REMARK    2  A    between atoms: N1_5  and  C4_7 
REMARK    3  A    between atoms: C4_7  and  C5_8 
REMARK    4  A    between atoms: C5_8  and  C6_9 
REMARK    5  A    between atoms: C16_19  and  O2_20 
REMARK    6  A    between atoms: C16_19  and  N2_22 
REMARK    7  A    between atoms: N2_22  and  C17_24 
REMARK    8  A    between atoms: C17_24  and  C18_25 
REMARK    9  A    between atoms: C17_24  and  C20_29 
REMARK   10  A    between atoms: C18_25  and  C19_26 
REMARK       I    between atoms: C20_29  and  N3_31 
ROOT
HETATM    1  C4  UNL     1      -1.044  -1.497   1.774  1.00  0.00     0.082 C 
HETATM    2  C16 UNL     1       0.251  -1.136   1.299  1.00  0.00     0.163 C 
ENDROOT
BRANCH   1   3
HETATM    3  N1  UNL     1      -0.914  -2.920   2.256  1.00  0.00    -0.324 N 
HETATM    4  C3  UNL     1      -0.937  -3.920   1.253  1.00  0.00     0.221 C 
HETATM    5  O1  UNL     1      -1.047  -3.706   0.018  1.00  0.00    -0.273 OA
ATOM      6  H1  UNL     1      -0.815  -3.149   3.245  1.00  0.00     0.169 HD
BRANCH   4   7
HETATM    7  C2  UNL     1      -0.830  -5.354   1.661  1.00  0.00     0.098 C 
HETATM    8  C1  UNL     1      -1.075  -6.216   0.450  1.00  0.00     0.014 C 
ENDBRANCH   4   7
ENDBRANCH   1   3
BRANCH   1   9
HETATM    9  C5  UNL     1      -2.373  -1.333   1.254  1.00  0.00     0.012 C 
BRANCH   9  10
HETATM   10  C6  UNL     1      -2.995  -0.148   0.693  1.00  0.00     0.015 C 
HETATM   11  C7  UNL     1      -4.503  -0.521   0.400  1.00  0.00     0.009 C 
HETATM   12  C8  UNL     1      -5.353   0.693   0.670  1.00  0.00     0.001 C 
HETATM   13  C9  UNL     1      -4.540   1.920   0.237  1.00  0.00     0.005 C 
HETATM   14  C10 UNL     1      -3.737   1.476  -0.936  1.00  0.00    -0.010 C 
HETATM   15  C11 UNL     1      -3.114   2.560  -1.750  1.00  0.00     0.005 C 
HETATM   16  C15 UNL     1      -2.570   0.542  -0.517  1.00  0.00    -0.003 C 
HETATM   17  C12 UNL     1      -2.523   1.938  -2.994  1.00  0.00     0.000 C 
HETATM   18  C13 UNL     1      -1.734   0.704  -2.785  1.00  0.00     0.000 C 
HETATM   19  C14 UNL     1      -2.329  -0.261  -1.761  1.00  0.00     0.005 C 
ENDBRANCH   9  10
ENDBRANCH   1   9
BRANCH   2  20
HETATM   20  O2  UNL     1       1.253  -1.715   2.011  1.00  0.00    -0.345 OA
ATOM     21  H2  UNL     1       2.116  -1.474   1.695  1.00  0.00     0.219 HD
ENDBRANCH   2  20
BRANCH   2  22
HETATM   22  N2  UNL     1       0.821  -0.347   0.310  1.00  0.00    -0.355 N 
ATOM     23  H2  UNL     1       0.201   0.144  -0.335  1.00  0.00     0.162 HD
BRANCH  22  24
HETATM   24  C17 UNL     1       2.306  -0.179   0.140  1.00  0.00     0.186 C 
BRANCH  24  25
HETATM   25  C18 UNL     1       2.643  -0.326  -1.281  1.00  0.00     0.147 C 
BRANCH  25  26
HETATM   26  C19 UNL     1       2.263  -1.646  -1.882  1.00  0.00     0.175 C 
HETATM   27  O3  UNL     1       1.789  -2.535  -1.176  1.00  0.00    -0.648 OA
HETATM   28  O4  UNL     1       2.460  -1.831  -3.244  1.00  0.00    -0.648 OA
ENDBRANCH  25  26
ENDBRANCH  24  25
BRANCH  24  29
HETATM   29  C20 UNL     1       2.672   1.093   0.778  1.00  0.00     0.243 C 
HETATM   30  O5  UNL     1       1.852   1.459   1.717  1.00  0.00    -0.271 OA
HETATM   31  N3  UNL     1       3.725   1.949   0.545  1.00  0.00    -0.350 N 
HETATM   32  C21 UNL     1       3.835   3.155   1.423  1.00  0.00     0.126 C 
HETATM   33  C25 UNL     1       4.759   1.887  -0.464  1.00  0.00     0.126 C 
HETATM   34  C22 UNL     1       5.226   3.178   2.024  1.00  0.00     0.020 C 
HETATM   35  C23 UNL     1       6.217   3.419   0.917  1.00  0.00     0.003 C 
HETATM   36  C24 UNL     1       5.631   3.134  -0.424  1.00  0.00     0.020 C 
ENDBRANCH  24  29
ENDBRANCH  22  24
ENDBRANCH   2  22
TORSDOF 10
