REMARK  14 active torsions:
REMARK  status: ('A' for Active; 'I' for Inactive)
REMARK    1  A    between atoms: C2_2  and  C3_3 
REMARK    2  A    between atoms: C3_3  and  C4_4 
REMARK    3  A    between atoms: C4_4  and  C5_5 
REMARK    4  A    between atoms: C5_5  and  N1_6 
REMARK    5  A    between atoms: C5_5  and  C12_23 
REMARK       I    between atoms: N1_6  and  C6_8 
REMARK    6  A    between atoms: C6_8  and  C7_10 
REMARK    7  A    between atoms: C7_10  and  N2_11 
REMARK    8  A    between atoms: C7_10  and  C8_15 
REMARK    9  A    between atoms: C8_15  and  C10_17 
REMARK   10  A    between atoms: C10_17  and  C11_18 
REMARK   11  A    between atoms: C11_18  and  N3_19 
REMARK   12  A    between atoms: C12_23  and  O2_24 
REMARK   13  A    between atoms: C12_23  and  N4_26 
REMARK   14  A    between atoms: C16_30  and  C17_31 
REMARK       I    between atoms: C17_31  and  N5_33 
ROOT
HETATM    1  C5  UNL     1       1.330  -1.085  -0.338  1.00  0.00     0.159 C 
ENDROOT
BRANCH   1   2
HETATM    2  C4  UNL     1       1.701  -2.182   0.577  1.00  0.00     0.033 C 
BRANCH   2   3
HETATM    3  C3  UNL     1       3.241  -2.340   0.447  1.00  0.00     0.002 C 
BRANCH   3   4
HETATM    4  C2  UNL     1       3.596  -3.479   1.402  1.00  0.00    -0.004 C 
HETATM    5  C1  UNL     1       5.061  -3.775   1.407  1.00  0.00     0.005 C 
ENDBRANCH   3   4
ENDBRANCH   2   3
ENDBRANCH   1   2
BRANCH   1   6
HETATM    6  N1  UNL     1       2.033   0.170  -0.014  1.00  0.00    -0.347 N 
HETATM    7  C6  UNL     1       2.918   0.774  -0.944  1.00  0.00     0.249 C 
HETATM    8  O1  UNL     1       3.094   0.217  -2.057  1.00  0.00    -0.271 OA
ATOM      9  H1  UNL     1       1.881   0.611   0.893  1.00  0.00     0.163 HD
BRANCH   7  10
HETATM   10  C7  UNL     1       3.647   2.025  -0.676  1.00  0.00     0.278 C 
BRANCH  10  11
HETATM   11  N2  UNL     1       3.403   2.542   0.649  1.00  0.00    -0.066 N 
ATOM     12  H23 UNL     1       2.404   2.658   0.817  1.00  0.00     0.275 HD
ATOM     13  H22 UNL     1       3.610   1.839   1.359  1.00  0.00     0.275 HD
ATOM     14  H21 UNL     1       3.908   3.409   0.835  1.00  0.00     0.275 HD
ENDBRANCH  10  11
BRANCH  10  15
HETATM   15  C8  UNL     1       5.130   1.924  -0.944  1.00  0.00     0.023 C 
HETATM   16  C9  UNL     1       5.760   3.262  -0.631  1.00  0.00     0.012 C 
BRANCH  15  17
HETATM   17  C10 UNL     1       5.768   0.804  -0.153  1.00  0.00     0.034 C 
BRANCH  17  18
HETATM   18  C11 UNL     1       7.250   0.705  -0.423  1.00  0.00     0.230 C 
BRANCH  18  19
HETATM   19  N3  UNL     1       7.508   0.448  -1.840  1.00  0.00    -0.079 N 
ATOM     20  H33 UNL     1       7.009  -0.379  -2.170  1.00  0.00     0.274 HD
ATOM     21  H32 UNL     1       7.063   1.145  -2.436  1.00  0.00     0.274 HD
ATOM     22  H31 UNL     1       8.509   0.381  -2.022  1.00  0.00     0.274 HD
ENDBRANCH  18  19
ENDBRANCH  17  18
ENDBRANCH  15  17
ENDBRANCH  10  15
ENDBRANCH   7  10
ENDBRANCH   1   6
BRANCH   1  23
HETATM   23  C12 UNL     1      -0.074  -0.766  -0.532  1.00  0.00     0.137 C 
BRANCH  23  24
HETATM   24  O2  UNL     1      -0.243   0.362  -1.177  1.00  0.00    -0.348 OA
ATOM     25  H2  UNL     1      -1.161   0.571  -1.304  1.00  0.00     0.219 HD
ENDBRANCH  23  24
BRANCH  23  26
HETATM   26  N4  UNL     1      -1.255  -1.406  -0.175  1.00  0.00    -0.350 N 
HETATM   27  C13 UNL     1      -1.568  -2.604   0.552  1.00  0.00     0.126 C 
HETATM   28  C14 UNL     1      -2.533  -3.279  -0.416  1.00  0.00     0.022 C 
HETATM   29  C15 UNL     1      -3.479  -2.118  -0.681  1.00  0.00     0.037 C 
HETATM   30  C16 UNL     1      -2.622  -0.900  -0.542  1.00  0.00     0.178 C 
BRANCH  30  31
HETATM   31  C17 UNL     1      -3.136  -0.046   0.538  1.00  0.00     0.243 C 
HETATM   32  O3  UNL     1      -2.549   0.067   1.667  1.00  0.00    -0.271 OA
HETATM   33  N5  UNL     1      -4.319   0.695   0.359  1.00  0.00    -0.345 N 
HETATM   34  C18 UNL     1      -4.854   1.526   1.441  1.00  0.00     0.131 C 
HETATM   35  C23 UNL     1      -5.030   0.677  -0.879  1.00  0.00     0.087 C 
HETATM   36  C19 UNL     1      -6.340   1.513   1.300  1.00  0.00     0.004 C 
HETATM   37  C20 UNL     1      -6.856   2.566   0.357  1.00  0.00     0.006 C 
HETATM   38  C25 UNL     1      -6.778   0.165   0.756  1.00  0.00     0.008 C 
HETATM   39  C21 UNL     1      -5.803   3.070  -0.585  1.00  0.00     0.002 C 
HETATM   40  C22 UNL     1      -5.222   2.047  -1.492  1.00  0.00     0.025 C 
HETATM   41  C24 UNL     1      -6.416   0.037  -0.714  1.00  0.00     0.026 C 
ENDBRANCH  30  31
ENDBRANCH  23  26
ENDBRANCH   1  23
TORSDOF 14
