REMARK  11 active torsions:
REMARK  status: ('A' for Active; 'I' for Inactive)
REMARK    1  A    between atoms: C2_2  and  C4_4 
REMARK    2  A    between atoms: C4_4  and  C5_5 
REMARK    3  A    between atoms: C5_5  and  N1_6 
REMARK    4  A    between atoms: C5_5  and  C12_15 
REMARK       I    between atoms: N1_6  and  C6_8 
REMARK    5  A    between atoms: C6_8  and  C7_10 
REMARK    6  A    between atoms: C7_10  and  C8_11 
REMARK       I    between atoms: C12_15  and  N2_17 
REMARK    7  A    between atoms: N2_17  and  C13_19 
REMARK    8  A    between atoms: C13_19  and  C15_21 
REMARK       I    between atoms: C15_21  and  N3_23 
REMARK    9  A    between atoms: N3_23  and  C16_25 
REMARK   10  A    between atoms: C16_25  and  C17_26 
REMARK   11  A    between atoms: C16_25  and  C22_33 
REMARK       I    between atoms: C17_26  and  N4_28 
ROOT
HETATM    1  C12 UNL     1       1.485  -0.110  -0.029  1.00  0.00     0.241 C 
HETATM    2  O2  UNL     1       1.513   1.014  -0.602  1.00  0.00    -0.271 OA
HETATM    3  N2  UNL     1       0.290  -0.429   0.695  1.00  0.00    -0.346 N 
ATOM      4  H2  UNL     1       0.209  -1.324   1.177  1.00  0.00     0.163 HD
ENDROOT
BRANCH   3   5
HETATM    5  C13 UNL     1      -0.788   0.509   0.740  1.00  0.00     0.172 C 
HETATM    6  C14 UNL     1      -1.056   0.947   2.186  1.00  0.00     0.042 C 
BRANCH   5   7
HETATM    7  C15 UNL     1      -2.043  -0.093   0.228  1.00  0.00     0.240 C 
HETATM    8  O3  UNL     1      -2.062  -1.274  -0.158  1.00  0.00    -0.271 OA
HETATM    9  N3  UNL     1      -3.210   0.684   0.182  1.00  0.00    -0.346 N 
ATOM     10  H3  UNL     1      -3.195   1.653   0.499  1.00  0.00     0.163 HD
BRANCH   9  11
HETATM   11  C16 UNL     1      -4.445   0.096  -0.322  1.00  0.00     0.180 C 
BRANCH  11  12
HETATM   12  C17 UNL     1      -5.487   0.134   0.714  1.00  0.00     0.243 C 
HETATM   13  O4  UNL     1      -5.171   0.708   1.817  1.00  0.00    -0.271 OA
HETATM   14  N4  UNL     1      -6.786  -0.392   0.616  1.00  0.00    -0.350 N 
HETATM   15  C18 UNL     1      -7.816  -0.306   1.675  1.00  0.00     0.126 C 
HETATM   16  C21 UNL     1      -7.475  -1.125  -0.426  1.00  0.00     0.126 C 
HETATM   17  C19 UNL     1      -8.942   0.325   0.849  1.00  0.00     0.021 C 
HETATM   18  C20 UNL     1      -8.761  -0.330  -0.526  1.00  0.00     0.021 C 
ENDBRANCH  11  12
BRANCH  11  19
HETATM   19  C22 UNL     1      -4.809   0.911  -1.549  1.00  0.00     0.009 C 
HETATM   20  C23 UNL     1      -5.012   2.369  -1.176  1.00  0.00     0.012 C 
HETATM   21  C24 UNL     1      -3.616   0.862  -2.483  1.00  0.00     0.012 C 
ENDBRANCH  11  19
ENDBRANCH   9  11
ENDBRANCH   5   7
ENDBRANCH   3   5
BRANCH   1  22
HETATM   22  C5  UNL     1       2.603  -1.065  -0.080  1.00  0.00     0.177 C 
BRANCH  22  23
HETATM   23  C4  UNL     1       2.956  -1.479   1.330  1.00  0.00     0.038 C 
BRANCH  23  24
HETATM   24  C2  UNL     1       3.988  -2.580   1.286  1.00  0.00    -0.020 C 
HETATM   25  C1  UNL     1       4.361  -3.003   2.706  1.00  0.00     0.009 C 
HETATM   26  C3  UNL     1       3.446  -3.802   0.552  1.00  0.00     0.009 C 
ENDBRANCH  23  24
ENDBRANCH  22  23
BRANCH  22  27
HETATM   27  N1  UNL     1       3.660  -0.537  -0.861  1.00  0.00    -0.348 N 
HETATM   28  C6  UNL     1       4.802   0.180  -0.485  1.00  0.00     0.218 C 
HETATM   29  O1  UNL     1       4.982   0.448   0.735  1.00  0.00    -0.274 OA
ATOM     30  H1  UNL     1       3.575  -0.707  -1.863  1.00  0.00     0.163 HD
BRANCH  28  31
HETATM   31  C7  UNL     1       5.789   0.620  -1.516  1.00  0.00     0.111 C 
BRANCH  31  32
HETATM   32  C8  UNL     1       6.922   1.403  -0.914  1.00  0.00    -0.043 C 
HETATM   33  C9  UNL     1       7.842   1.786  -2.057  1.00  0.00     0.015 C 
HETATM   34  C10 UNL     1       6.421   2.702  -0.282  1.00  0.00     0.015 C 
HETATM   35  C11 UNL     1       7.717   0.680   0.114  1.00  0.00     0.015 C 
ENDBRANCH  31  32
ENDBRANCH  28  31
ENDBRANCH  22  27
ENDBRANCH   1  22
TORSDOF 11
