REMARK  13 active torsions:
REMARK  status: ('A' for Active; 'I' for Inactive)
REMARK    1  A    between atoms: C2_2  and  C4_4 
REMARK    2  A    between atoms: C4_4  and  N1_5 
REMARK    3  A    between atoms: C4_4  and  C13_18 
REMARK       I    between atoms: N1_5  and  C5_7 
REMARK    4  A    between atoms: C5_7  and  C6_9 
REMARK       I    between atoms: C6_9  and  N2_11 
REMARK    5  A    between atoms: C13_18  and  O3_19 
REMARK    6  A    between atoms: C13_18  and  N3_21 
REMARK    7  A    between atoms: N3_21  and  C14_23 
REMARK    8  A    between atoms: C14_23  and  C15_24 
REMARK    9  A    between atoms: C14_23  and  C22_31 
REMARK   10  A    between atoms: C15_24  and  C16_25 
REMARK   11  A    between atoms: C22_31  and  C23_32 
REMARK   12  A    between atoms: C22_31  and  C24_37 
REMARK   13  A    between atoms: C23_32  and  N4_33 
ROOT
HETATM    1  C13 UNL     1      -0.278   0.754   0.153  1.00  0.00     0.135 C 
ENDROOT
BRANCH   1   2
HETATM    2  C4  UNL     1       0.413   1.935  -0.325  1.00  0.00     0.162 C 
BRANCH   2   3
HETATM    3  C2  UNL     1       0.150   2.401  -1.710  1.00  0.00     0.008 C 
HETATM    4  C1  UNL     1      -1.300   2.605  -2.077  1.00  0.00     0.012 C 
HETATM    5  C3  UNL     1       0.974   3.650  -2.001  1.00  0.00     0.012 C 
ENDBRANCH   2   3
BRANCH   2   6
HETATM    6  N1  UNL     1       1.853   1.821  -0.069  1.00  0.00    -0.341 N 
HETATM    7  C5  UNL     1       2.775   1.125  -0.869  1.00  0.00     0.310 C 
HETATM    8  O1  UNL     1       2.393   0.530  -1.896  1.00  0.00    -0.262 OA
ATOM      9  H1  UNL     1       2.217   2.288   0.762  1.00  0.00     0.163 HD
BRANCH   7  10
HETATM   10  C6  UNL     1       4.193   1.061  -0.546  1.00  0.00     0.311 C 
HETATM   11  O2  UNL     1       4.538   1.725   0.473  1.00  0.00    -0.262 OA
HETATM   12  N2  UNL     1       5.171   0.343  -1.258  1.00  0.00    -0.340 N 
HETATM   13  C7  UNL     1       4.829  -0.495  -2.415  1.00  0.00     0.127 C 
HETATM   14  C11 UNL     1       6.588   0.350  -0.957  1.00  0.00     0.083 C 
HETATM   15  C8  UNL     1       5.946  -1.483  -2.705  1.00  0.00     0.020 C 
HETATM   16  C9  UNL     1       6.572  -2.036  -1.473  1.00  0.00     0.004 C 
HETATM   17  C10 UNL     1       6.889  -1.049  -0.403  1.00  0.00     0.025 C 
HETATM   18  C12 UNL     1       7.061   1.436  -0.063  1.00  0.00     0.032 C 
ENDBRANCH   7  10
ENDBRANCH   2   6
ENDBRANCH   1   2
BRANCH   1  19
HETATM   19  O3  UNL     1       0.486  -0.151   0.689  1.00  0.00    -0.348 OA
ATOM     20  H3  UNL     1       0.033  -0.925   1.002  1.00  0.00     0.219 HD
ENDBRANCH   1  19
BRANCH   1  21
HETATM   21  N3  UNL     1      -1.632   0.412   0.141  1.00  0.00    -0.368 N 
ATOM     22  H3  UNL     1      -2.311   1.062  -0.255  1.00  0.00     0.161 HD
BRANCH  21  23
HETATM   23  C14 UNL     1      -2.099  -0.886   0.697  1.00  0.00     0.089 C 
BRANCH  23  24
HETATM   24  C15 UNL     1      -3.457  -0.730   1.220  1.00  0.00     0.030 C 
BRANCH  24  25
HETATM   25  C16 UNL     1      -3.732   0.221   2.330  1.00  0.00    -0.013 C 
HETATM   26  C17 UNL     1      -3.437   1.653   2.112  1.00  0.00     0.005 C 
HETATM   27  C18 UNL     1      -3.950   2.431   3.343  1.00  0.00     0.000 C 
HETATM   28  C19 UNL     1      -5.445   2.309   3.456  1.00  0.00     0.000 C 
HETATM   29  C20 UNL     1      -5.719   0.833   3.773  1.00  0.00     0.000 C 
HETATM   30  C21 UNL     1      -5.244   0.066   2.590  1.00  0.00     0.005 C 
ENDBRANCH  24  25
ENDBRANCH  23  24
BRANCH  23  31
HETATM   31  C22 UNL     1      -1.996  -1.900  -0.435  1.00  0.00     0.037 C 
BRANCH  31  32
HETATM   32  C23 UNL     1      -2.869  -1.519  -1.584  1.00  0.00     0.236 C 
BRANCH  32  33
HETATM   33  N4  UNL     1      -2.802  -2.462  -2.683  1.00  0.00    -0.079 N 
ATOM     34  H43 UNL     1      -1.838  -2.598  -2.988  1.00  0.00     0.274 HD
ATOM     35  H42 UNL     1      -3.012  -3.408  -2.364  1.00  0.00     0.274 HD
ATOM     36  H41 UNL     1      -3.399  -2.202  -3.468  1.00  0.00     0.274 HD
ENDBRANCH  32  33
ENDBRANCH  31  32
BRANCH  31  37
HETATM   37  C24 UNL     1      -1.955  -3.318  -0.057  1.00  0.00    -0.015 C 
HETATM   38  C25 UNL     1      -0.752  -3.622   0.857  1.00  0.00     0.010 C 
HETATM   39  C26 UNL     1      -3.142  -3.964   0.529  1.00  0.00     0.010 C 
ENDBRANCH  31  37
ENDBRANCH  23  31
ENDBRANCH  21  23
ENDBRANCH   1  21
TORSDOF 13
