REMARK  10 active torsions:
REMARK  status: ('A' for Active; 'I' for Inactive)
REMARK    1  A    between atoms: C2_2  and  N1_3 
REMARK    2  A    between atoms: N2_6  and  C5_7 
REMARK    3  A    between atoms: C5_7  and  C6_8 
REMARK    4  A    between atoms: C5_7  and  C21_32 
REMARK    5  A    between atoms: C6_8  and  C7_10 
REMARK    6  A    between atoms: C7_10  and  C8_11 
REMARK    7  A    between atoms: C8_11  and  N3_12 
REMARK       I    between atoms: N3_12  and  C9_14 
REMARK       I    between atoms: C9_14  and  N4_16 
REMARK    8  A    between atoms: N4_16  and  C10_18 
REMARK    9  A    between atoms: C10_18  and  C13_21 
REMARK       I    between atoms: C13_21  and  N5_23 
REMARK   10  A    between atoms: N5_23  and  C14_25 
ROOT
HETATM    1  N3  UNL     1      -0.536  -1.498  -1.692  1.00  0.00    -0.343 N 
ATOM      2  H3  UNL     1      -0.710  -0.531  -1.965  1.00  0.00     0.164 HD
HETATM    3  C9  UNL     1       0.733  -1.896  -1.221  1.00  0.00     0.317 C 
HETATM    4  O2  UNL     1       0.925  -3.090  -0.901  1.00  0.00    -0.247 OA
HETATM    5  N4  UNL     1       1.799  -0.977  -1.101  1.00  0.00    -0.326 N 
ATOM      6  H4  UNL     1       1.639  -0.003  -1.357  1.00  0.00     0.165 HD
ENDROOT
BRANCH   1   7
HETATM    7  C8  UNL     1      -1.584  -2.487  -1.780  1.00  0.00     0.132 C 
BRANCH   7   8
HETATM    8  C7  UNL     1      -2.878  -1.957  -2.292  1.00  0.00     0.104 C 
BRANCH   8   9
HETATM    9  C6  UNL     1      -3.463  -0.851  -1.495  1.00  0.00     0.168 C 
HETATM   10  O1  UNL     1      -2.998   0.262  -1.761  1.00  0.00    -0.292 OA
BRANCH   9  11
HETATM   11  C5  UNL     1      -4.520  -1.022  -0.460  1.00  0.00     0.037 C 
BRANCH  11  12
HETATM   12  N2  UNL     1      -5.034   0.172   0.064  1.00  0.00    -0.280 NA
HETATM   13  C4  UNL     1      -4.225   1.094   0.741  1.00  0.00     0.114 C 
HETATM   14  C3  UNL     1      -5.122   2.022   1.559  1.00  0.00     0.131 C 
HETATM   15  N1  UNL     1      -6.498   1.898   1.258  1.00  0.00    -0.410 N 
HETATM   16  C25 UNL     1      -6.844   1.714  -0.098  1.00  0.00     0.131 C 
HETATM   17  C24 UNL     1      -5.867   0.871  -0.891  1.00  0.00     0.114 C 
BRANCH  15  18
HETATM   18  C2  UNL     1      -7.339   1.338   2.252  1.00  0.00     0.112 C 
HETATM   19  C1  UNL     1      -8.771   1.258   1.839  1.00  0.00     0.026 C 
ENDBRANCH  15  18
ENDBRANCH  11  12
BRANCH  11  20
HETATM   20  C21 UNL     1      -4.243  -2.136   0.511  1.00  0.00     0.026 C 
HETATM   21  C22 UNL     1      -5.513  -2.557   1.241  1.00  0.00     0.016 C 
HETATM   22  C23 UNL     1      -3.189  -1.877   1.520  1.00  0.00     0.016 C 
ENDBRANCH  11  20
ENDBRANCH   9  11
ENDBRANCH   8   9
ENDBRANCH   7   8
ENDBRANCH   1   7
BRANCH   5  23
HETATM   23  C10 UNL     1       3.101  -1.366  -0.631  1.00  0.00     0.108 C 
HETATM   24  C11 UNL     1       3.774  -2.390  -1.502  1.00  0.00     0.049 C 
HETATM   25  C12 UNL     1       2.916  -2.018   0.738  1.00  0.00     0.049 C 
BRANCH  23  26
HETATM   26  C13 UNL     1       3.967  -0.178  -0.521  1.00  0.00     0.245 C 
HETATM   27  O3  UNL     1       3.534   0.945  -0.816  1.00  0.00    -0.271 OA
HETATM   28  N5  UNL     1       5.296  -0.329  -0.077  1.00  0.00    -0.354 N 
ATOM     29  H5  UNL     1       5.656  -1.253   0.163  1.00  0.00     0.162 HD
BRANCH  28  30
HETATM   30  C14 UNL     1       6.143   0.834   0.035  1.00  0.00     0.084 C 
HETATM   31  C15 UNL     1       7.328   0.721  -0.907  1.00  0.00     0.025 C 
HETATM   32  C16 UNL     1       8.015   2.090  -0.912  1.00  0.00     0.006 C 
HETATM   33  C17 UNL     1       8.552   2.355   0.480  1.00  0.00    -0.019 C 
HETATM   34  C18 UNL     1       9.114   3.754   0.551  1.00  0.00     0.010 C 
HETATM   35  C19 UNL     1       7.491   2.226   1.528  1.00  0.00     0.006 C 
HETATM   36  C20 UNL     1       6.680   0.973   1.435  1.00  0.00     0.025 C 
ENDBRANCH  28  30
ENDBRANCH  23  26
ENDBRANCH   5  23
TORSDOF 10
