REMARK  9 active torsions:
REMARK  status: ('A' for Active; 'I' for Inactive)
REMARK    1  A    between atoms: C2_2  and  C4_4 
REMARK    2  A    between atoms: C4_4  and  N1_5 
REMARK       I    between atoms: N1_5  and  C5_7 
REMARK       I    between atoms: C5_7  and  N2_9 
REMARK    3  A    between atoms: C9_17  and  N5_18 
REMARK    4  A    between atoms: N5_18  and  C10_20 
REMARK    5  A    between atoms: C10_20  and  C11_21 
REMARK    6  A    between atoms: C11_21  and  C12_22 
REMARK    7  A    between atoms: C12_22  and  C13_23 
REMARK    8  A    between atoms: C13_23  and  C14_24 
REMARK    9  A    between atoms: C14_24  and  N6_25 
ROOT
HETATM    1  N1  UNL     1       7.006  -0.275  -0.294  1.00  0.00    -0.322 N 
ATOM      2  H1  UNL     1       6.894  -1.289  -0.272  1.00  0.00     0.169 HD
HETATM    3  C5  UNL     1       5.832   0.481  -0.342  1.00  0.00     0.323 C 
HETATM    4  O1  UNL     1       5.825   1.724  -0.387  1.00  0.00    -0.247 OA
HETATM    5  N2  UNL     1       4.516  -0.160  -0.342  1.00  0.00    -0.315 N 
HETATM    6  C6  UNL     1       3.326   0.619  -0.359  1.00  0.00     0.173 A 
HETATM    7  C7  UNL     1       2.215  -0.334  -0.483  1.00  0.00     0.032 A 
HETATM    8  C8  UNL     1       2.719  -1.585  -0.463  1.00  0.00     0.065 A 
HETATM    9  N3  UNL     1       1.679  -2.450  -0.577  1.00  0.00    -0.300 N 
ATOM     10  H3  UNL     1       1.753  -3.467  -0.591  1.00  0.00     0.186 HD
HETATM   11  N4  UNL     1       0.559  -1.764  -0.666  1.00  0.00    -0.285 N 
ATOM     12  H4  UNL     1      -0.370  -2.173  -0.760  1.00  0.00     0.188 HD
HETATM   13  C9  UNL     1       0.815  -0.458  -0.615  1.00  0.00     0.129 A 
HETATM   14  C21 UNL     1       4.214  -1.547  -0.332  1.00  0.00     0.074 A 
HETATM   15  C22 UNL     1       4.780  -2.335  -1.493  1.00  0.00     0.045 C 
HETATM   16  C23 UNL     1       4.523  -2.213   0.994  1.00  0.00     0.045 C 
ENDROOT
BRANCH  13  17
HETATM   17  N5  UNL     1       0.090   0.556  -0.659  1.00  0.00    -0.354 N 
ATOM     18  H5  UNL     1       0.647   1.408  -0.588  1.00  0.00     0.166 HD
BRANCH  17  19
HETATM   19  C10 UNL     1      -1.269   0.853  -0.778  1.00  0.00     0.062 C 
BRANCH  19  20
HETATM   20  C11 UNL     1      -2.196  -0.297  -1.063  1.00  0.00     0.044 C 
BRANCH  20  21
HETATM   21  C12 UNL     1      -3.613   0.209  -1.198  1.00  0.00     0.007 C 
BRANCH  21  22
HETATM   22  C13 UNL     1      -4.076   0.869   0.067  1.00  0.00     0.020 C 
BRANCH  22  23
HETATM   23  C14 UNL     1      -5.505   1.370  -0.054  1.00  0.00     0.117 C 
BRANCH  23  24
HETATM   24  N6  UNL     1      -6.466   0.366  -0.337  1.00  0.00    -0.408 N 
HETATM   25  C15 UNL     1      -6.725  -0.593   0.677  1.00  0.00     0.148 C 
HETATM   26  C16 UNL     1      -8.166  -1.068   0.502  1.00  0.00     0.135 C 
HETATM   27  C17 UNL     1      -8.472  -2.036   1.625  1.00  0.00     0.041 C 
HETATM   28  O2  UNL     1      -9.005   0.013   0.622  1.00  0.00    -0.378 OA
HETATM   29  C18 UNL     1      -8.764   1.022  -0.295  1.00  0.00     0.135 C 
HETATM   30  C19 UNL     1      -8.497   2.324   0.439  1.00  0.00     0.041 C 
HETATM   31  C20 UNL     1      -7.563   0.730  -1.163  1.00  0.00     0.148 C 
ENDBRANCH  23  24
ENDBRANCH  22  23
ENDBRANCH  21  22
ENDBRANCH  20  21
ENDBRANCH  19  20
ENDBRANCH  17  19
ENDBRANCH  13  17
BRANCH   1  32
HETATM   32  C4  UNL     1       8.318   0.208  -0.273  1.00  0.00     0.069 C 
BRANCH  32  33
HETATM   33  C2  UNL     1       8.920   0.961   0.812  1.00  0.00     0.016 C 
HETATM   34  C1  UNL     1       8.328   2.269   1.187  1.00  0.00     0.015 C 
HETATM   35  C3  UNL     1      10.394   1.249   0.383  1.00  0.00     0.015 C 
ENDBRANCH  32  33
ENDBRANCH   1  32
TORSDOF 9
