REMARK  4 active torsions:
REMARK  status: ('A' for Active; 'I' for Inactive)
REMARK    1  A    between atoms: C2_2  and  N1_4 
REMARK       I    between atoms: N2_7  and  C6_8 
REMARK    2  A    between atoms: C6_8  and  O2_10 
REMARK    3  A    between atoms: O2_10  and  C7_11 
REMARK    4  A    between atoms: C15_19  and  N3_20 
ROOT
HETATM    1  N1  UNL     1      -2.166   1.058  -0.057  1.00  0.00     0.123 N 
HETATM    2  C4  UNL     1      -2.220   2.050   1.000  1.00  0.00     0.296 C 
HETATM    3  C5  UNL     1      -0.894   1.953   1.755  1.00  0.00     0.161 C 
HETATM    4  N2  UNL     1      -0.162   0.933   1.028  1.00  0.00    -0.290 N 
HETATM    5  C6  UNL     1       1.235   0.821   0.983  1.00  0.00     0.365 C 
HETATM    6  O1  UNL     1       1.947   1.664   1.622  1.00  0.00    -0.238 OA
HETATM    7  C12 UNL     1      -1.216   0.131   0.415  1.00  0.00     0.238 C 
HETATM    8  C13 UNL     1      -0.704  -0.894  -0.522  1.00  0.00     0.067 C 
HETATM    9  C14 UNL     1      -1.816  -1.812  -0.982  1.00  0.00     0.037 C 
HETATM   10  C15 UNL     1      -2.289  -2.584   0.235  1.00  0.00     0.183 C 
HETATM   11  C16 UNL     1      -2.973  -1.528   1.116  1.00  0.00     0.037 C 
HETATM   12  C17 UNL     1      -1.860  -0.616   1.595  1.00  0.00     0.067 C 
ENDROOT
BRANCH   1  13
HETATM   13  C2  UNL     1      -1.982   1.639  -1.339  1.00  0.00     0.218 C 
HETATM   14  C1  UNL     1      -0.700   2.397  -1.538  1.00  0.00     0.042 C 
HETATM   15  C3  UNL     1      -3.109   2.626  -1.584  1.00  0.00     0.042 C 
ENDBRANCH   1  13
BRANCH   5  16
HETATM   16  O2  UNL     1       1.946  -0.138   0.297  1.00  0.00    -0.298 OA
BRANCH  16  17
HETATM   17  C7  UNL     1       3.346  -0.181   0.303  1.00  0.00     0.133 C 
HETATM   18  C8  UNL     1       3.943  -0.024  -1.094  1.00  0.00     0.032 C 
HETATM   19  C9  UNL     1       5.400  -0.365  -0.803  1.00  0.00     0.002 C 
HETATM   20  C10 UNL     1       5.317  -1.482   0.186  1.00  0.00     0.002 C 
HETATM   21  C11 UNL     1       3.908  -1.502   0.724  1.00  0.00     0.032 C 
ENDBRANCH  16  17
ENDBRANCH   5  16
BRANCH  10  22
HETATM   22  N3  UNL     1      -3.161  -3.665  -0.099  1.00  0.00    -0.075 N 
ATOM     23  H33 UNL     1      -3.952  -3.338  -0.654  1.00  0.00     0.274 HD
ATOM     24  H32 UNL     1      -2.726  -4.288  -0.780  1.00  0.00     0.274 HD
ATOM     25  H31 UNL     1      -3.479  -4.184   0.719  1.00  0.00     0.274 HD
ENDBRANCH  10  22
TORSDOF 4
