REMARK  3 active torsions:
REMARK  status: ('A' for Active; 'I' for Inactive)
REMARK    1  A    between atoms: C2_2  and  O1_3 
REMARK    2  A    between atoms: O1_3  and  C3_4 
REMARK    3  A    between atoms: C3_4  and  C4_6 
ROOT
HETATM    1  C4  UNL     1       0.267  -0.153   0.825  1.00  0.00     0.110 C 
HETATM    2  C5  UNL     1      -0.335   0.971   0.112  1.00  0.00     0.033 C 
HETATM    3  C6  UNL     1      -0.930   1.905   1.196  1.00  0.00     0.020 C 
HETATM    4  C7  UNL     1      -1.545   3.148   0.741  1.00  0.00     0.021 C 
HETATM    5  C8  UNL     1      -1.430   3.412  -0.746  1.00  0.00     0.120 C 
HETATM    6  N1  UNL     1      -0.089   2.996  -1.083  1.00  0.00    -0.381 N 
ATOM      7  H1  UNL     1       0.472   3.624  -1.659  1.00  0.00     0.160 HD
HETATM    8  C9  UNL     1       0.457   1.867  -0.700  1.00  0.00     0.099 C 
HETATM    9  N2  UNL     1       1.811   1.714  -1.142  1.00  0.00    -0.087 NA
HETATM   10  C10 UNL     1      -1.490   0.325  -0.687  1.00  0.00     0.010 C 
HETATM   11  C11 UNL     1      -2.721   0.109   0.111  1.00  0.00     0.007 C 
HETATM   12  C12 UNL     1      -2.731  -1.062   1.031  1.00  0.00     0.001 C 
HETATM   13  C13 UNL     1      -1.513  -1.856   1.144  1.00  0.00     0.011 C 
HETATM   14  C14 UNL     1      -0.367  -1.428   0.214  1.00  0.00    -0.023 C 
HETATM   15  C15 UNL     1       0.602  -2.559   0.228  1.00  0.00     0.017 C 
HETATM   16  C16 UNL     1      -0.951  -1.067  -1.078  1.00  0.00    -0.035 C 
HETATM   17  C17 UNL     1      -2.053  -2.027  -1.438  1.00  0.00     0.016 C 
HETATM   18  C18 UNL     1      -0.086  -0.924  -2.266  1.00  0.00     0.016 C 
ENDROOT
BRANCH   1  19
HETATM   19  C3  UNL     1       1.690  -0.320   1.023  1.00  0.00     0.265 C 
HETATM   20  O2  UNL     1       2.211  -0.028   2.174  1.00  0.00    -0.265 OA
BRANCH  19  21
HETATM   21  O1  UNL     1       2.657  -0.765   0.160  1.00  0.00    -0.322 OA
BRANCH  21  22
HETATM   22  C2  UNL     1       4.013  -0.922   0.400  1.00  0.00     0.174 C 
HETATM   23  C1  UNL     1       4.795   0.267   0.804  1.00  0.00     0.034 C 
ENDBRANCH  21  22
ENDBRANCH  19  21
ENDBRANCH   1  19
TORSDOF 3
