REMARK  3 active torsions:
REMARK  status: ('A' for Active; 'I' for Inactive)
REMARK    1  A    between atoms: C2_2  and  O1_3 
REMARK    2  A    between atoms: O1_3  and  C3_4 
REMARK       I    between atoms: C3_4  and  N1_6 
REMARK    3  A    between atoms: C15_18  and  O3_19 
ROOT
HETATM    1  C3  UNL     1       1.953   0.881   0.461  1.00  0.00     0.366 C 
HETATM    2  O2  UNL     1       1.486   2.014   0.572  1.00  0.00    -0.238 OA
HETATM    3  N1  UNL     1       1.206  -0.292   0.636  1.00  0.00    -0.299 N 
HETATM    4  C4  UNL     1       1.989  -1.505   0.484  1.00  0.00     0.149 C 
HETATM    5  C5  UNL     1       1.201  -2.632  -0.017  1.00  0.00     0.069 C 
HETATM    6  C6  UNL     1      -0.048  -2.810   0.859  1.00  0.00     0.031 C 
HETATM    7  C7  UNL     1      -0.909  -1.606   0.526  1.00  0.00     0.078 C 
HETATM    8  C8  UNL     1      -0.162  -0.388   0.956  1.00  0.00     0.002 C 
HETATM    9  C9  UNL     1      -1.006   0.854   0.919  1.00  0.00     0.054 C 
HETATM   10  C10 UNL     1      -1.289   1.468  -0.389  1.00  0.00     0.010 C 
HETATM   11  C11 UNL     1      -2.707   1.297  -0.881  1.00  0.00    -0.018 C 
HETATM   12  C12 UNL     1      -3.676   2.211  -0.175  1.00  0.00     0.010 C 
HETATM   13  C13 UNL     1      -3.098  -0.144  -0.822  1.00  0.00     0.008 C 
HETATM   14  C14 UNL     1      -2.091  -0.918  -1.627  1.00  0.00     0.050 C 
HETATM   15  C15 UNL     1      -1.249  -1.830  -0.870  1.00  0.00     0.115 C 
HETATM   16  S1  UNL     1       0.417  -2.114  -1.596  1.00  0.00    -0.124 SA
ENDROOT
BRANCH   1  17
HETATM   17  O1  UNL     1       3.334   0.858   0.136  1.00  0.00    -0.304 OA
BRANCH  17  18
HETATM   18  C2  UNL     1       4.065   2.074  -0.035  1.00  0.00     0.176 C 
HETATM   19  C1  UNL     1       5.495   1.727  -0.372  1.00  0.00     0.034 C 
ENDBRANCH  17  18
ENDBRANCH   1  17
BRANCH  15  20
HETATM   20  O3  UNL     1      -1.854  -3.120  -0.924  1.00  0.00    -0.379 OA
ATOM     21  H3  UNL     1      -2.076  -3.266  -1.836  1.00  0.00     0.211 HD
ENDBRANCH  15  20
TORSDOF 3
