REMARK  5 active torsions:
REMARK  status: ('A' for Active; 'I' for Inactive)
REMARK    1  A    between atoms: C2_2  and  O1_3 
REMARK    2  A    between atoms: O1_3  and  C3_4 
REMARK       I    between atoms: C3_4  and  N1_6 
REMARK    3  A    between atoms: N1_6  and  C4_8 
REMARK       I    between atoms: N2_15  and  C11_16 
REMARK    4  A    between atoms: C11_16  and  O4_18 
REMARK    5  A    between atoms: O4_18  and  C12_19 
ROOT
HETATM    1  C4  UNL     1       1.405  -0.874  -0.055  1.00  0.00     0.051 C 
HETATM    2  C5  UNL     1       0.808  -2.104  -0.679  1.00  0.00     0.033 C 
HETATM    3  C6  UNL     1      -0.148  -2.877   0.123  1.00  0.00     0.004 C 
HETATM    4  C7  UNL     1      -0.292  -2.582   1.560  1.00  0.00     0.025 C 
HETATM    5  C8  UNL     1      -0.362  -1.116   1.898  1.00  0.00     0.089 C 
HETATM    6  C9  UNL     1       1.017  -0.672   2.366  1.00  0.00     0.028 C 
HETATM    7  C10 UNL     1       1.992  -1.133   1.288  1.00  0.00     0.035 C 
HETATM    8  N2  UNL     1      -0.742  -0.302   0.786  1.00  0.00    -0.321 N 
HETATM    9  C11 UNL     1      -2.109  -0.044   0.516  1.00  0.00     0.363 C 
HETATM   10  O3  UNL     1      -2.967  -0.549   1.279  1.00  0.00    -0.238 OA
HETATM   11  C16 UNL     1       0.335   0.230  -0.030  1.00  0.00     0.159 C 
ENDROOT
BRANCH   1  12
HETATM   12  N1  UNL     1       2.451  -0.395  -0.937  1.00  0.00    -0.326 N 
HETATM   13  C3  UNL     1       3.272   0.725  -0.695  1.00  0.00     0.361 C 
HETATM   14  O2  UNL     1       3.170   1.432   0.340  1.00  0.00    -0.238 OA
ATOM     15  H1  UNL     1       2.606  -0.911  -1.803  1.00  0.00     0.165 HD
BRANCH  13  16
HETATM   16  O1  UNL     1       4.258   1.103  -1.625  1.00  0.00    -0.304 OA
BRANCH  16  17
HETATM   17  C2  UNL     1       5.064   2.235  -1.348  1.00  0.00     0.176 C 
HETATM   18  C1  UNL     1       5.809   1.981  -0.059  1.00  0.00     0.034 C 
ENDBRANCH  16  17
ENDBRANCH  13  16
ENDBRANCH   1  12
BRANCH   9  19
HETATM   19  O4  UNL     1      -2.557   0.727  -0.532  1.00  0.00    -0.294 OA
BRANCH  19  20
HETATM   20  C12 UNL     1      -3.926   0.978  -0.792  1.00  0.00     0.061 C 
HETATM   21  C13 UNL     1      -4.597   1.677   0.370  1.00  0.00     0.046 C 
HETATM   22  C14 UNL     1      -4.689  -0.279  -1.096  1.00  0.00     0.046 C 
HETATM   23  C15 UNL     1      -4.029   1.885  -1.999  1.00  0.00     0.046 C 
ENDBRANCH  19  20
ENDBRANCH   9  19
TORSDOF 5
