REMARK  3 active torsions:
REMARK  status: ('A' for Active; 'I' for Inactive)
REMARK    1  A    between atoms: N1_1  and  C1_4 
REMARK    2  A    between atoms: N4_15  and  C8_16 
REMARK    3  A    between atoms: N5_19  and  C11_20 
ROOT
HETATM    1  C1  UNL     1      -5.159   0.918   0.640  1.00  0.00     0.109 A 
HETATM    2  N2  UNL     1      -4.785   1.981   1.371  1.00  0.00    -0.338 N 
ATOM      3  H2  UNL     1      -5.474   2.623   1.762  1.00  0.00     0.168 HD
HETATM    4  C2  UNL     1      -3.463   2.167   1.569  1.00  0.00     0.183 A 
HETATM    5  N3  UNL     1      -2.550   1.340   1.067  1.00  0.00    -0.338 N 
ATOM      6  H3  UNL     1      -1.563   1.526   1.245  1.00  0.00     0.168 HD
HETATM    7  C3  UNL     1      -2.892   0.259   0.327  1.00  0.00     0.114 A 
HETATM    8  C4  UNL     1      -4.226   0.038   0.106  1.00  0.00     0.029 A 
HETATM    9  C5  UNL     1      -4.758  -1.133  -0.682  1.00  0.00     0.048 C 
HETATM   10  C6  UNL     1      -3.716  -2.199  -0.766  1.00  0.00     0.025 C 
HETATM   11  C7  UNL     1      -2.362  -1.633  -1.153  1.00  0.00     0.125 C 
HETATM   12  N4  UNL     1      -1.917  -0.596  -0.237  1.00  0.00    -0.362 N 
ENDROOT
BRANCH  12  13
HETATM   13  C8  UNL     1      -0.530  -0.424   0.108  1.00  0.00     0.089 C 
HETATM   14  C9  UNL     1       0.341  -1.428  -0.687  1.00  0.00     0.055 C 
HETATM   15  C10 UNL     1       1.775  -0.907  -0.796  1.00  0.00     0.275 C 
HETATM   16  N5  UNL     1       2.202  -0.158   0.348  1.00  0.00     0.093 N 
HETATM   17  C16 UNL     1       1.347   0.979   0.647  1.00  0.00     0.275 C 
HETATM   18  C17 UNL     1       0.074   0.895  -0.219  1.00  0.00     0.055 C 
BRANCH  16  19
HETATM   19  C11 UNL     1       3.506   0.397   0.075  1.00  0.00     0.223 C 
HETATM   20  C12 UNL     1       4.339   0.505   1.359  1.00  0.00     0.036 C 
HETATM   21  C13 UNL     1       5.686   0.914   0.770  1.00  0.00     0.002 C 
HETATM   22  C14 UNL     1       5.748   0.225  -0.586  1.00  0.00     0.002 C 
HETATM   23  C15 UNL     1       4.393  -0.480  -0.747  1.00  0.00     0.036 C 
ENDBRANCH  16  19
ENDBRANCH  12  13
BRANCH   1  24
HETATM   24  N1  UNL     1      -6.408   0.666   0.389  1.00  0.00    -0.385 N 
ATOM     25  H12 UNL     1      -7.093   1.312   0.781  1.00  0.00     0.157 HD
ATOM     26  H11 UNL     1      -6.692  -0.141  -0.166  1.00  0.00     0.157 HD
ENDBRANCH   1  24
TORSDOF 3
