REMARK  4 active torsions:
REMARK  status: ('A' for Active; 'I' for Inactive)
REMARK    1  A    between atoms: O1_2  and  C2_3 
REMARK    2  A    between atoms: C15_16  and  O2_17 
REMARK    3  A    between atoms: C17_20  and  C19_22 
REMARK    4  A    between atoms: C19_22  and  O3_23 
ROOT
HETATM    1  C2  UNL     1      -0.470   1.865   0.008  1.00  0.00     0.128 C 
HETATM    2  C3  UNL     1       1.072   1.689   0.032  1.00  0.00     0.038 C 
HETATM    3  C4  UNL     1       1.470   0.332   0.481  1.00  0.00     0.004 C 
HETATM    4  C5  UNL     1       2.795   0.008  -0.212  1.00  0.00    -0.043 C 
HETATM    5  C6  UNL     1       2.768   0.006  -1.682  1.00  0.00     0.015 C 
HETATM    6  C7  UNL     1       3.724   1.166   0.205  1.00  0.00     0.015 C 
HETATM    7  C8  UNL     1       3.422  -1.236   0.370  1.00  0.00     0.009 C 
HETATM    8  C9  UNL     1       2.437  -2.344   0.546  1.00  0.00     0.002 C 
HETATM    9  C10 UNL     1       1.089  -2.104  -0.011  1.00  0.00     0.010 C 
HETATM   10  C11 UNL     1       0.452  -0.759   0.403  1.00  0.00    -0.035 C 
HETATM   11  C12 UNL     1       0.102  -1.097   1.871  1.00  0.00     0.016 C 
HETATM   12  C13 UNL     1      -0.710  -0.552  -0.463  1.00  0.00     0.013 C 
HETATM   13  C14 UNL     1      -0.890   0.878  -1.003  1.00  0.00     0.049 C 
HETATM   14  C15 UNL     1      -2.247   0.965  -1.574  1.00  0.00     0.126 C 
HETATM   15  C16 UNL     1      -2.826  -0.427  -1.354  1.00  0.00     0.044 C 
HETATM   16  C17 UNL     1      -2.062  -0.968  -0.114  1.00  0.00    -0.015 C 
HETATM   17  C18 UNL     1      -2.303  -2.479  -0.191  1.00  0.00     0.018 C 
ENDROOT
BRANCH  16  18
HETATM   18  C19 UNL     1      -2.828  -0.433   1.002  1.00  0.00     0.173 C 
BRANCH  18  19
HETATM   19  O3  UNL     1      -4.085  -1.110   0.974  1.00  0.00    -0.400 OA
ATOM     20  H3  UNL     1      -4.585  -0.761   1.702  1.00  0.00     0.209 HD
ENDBRANCH  18  19
ENDBRANCH  16  18
BRANCH  14  21
HETATM   21  O2  UNL     1      -3.063   1.961  -1.118  1.00  0.00    -0.395 OA
ATOM     22  H2  UNL     1      -3.937   2.017  -1.486  1.00  0.00     0.210 HD
ENDBRANCH  14  21
BRANCH   1  23
HETATM   23  O1  UNL     1      -0.819   3.149  -0.232  1.00  0.00    -0.390 OA
HETATM   24  C1  UNL     1      -1.321   3.865   0.817  1.00  0.00     0.202 C 
ENDBRANCH   1  23
TORSDOF 4
