REMARK  2 active torsions:
REMARK  status: ('A' for Active; 'I' for Inactive)
REMARK    1  A    between atoms: C16_20  and  C17_21 
REMARK    2  A    between atoms: C17_21  and  O3_22 
ROOT
HETATM    1  O1  UNL     1      -0.333  -1.602   2.663  1.00  0.00    -0.273 OA
HETATM    2  C1  UNL     1       0.150  -1.188   1.610  1.00  0.00     0.227 C 
HETATM    3  N1  UNL     1       1.607  -1.215   1.541  1.00  0.00    -0.329 N 
ATOM      4  H1  UNL     1       2.126  -1.753   2.235  1.00  0.00     0.165 HD
HETATM    5  C2  UNL     1       2.330  -0.507   0.525  1.00  0.00     0.137 C 
HETATM    6  C3  UNL     1       3.550   0.111   1.226  1.00  0.00     0.061 C 
HETATM    7  C4  UNL     1       4.322   0.978   0.259  1.00  0.00     0.005 C 
HETATM    8  C5  UNL     1       4.884   0.063  -0.812  1.00  0.00     0.000 C 
HETATM    9  C6  UNL     1       3.740  -0.651  -1.466  1.00  0.00     0.005 C 
HETATM   10  C7  UNL     1       2.932  -1.481  -0.501  1.00  0.00     0.061 C 
HETATM   11  O2  UNL     1       1.621   0.410  -0.173  1.00  0.00    -0.355 OA
HETATM   12  C8  UNL     1       0.333   0.628   0.130  1.00  0.00     0.138 C 
HETATM   13  C9  UNL     1       0.052   1.438   1.372  1.00  0.00     0.033 C 
HETATM   14  C10 UNL     1      -1.360   1.862   1.298  1.00  0.00     0.008 C 
HETATM   15  C11 UNL     1      -2.375   0.908   0.782  1.00  0.00    -0.003 C 
HETATM   16  C12 UNL     1      -3.191   1.691  -0.195  1.00  0.00     0.005 C 
HETATM   17  C13 UNL     1      -4.167   0.965  -1.020  1.00  0.00     0.000 C 
HETATM   18  C14 UNL     1      -3.571  -0.246  -1.618  1.00  0.00     0.001 C 
HETATM   19  C15 UNL     1      -2.241  -0.648  -1.165  1.00  0.00     0.013 C 
HETATM   20  C16 UNL     1      -1.911  -0.438   0.322  1.00  0.00    -0.001 C 
HETATM   21  C18 UNL     1      -0.449  -0.665   0.394  1.00  0.00     0.118 C 
ENDROOT
BRANCH  20  22
HETATM   22  C17 UNL     1      -2.607  -1.593   1.003  1.00  0.00     0.175 C 
BRANCH  22  23
HETATM   23  O3  UNL     1      -4.009  -1.559   0.746  1.00  0.00    -0.400 OA
ATOM     24  H3  UNL     1      -4.447  -2.285   1.174  1.00  0.00     0.209 HD
ENDBRANCH  22  23
ENDBRANCH  20  22
TORSDOF 2
