REMARK  2 active torsions:
REMARK  status: ('A' for Active; 'I' for Inactive)
REMARK       I    between atoms: C1_4  and  N3_6 
REMARK    1  A    between atoms: N3_6  and  C2_8 
REMARK    2  A    between atoms: C2_8  and  N4_10 
ROOT
HETATM    1  C2  UNL     1       0.834  -0.627   0.397  1.00  0.00     0.200 C 
HETATM    2  S1  UNL     1       1.438  -1.147   1.849  1.00  0.00    -0.038 SA
ENDROOT
BRANCH   1   3
HETATM    3  N3  UNL     1       1.750  -0.233  -0.637  1.00  0.00    -0.306 N 
HETATM    4  C1  UNL     1       3.144  -0.294  -0.406  1.00  0.00     0.188 C 
HETATM    5  N1  UNL     1       3.852  -1.094  -1.118  1.00  0.00    -0.373 N 
HETATM    6  N2  UNL     1       3.721   0.524   0.598  1.00  0.00    -0.064 NA
ATOM      7  H12 UNL     1       4.857  -1.138  -0.951  1.00  0.00     0.158 HD
ATOM      8  H11 UNL     1       3.437  -1.683  -1.840  1.00  0.00     0.158 HD
ATOM      9  H3  UNL     1       1.395   0.090  -1.537  1.00  0.00     0.171 HD
ENDBRANCH   1   3
BRANCH   1  10
HETATM   10  N4  UNL     1      -0.567  -0.570   0.175  1.00  0.00    -0.232 N 
HETATM   11  C3  UNL     1      -1.031  -0.106  -1.116  1.00  0.00     0.159 C 
HETATM   12  C4  UNL     1      -2.532   0.165  -0.951  1.00  0.00     0.024 C 
HETATM   13  C5  UNL     1      -2.621   0.936   0.373  1.00  0.00     0.030 C 
HETATM   14  C6  UNL     1      -2.394  -0.090   1.459  1.00  0.00     0.201 C 
HETATM   15  O1  UNL     1      -1.376  -0.951   1.179  1.00  0.00    -0.276 OA
ENDBRANCH   1  10
TORSDOF 2
