REMARK  1 active torsions:
REMARK  status: ('A' for Active; 'I' for Inactive)
REMARK    1  A    between atoms: C2_2  and  N1_5 
REMARK       I    between atoms: N1_5  and  C5_7 
REMARK       I    between atoms: C5_7  and  N3_11 
ROOT
HETATM    1  N1  UNL     1      -1.242  -0.210   0.319  1.00  0.00    -0.218 N 
ATOM      2  H1  UNL     1      -0.909  -0.071   1.273  1.00  0.00     0.178 HD
HETATM    3  C5  UNL     1      -0.283  -0.381  -0.732  1.00  0.00     0.670 C 
HETATM    4  N2  UNL     1      -0.692  -0.646  -1.922  1.00  0.00    -0.235 N 
ATOM      5  H21 UNL     1      -0.009  -0.768  -2.670  1.00  0.00     0.174 HD
ATOM      6  H22 UNL     1      -1.697  -0.728  -2.077  1.00  0.00     0.174 HD
HETATM    7  N3  UNL     1       1.107  -0.268  -0.517  1.00  0.00    -0.217 N 
HETATM    8  C6  UNL     1       1.863   0.656  -1.347  1.00  0.00     0.143 C 
HETATM    9  C7  UNL     1       2.636   1.579  -0.458  1.00  0.00     0.048 C 
HETATM   10  C8  UNL     1       3.771   0.793   0.166  1.00  0.00     0.234 C 
HETATM   11  N4  UNL     1       3.463   0.354   1.497  1.00  0.00    -0.074 N 
ATOM     12  H41 UNL     1       3.602   1.115   2.162  1.00  0.00     0.277 HD
ATOM     13  H42 UNL     1       4.172  -0.300   1.828  1.00  0.00     0.277 HD
HETATM   14  C9  UNL     1       2.157  -0.209   1.651  1.00  0.00     0.252 C 
HETATM   15  C10 UNL     1       1.717  -1.081   0.525  1.00  0.00     0.168 C 
ENDROOT
BRANCH   1  16
HETATM   16  C2  UNL     1      -2.644  -0.228   0.076  1.00  0.00     0.036 C 
HETATM   17  C1  UNL     1      -3.114  -1.541  -0.526  1.00  0.00     0.038 C 
HETATM   18  C3  UNL     1      -3.101   0.943  -0.788  1.00  0.00     0.038 C 
HETATM   19  C4  UNL     1      -3.373  -0.067   1.395  1.00  0.00     0.038 C 
ENDBRANCH   1  16
TORSDOF 1
