REMARK  4 active torsions:
REMARK  status: ('A' for Active; 'I' for Inactive)
REMARK    1  A    between atoms: O1_2  and  C2_3 
REMARK    2  A    between atoms: C2_3  and  C3_5 
REMARK    3  A    between atoms: C3_5  and  C4_6 
REMARK    4  A    between atoms: C4_6  and  C5_7 
ROOT
HETATM    1  C3  UNL     1       0.463   0.747   0.068  1.00  0.00     0.060 C 
HETATM    2  C9  UNL     1      -0.348   1.801  -0.710  1.00  0.00     0.013 C 
HETATM    3  C10 UNL     1      -0.418   1.322  -2.148  1.00  0.00     0.007 C 
HETATM    4  C11 UNL     1      -1.529   0.267  -2.195  1.00  0.00     0.011 C 
HETATM    5  C12 UNL     1      -1.667   0.007  -0.679  1.00  0.00    -0.023 C 
HETATM    6  C13 UNL     1      -2.829  -0.782  -0.329  1.00  0.00     0.062 C 
HETATM    7  C14 UNL     1      -2.628  -1.988   0.472  1.00  0.00    -0.019 C 
HETATM    8  N1  UNL     1      -3.350  -3.039   0.386  1.00  0.00    -0.406 N 
ATOM      9  H11 UNL     1      -3.210  -3.881   0.945  1.00  0.00     0.155 HD
ATOM     10  H12 UNL     1      -4.124  -3.064  -0.278  1.00  0.00     0.155 HD
HETATM   11  C15 UNL     1      -1.485  -1.951   1.452  1.00  0.00     0.056 C 
HETATM   12  C16 UNL     1      -0.265  -1.638   0.652  1.00  0.00    -0.007 C 
HETATM   13  C17 UNL     1      -0.021  -2.959  -0.123  1.00  0.00     0.011 C 
HETATM   14  C18 UNL     1      -0.303  -0.457  -0.235  1.00  0.00     0.018 C 
HETATM   15  C19 UNL     1      -1.767   1.500  -0.302  1.00  0.00    -0.035 C 
HETATM   16  C20 UNL     1      -2.736   2.193  -1.275  1.00  0.00     0.016 C 
HETATM   17  C21 UNL     1      -2.243   1.817   1.019  1.00  0.00     0.016 C 
ENDROOT
BRANCH   1  18
HETATM   18  C2  UNL     1       0.597   1.272   1.419  1.00  0.00     0.268 C 
HETATM   19  O2  UNL     1       0.294   0.774   2.516  1.00  0.00    -0.264 OA
BRANCH  18  20
HETATM   20  O1  UNL     1       1.160   2.547   1.502  1.00  0.00    -0.326 OA
HETATM   21  C1  UNL     1       1.361   3.197   2.732  1.00  0.00     0.213 C 
ENDBRANCH  18  20
ENDBRANCH   1  18
BRANCH   1  22
HETATM   22  C4  UNL     1       1.920   0.726  -0.451  1.00  0.00     0.048 C 
BRANCH  22  23
HETATM   23  C5  UNL     1       2.772  -0.114   0.410  1.00  0.00    -0.023 C 
HETATM   24  C6  UNL     1       3.461  -1.109  -0.083  1.00  0.00    -0.091 C 
HETATM   25  C7  UNL     1       4.311  -1.944   0.794  1.00  0.00     0.042 C 
HETATM   26  C8  UNL     1       3.408  -1.408  -1.534  1.00  0.00     0.042 C 
ENDBRANCH  22  23
ENDBRANCH   1  22
TORSDOF 4
