REMARK  4 active torsions:
REMARK  status: ('A' for Active; 'I' for Inactive)
REMARK    1  A    between atoms: C2_2  and  C3_3 
REMARK    2  A    between atoms: C10_10  and  O1_12 
REMARK    3  A    between atoms: C17_19  and  O2_20 
REMARK    4  A    between atoms: O2_20  and  C18_21 
ROOT
HETATM    1  C3  UNL     1      -0.413   1.511  -0.069  1.00  0.00    -0.040 C 
HETATM    2  C4  UNL     1       0.228   2.531  -1.024  1.00  0.00     0.015 C 
HETATM    3  C5  UNL     1      -1.809   1.280  -0.589  1.00  0.00     0.017 C 
HETATM    4  C6  UNL     1      -2.373   0.104   0.110  1.00  0.00     0.025 C 
HETATM    5  C7  UNL     1      -1.506  -1.090  -0.130  1.00  0.00     0.001 C 
HETATM    6  C8  UNL     1      -2.297  -2.212   0.437  1.00  0.00     0.009 C 
HETATM    7  C9  UNL     1      -3.755  -1.732   0.360  1.00  0.00     0.038 C 
HETATM    8  C10 UNL     1      -3.678  -0.417  -0.440  1.00  0.00     0.058 C 
HETATM    9  C11 UNL     1      -3.617  -0.811  -1.879  1.00  0.00     0.046 C 
HETATM   10  C12 UNL     1      -0.115  -0.953   0.461  1.00  0.00    -0.035 C 
HETATM   11  C13 UNL     1      -0.241  -0.997   1.941  1.00  0.00     0.016 C 
HETATM   12  C14 UNL     1       0.635  -2.159  -0.064  1.00  0.00     0.010 C 
HETATM   13  C15 UNL     1       1.836  -2.542   0.705  1.00  0.00     0.003 C 
HETATM   14  C16 UNL     1       2.802  -1.478   1.059  1.00  0.00     0.032 C 
HETATM   15  C17 UNL     1       2.826  -0.427  -0.003  1.00  0.00     0.132 C 
HETATM   16  C20 UNL     1       1.817   0.647   0.429  1.00  0.00     0.038 C 
HETATM   17  C21 UNL     1       0.448   0.308  -0.107  1.00  0.00     0.005 C 
ENDROOT
BRANCH  15  18
HETATM   18  O2  UNL     1       4.124   0.124  -0.128  1.00  0.00    -0.316 OA
BRANCH  18  19
HETATM   19  C18 UNL     1       4.761   0.158  -1.365  1.00  0.00     0.255 C 
HETATM   20  C19 UNL     1       6.123   0.723  -1.556  1.00  0.00     0.126 C 
HETATM   21  O3  UNL     1       4.109  -0.327  -2.341  1.00  0.00    -0.266 OA
ENDBRANCH  18  19
ENDBRANCH  15  18
BRANCH   1  22
HETATM   22  C2  UNL     1      -0.467   2.194   1.274  1.00  0.00     0.005 C 
HETATM   23  C1  UNL     1      -1.294   3.462   1.213  1.00  0.00     0.006 C 
ENDBRANCH   1  22
BRANCH   8  24
HETATM   24  O1  UNL     1      -4.755   0.404  -0.143  1.00  0.00    -0.390 OA
ATOM     25  H1  UNL     1      -5.577   0.076  -0.489  1.00  0.00     0.210 HD
ENDBRANCH   8  24
TORSDOF 4
