REMARK  1 active torsions:
REMARK  status: ('A' for Active; 'I' for Inactive)
REMARK    1  A    between atoms: C14_16  and  C15_17 
ROOT
HETATM    1  C1  UNL     1      -0.244   3.370   0.365  1.00  0.00     0.018 C 
HETATM    2  C2  UNL     1       0.308   1.969   0.124  1.00  0.00    -0.015 C 
HETATM    3  C3  UNL     1      -0.573   1.330  -0.930  1.00  0.00     0.012 C 
HETATM    4  C4  UNL     1      -2.028   1.361  -0.575  1.00  0.00     0.010 C 
HETATM    5  C5  UNL     1      -2.630  -0.031  -0.502  1.00  0.00     0.048 C 
HETATM    6  C6  UNL     1      -4.124   0.134  -0.659  1.00  0.00     0.195 C 
HETATM    7  C7  UNL     1      -4.826  -1.195  -0.814  1.00  0.00     0.066 C 
HETATM    8  C8  UNL     1      -5.159  -1.078   0.641  1.00  0.00     0.188 C 
HETATM    9  C9  UNL     1      -4.286  -1.897   1.536  1.00  0.00     0.036 C 
HETATM   10  C10 UNL     1      -2.854  -1.963   1.077  1.00  0.00     0.037 C 
HETATM   11  C11 UNL     1      -2.357  -0.554   0.891  1.00  0.00     0.166 C 
HETATM   12  O1  UNL     1      -0.995  -0.554   1.164  1.00  0.00    -0.235 OA
HETATM   13  O2  UNL     1      -0.709   0.557   1.798  1.00  0.00    -0.234 OA
HETATM   14  C12 UNL     1       0.434   1.168   1.366  1.00  0.00     0.168 C 
HETATM   15  C13 UNL     1       1.521   0.155   0.971  1.00  0.00     0.041 C 
HETATM   16  C14 UNL     1       2.550   1.083   0.437  1.00  0.00    -0.007 C 
HETATM   17  C21 UNL     1       1.721   2.037  -0.413  1.00  0.00     0.017 C 
HETATM   18  N1  UNL     1      -4.802   0.309   0.593  1.00  0.00    -0.066 N 
ATOM     19  H11 UNL     1      -5.534   1.016   0.670  1.00  0.00     0.278 HD
ATOM     20  H12 UNL     1      -4.300   0.723   1.379  1.00  0.00     0.278 HD
ENDROOT
BRANCH  16  21
HETATM   21  C15 UNL     1       3.665   0.460  -0.322  1.00  0.00    -0.010 C 
HETATM   22  C16 UNL     1       3.290  -0.304  -1.529  1.00  0.00     0.005 C 
HETATM   23  C17 UNL     1       4.286  -1.381  -1.905  1.00  0.00     0.000 C 
HETATM   24  C18 UNL     1       4.439  -2.405  -0.804  1.00  0.00     0.000 C 
HETATM   25  C19 UNL     1       4.183  -1.840   0.554  1.00  0.00     0.000 C 
HETATM   26  C20 UNL     1       4.509  -0.365   0.622  1.00  0.00     0.005 C 
ENDBRANCH  16  21
TORSDOF 1
