REMARK  4 active torsions:
REMARK  status: ('A' for Active; 'I' for Inactive)
REMARK    1  A    between atoms: C3_3  and  C4_4 
REMARK    2  A    between atoms: C4_4  and  O2_6 
REMARK    3  A    between atoms: O2_6  and  C5_7 
REMARK    4  A    between atoms: C10_12  and  O3_13 
ROOT
HETATM    1  C5  UNL     1       1.755  -0.249   0.603  1.00  0.00     0.136 C 
HETATM    2  C6  UNL     1       0.941  -0.079  -0.667  1.00  0.00     0.034 C 
HETATM    3  C7  UNL     1       0.121   1.178  -0.670  1.00  0.00     0.014 C 
HETATM    4  C8  UNL     1      -1.374   0.895  -0.802  1.00  0.00    -0.014 C 
HETATM    5  C9  UNL     1      -1.570   0.463  -2.263  1.00  0.00     0.018 C 
HETATM    6  C10 UNL     1      -2.079   2.205  -0.644  1.00  0.00     0.126 C 
HETATM    7  C11 UNL     1      -2.827   2.298   0.669  1.00  0.00     0.033 C 
HETATM    8  C12 UNL     1      -3.881   1.207   0.620  1.00  0.00     0.011 C 
HETATM    9  C13 UNL     1      -3.321  -0.143   0.346  1.00  0.00    -0.043 C 
HETATM   10  C14 UNL     1      -3.733  -1.047   1.502  1.00  0.00     0.015 C 
HETATM   11  C15 UNL     1      -4.078  -0.728  -0.858  1.00  0.00     0.015 C 
HETATM   12  C16 UNL     1      -1.850  -0.192   0.081  1.00  0.00     0.004 C 
HETATM   13  C17 UNL     1      -1.021  -0.345   1.363  1.00  0.00     0.007 C 
HETATM   14  C18 UNL     1      -0.218  -1.592   1.389  1.00  0.00     0.007 C 
HETATM   15  C19 UNL     1       1.256  -1.467   1.302  1.00  0.00     0.011 C 
HETATM   16  C20 UNL     1       1.821  -2.672   0.573  1.00  0.00     0.012 C 
ENDROOT
BRANCH   1  17
HETATM   17  O2  UNL     1       3.074  -0.217   0.254  1.00  0.00    -0.312 OA
BRANCH  17  18
HETATM   18  C4  UNL     1       4.053   0.656   0.636  1.00  0.00     0.282 C 
HETATM   19  O1  UNL     1       3.612   1.519   1.412  1.00  0.00    -0.260 OA
BRANCH  18  20
HETATM   20  C3  UNL     1       5.440   0.585   0.190  1.00  0.00     0.077 C 
HETATM   21  C2  UNL     1       5.793  -0.383  -0.639  1.00  0.00    -0.025 C 
HETATM   22  C1  UNL     1       7.177  -0.531  -1.143  1.00  0.00     0.036 C 
ENDBRANCH  18  20
ENDBRANCH  17  18
ENDBRANCH   1  17
BRANCH   6  23
HETATM   23  O3  UNL     1      -1.212   3.304  -0.821  1.00  0.00    -0.395 OA
ATOM     24  H3  UNL     1      -1.660   4.136  -0.721  1.00  0.00     0.210 HD
ENDBRANCH   6  23
TORSDOF 4
