REMARK  2 active torsions:
REMARK  status: ('A' for Active; 'I' for Inactive)
REMARK    1  A    between atoms: C3_3  and  C5_5 
REMARK       I    between atoms: C5_5  and  N1_7 
REMARK    2  A    between atoms: N1_7  and  C6_9 
ROOT
HETATM    1  C6  UNL     1      -1.145  -0.534   0.012  1.00  0.00     0.146 C 
HETATM    2  C7  UNL     1      -0.232   0.625   0.199  1.00  0.00     0.036 C 
HETATM    3  C8  UNL     1       0.440   1.074  -1.074  1.00  0.00     0.003 C 
HETATM    4  C9  UNL     1       1.122   2.381  -0.939  1.00  0.00     0.000 C 
HETATM    5  C10 UNL     1       1.997   2.542   0.247  1.00  0.00     0.000 C 
HETATM    6  C11 UNL     1       3.457   2.157  -0.035  1.00  0.00     0.000 C 
HETATM    7  C12 UNL     1       3.603   0.690   0.163  1.00  0.00     0.001 C 
HETATM    8  C13 UNL     1       4.933   0.243   0.659  1.00  0.00     0.010 C 
HETATM    9  C14 UNL     1       5.066  -1.246   0.318  1.00  0.00     0.073 C 
HETATM   10  S1  UNL     1       4.066  -2.284   1.365  1.00  0.00    -0.169 SA
HETATM   11  C15 UNL     1       2.883  -3.306   0.404  1.00  0.00     0.074 C 
HETATM   12  C16 UNL     1       1.787  -2.403  -0.044  1.00  0.00     0.020 C 
HETATM   13  C17 UNL     1       0.465  -3.054  -0.266  1.00  0.00     0.077 C 
HETATM   14  S2  UNL     1      -0.549  -1.784  -1.127  1.00  0.00    -0.144 SA
ENDROOT
BRANCH   1  15
HETATM   15  N1  UNL     1      -2.422  -0.063  -0.449  1.00  0.00    -0.344 N 
HETATM   16  C5  UNL     1      -3.588  -0.257   0.330  1.00  0.00     0.247 C 
HETATM   17  O1  UNL     1      -3.553  -0.844   1.448  1.00  0.00    -0.268 OA
ATOM     18  H1  UNL     1      -2.489   0.416  -1.347  1.00  0.00     0.164 HD
BRANCH  16  19
HETATM   19  C3  UNL     1      -4.873   0.223  -0.144  1.00  0.00     0.002 C 
HETATM   20  C2  UNL     1      -5.948   0.039   0.585  1.00  0.00    -0.019 C 
HETATM   21  C1  UNL     1      -7.267   0.520   0.120  1.00  0.00     0.036 C 
HETATM   22  C4  UNL     1      -4.963   0.910  -1.435  1.00  0.00     0.054 C 
ENDBRANCH  16  19
ENDBRANCH   1  15
TORSDOF 2
