REMARK  2 active torsions:
REMARK  status: ('A' for Active; 'I' for Inactive)
REMARK    1  A    between atoms: C2_2  and  C3_3 
REMARK    2  A    between atoms: C11_13  and  C12_14 
ROOT
HETATM    1  C1  UNL     1       4.267   0.486  -1.050  1.00  0.00     0.058 C 
HETATM    2  C2  UNL     1       3.145   0.300  -0.022  1.00  0.00     0.145 C 
HETATM    3  C4  UNL     1       3.030  -1.189   0.208  1.00  0.00     0.049 C 
HETATM    4  C5  UNL     1       2.178  -1.745  -0.916  1.00  0.00     0.004 C 
HETATM    5  C6  UNL     1       0.755  -1.829  -0.388  1.00  0.00     0.012 C 
HETATM    6  C7  UNL     1       0.072  -0.501  -0.635  1.00  0.00    -0.014 C 
HETATM    7  C8  UNL     1       0.250  -0.169  -2.110  1.00  0.00     0.018 C 
HETATM    8  C9  UNL     1       0.845   0.543   0.137  1.00  0.00     0.132 C 
HETATM    9  C10 UNL     1       0.008   1.808   0.107  1.00  0.00     0.038 C 
HETATM   10  C11 UNL     1      -1.252   1.642   0.922  1.00  0.00     0.003 C 
HETATM   11  C13 UNL     1      -1.785   0.259   0.884  1.00  0.00    -0.005 C 
HETATM   12  C14 UNL     1      -3.298   0.224   0.972  1.00  0.00     0.005 C 
HETATM   13  C15 UNL     1      -3.678  -1.218   1.324  1.00  0.00     0.000 C 
HETATM   14  C16 UNL     1      -3.218  -2.155   0.262  1.00  0.00     0.000 C 
HETATM   15  C17 UNL     1      -1.794  -1.978  -0.154  1.00  0.00     0.006 C 
HETATM   16  C18 UNL     1      -1.386  -0.533  -0.321  1.00  0.00     0.001 C 
HETATM   17  O3  UNL     1       2.024   0.868  -0.542  1.00  0.00    -0.363 OA
ENDROOT
BRANCH   2  18
HETATM   18  C3  UNL     1       3.620   0.922   1.230  1.00  0.00     0.208 C 
HETATM   19  O1  UNL     1       4.668   0.417   1.748  1.00  0.00    -0.646 OA
HETATM   20  O2  UNL     1       3.013   1.988   1.856  1.00  0.00    -0.646 OA
ENDBRANCH   2  18
BRANCH  10  21
HETATM   21  C12 UNL     1      -2.230   2.692   0.452  1.00  0.00     0.091 C 
HETATM   22  S1  UNL     1      -2.614   2.498  -1.320  1.00  0.00    -0.097 SA
ENDBRANCH  10  21
TORSDOF 2
