REMARK  7 active torsions:
REMARK  status: ('A' for Active; 'I' for Inactive)
REMARK    1  A    between atoms: O1_2  and  C2_3 
REMARK    2  A    between atoms: C3_4  and  C4_5 
REMARK    3  A    between atoms: C4_5  and  O2_6 
REMARK    4  A    between atoms: C4_5  and  N1_8 
REMARK    5  A    between atoms: N1_8  and  N2_10 
REMARK    6  A    between atoms: C13_21  and  N3_22 
REMARK    7  A    between atoms: C15_26  and  N4_27 
ROOT
HETATM    1  C4  UNL     1      -0.842  -0.078   0.934  1.00  0.00     0.168 C 
ENDROOT
BRANCH   1   2
HETATM    2  C3  UNL     1      -2.174  -0.456   0.582  1.00  0.00     0.054 A 
HETATM    3  C2  UNL     1      -3.157   0.404   0.235  1.00  0.00     0.116 A 
HETATM    4  C15 UNL     1      -4.462  -0.028   0.022  1.00  0.00     0.139 A 
HETATM    5  C14 UNL     1      -4.781  -1.363   0.155  1.00  0.00     0.075 A 
HETATM    6  C13 UNL     1      -3.799  -2.244   0.499  1.00  0.00     0.106 A 
HETATM    7  C12 UNL     1      -2.532  -1.793   0.705  1.00  0.00     0.054 A 
BRANCH   3   8
HETATM    8  O1  UNL     1      -2.921   1.758   0.059  1.00  0.00    -0.352 OA
HETATM    9  C1  UNL     1      -2.576   2.258  -1.245  1.00  0.00     0.210 C 
ENDBRANCH   3   8
BRANCH   4  10
HETATM   10  N4  UNL     1      -5.505   0.848  -0.307  1.00  0.00    -0.113 N 
HETATM   11  O6  UNL     1      -6.464   0.424  -0.983  1.00  0.00    -0.532 OA
HETATM   12  O7  UNL     1      -5.448   2.165   0.123  1.00  0.00    -0.532 OA
ENDBRANCH   4  10
BRANCH   6  13
HETATM   13  N3  UNL     1      -4.101  -3.649   0.645  1.00  0.00    -0.116 N 
HETATM   14  O4  UNL     1      -5.252  -4.059   0.458  1.00  0.00    -0.532 OA
HETATM   15  O5  UNL     1      -3.103  -4.519   0.992  1.00  0.00    -0.532 OA
ENDBRANCH   6  13
ENDBRANCH   1   2
BRANCH   1  16
HETATM   16  O2  UNL     1      -0.027  -1.083   1.157  1.00  0.00    -0.344 OA
ATOM     17  H2  UNL     1       0.859  -0.832   1.391  1.00  0.00     0.219 HD
ENDBRANCH   1  16
BRANCH   1  18
HETATM   18  N1  UNL     1      -0.272   1.200   1.071  1.00  0.00    -0.278 N 
ATOM     19  H1  UNL     1      -0.839   2.036   0.928  1.00  0.00     0.189 HD
BRANCH  18  20
HETATM   20  N2  UNL     1       1.108   1.313   1.412  1.00  0.00    -0.281 N 
HETATM   21  C5  UNL     1       2.012   0.861   0.617  1.00  0.00     0.137 C 
HETATM   22  O3  UNL     1       1.898   0.231  -0.614  1.00  0.00    -0.332 OA
HETATM   23  C9  UNL     1       3.468   0.937   0.889  1.00  0.00     0.068 C 
HETATM   24  C6  UNL     1       3.213  -0.114  -1.081  1.00  0.00     0.135 C 
HETATM   25  C7  UNL     1       3.805  -1.169  -0.211  1.00  0.00     0.034 C 
HETATM   26  C10 UNL     1       3.966   1.126  -0.558  1.00  0.00     0.023 C 
HETATM   27  C8  UNL     1       3.935  -0.474   1.134  1.00  0.00     0.016 C 
HETATM   28  C11 UNL     1       5.441   0.991  -0.682  1.00  0.00     0.013 C 
ATOM     29  H2  UNL     1       1.379   1.754   2.291  1.00  0.00     0.189 HD
ENDBRANCH  18  20
ENDBRANCH   1  18
TORSDOF 7
