REMARK  9 active torsions:
REMARK  status: ('A' for Active; 'I' for Inactive)
REMARK    1  A    between atoms: O1_2  and  C2_3 
REMARK    2  A    between atoms: C2_3  and  C3_5 
REMARK    3  A    between atoms: C4_6  and  C5_7 
REMARK    4  A    between atoms: C7_9  and  N1_10 
REMARK    5  A    between atoms: N1_10  and  O3_11 
REMARK    6  A    between atoms: N1_10  and  O4_13 
REMARK    7  A    between atoms: C12_21  and  O7_22 
REMARK    8  A    between atoms: C12_21  and  C13_24 
REMARK    9  A    between atoms: C13_24  and  C14_25 
ROOT
HETATM    1  C3  UNL     1       0.502  -0.608  -0.431  1.00  0.00     0.166 C 
HETATM    2  C4  UNL     1      -0.678   0.130  -0.868  1.00  0.00     0.138 C 
HETATM    3  C11 UNL     1      -0.651   1.258   0.154  1.00  0.00     0.271 C 
HETATM    4  O5  UNL     1      -1.650   1.813   0.710  1.00  0.00    -0.264 OA
HETATM    5  O6  UNL     1       0.687   1.542   0.349  1.00  0.00    -0.282 OA
HETATM    6  C12 UNL     1       1.495   0.497  -0.149  1.00  0.00     0.185 C 
ENDROOT
BRANCH   2   7
HETATM    7  C5  UNL     1      -2.037  -0.452  -0.670  1.00  0.00    -0.028 A 
HETATM    8  C6  UNL     1      -2.566  -0.727   0.529  1.00  0.00     0.051 A 
HETATM    9  C7  UNL     1      -3.871  -1.121   0.608  1.00  0.00     0.129 A 
HETATM   10  S1  UNL     1      -4.345  -1.103  -1.070  1.00  0.00    -0.072 SA
HETATM   11  C9  UNL     1      -2.906  -0.600  -1.784  1.00  0.00    -0.012 A 
HETATM   12  C10 UNL     1      -2.535  -0.385  -3.211  1.00  0.00     0.057 C 
BRANCH   9  13
HETATM   13  N1  UNL     1      -4.740  -1.409   1.713  1.00  0.00    -0.120 N 
BRANCH  13  14
HETATM   14  O3  UNL     1      -5.811  -2.054   1.425  1.00  0.00    -0.262 OA
ATOM     15  H3  UNL     1      -6.386  -2.245   2.157  1.00  0.00     0.247 HD
ENDBRANCH  13  14
BRANCH  13  16
HETATM   16  O4  UNL     1      -4.462  -1.029   3.004  1.00  0.00    -0.258 OA
HETATM   17  C8  UNL     1      -4.807   0.283   3.469  1.00  0.00     0.240 C 
ENDBRANCH  13  16
ENDBRANCH   9  13
ENDBRANCH   2   7
BRANCH   1  18
HETATM   18  C2  UNL     1       1.097  -1.324  -1.691  1.00  0.00     0.269 C 
HETATM   19  O2  UNL     1       1.315  -2.580  -1.553  1.00  0.00    -0.265 OA
BRANCH  18  20
HETATM   20  O1  UNL     1       1.371  -0.703  -2.846  1.00  0.00    -0.326 OA
HETATM   21  C1  UNL     1       1.930  -1.316  -3.996  1.00  0.00     0.213 C 
ENDBRANCH  18  20
ENDBRANCH   1  18
BRANCH   6  22
HETATM   22  O7  UNL     1       2.092   0.887  -1.352  1.00  0.00    -0.364 OA
ATOM     23  H7  UNL     1       2.716   1.581  -1.175  1.00  0.00     0.213 HD
ENDBRANCH   6  22
BRANCH   6  24
HETATM   24  C13 UNL     1       2.481   0.060   0.873  1.00  0.00     0.073 C 
BRANCH  24  25
HETATM   25  C14 UNL     1       3.541   0.982   1.268  1.00  0.00    -0.018 C 
HETATM   26  C15 UNL     1       4.453   0.325   2.284  1.00  0.00     0.009 C 
HETATM   27  C16 UNL     1       3.159   2.317   1.750  1.00  0.00     0.009 C 
ENDBRANCH  24  25
ENDBRANCH   6  24
TORSDOF 9
