REMARK  9 active torsions:
REMARK  status: ('A' for Active; 'I' for Inactive)
REMARK    1  A    between atoms: C2_2  and  O2_4 
REMARK    2  A    between atoms: O2_4  and  C3_5 
REMARK    3  A    between atoms: C8_10  and  C9_11 
REMARK    4  A    between atoms: C9_11  and  C10_12 
REMARK    5  A    between atoms: C10_12  and  C11_13 
REMARK    6  A    between atoms: N1_14  and  N2_16 
REMARK       I    between atoms: N2_16  and  C12_18 
REMARK    7  A    between atoms: C12_18  and  O4_20 
REMARK    8  A    between atoms: O4_20  and  C13_21 
REMARK    9  A    between atoms: C13_21  and  C14_23 
ROOT
HETATM    1  C10 UNL     1       1.555  -0.350  -1.024  1.00  0.00     0.051 C 
ENDROOT
BRANCH   1   2
HETATM    2  C9  UNL     1       2.279   0.453   0.041  1.00  0.00     0.047 C 
BRANCH   2   3
HETATM    3  C8  UNL     1       3.704   0.641  -0.278  1.00  0.00    -0.021 A 
HETATM    4  C3  UNL     1       4.560  -0.424  -0.092  1.00  0.00     0.088 A 
HETATM    5  C4  UNL     1       5.894  -0.240  -0.395  1.00  0.00     0.077 A 
HETATM    6  C5  UNL     1       6.363   0.979  -0.871  1.00  0.00     0.107 A 
HETATM    7  C6  UNL     1       5.508   2.047  -1.058  1.00  0.00     0.105 A 
HETATM    8  O7  UNL     1       7.617   1.438  -1.247  1.00  0.00    -0.323 OA
HETATM    9  C7  UNL     1       4.173   1.869  -0.758  1.00  0.00     0.049 A 
HETATM   10  O6  UNL     1       6.262   3.129  -1.542  1.00  0.00    -0.323 OA
HETATM   11  C18 UNL     1       7.630   2.869  -1.249  1.00  0.00     0.352 C 
BRANCH   4  12
HETATM   12  O2  UNL     1       4.129  -1.660   0.383  1.00  0.00    -0.279 OA
BRANCH  12  13
HETATM   13  C2  UNL     1       4.108  -1.951   1.739  1.00  0.00     0.260 C 
HETATM   14  C1  UNL     1       3.656  -3.255   2.277  1.00  0.00     0.126 C 
HETATM   15  O1  UNL     1       4.499  -1.041   2.534  1.00  0.00    -0.265 OA
ENDBRANCH  12  13
ENDBRANCH   4  12
ENDBRANCH   2   3
ENDBRANCH   1   2
BRANCH   1  16
HETATM   16  C11 UNL     1       0.136  -0.513  -0.668  1.00  0.00     0.080 C 
HETATM   17  N1  UNL     1      -0.350  -0.000   0.390  1.00  0.00    -0.311 N 
ATOM     18  H1  UNL     1       0.277   0.534   0.991  1.00  0.00     0.185 HD
BRANCH  17  19
HETATM   19  N2  UNL     1      -1.684  -0.119   0.783  1.00  0.00    -0.246 N 
HETATM   20  C12 UNL     1      -2.777  -0.053  -0.113  1.00  0.00     0.387 C 
HETATM   21  O3  UNL     1      -2.623   0.120  -1.360  1.00  0.00    -0.236 OA
ATOM     22  H2  UNL     1      -1.882  -0.262   1.773  1.00  0.00     0.192 HD
BRANCH  20  23
HETATM   23  O4  UNL     1      -4.072  -0.180   0.362  1.00  0.00    -0.225 OA
BRANCH  23  24
HETATM   24  C13 UNL     1      -5.162  -0.121  -0.486  1.00  0.00     0.275 C 
HETATM   25  O5  UNL     1      -4.956   0.051  -1.708  1.00  0.00    -0.264 OA
BRANCH  24  26
HETATM   26  C14 UNL     1      -6.558  -0.254   0.006  1.00  0.00     0.037 C 
HETATM   27  C15 UNL     1      -6.758  -1.603   0.691  1.00  0.00     0.025 C 
HETATM   28  C16 UNL     1      -6.850   0.879   0.969  1.00  0.00     0.025 C 
HETATM   29  C17 UNL     1      -7.527  -0.215  -1.154  1.00  0.00     0.025 C 
ENDBRANCH  24  26
ENDBRANCH  23  24
ENDBRANCH  20  23
ENDBRANCH  17  19
ENDBRANCH   1  16
TORSDOF 9
