REMARK  7 active torsions:
REMARK  status: ('A' for Active; 'I' for Inactive)
REMARK    1  A    between atoms: O1_2  and  C2_3 
REMARK    2  A    between atoms: C2_3  and  C3_5 
REMARK    3  A    between atoms: C5_8  and  C6_9 
REMARK    4  A    between atoms: C7_12  and  N2_13 
REMARK       I    between atoms: N2_13  and  C8_15 
REMARK    5  A    between atoms: C8_15  and  C9_17 
REMARK    6  A    between atoms: C9_17  and  S2_18 
REMARK    7  A    between atoms: C11_24  and  C12_25 
ROOT
HETATM    1  S2  UNL     1       5.967   0.461  -0.413  1.00  0.00    -0.042 SA
HETATM    2  C10 UNL     1       7.482   1.311  -0.131  1.00  0.00     0.134 C 
HETATM    3  N3  UNL     1       8.493   1.876   0.077  1.00  0.00    -0.184 NA
ENDROOT
BRANCH   1   4
HETATM    4  C9  UNL     1       6.035  -1.116   0.445  1.00  0.00     0.193 C 
BRANCH   4   5
HETATM    5  C8  UNL     1       4.759  -1.838   0.211  1.00  0.00     0.246 C 
HETATM    6  N2  UNL     1       3.700  -1.623   1.131  1.00  0.00    -0.157 N 
ATOM      7  H2  UNL     1       3.876  -1.746   2.128  1.00  0.00     0.187 HD
HETATM    8  O3  UNL     1       4.601  -2.614  -0.759  1.00  0.00    -0.272 OA
BRANCH   6   9
HETATM    9  C7  UNL     1       2.519  -1.276   0.740  1.00  0.00     0.707 A 
HETATM   10  N1  UNL     1       1.439  -1.045   1.521  1.00  0.00    -0.165 N 
HETATM   11  C6  UNL     1       0.399  -0.707   0.744  1.00  0.00     0.203 A 
ATOM     12  H1  UNL     1       1.419  -1.116   2.538  1.00  0.00     0.186 HD
HETATM   13  O4  UNL     1       0.845  -0.735  -0.477  1.00  0.00    -0.203 OA
HETATM   14  N4  UNL     1       2.100  -1.069  -0.519  1.00  0.00    -0.089 N 
ATOM     15  H4  UNL     1       2.668  -1.158  -1.361  1.00  0.00     0.213 HD
BRANCH  11  16
HETATM   16  C5  UNL     1      -0.957  -0.381   1.248  1.00  0.00     0.073 A 
HETATM   17  S1  UNL     1      -1.514  -0.360   2.852  1.00  0.00    -0.096 SA
HETATM   18  C4  UNL     1      -3.132   0.097   2.572  1.00  0.00     0.069 A 
HETATM   19  C3  UNL     1      -3.199   0.223   1.209  1.00  0.00     0.061 A 
HETATM   20  C11 UNL     1      -2.053  -0.029   0.521  1.00  0.00     0.048 A 
BRANCH  19  21
HETATM   21  C2  UNL     1      -4.500   0.622   0.582  1.00  0.00     0.294 C 
HETATM   22  O2  UNL     1      -5.507   0.837   1.276  1.00  0.00    -0.259 OA
BRANCH  21  23
HETATM   23  O1  UNL     1      -4.620   0.763  -0.789  1.00  0.00    -0.322 OA
HETATM   24  C1  UNL     1      -5.794   1.130  -1.450  1.00  0.00     0.213 C 
ENDBRANCH  21  23
ENDBRANCH  19  21
BRANCH  20  25
HETATM   25  C12 UNL     1      -1.985   0.071  -0.969  1.00  0.00     0.158 C 
HETATM   26  C13 UNL     1      -1.630   1.325  -1.662  1.00  0.00     0.097 C 
HETATM   27  O5  UNL     1      -2.239  -0.951  -1.645  1.00  0.00    -0.293 OA
ENDBRANCH  20  25
ENDBRANCH  11  16
ENDBRANCH   6   9
ENDBRANCH   4   5
ENDBRANCH   1   4
TORSDOF 7
