REMARK  7 active torsions:
REMARK  status: ('A' for Active; 'I' for Inactive)
REMARK       I    between atoms: C2_2  and  N1_4 
REMARK    1  A    between atoms: N1_4  and  C3_6 
REMARK    2  A    between atoms: C5_8  and  C6_9 
REMARK    3  A    between atoms: C7_14  and  S1_15 
REMARK    4  A    between atoms: S1_15  and  C8_16 
REMARK    5  A    between atoms: C8_16  and  C9_17 
REMARK    6  A    between atoms: C9_17  and  O3_19 
REMARK    7  A    between atoms: O3_19  and  C10_20 
ROOT
HETATM    1  C10 UNL     1       6.935   0.083   0.617  1.00  0.00     0.151 C 
HETATM    2  C11 UNL     1       7.711  -1.101   0.059  1.00  0.00     0.063 C 
HETATM    3  C12 UNL     1       7.321   1.343  -0.167  1.00  0.00     0.063 C 
HETATM    4  C13 UNL     1       7.279   0.347   2.014  1.00  0.00     0.097 C 
HETATM    5  N4  UNL     1       7.541   0.557   3.124  1.00  0.00    -0.194 NA
ENDROOT
BRANCH   1   6
HETATM    6  O3  UNL     1       5.556  -0.083   0.481  1.00  0.00    -0.295 OA
BRANCH   6   7
HETATM    7  C9  UNL     1       4.827  -1.114   1.034  1.00  0.00     0.270 C 
HETATM    8  O2  UNL     1       5.473  -1.961   1.711  1.00  0.00    -0.264 OA
BRANCH   7   9
HETATM    9  C8  UNL     1       3.379  -1.178   0.817  1.00  0.00     0.194 C 
BRANCH   9  10
HETATM   10  S1  UNL     1       2.860   0.224  -0.205  1.00  0.00    -0.075 SA
BRANCH  10  11
HETATM   11  C7  UNL     1       1.076   0.152  -0.476  1.00  0.00     0.203 A 
HETATM   12  N3  UNL     1       0.347   1.028  -1.187  1.00  0.00    -0.272 N 
HETATM   13  N2  UNL     1      -0.911   0.638  -1.153  1.00  0.00    -0.279 N 
ATOM     14  H3  UNL     1       0.705   1.852  -1.670  1.00  0.00     0.189 HD
HETATM   15  C6  UNL     1      -0.993  -0.487  -0.422  1.00  0.00     0.170 A 
ATOM     16  H2  UNL     1      -1.693   1.111  -1.606  1.00  0.00     0.189 HD
HETATM   17  O4  UNL     1       0.230  -0.747  -0.031  1.00  0.00    -0.269 OA
BRANCH  15  18
HETATM   18  C5  UNL     1      -2.174  -1.309  -0.088  1.00  0.00     0.201 C 
HETATM   19  C4  UNL     1      -3.005  -0.639   0.966  1.00  0.00     0.068 C 
HETATM   20  C3  UNL     1      -4.221  -0.172   0.244  1.00  0.00     0.121 C 
HETATM   21  C14 UNL     1      -4.160  -0.877  -1.058  1.00  0.00     0.075 C 
HETATM   22  O5  UNL     1      -2.952  -1.492  -1.212  1.00  0.00    -0.365 OA
HETATM   23  C15 UNL     1      -4.374   0.041  -2.253  1.00  0.00     0.048 C 
HETATM   24  C16 UNL     1      -5.240  -1.961  -1.176  1.00  0.00     0.048 C 
BRANCH  20  25
HETATM   25  N1  UNL     1      -4.367   1.239   0.168  1.00  0.00    -0.354 N 
HETATM   26  C2  UNL     1      -5.443   1.988   0.692  1.00  0.00     0.214 C 
HETATM   27  C1  UNL     1      -5.546   3.461   0.585  1.00  0.00     0.117 C 
HETATM   28  O1  UNL     1      -6.377   1.390   1.286  1.00  0.00    -0.274 OA
ATOM     29  H1  UNL     1      -3.628   1.757  -0.308  1.00  0.00     0.163 HD
ENDBRANCH  20  25
ENDBRANCH  15  18
ENDBRANCH  10  11
ENDBRANCH   9  10
ENDBRANCH   7   9
ENDBRANCH   6   7
ENDBRANCH   1   6
TORSDOF 7
