REMARK  12 active torsions:
REMARK  status: ('A' for Active; 'I' for Inactive)
REMARK       I    between atoms: C1_2  and  N1_3 
REMARK    1  A    between atoms: C1_2  and  C4_17 
REMARK    2  A    between atoms: N1_3  and  S1_5 
REMARK    3  A    between atoms: S1_5  and  O4_8 
REMARK    4  A    between atoms: O4_8  and  C2_9 
REMARK    5  A    between atoms: C2_9  and  C3_10 
REMARK    6  A    between atoms: C3_10  and  O5_11 
REMARK    7  A    between atoms: C8_21  and  C9_22 
REMARK    8  A    between atoms: C9_22  and  N7_27 
REMARK    9  A    between atoms: N6_23  and  O6_25 
REMARK   10  A    between atoms: N7_27  and  N8_29 
REMARK   11  A    between atoms: N8_29  and  C10_31 
REMARK   12  A    between atoms: C14_38  and  S2_39 
ROOT
HETATM    1  C9  UNL     1       1.940  -3.012  -0.896  1.00  0.00     0.167 C 
HETATM    2  N6  UNL     1       2.463  -4.143  -1.143  1.00  0.00    -0.250 N 
ATOM      3  H6  UNL     1       3.338  -4.132  -1.668  1.00  0.00     0.196 HD
ENDROOT
BRANCH   1   4
HETATM    4  C8  UNL     1       0.699  -2.915  -0.159  1.00  0.00     0.080 A 
HETATM    5  C7  UNL     1       0.501  -3.668   0.965  1.00  0.00     0.033 A 
HETATM    6  C6  UNL     1      -0.679  -3.584   1.684  1.00  0.00     0.005 A 
HETATM    7  C5  UNL     1      -1.644  -2.704   1.211  1.00  0.00     0.035 A 
HETATM    8  C4  UNL     1      -1.439  -1.960   0.094  1.00  0.00     0.102 A 
HETATM    9  N10 UNL     1      -0.265  -2.086  -0.565  1.00  0.00    -0.349 N 
ATOM     10  H10 UNL     1      -0.110  -1.527  -1.404  1.00  0.00     0.166 HD
BRANCH   8  11
HETATM   11  C1  UNL     1      -2.421  -1.024  -0.431  1.00  0.00     0.283 C 
HETATM   12  O1  UNL     1      -2.172  -0.395  -1.518  1.00  0.00    -0.265 OA
HETATM   13  N1  UNL     1      -3.667  -0.751   0.193  1.00  0.00    -0.226 N 
ATOM     14  H1  UNL     1      -3.927  -1.215   1.063  1.00  0.00     0.184 HD
BRANCH  13  15
HETATM   15  S1  UNL     1      -4.728   0.379  -0.550  1.00  0.00     0.364 S 
HETATM   16  O2  UNL     1      -5.178  -0.176  -1.882  1.00  0.00    -0.175 OA
HETATM   17  O3  UNL     1      -4.007   1.682  -0.771  1.00  0.00    -0.175 OA
BRANCH  15  18
HETATM   18  O4  UNL     1      -6.019   0.698   0.450  1.00  0.00    -0.253 OA
BRANCH  18  19
HETATM   19  C2  UNL     1      -7.164   0.583  -0.304  1.00  0.00     0.270 C 
BRANCH  19  20
HETATM   20  C3  UNL     1      -8.443   0.875   0.432  1.00  0.00     0.260 C 
HETATM   21  N2  UNL     1      -8.527   2.212   0.959  1.00  0.00    -0.069 NA
HETATM   22  N3  UNL     1      -8.874   2.973  -0.151  1.00  0.00    -0.017 NA
HETATM   23  N4  UNL     1      -9.708   2.182  -0.904  1.00  0.00    -0.017 NA
HETATM   24  N5  UNL     1      -9.548   0.847  -0.540  1.00  0.00    -0.069 NA
BRANCH  20  25
HETATM   25  O5  UNL     1      -8.681  -0.067   1.429  1.00  0.00    -0.357 OA
ATOM     26  H5  UNL     1      -9.489   0.117   1.894  1.00  0.00     0.213 HD
ENDBRANCH  20  25
ENDBRANCH  19  20
ENDBRANCH  18  19
ENDBRANCH  15  18
ENDBRANCH  13  15
ENDBRANCH   8  11
ENDBRANCH   1   4
BRANCH   1  27
HETATM   27  N7  UNL     1       2.578  -1.781  -1.318  1.00  0.00    -0.279 N 
ATOM     28  H7  UNL     1       2.927  -1.652  -2.268  1.00  0.00     0.189 HD
BRANCH  27  29
HETATM   29  N8  UNL     1       2.687  -0.780  -0.348  1.00  0.00    -0.263 N 
ATOM     30  H8  UNL     1       1.904  -0.616   0.284  1.00  0.00     0.190 HD
BRANCH  29  31
HETATM   31  C10 UNL     1       3.740  -0.063  -0.230  1.00  0.00     0.246 A 
HETATM   32  N9  UNL     1       3.702   0.867   0.755  1.00  0.00    -0.287 N 
HETATM   33  C11 UNL     1       4.760   1.663   0.952  1.00  0.00     0.261 A 
ATOM     34  H9  UNL     1       2.873   0.960   1.342  1.00  0.00     0.172 HD
HETATM   35  O7  UNL     1       4.707   2.521   1.871  1.00  0.00    -0.267 OA
HETATM   36  C12 UNL     1       5.889   1.545   0.162  1.00  0.00     0.068 A 
HETATM   37  C13 UNL     1       6.997   2.345   0.332  1.00  0.00     0.046 A 
HETATM   38  C17 UNL     1       5.880   0.587  -0.823  1.00  0.00     0.095 A 
HETATM   39  C14 UNL     1       8.116   2.209  -0.476  1.00  0.00     0.081 A 
HETATM   40  C15 UNL     1       8.129   1.252  -1.475  1.00  0.00     0.029 A 
HETATM   41  C16 UNL     1       7.005   0.466  -1.618  1.00  0.00     0.040 A 
HETATM   42  O11 UNL     1       4.819  -0.160  -0.968  1.00  0.00    -0.277 OA
BRANCH  39  43
HETATM   43  S2  UNL     1       9.494   3.255  -0.211  1.00  0.00     0.137 S 
HETATM   44  O8  UNL     1      10.107   3.584  -1.547  1.00  0.00    -0.591 OA
HETATM   45  O9  UNL     1       8.953   4.537   0.385  1.00  0.00    -0.591 OA
HETATM   46  O10 UNL     1      10.552   2.494   0.816  1.00  0.00    -0.591 OA
ENDBRANCH  39  43
ENDBRANCH  29  31
ENDBRANCH  27  29
ENDBRANCH   1  27
BRANCH   2  47
HETATM   47  O6  UNL     1       1.993  -5.358  -0.790  1.00  0.00    -0.288 OA
ATOM     48  H6  UNL     1       2.384  -6.204  -0.975  1.00  0.00     0.244 HD
ENDBRANCH   2  47
TORSDOF 12
