REMARK  17 active torsions:
REMARK  status: ('A' for Active; 'I' for Inactive)
REMARK    1  A    between atoms: C1_2  and  C2_3 
REMARK    2  A    between atoms: C1_2  and  C17_29 
REMARK    3  A    between atoms: C2_3  and  N1_4 
REMARK    4  A    between atoms: N2_7  and  C5_8 
REMARK    5  A    between atoms: C5_8  and  C6_9 
REMARK    6  A    between atoms: C6_9  and  O2_10 
REMARK    7  A    between atoms: C6_9  and  C7_12 
REMARK    8  A    between atoms: C7_12  and  N3_13 
REMARK    9  A    between atoms: C9_15  and  O3_16 
REMARK   10  A    between atoms: C13_21  and  O4_22 
REMARK   11  A    between atoms: C17_29  and  N5_30 
REMARK   12  A    between atoms: C18_31  and  O6_32 
REMARK   13  A    between atoms: C21_36  and  O7_37 
REMARK   14  A    between atoms: C22_39  and  O8_40 
REMARK   15  A    between atoms: C23_42  and  O9_43 
REMARK   16  A    between atoms: C24_45  and  O10_46 
REMARK   17  A    between atoms: C25_48  and  O11_49 
ROOT
HETATM    1  C2  UNL     1      -0.972   0.709   2.019  1.00  0.00     0.138 C 
ENDROOT
BRANCH   1   2
HETATM    2  C1  UNL     1      -2.319   0.723   1.462  1.00  0.00     0.182 C 
HETATM    3  O1  UNL     1      -3.282   0.934   2.171  1.00  0.00    -0.290 OA
BRANCH   2   4
HETATM    4  C17 UNL     1      -2.568   0.481   0.022  1.00  0.00     0.217 C 
BRANCH   4   5
HETATM    5  N5  UNL     1      -4.009   0.425  -0.262  1.00  0.00    -0.300 N 
HETATM    6  C18 UNL     1      -4.875   1.367  -0.583  1.00  0.00     0.151 A 
HETATM    7  C19 UNL     1      -6.131   0.841  -0.765  1.00  0.00     0.009 A 
HETATM    8  C20 UNL     1      -6.033  -0.508  -0.542  1.00  0.00     0.035 A 
HETATM    9  C26 UNL     1      -7.301   1.666  -1.130  1.00  0.00     0.078 C 
HETATM   10  C21 UNL     1      -4.703  -0.750  -0.229  1.00  0.00     0.154 A 
HETATM   11  C22 UNL     1      -7.047  -1.593  -0.594  1.00  0.00     0.187 C 
HETATM   12  C23 UNL     1      -8.384  -0.961  -0.959  1.00  0.00     0.182 C 
HETATM   13  C24 UNL     1      -8.713   0.014   0.139  1.00  0.00     0.178 C 
HETATM   14  C25 UNL     1      -8.487   1.439  -0.230  1.00  0.00     0.153 C 
BRANCH   6  15
HETATM   15  O6  UNL     1      -4.554   2.709  -0.718  1.00  0.00    -0.345 OA
ATOM     16  H6  UNL     1      -5.178   3.387  -0.949  1.00  0.00     0.219 HD
ENDBRANCH   6  15
BRANCH  10  17
HETATM   17  O7  UNL     1      -4.189  -2.006   0.067  1.00  0.00    -0.345 OA
ATOM     18  H7  UNL     1      -4.672  -2.824   0.090  1.00  0.00     0.219 HD
ENDBRANCH  10  17
BRANCH  11  19
HETATM   19  O8  UNL     1      -6.688  -2.591  -1.468  1.00  0.00    -0.388 OA
ATOM     20  H8  UNL     1      -7.336  -3.285  -1.501  1.00  0.00     0.210 HD
ENDBRANCH  11  19
BRANCH  12  21
HETATM   21  O9  UNL     1      -9.365  -1.959  -1.020  1.00  0.00    -0.390 OA
ATOM     22  H9  UNL     1     -10.199  -1.565  -1.248  1.00  0.00     0.210 HD
ENDBRANCH  12  21
BRANCH  13  23
HETATM   23  O10 UNL     1     -10.087  -0.145   0.446  1.00  0.00    -0.390 OA
ATOM     24  H10 UNL     1     -10.295   0.471   1.139  1.00  0.00     0.210 HD
ENDBRANCH  13  23
BRANCH  14  25
HETATM   25  O11 UNL     1      -8.473   2.203   0.920  1.00  0.00    -0.393 OA
ATOM     26  H11 UNL     1      -8.329   3.112   0.685  1.00  0.00     0.210 HD
ENDBRANCH  14  25
ENDBRANCH   4   5
ENDBRANCH   2   4
ENDBRANCH   1   2
BRANCH   1  27
HETATM   27  N1  UNL     1       0.099   0.326   1.216  1.00  0.00    -0.383 N 
HETATM   28  C3  UNL     1       0.550   1.111   0.144  1.00  0.00     0.152 C 
HETATM   29  C4  UNL     1       2.051   0.952  -0.110  1.00  0.00     0.292 C 
HETATM   30  N2  UNL     1       2.430  -0.442  -0.022  1.00  0.00     0.094 N 
HETATM   31  C15 UNL     1       1.284  -1.322  -0.075  1.00  0.00     0.292 C 
HETATM   32  C16 UNL     1       0.436  -1.066   1.145  1.00  0.00     0.152 C 
BRANCH  30  33
HETATM   33  C5  UNL     1       3.279  -0.765   1.072  1.00  0.00     0.305 C 
BRANCH  33  34
HETATM   34  C6  UNL     1       4.685  -0.177   0.917  1.00  0.00     0.164 C 
BRANCH  34  35
HETATM   35  O2  UNL     1       5.377  -0.569   2.051  1.00  0.00    -0.392 OA
ATOM     36  H2  UNL     1       6.249  -0.204   1.955  1.00  0.00     0.210 HD
ENDBRANCH  34  35
BRANCH  34  37
HETATM   37  C7  UNL     1       5.308  -0.849  -0.311  1.00  0.00     0.166 C 
BRANCH  37  38
HETATM   38  N3  UNL     1       6.651  -0.362  -0.538  1.00  0.00    -0.304 N 
HETATM   39  C8  UNL     1       6.908   0.724  -1.298  1.00  0.00     0.134 A 
HETATM   40  C9  UNL     1       8.218   1.151  -1.486  1.00  0.00     0.108 A 
HETATM   41  C10 UNL     1       9.249   0.460  -0.891  1.00  0.00     0.081 A 
HETATM   42  C11 UNL     1      10.609   0.633  -0.893  1.00  0.00     0.037 A 
HETATM   43  N4  UNL     1       8.975  -0.617  -0.138  1.00  0.00    -0.241 N 
HETATM   44  C12 UNL     1      11.177  -0.360  -0.124  1.00  0.00     0.059 A 
HETATM   45  C13 UNL     1      10.124  -1.130   0.336  1.00  0.00     0.151 A 
HETATM   46  C14 UNL     1       7.679  -1.016   0.030  1.00  0.00     0.335 A 
HETATM   47  O5  UNL     1       7.452  -2.038   0.746  1.00  0.00    -0.246 OA
BRANCH  40  48
HETATM   48  O3  UNL     1       8.491   2.264  -2.264  1.00  0.00    -0.357 OA
ATOM     49  H3  UNL     1       9.386   2.556  -2.392  1.00  0.00     0.217 HD
ENDBRANCH  40  48
BRANCH  45  50
HETATM   50  O4  UNL     1      10.210  -2.255   1.156  1.00  0.00    -0.346 OA
ATOM     51  H4  UNL     1       9.487  -2.784   1.472  1.00  0.00     0.219 HD
ENDBRANCH  45  50
ENDBRANCH  37  38
ENDBRANCH  34  37
ENDBRANCH  33  34
ENDBRANCH  30  33
ENDBRANCH   1  27
TORSDOF 17
