REMARK  14 active torsions:
REMARK  status: ('A' for Active; 'I' for Inactive)
REMARK    1  A    between atoms: N1_1  and  C1_4 
REMARK    2  A    between atoms: C2_7  and  N3_8 
REMARK    3  A    between atoms: C5_15  and  C6_16 
REMARK    4  A    between atoms: C6_16  and  N5_17 
REMARK    5  A    between atoms: N8_24  and  N9_25 
REMARK    6  A    between atoms: N9_25  and  C9_27 
REMARK    7  A    between atoms: C9_27  and  N10_29 
REMARK    8  A    between atoms: N10_29  and  C10_31 
REMARK    9  A    between atoms: C12_33  and  O2_34 
REMARK   10  A    between atoms: C14_37  and  N11_38 
REMARK   11  A    between atoms: C16_40  and  C17_41 
REMARK   12  A    between atoms: C17_41  and  O3_42 
REMARK   13  A    between atoms: C18_48  and  C19_49 
REMARK   14  A    between atoms: C19_49  and  O4_50 
ROOT
HETATM    1  N5  UNL     1       3.987   2.313  -0.385  1.00  0.00    -0.253 N 
HETATM    2  N6  UNL     1       4.154   3.023   0.717  1.00  0.00    -0.018 NA
HETATM    3  N7  UNL     1       3.044   3.028   1.433  1.00  0.00    -0.275 N 
ATOM      4  H7  UNL     1       2.908   3.502   2.326  1.00  0.00     0.184 HD
HETATM    5  C7  UNL     1       2.121   2.295   0.774  1.00  0.00     0.162 A 
HETATM    6  C8  UNL     1       0.796   1.955   1.037  1.00  0.00     0.299 A 
HETATM    7  O1  UNL     1       0.371   2.434   2.125  1.00  0.00    -0.263 OA
HETATM    8  N8  UNL     1       0.095   1.204   0.202  1.00  0.00    -0.201 N 
HETATM    9  C18 UNL     1       0.771   0.790  -0.931  1.00  0.00     0.132 A 
HETATM   10  N14 UNL     1       2.042   1.109  -1.196  1.00  0.00    -0.326 N 
ATOM     11  H14 UNL     1       2.486   0.773  -2.051  1.00  0.00     0.169 HD
HETATM   12  C20 UNL     1       2.721   1.860  -0.349  1.00  0.00     0.156 A 
ENDROOT
BRANCH   8  13
HETATM   13  N9  UNL     1      -1.196   0.847   0.394  1.00  0.00    -0.265 N 
ATOM     14  H9  UNL     1      -1.511   0.261  -0.379  1.00  0.00     0.190 HD
BRANCH  13  15
HETATM   15  C9  UNL     1      -2.229   1.021   1.302  1.00  0.00     0.187 C 
HETATM   16  S1  UNL     1      -2.169   1.895   2.637  1.00  0.00    -0.040 SA
BRANCH  15  17
HETATM   17  N10 UNL     1      -3.528   0.388   1.051  1.00  0.00    -0.359 N 
ATOM     18  H10 UNL     1      -3.642  -0.163   0.200  1.00  0.00     0.162 HD
BRANCH  17  19
HETATM   19  C10 UNL     1      -4.627   0.504   1.928  1.00  0.00     0.111 C 
HETATM   20  C11 UNL     1      -4.365  -0.264   3.198  1.00  0.00     0.059 C 
HETATM   21  C12 UNL     1      -4.700  -1.700   2.762  1.00  0.00     0.122 C 
HETATM   22  C13 UNL     1      -5.613  -1.595   1.579  1.00  0.00     0.061 C 
HETATM   23  C14 UNL     1      -5.882  -0.139   1.441  1.00  0.00     0.134 C 
BRANCH  21  24
HETATM   24  O2  UNL     1      -5.293  -2.358   3.833  1.00  0.00    -0.395 OA
ATOM     25  H2  UNL     1      -5.500  -3.245   3.564  1.00  0.00     0.210 HD
ENDBRANCH  21  24
BRANCH  23  26
HETATM   26  N11 UNL     1      -6.271   0.259   0.114  1.00  0.00    -0.280 N 
HETATM   27  C15 UNL     1      -7.367  -0.222  -0.497  1.00  0.00     0.140 A 
HETATM   28  C16 UNL     1      -7.470   0.345  -1.749  1.00  0.00     0.067 A 
HETATM   29  N12 UNL     1      -6.410   1.172  -1.864  1.00  0.00    -0.287 N 
HETATM   30  N13 UNL     1      -5.725   1.090  -0.735  1.00  0.00    -0.240 N 
ATOM     31  H12 UNL     1      -6.180   1.752  -2.671  1.00  0.00     0.188 HD
ATOM     32  H13 UNL     1      -4.870   1.614  -0.549  1.00  0.00     0.208 HD
BRANCH  28  33
HETATM   33  C17 UNL     1      -8.539   0.096  -2.777  1.00  0.00     0.224 C 
BRANCH  33  34
HETATM   34  O3  UNL     1      -8.080  -0.994  -3.550  1.00  0.00    -0.395 OA
ATOM     35  H3  UNL     1      -8.755  -1.151  -4.199  1.00  0.00     0.209 HD
ENDBRANCH  33  34
ENDBRANCH  28  33
ENDBRANCH  23  26
ENDBRANCH  17  19
ENDBRANCH  15  17
ENDBRANCH  13  15
ENDBRANCH   8  13
BRANCH   9  36
HETATM   36  C19 UNL     1       0.068  -0.062  -1.916  1.00  0.00     0.242 C 
BRANCH  36  37
HETATM   37  O4  UNL     1      -0.756   0.764  -2.681  1.00  0.00    -0.393 OA
ATOM     38  H4  UNL     1      -1.207   0.217  -3.313  1.00  0.00     0.209 HD
ENDBRANCH  36  37
ENDBRANCH   9  36
BRANCH   1  39
HETATM   39  C6  UNL     1       4.992   2.106  -1.379  1.00  0.00     0.207 C 
BRANCH  39  40
HETATM   40  C5  UNL     1       5.842   0.925  -1.176  1.00  0.00     0.046 A 
HETATM   41  C4  UNL     1       5.472  -0.295  -1.706  1.00  0.00     0.115 A 
HETATM   42  N4  UNL     1       6.223  -1.404  -1.546  1.00  0.00    -0.358 N 
HETATM   43  C3  UNL     1       7.369  -1.362  -0.858  1.00  0.00     0.121 A 
ATOM     44  H4  UNL     1       5.913  -2.286  -1.955  1.00  0.00     0.165 HD
HETATM   45  C2  UNL     1       8.141  -2.506  -0.695  1.00  0.00     0.145 A 
HETATM   46  C21 UNL     1       7.755  -0.150  -0.320  1.00  0.00     0.152 A 
HETATM   47  N2  UNL     1       9.291  -2.444  -0.001  1.00  0.00    -0.175 N 
HETATM   48  C1  UNL     1       9.660  -1.260   0.520  1.00  0.00     0.679 A 
ATOM     49  H2  UNL     1       9.869  -3.274   0.127  1.00  0.00     0.186 HD
HETATM   50  N16 UNL     1       8.912  -0.131   0.367  1.00  0.00    -0.174 N 
ATOM     51  H16 UNL     1       9.235   0.744   0.780  1.00  0.00     0.186 HD
HETATM   52  N15 UNL     1       7.005   0.956  -0.481  1.00  0.00    -0.341 N 
ATOM     53  H15 UNL     1       7.319   1.836  -0.071  1.00  0.00     0.167 HD
BRANCH  45  54
HETATM   54  N3  UNL     1       7.791  -3.644  -1.193  1.00  0.00    -0.383 N 
ATOM     55  H32 UNL     1       8.358  -4.484  -1.073  1.00  0.00     0.157 HD
ATOM     56  H31 UNL     1       6.919  -3.691  -1.719  1.00  0.00     0.157 HD
ENDBRANCH  45  54
BRANCH  48  57
HETATM   57  N1  UNL     1      10.772  -1.236   1.182  1.00  0.00    -0.234 N 
ATOM     58  H12 UNL     1      11.332  -2.081   1.297  1.00  0.00     0.174 HD
ATOM     59  H11 UNL     1      11.052  -0.338   1.577  1.00  0.00     0.174 HD
ENDBRANCH  48  57
ENDBRANCH  39  40
ENDBRANCH   1  39
TORSDOF 14
