REMARK  6 active torsions:
REMARK  status: ('A' for Active; 'I' for Inactive)
REMARK    1  A    between atoms: C2_2  and  O1_3 
REMARK    2  A    between atoms: C2_2  and  C3_5 
REMARK    3  A    between atoms: C3_5  and  N1_6 
REMARK    4  A    between atoms: C6_16  and  C7_17 
REMARK    5  A    between atoms: C8_20  and  N7_21 
REMARK    6  A    between atoms: N7_21  and  C9_23 
ROOT
HETATM    1  C9  UNL     1      -0.561   1.757  -1.496  1.00  0.00     0.183 C 
HETATM    2  C10 UNL     1       0.638   2.262  -2.256  1.00  0.00     0.105 C 
HETATM    3  N8  UNL     1       1.536   2.660  -2.842  1.00  0.00    -0.191 NA
ENDROOT
BRANCH   1   4
HETATM    4  N7  UNL     1      -0.224   0.875  -0.505  1.00  0.00    -0.354 N 
ATOM      5  H7  UNL     1       0.772   0.943  -0.295  1.00  0.00     0.166 HD
BRANCH   4   6
HETATM    6  C8  UNL     1      -0.755   0.024   0.211  1.00  0.00     0.081 A 
HETATM    7  C6  UNL     1      -2.076  -0.367   0.239  1.00  0.00     0.070 A 
HETATM    8  C5  UNL     1      -2.529  -1.344   1.144  1.00  0.00     0.133 A 
HETATM    9  N4  UNL     1      -1.668  -1.901   1.988  1.00  0.00    -0.327 N 
HETATM   10  N5  UNL     1      -3.905  -1.671   1.087  1.00  0.00    -0.082 NA
HETATM   11  C4  UNL     1      -0.379  -1.578   2.022  1.00  0.00     0.153 A 
ATOM     12  H4  UNL     1      -2.011  -2.608   2.639  1.00  0.00     0.168 HD
HETATM   13  N3  UNL     1       0.672  -1.977   2.774  1.00  0.00    -0.269 N 
HETATM   14  C11 UNL     1       0.123  -0.622   1.152  1.00  0.00     0.125 A 
HETATM   15  N2  UNL     1       1.722  -1.318   2.390  1.00  0.00    -0.238 N 
ATOM     16  H3  UNL     1       0.644  -2.676   3.516  1.00  0.00     0.190 HD
HETATM   17  N1  UNL     1       1.421  -0.466   1.381  1.00  0.00    -0.270 N 
ATOM     18  H2  UNL     1       2.652  -1.427   2.795  1.00  0.00     0.208 HD
BRANCH   7  19
HETATM   19  C7  UNL     1      -3.039   0.215  -0.663  1.00  0.00     0.129 C 
HETATM   20  N6  UNL     1      -3.662   1.450  -0.474  1.00  0.00    -0.089 NA
HETATM   21  S1  UNL     1      -3.456  -0.701  -1.977  1.00  0.00    -0.063 SA
ENDBRANCH   7  19
BRANCH  17  22
HETATM   22  C3  UNL     1       2.414   0.359   0.734  1.00  0.00     0.182 C 
BRANCH  22  23
HETATM   23  C2  UNL     1       3.207  -0.375  -0.329  1.00  0.00     0.134 C 
HETATM   24  C1  UNL     1       4.222   0.549  -0.980  1.00  0.00     0.041 C 
BRANCH  23  25
HETATM   25  O1  UNL     1       2.473  -0.980  -1.312  1.00  0.00    -0.394 OA
ATOM     26  H1  UNL     1       1.838  -1.558  -0.905  1.00  0.00     0.210 HD
ENDBRANCH  23  25
ENDBRANCH  22  23
ENDBRANCH  17  22
ENDBRANCH   4   6
ENDBRANCH   1   4
TORSDOF 6
