REMARK  5 active torsions:
REMARK  status: ('A' for Active; 'I' for Inactive)
REMARK    1  A    between atoms: N1_4  and  N2_6 
REMARK    2  A    between atoms: N2_6  and  C4_8 
REMARK    3  A    between atoms: C8_17  and  N5_18 
REMARK    4  A    between atoms: N6_20  and  N7_22 
REMARK    5  A    between atoms: N7_22  and  S1_24 
ROOT
HETATM    1  C4  UNL     1      -0.714  -0.736   1.005  1.00  0.00     0.154 A 
HETATM    2  N3  UNL     1      -1.601  -0.647   2.007  1.00  0.00    -0.291 N 
ATOM      3  H3  UNL     1      -2.596  -0.547   1.808  1.00  0.00     0.172 HD
HETATM    4  C5  UNL     1      -1.162  -0.691   3.274  1.00  0.00     0.326 A 
HETATM    5  O1  UNL     1      -1.995  -0.608   4.222  1.00  0.00    -0.247 OA
HETATM    6  N4  UNL     1       0.168  -0.824   3.530  1.00  0.00    -0.310 N 
ATOM      7  H4  UNL     1       0.488  -0.856   4.498  1.00  0.00     0.170 HD
HETATM    8  C6  UNL     1       1.069  -0.914   2.539  1.00  0.00     0.042 A 
HETATM    9  C7  UNL     1       2.496  -1.056   2.905  1.00  0.00     0.071 C 
HETATM   10  C8  UNL     1       0.646  -0.872   1.229  1.00  0.00     0.117 A 
ENDROOT
BRANCH  10  11
HETATM   11  N5  UNL     1       1.554  -0.962   0.144  1.00  0.00    -0.280 N 
HETATM   12  N6  UNL     1       1.958   0.055  -0.497  1.00  0.00    -0.231 N 
ATOM     13  H6  UNL     1       1.608   0.969  -0.210  1.00  0.00     0.209 HD
ATOM     14  H5  UNL     1       1.896  -1.882  -0.132  1.00  0.00     0.188 HD
BRANCH  12  15
HETATM   15  N7  UNL     1       2.838   0.005  -1.555  1.00  0.00    -0.193 N 
ATOM     16  H7  UNL     1       3.040  -0.875  -2.030  1.00  0.00     0.204 HD
BRANCH  15  17
HETATM   17  S1  UNL     1       3.598   1.496  -2.059  1.00  0.00     0.224 S 
HETATM   18  O2  UNL     1       3.795   2.396  -0.869  1.00  0.00    -0.577 OA
HETATM   19  O3  UNL     1       4.968   1.217  -2.630  1.00  0.00    -0.577 OA
HETATM   20  O4  UNL     1       2.684   2.260  -3.214  1.00  0.00    -0.577 OA
ENDBRANCH  15  17
ENDBRANCH  12  15
ENDBRANCH  10  11
BRANCH   1  21
HETATM   21  N2  UNL     1      -1.119  -0.696  -0.210  1.00  0.00    -0.284 N 
ATOM     22  H2  UNL     1      -0.451  -0.763  -0.978  1.00  0.00     0.188 HD
BRANCH  21  23
HETATM   23  N1  UNL     1      -2.476  -0.561  -0.470  1.00  0.00    -0.308 N 
HETATM   24  C2  UNL     1      -2.970   0.065  -1.462  1.00  0.00    -0.004 C 
HETATM   25  C1  UNL     1      -2.074   0.717  -2.446  1.00  0.00     0.064 C 
HETATM   26  C3  UNL     1      -4.440   0.152  -1.651  1.00  0.00     0.064 C 
ATOM     27  H1  UNL     1      -3.127  -0.997   0.184  1.00  0.00     0.186 HD
ENDBRANCH  21  23
ENDBRANCH   1  21
TORSDOF 5
