REMARK  6 active torsions:
REMARK  status: ('A' for Active; 'I' for Inactive)
REMARK    1  A    between atoms: C2_9  and  S1_10 
REMARK    2  A    between atoms: S1_10  and  C3_11 
REMARK    3  A    between atoms: C3_11  and  C4_12 
REMARK    4  A    between atoms: C4_12  and  N5_13 
REMARK    5  A    between atoms: N5_13  and  C5_15 
REMARK    6  A    between atoms: C8_22  and  N8_23 
ROOT
HETATM    1  C5  UNL     1      -1.507   1.062   0.307  1.00  0.00     0.136 A 
HETATM    2  N6  UNL     1      -2.096   2.244   0.704  1.00  0.00    -0.337 N 
ATOM      3  H6  UNL     1      -1.518   3.083   0.764  1.00  0.00     0.168 HD
HETATM    4  C6  UNL     1      -3.394   2.335   1.013  1.00  0.00     0.182 A 
HETATM    5  N7  UNL     1      -4.237   1.293   0.967  1.00  0.00    -0.347 N 
ATOM      6  H7  UNL     1      -5.223   1.394   1.209  1.00  0.00     0.167 HD
HETATM    7  C7  UNL     1      -3.726   0.111   0.588  1.00  0.00     0.110 A 
HETATM    8  C8  UNL     1      -4.329  -1.129   0.444  1.00  0.00     0.143 A 
HETATM    9  N9  UNL     1      -3.345  -1.946   0.040  1.00  0.00    -0.283 N 
ATOM     10  H9  UNL     1      -3.462  -2.940  -0.157  1.00  0.00     0.188 HD
HETATM   11  N10 UNL     1      -2.185  -1.279  -0.070  1.00  0.00    -0.293 N 
ATOM     12  H10 UNL     1      -1.295  -1.682  -0.361  1.00  0.00     0.187 HD
HETATM   13  C9  UNL     1      -2.385  -0.010   0.262  1.00  0.00     0.123 A 
ENDROOT
BRANCH   1  14
HETATM   14  N5  UNL     1      -0.299   1.084   0.045  1.00  0.00    -0.353 N 
ATOM     15  H5  UNL     1       0.025   2.040   0.189  1.00  0.00     0.166 HD
BRANCH  14  16
HETATM   16  C4  UNL     1       0.780   0.345  -0.360  1.00  0.00     0.073 C 
BRANCH  16  17
HETATM   17  C3  UNL     1       1.160   0.470  -1.823  1.00  0.00     0.127 C 
BRANCH  17  18
HETATM   18  S1  UNL     1       2.602  -0.580  -2.119  1.00  0.00    -0.086 SA
BRANCH  18  19
HETATM   19  C2  UNL     1       4.037  -0.002  -1.258  1.00  0.00     0.178 A 
HETATM   20  N1  UNL     1       4.499  -0.321  -0.051  1.00  0.00    -0.259 N 
HETATM   21  C1  UNL     1       3.915  -1.290   0.880  1.00  0.00     0.181 C 
HETATM   22  N2  UNL     1       5.590   0.396   0.131  1.00  0.00    -0.224 N 
HETATM   23  N3  UNL     1       5.828   1.155  -0.923  1.00  0.00    -0.226 N 
ATOM     24  H2  UNL     1       6.170   0.368   0.970  1.00  0.00     0.210 HD
HETATM   25  N4  UNL     1       4.884   0.924  -1.789  1.00  0.00    -0.263 N 
ATOM     26  H3  UNL     1       6.608   1.803  -1.037  1.00  0.00     0.210 HD
ATOM     27  H4  UNL     1       4.794   1.361  -2.706  1.00  0.00     0.190 HD
ENDBRANCH  18  19
ENDBRANCH  17  18
ENDBRANCH  16  17
ENDBRANCH  14  16
ENDBRANCH   1  14
BRANCH   8  28
HETATM   28  N8  UNL     1      -5.569  -1.414   0.659  1.00  0.00    -0.383 N 
ATOM     29  H82 UNL     1      -6.317  -0.793   0.966  1.00  0.00     0.157 HD
ATOM     30  H81 UNL     1      -6.013  -2.326   0.553  1.00  0.00     0.157 HD
ENDBRANCH   8  28
TORSDOF 6
