REMARK  5 active torsions:
REMARK  status: ('A' for Active; 'I' for Inactive)
REMARK    1  A    between atoms: N2_6  and  C5_7 
REMARK    2  A    between atoms: C9_13  and  N4_14 
REMARK    3  A    between atoms: N4_14  and  O1_16 
REMARK    4  A    between atoms: C13_21  and  N5_22 
REMARK    5  A    between atoms: N5_22  and  C14_25 
ROOT
HETATM    1  C5  UNL     1       2.633  -0.216   0.139  1.00  0.00     0.133 A 
HETATM    2  N3  UNL     1       1.726  -1.161   0.536  1.00  0.00    -0.350 N 
ATOM      3  H3  UNL     1       2.046  -1.946   1.104  1.00  0.00     0.166 HD
HETATM    4  C6  UNL     1       0.431  -1.087   0.202  1.00  0.00     0.099 A 
HETATM    5  C7  UNL     1      -0.021  -0.028  -0.568  1.00  0.00    -0.004 A 
HETATM    6  C8  UNL     1       0.910   0.915  -0.961  1.00  0.00    -0.016 A 
HETATM    7  C9  UNL     1       2.252   0.863  -0.630  1.00  0.00     0.105 A 
HETATM    8  C10 UNL     1       0.394   2.026  -1.778  1.00  0.00     0.042 C 
HETATM    9  C11 UNL     1      -0.826   2.543  -1.046  1.00  0.00     0.007 C 
HETATM   10  C12 UNL     1      -1.903   1.531  -0.977  1.00  0.00     0.038 C 
HETATM   11  C13 UNL     1      -1.480   0.095  -0.935  1.00  0.00     0.223 C 
ENDROOT
BRANCH  11  12
HETATM   12  N5  UNL     1      -2.176  -0.641   0.113  1.00  0.00    -0.041 N 
ATOM     13  H52 UNL     1      -1.810  -1.590   0.191  1.00  0.00     0.281 HD
ATOM     14  H51 UNL     1      -1.921  -0.284   1.034  1.00  0.00     0.281 HD
BRANCH  12  15
HETATM   15  C14 UNL     1      -3.602  -0.659  -0.047  1.00  0.00     0.322 C 
HETATM   16  C15 UNL     1      -4.251  -1.890   0.518  1.00  0.00     0.066 C 
HETATM   17  C16 UNL     1      -5.724  -1.946   0.172  1.00  0.00    -0.008 C 
HETATM   18  C17 UNL     1      -6.575  -0.986   0.921  1.00  0.00     0.005 C 
HETATM   19  C21 UNL     1      -5.936  -1.662  -1.320  1.00  0.00     0.037 C 
HETATM   20  C18 UNL     1      -6.582   0.422   0.490  1.00  0.00     0.003 C 
HETATM   21  C19 UNL     1      -5.911   0.783  -0.776  1.00  0.00     0.032 C 
HETATM   22  C20 UNL     1      -5.302  -0.321  -1.569  1.00  0.00     0.124 C 
HETATM   23  O2  UNL     1      -3.921  -0.460  -1.378  1.00  0.00    -0.354 OA
ENDBRANCH  12  15
ENDBRANCH  11  12
BRANCH   7  24
HETATM   24  N4  UNL     1       3.195   1.827  -1.026  1.00  0.00    -0.265 N 
ATOM     25  H4  UNL     1       3.741   2.246  -0.273  1.00  0.00     0.194 HD
BRANCH  24  26
HETATM   26  O1  UNL     1       3.449   2.231  -2.152  1.00  0.00    -0.289 OA
ATOM     27  H1  UNL     1       4.086   2.883  -2.420  1.00  0.00     0.244 HD
ENDBRANCH  24  26
ENDBRANCH   7  24
BRANCH   1  28
HETATM   28  N2  UNL     1       3.971  -0.442   0.601  1.00  0.00    -0.364 N 
HETATM   29  C4  UNL     1       4.003  -0.533   2.043  1.00  0.00     0.126 C 
HETATM   30  C3  UNL     1       5.291  -0.933   2.648  1.00  0.00     0.050 C 
HETATM   31  C2  UNL     1       6.268  -1.623   1.766  1.00  0.00     0.273 C 
HETATM   32  N1  UNL     1       7.012  -0.694   0.980  1.00  0.00     0.085 N 
HETATM   33  C1  UNL     1       8.017  -1.286   0.159  1.00  0.00     0.309 C 
HETATM   34  C23 UNL     1       6.218   0.223   0.226  1.00  0.00     0.291 C 
HETATM   35  C22 UNL     1       5.034  -0.549  -0.357  1.00  0.00     0.154 C 
ENDBRANCH   1  28
TORSDOF 5
