REMARK  6 active torsions:
REMARK  status: ('A' for Active; 'I' for Inactive)
REMARK    1  A    between atoms: C2_2  and  C4_4 
REMARK    2  A    between atoms: C4_4  and  C5_5 
REMARK    3  A    between atoms: C5_5  and  O1_6 
REMARK    4  A    between atoms: O1_6  and  C6_7 
REMARK       I    between atoms: C6_7  and  N1_9 
REMARK    5  A    between atoms: N2_12  and  C9_13 
REMARK    6  A    between atoms: N4_27  and  O4_29 
ROOT
HETATM    1  C6  UNL     1       3.260  -0.698  -0.432  1.00  0.00     0.363 C 
HETATM    2  O2  UNL     1       3.671  -1.594   0.347  1.00  0.00    -0.238 OA
HETATM    3  N1  UNL     1       1.876  -0.678  -0.768  1.00  0.00    -0.315 N 
HETATM    4  C7  UNL     1       1.334   0.332  -1.663  1.00  0.00     0.149 C 
HETATM    5  C8  UNL     1       0.196   1.107  -1.004  1.00  0.00     0.152 C 
HETATM    6  N2  UNL     1      -0.769   0.094  -0.573  1.00  0.00    -0.312 N 
HETATM    7  C18 UNL     1      -0.446  -1.262  -0.430  1.00  0.00     0.128 C 
HETATM    8  N4  UNL     1      -1.369  -2.160  -0.476  1.00  0.00    -0.255 N 
ATOM      9  H4  UNL     1      -2.335  -1.864  -0.618  1.00  0.00     0.195 HD
HETATM   10  C19 UNL     1       0.978  -1.663  -0.224  1.00  0.00     0.155 C 
HETATM   11  C20 UNL     1       1.215  -1.902   1.248  1.00  0.00     0.041 C 
ENDROOT
BRANCH   6  12
HETATM   12  C9  UNL     1      -2.110   0.513  -0.284  1.00  0.00     0.153 A 
HETATM   13  N3  UNL     1      -3.128  -0.226   0.114  1.00  0.00    -0.339 N 
HETATM   14  C10 UNL     1      -4.285   0.329   0.331  1.00  0.00     0.033 A 
ATOM     15  H3  UNL     1      -3.009  -1.230   0.251  1.00  0.00     0.168 HD
HETATM   16  C11 UNL     1      -4.392   1.681   0.131  1.00  0.00     0.076 A 
HETATM   17  C17 UNL     1      -5.554  -0.374   0.788  1.00  0.00     0.067 C 
HETATM   18  S1  UNL     1      -2.803   2.071  -0.362  1.00  0.00    -0.048 SA
HETATM   19  C12 UNL     1      -5.662   2.411   0.349  1.00  0.00     0.169 C 
HETATM   20  O3  UNL     1      -5.576   3.670   0.349  1.00  0.00    -0.292 OA
HETATM   21  C13 UNL     1      -6.956   1.709   0.556  1.00  0.00     0.093 C 
HETATM   22  C14 UNL     1      -6.737   0.275   0.119  1.00  0.00    -0.036 C 
HETATM   23  C15 UNL     1      -7.967  -0.503   0.541  1.00  0.00     0.015 C 
HETATM   24  C16 UNL     1      -6.662   0.234  -1.378  1.00  0.00     0.015 C 
ENDBRANCH   6  12
BRANCH   8  25
HETATM   25  O4  UNL     1      -1.101  -3.502  -0.341  1.00  0.00    -0.288 OA
ATOM     26  H4  UNL     1      -1.781  -4.164  -0.375  1.00  0.00     0.244 HD
ENDBRANCH   8  25
BRANCH   1  27
HETATM   27  O1  UNL     1       4.169   0.200  -0.906  1.00  0.00    -0.304 OA
BRANCH  27  28
HETATM   28  C5  UNL     1       5.541   0.270  -0.635  1.00  0.00     0.181 C 
BRANCH  28  29
HETATM   29  C4  UNL     1       5.800   0.503   0.815  1.00  0.00     0.031 C 
BRANCH  29  30
HETATM   30  C2  UNL     1       7.288   0.590   1.121  1.00  0.00    -0.021 C 
HETATM   31  C1  UNL     1       7.929   1.726   0.358  1.00  0.00     0.009 C 
HETATM   32  C3  UNL     1       8.007  -0.672   0.766  1.00  0.00     0.009 C 
ENDBRANCH  29  30
ENDBRANCH  28  29
ENDBRANCH  27  28
ENDBRANCH   1  27
TORSDOF 6
