REMARK  5 active torsions:
REMARK  status: ('A' for Active; 'I' for Inactive)
REMARK    1  A    between atoms: C5_5  and  C6_6 
REMARK       I    between atoms: C6_6  and  N1_8 
REMARK    2  A    between atoms: N1_8  and  C7_10 
REMARK    3  A    between atoms: C14_19  and  N3_20 
REMARK    4  A    between atoms: C21_28  and  N4_29 
REMARK    5  A    between atoms: N4_29  and  O4_31 
ROOT
HETATM    1  C7  UNL     1      -0.534  -0.334  -1.156  1.00  0.00     0.087 A 
HETATM    2  C8  UNL     1      -0.347  -0.467  -2.512  1.00  0.00     0.074 A 
HETATM    3  C9  UNL     1      -1.502  -0.701  -3.317  1.00  0.00     0.102 C 
HETATM    4  N2  UNL     1      -2.423  -0.891  -3.984  1.00  0.00    -0.191 NA
HETATM    5  C10 UNL     1       0.923  -0.373  -3.046  1.00  0.00     0.043 A 
HETATM    6  C11 UNL     1       2.006  -0.142  -2.192  1.00  0.00     0.052 A 
HETATM    7  C12 UNL     1       3.259  -0.049  -2.727  1.00  0.00     0.189 A 
HETATM    8  O2  UNL     1       3.400  -0.175  -3.968  1.00  0.00    -0.287 OA
HETATM    9  C13 UNL     1       4.312   0.179  -1.867  1.00  0.00     0.112 A 
HETATM   10  C14 UNL     1       4.075   0.307  -0.496  1.00  0.00     0.150 A 
HETATM   11  O3  UNL     1       2.857   0.213  -0.018  1.00  0.00    -0.290 OA
HETATM   12  C20 UNL     1       1.848  -0.004  -0.829  1.00  0.00     0.122 A 
HETATM   13  C21 UNL     1       0.552  -0.105  -0.325  1.00  0.00     0.117 A 
ENDROOT
BRANCH   1  14
HETATM   14  N1  UNL     1      -1.826  -0.431  -0.621  1.00  0.00    -0.323 N 
HETATM   15  C6  UNL     1      -2.487  -1.562  -0.169  1.00  0.00     0.226 C 
HETATM   16  O1  UNL     1      -1.898  -2.668  -0.224  1.00  0.00    -0.273 OA
ATOM     17  H1  UNL     1      -2.347   0.444  -0.556  1.00  0.00     0.169 HD
BRANCH  15  18
HETATM   18  C5  UNL     1      -3.855  -1.536   0.376  1.00  0.00     0.078 C 
HETATM   19  C4  UNL     1      -4.870  -1.014  -0.617  1.00  0.00     0.014 C 
HETATM   20  C3  UNL     1      -6.216  -1.024   0.121  1.00  0.00     0.005 C 
HETATM   21  C2  UNL     1      -6.208   0.260   0.959  1.00  0.00    -0.019 C 
HETATM   22  C1  UNL     1      -6.682   1.370   0.038  1.00  0.00     0.010 C 
HETATM   23  C23 UNL     1      -4.787   0.574   1.376  1.00  0.00     0.005 C 
HETATM   24  C22 UNL     1      -3.973  -0.673   1.611  1.00  0.00     0.014 C 
ENDBRANCH  15  18
ENDBRANCH   1  14
BRANCH  13  25
HETATM   25  N4  UNL     1       0.360   0.033   1.085  1.00  0.00    -0.264 N 
ATOM     26  H4  UNL     1       0.190   0.943   1.514  1.00  0.00     0.194 HD
BRANCH  25  27
HETATM   27  O4  UNL     1       0.410  -1.018   1.772  1.00  0.00    -0.289 OA
ATOM     28  H4  UNL     1       0.282  -0.926   2.709  1.00  0.00     0.244 HD
ENDBRANCH  25  27
ENDBRANCH  13  25
BRANCH  10  29
HETATM   29  N3  UNL     1       5.207   0.540   0.319  1.00  0.00    -0.356 N 
HETATM   30  C15 UNL     1       5.146   0.699   1.767  1.00  0.00     0.130 C 
HETATM   31  C16 UNL     1       6.606   0.942   2.018  1.00  0.00     0.007 C 
HETATM   32  C17 UNL     1       7.250  -0.123   1.130  1.00  0.00     0.031 C 
HETATM   33  C19 UNL     1       6.954   1.901   0.873  1.00  0.00     0.031 C 
HETATM   34  C18 UNL     1       6.590   0.675   0.019  1.00  0.00     0.087 C 
ENDBRANCH  10  29
TORSDOF 5
