REMARK  8 active torsions:
REMARK  status: ('A' for Active; 'I' for Inactive)
REMARK    1  A    between atoms: C2_2  and  C3_3 
REMARK    2  A    between atoms: C3_3  and  C4_4 
REMARK    3  A    between atoms: C5_5  and  C6_6 
REMARK    4  A    between atoms: C6_6  and  C7_7 
REMARK       I    between atoms: C7_7  and  N1_9 
REMARK    5  A    between atoms: C11_14  and  O2_15 
REMARK    6  A    between atoms: C11_14  and  C12_17 
REMARK    7  A    between atoms: C12_17  and  N2_18 
REMARK       I    between atoms: N2_18  and  C13_20 
REMARK       I    between atoms: C13_20  and  N3_22 
REMARK    8  A    between atoms: N3_22  and  C14_24 
ROOT
HETATM    1  C6  UNL     1      -1.736  -0.809  -0.338  1.00  0.00     0.105 C 
HETATM    2  C9  UNL     1      -1.012   0.254  -1.131  1.00  0.00     0.035 C 
HETATM    3  C10 UNL     1       0.492   0.127  -1.031  1.00  0.00     0.043 C 
HETATM    4  C11 UNL     1       0.886   0.418   0.402  1.00  0.00     0.090 C 
HETATM    5  C16 UNL     1      -0.089  -0.198   1.376  1.00  0.00     0.120 C 
HETATM    6 CL1  UNL     1       0.773  -0.839   2.783  1.00  0.00    -0.122 Cl
HETATM    7  C17 UNL     1      -0.794  -1.382   0.704  1.00  0.00     0.055 C 
ENDROOT
BRANCH   4   8
HETATM    8  O2  UNL     1       0.941   1.791   0.632  1.00  0.00    -0.387 OA
ATOM      9  H2  UNL     1       1.188   1.974   1.531  1.00  0.00     0.210 HD
ENDBRANCH   4   8
BRANCH   4  10
HETATM   10  C12 UNL     1       2.273  -0.180   0.602  1.00  0.00     0.163 C 
BRANCH  10  11
HETATM   11  N2  UNL     1       3.181   0.465  -0.356  1.00  0.00    -0.340 N 
HETATM   12  C13 UNL     1       4.551   0.112  -0.408  1.00  0.00     0.316 C 
HETATM   13  O3  UNL     1       4.965  -0.772   0.391  1.00  0.00    -0.247 OA
HETATM   14  N3  UNL     1       5.417   0.736  -1.332  1.00  0.00    -0.344 N 
ATOM     15  H3  UNL     1       5.065   1.448  -1.972  1.00  0.00     0.164 HD
ATOM     16  H2  UNL     1       2.820   1.176  -0.992  1.00  0.00     0.164 HD
BRANCH  14  17
HETATM   17  C14 UNL     1       6.815   0.349  -1.357  1.00  0.00     0.120 C 
HETATM   18  C15 UNL     1       7.445   0.621  -0.006  1.00  0.00     0.026 C 
ENDBRANCH  14  17
ENDBRANCH  10  11
ENDBRANCH   4  10
BRANCH   1  19
HETATM   19  C5  UNL     1      -2.819  -0.142   0.428  1.00  0.00    -0.087 C 
HETATM   20  C4  UNL     1      -3.686   0.415   1.055  1.00  0.00    -0.105 C 
BRANCH  20  21
HETATM   21  C3  UNL     1      -4.721   1.111   1.819  1.00  0.00     0.093 C 
BRANCH  21  22
HETATM   22  C2  UNL     1      -5.552   2.014   0.909  1.00  0.00     0.007 C 
HETATM   23  C1  UNL     1      -4.712   3.061   0.232  1.00  0.00     0.006 C 
ENDBRANCH  21  22
ENDBRANCH  20  21
ENDBRANCH   1  19
BRANCH   1  24
HETATM   24  C7  UNL     1      -2.283  -1.875  -1.194  1.00  0.00     0.238 C 
HETATM   25  O1  UNL     1      -2.140  -1.842  -2.433  1.00  0.00    -0.272 OA
HETATM   26  N1  UNL     1      -2.977  -2.949  -0.613  1.00  0.00    -0.364 N 
HETATM   27  C8  UNL     1      -3.556  -4.052  -1.355  1.00  0.00     0.149 C 
ATOM     28  H1  UNL     1      -3.081  -2.953   0.402  1.00  0.00     0.161 HD
ENDBRANCH   1  24
TORSDOF 8
