REMARK  7 active torsions:
REMARK  status: ('A' for Active; 'I' for Inactive)
REMARK    1  A    between atoms: C2_2  and  N1_4 
REMARK    2  A    between atoms: N1_4  and  C3_6 
REMARK    3  A    between atoms: C6_9  and  N2_10 
REMARK    4  A    between atoms: N2_10  and  C7_12 
REMARK    5  A    between atoms: C9_17  and  C10_18 
REMARK    6  A    between atoms: C10_18  and  C11_19 
REMARK    7  A    between atoms: C11_19  and  O1_20 
ROOT
HETATM    1  N2  UNL     1      -0.852   0.513   0.820  1.00  0.00    -0.221 N 
ATOM      2  H2  UNL     1      -0.956   0.829   1.784  1.00  0.00     0.178 HD
ENDROOT
BRANCH   1   3
HETATM    3  C6  UNL     1       0.475   0.344   0.382  1.00  0.00     0.099 C 
HETATM    4  C5  UNL     1       0.883  -1.042   0.015  1.00  0.00     0.028 C 
HETATM    5  C4  UNL     1       2.399  -1.096   0.017  1.00  0.00     0.027 C 
HETATM    6  C3  UNL     1       3.049  -0.027  -0.795  1.00  0.00     0.082 C 
HETATM    7  C13 UNL     1       2.417   1.338  -0.674  1.00  0.00     0.027 C 
HETATM    8  C12 UNL     1       0.886   1.251  -0.770  1.00  0.00     0.028 C 
BRANCH   6   9
HETATM    9  N1  UNL     1       4.439   0.066  -0.440  1.00  0.00    -0.380 N 
ATOM     10  H1  UNL     1       5.102  -0.114  -1.194  1.00  0.00     0.160 HD
BRANCH   9  11
HETATM   11  C2  UNL     1       5.000   0.371   0.802  1.00  0.00     0.069 C 
HETATM   12  C1  UNL     1       6.510   0.409   0.934  1.00  0.00     0.081 C 
HETATM   13  S1  UNL     1       4.205   0.709   2.183  1.00  0.00    -0.066 SA
ENDBRANCH   9  11
ENDBRANCH   6   9
ENDBRANCH   1   3
BRANCH   1  14
HETATM   14  C7  UNL     1      -1.935   0.330   0.191  1.00  0.00     0.679 A 
HETATM   15  N3  UNL     1      -2.173  -0.074  -1.064  1.00  0.00    -0.183 N 
HETATM   16  C8  UNL     1      -3.499  -0.125  -1.304  1.00  0.00     0.119 A 
ATOM     17  H3  UNL     1      -1.451  -0.310  -1.744  1.00  0.00     0.185 HD
HETATM   18 BR1  UNL     1      -4.300  -0.631  -2.977  1.00  0.00    -0.029 Br
HETATM   19  C9  UNL     1      -4.131   0.258  -0.165  1.00  0.00     0.063 A 
HETATM   20  N4  UNL     1      -3.149   0.529   0.729  1.00  0.00    -0.193 N 
ATOM     21  H4  UNL     1      -3.311   0.843   1.686  1.00  0.00     0.184 HD
BRANCH  19  22
HETATM   22  C10 UNL     1      -5.596   0.345   0.064  1.00  0.00     0.086 C 
BRANCH  22  23
HETATM   23  C11 UNL     1      -6.217  -0.990   0.346  1.00  0.00     0.170 C 
BRANCH  23  24
HETATM   24  O1  UNL     1      -6.056  -1.886  -0.670  1.00  0.00    -0.400 OA
ATOM     25  H1  UNL     1      -6.450  -2.732  -0.491  1.00  0.00     0.209 HD
ENDBRANCH  23  24
ENDBRANCH  22  23
ENDBRANCH  19  22
ENDBRANCH   1  14
TORSDOF 7
