REMARK  5 active torsions:
REMARK  status: ('A' for Active; 'I' for Inactive)
REMARK    1  A    between atoms: C8_9  and  N1_10 
REMARK       I    between atoms: N1_10  and  C9_12 
REMARK    2  A    between atoms: C9_12  and  C10_14 
REMARK    3  A    between atoms: C10_14  and  N2_15 
REMARK       I    between atoms: N2_15  and  C11_17 
REMARK       I    between atoms: C11_17  and  N3_19 
REMARK    4  A    between atoms: N3_19  and  C12_21 
REMARK    5  A    between atoms: C16_25  and  N4_26 
ROOT
HETATM    1  C10 UNL     1      -0.269  -2.076   0.552  1.00  0.00     0.115 A 
HETATM    2  C17 UNL     1      -0.399  -3.203  -0.563  1.00  0.00     0.044 A 
HETATM    3  C18 UNL     1      -0.386  -3.533   0.876  1.00  0.00     0.044 A 
ENDROOT
BRANCH   1   4
HETATM    4  C9  UNL     1      -1.489  -1.243   0.602  1.00  0.00     0.246 C 
HETATM    5  N1  UNL     1      -1.892  -0.299  -0.322  1.00  0.00    -0.352 N 
ATOM      6  H1  UNL     1      -1.259  -0.203  -1.116  1.00  0.00     0.163 HD
HETATM    7  O1  UNL     1      -2.204  -1.486   1.640  1.00  0.00    -0.271 OA
BRANCH   5   8
HETATM    8  C8  UNL     1      -3.015   0.560  -0.378  1.00  0.00     0.112 C 
HETATM    9  C2  UNL     1      -4.379   0.025  -0.518  1.00  0.00     0.058 C 
HETATM   10  C1  UNL     1      -4.707  -1.345  -0.092  1.00  0.00     0.035 C 
HETATM   11 CL1  UNL     1      -4.994   0.157  -2.229  1.00  0.00    -0.117 Cl
HETATM   12  C3  UNL     1      -5.202   1.081   0.224  1.00  0.00     0.011 C 
HETATM   13  C4  UNL     1      -4.938   2.403  -0.450  1.00  0.00     0.007 C 
HETATM   14  C7  UNL     1      -4.326   1.250   1.473  1.00  0.00     0.013 C 
HETATM   15  C5  UNL     1      -3.591   2.903   0.073  1.00  0.00     0.007 C 
HETATM   16  C6  UNL     1      -3.061   1.602   0.702  1.00  0.00     0.011 C 
ENDBRANCH   5   8
ENDBRANCH   1   4
BRANCH   1  17
HETATM   17  N2  UNL     1       1.056  -1.548   0.620  1.00  0.00    -0.325 N 
HETATM   18  C11 UNL     1       1.821  -0.689  -0.155  1.00  0.00     0.317 C 
HETATM   19  O2  UNL     1       1.420  -0.128  -1.183  1.00  0.00    -0.247 OA
HETATM   20  N3  UNL     1       3.179  -0.483   0.314  1.00  0.00    -0.336 N 
ATOM     21  H3  UNL     1       3.490  -0.955   1.163  1.00  0.00     0.164 HD
ATOM     22  H2  UNL     1       1.564  -1.885   1.438  1.00  0.00     0.165 HD
BRANCH  20  23
HETATM   23  C12 UNL     1       4.087   0.362  -0.384  1.00  0.00     0.116 C 
HETATM   24  C13 UNL     1       5.218  -0.541  -0.902  1.00  0.00     0.027 C 
HETATM   25  C14 UNL     1       6.460   0.259  -0.798  1.00  0.00     0.004 C 
HETATM   26  C15 UNL     1       6.078   1.616  -0.255  1.00  0.00     0.035 C 
HETATM   27  C16 UNL     1       4.821   1.305   0.532  1.00  0.00     0.206 C 
BRANCH  27  28
HETATM   28  N4  UNL     1       5.243   0.554   1.708  1.00  0.00    -0.073 N 
ATOM     29  H43 UNL     1       4.469   0.078   2.171  1.00  0.00     0.274 HD
ATOM     30  H42 UNL     1       5.791  -0.273   1.472  1.00  0.00     0.274 HD
ATOM     31  H41 UNL     1       5.740   1.193   2.329  1.00  0.00     0.274 HD
ENDBRANCH  27  28
ENDBRANCH  20  23
ENDBRANCH   1  17
TORSDOF 5
