REMARK  5 active torsions:
REMARK  status: ('A' for Active; 'I' for Inactive)
REMARK    1  A    between atoms: C7_8  and  C8_9 
REMARK    2  A    between atoms: C8_9  and  N1_10 
REMARK    3  A    between atoms: N1_10  and  C10_12 
REMARK    4  A    between atoms: C10_12  and  C11_13 
REMARK    5  A    between atoms: C15_23  and  N5_24 
REMARK       I    between atoms: N5_24  and  C16_26 
ROOT
HETATM    1  C1  UNL     1       6.058   3.210  -0.262  1.00  0.00     0.015 C 
HETATM    2  C2  UNL     1       5.445   2.279   0.219  1.00  0.00    -0.073 C 
HETATM    3  C3  UNL     1       4.709   1.183   0.810  1.00  0.00     0.165 C 
HETATM    4  F1  UNL     1       4.748   1.227   2.183  1.00  0.00    -0.229 F 
HETATM    5  C4  UNL     1       5.362  -0.125   0.336  1.00  0.00     0.057 C 
HETATM    6  C5  UNL     1       4.632  -1.208   1.084  1.00  0.00     0.004 C 
HETATM    7  C6  UNL     1       3.162  -1.290   0.676  1.00  0.00     0.006 C 
HETATM    8  C7  UNL     1       2.472   0.015   0.745  1.00  0.00     0.018 C 
HETATM    9  C18 UNL     1       3.327   1.177   0.252  1.00  0.00     0.063 C 
ENDROOT
BRANCH   8  10
HETATM   10  C8  UNL     1       1.187   0.103   0.007  1.00  0.00     0.277 C 
BRANCH  10  11
HETATM   11  N1  UNL     1       0.113  -0.767   0.379  1.00  0.00     0.088 N 
HETATM   12  C9  UNL     1       0.343  -2.138   0.010  1.00  0.00     0.310 C 
BRANCH  11  13
HETATM   13  C10 UNL     1      -1.163  -0.277  -0.062  1.00  0.00     0.313 C 
BRANCH  13  14
HETATM   14  C11 UNL     1      -2.322  -0.932   0.545  1.00  0.00     0.002 A 
HETATM   15  C12 UNL     1      -2.288  -1.887   1.540  1.00  0.00     0.097 A 
HETATM   16  N2  UNL     1      -3.396  -2.435   2.093  1.00  0.00    -0.372 N 
HETATM   17  C13 UNL     1      -4.637  -2.094   1.721  1.00  0.00     0.119 A 
ATOM     18  H2  UNL     1      -3.281  -3.137   2.824  1.00  0.00     0.164 HD
HETATM   19  C14 UNL     1      -4.747  -1.136   0.724  1.00  0.00     0.078 A 
HETATM   20  N3  UNL     1      -5.837  -0.587   0.144  1.00  0.00    -0.297 N 
HETATM   21  C17 UNL     1      -3.628  -0.578   0.160  1.00  0.00     0.048 A 
HETATM   22  N4  UNL     1      -5.435   0.293  -0.761  1.00  0.00    -0.284 N 
ATOM     23  H3  UNL     1      -6.807  -0.812   0.366  1.00  0.00     0.187 HD
HETATM   24  C15 UNL     1      -4.084   0.317  -0.771  1.00  0.00     0.135 A 
ATOM     25  H4  UNL     1      -6.044   0.859  -1.352  1.00  0.00     0.188 HD
BRANCH  24  26
HETATM   26  N5  UNL     1      -3.302   1.032  -1.505  1.00  0.00    -0.315 N 
HETATM   27  C16 UNL     1      -3.880   1.923  -2.438  1.00  0.00     0.187 C 
HETATM   28  N6  UNL     1      -4.624   1.542  -3.407  1.00  0.00    -0.373 N 
HETATM   29  N7  UNL     1      -3.633   3.317  -2.310  1.00  0.00    -0.064 NA
ATOM     30  H62 UNL     1      -4.801   0.542  -3.499  1.00  0.00     0.158 HD
ATOM     31  H61 UNL     1      -5.041   2.185  -4.080  1.00  0.00     0.158 HD
ATOM     32  H5  UNL     1      -2.289   0.957  -1.415  1.00  0.00     0.170 HD
ENDBRANCH  24  26
ENDBRANCH  13  14
ENDBRANCH  11  13
ENDBRANCH  10  11
ENDBRANCH   8  10
TORSDOF 5
