REMARK  2 active torsions:
REMARK  status: ('A' for Active; 'I' for Inactive)
REMARK    1  A    between atoms: O1_2  and  N1_3 
REMARK    2  A    between atoms: N1_3  and  C2_4 
ROOT
HETATM    1  C2  UNL     1       0.162  -0.521  -0.984  1.00  0.00     0.135 C 
HETATM    2  C3  UNL     1      -0.578  -1.458  -0.084  1.00  0.00     0.028 C 
HETATM    3  C4  UNL     1      -1.987  -0.973   0.099  1.00  0.00     0.034 C 
HETATM    4  C5  UNL     1      -2.066   0.514  -0.038  1.00  0.00     0.124 C 
HETATM    5  C6  UNL     1      -0.852   1.118   0.628  1.00  0.00     0.065 C 
HETATM    6  C7  UNL     1      -0.306   0.897  -0.745  1.00  0.00     0.145 C 
HETATM    7  O2  UNL     1      -1.609   0.980  -1.255  1.00  0.00    -0.379 OA
ENDROOT
BRANCH   1   8
HETATM    8  N1  UNL     1       1.600  -0.628  -0.853  1.00  0.00    -0.094 NA
BRANCH   8   9
HETATM    9  O1  UNL     1       2.034  -0.361   0.379  1.00  0.00    -0.291 OA
HETATM   10  C1  UNL     1       2.746   0.815   0.493  1.00  0.00     0.231 C 
ENDBRANCH   8   9
ENDBRANCH   1   8
TORSDOF 2
