REMARK  2 active torsions:
REMARK  status: ('A' for Active; 'I' for Inactive)
REMARK    1  A    between atoms: C2_2  and  N1_3 
REMARK    2  A    between atoms: N2_5  and  C3_7 
ROOT
HETATM    1  C3  UNL     1      -0.441  -0.762   0.395  1.00  0.00     0.117 C 
HETATM    2  C4  UNL     1      -1.353  -0.089   1.371  1.00  0.00     0.033 C 
HETATM    3  C5  UNL     1      -2.027   1.088   0.718  1.00  0.00     0.046 C 
HETATM    4  C6  UNL     1      -2.714   0.748  -0.564  1.00  0.00     0.055 C 
HETATM    5  N3  UNL     1      -2.283  -0.426  -1.207  1.00  0.00    -0.400 N 
ATOM      6  H3  UNL     1      -2.912  -0.943  -1.822  1.00  0.00     0.158 HD
HETATM    7  C7  UNL     1      -0.964  -0.875  -0.985  1.00  0.00     0.145 C 
ENDROOT
BRANCH   1   8
HETATM    8  N2  UNL     1       0.819  -0.039   0.391  1.00  0.00    -0.334 N 
HETATM    9  N1  UNL     1       1.625  -0.244  -0.556  1.00  0.00    -0.341 N 
ATOM     10  H1  UNL     1       1.404  -0.900  -1.305  1.00  0.00     0.179 HD
ATOM     11  H2  UNL     1       1.046   0.619   1.137  1.00  0.00     0.180 HD
BRANCH   9  12
HETATM   12  C2  UNL     1       2.864   0.479  -0.543  1.00  0.00     0.134 C 
HETATM   13  C1  UNL     1       3.856  -0.342   0.251  1.00  0.00     0.028 C 
ENDBRANCH   9  12
ENDBRANCH   1   8
TORSDOF 2
