REMARK  1 active torsions:
REMARK  status: ('A' for Active; 'I' for Inactive)
REMARK    1  A    between atoms: S1_3  and  C2_4 
ROOT
HETATM    1  N1  UNL     1       3.819  -0.261  -1.563  1.00  0.00    -0.184 NA
HETATM    2  C1  UNL     1       3.230   0.308  -0.749  1.00  0.00     0.135 C 
HETATM    3  S1  UNL     1       2.335   1.162   0.523  1.00  0.00    -0.027 SA
ENDROOT
BRANCH   3   4
HETATM    4  C2  UNL     1       0.684   0.499   0.577  1.00  0.00     0.182 C 
HETATM    5  C3  UNL     1      -0.136   0.800  -0.687  1.00  0.00     0.037 C 
HETATM    6  C4  UNL     1      -1.570   0.444  -0.263  1.00  0.00     0.031 C 
HETATM    7  C5  UNL     1      -1.538  -1.030   0.086  1.00  0.00     0.196 C 
HETATM    8  O1  UNL     1      -0.606  -1.265   1.085  1.00  0.00    -0.285 OA
HETATM    9  N2  UNL     1       0.654  -0.953   0.718  1.00  0.00    -0.085 NA
ENDBRANCH   3   4
TORSDOF 1
