REMARK  1 active torsions:
REMARK  status: ('A' for Active; 'I' for Inactive)
REMARK    1  A    between atoms: C4_6  and  N1_7 
ROOT
HETATM    1  C1  UNL     1       1.919   0.413   0.083  1.00  0.00     0.024 C 
HETATM    2  C2  UNL     1       0.667   0.084  -0.672  1.00  0.00     0.085 C 
HETATM    3  S1  UNL     1      -0.065   1.528  -1.483  1.00  0.00    -0.091 SA
HETATM    4  S2  UNL     1      -1.718   1.732  -0.106  1.00  0.00    -0.095 SA
HETATM    5  C3  UNL     1      -1.076   0.430   1.023  1.00  0.00     0.120 C 
HETATM    6  C4  UNL     1      -0.372  -0.563   0.166  1.00  0.00     0.207 C 
ENDROOT
BRANCH   6   7
HETATM    7  N1  UNL     1      -1.329  -1.346  -0.581  1.00  0.00    -0.073 N 
ATOM      8  H13 UNL     1      -1.760  -0.781  -1.312  1.00  0.00     0.274 HD
ATOM      9  H12 UNL     1      -0.852  -2.039  -1.157  1.00  0.00     0.274 HD
ATOM     10  H11 UNL     1      -2.043  -1.791  -0.005  1.00  0.00     0.274 HD
ENDBRANCH   6   7
TORSDOF 1
