REMARK  7 active torsions:
REMARK  status: ('A' for Active; 'I' for Inactive)
REMARK       I    between atoms: C2_2  and  N1_4 
REMARK    1  A    between atoms: N1_4  and  C3_5 
REMARK    2  A    between atoms: C5_7  and  C6_8 
REMARK    3  A    between atoms: C6_8  and  N2_11 
REMARK       I    between atoms: N2_11  and  C9_13 
REMARK    4  A    between atoms: C9_13  and  C10_15 
REMARK    5  A    between atoms: C13_19  and  C14_20 
REMARK    6  A    between atoms: C14_20  and  N4_21 
REMARK    7  A    between atoms: C16_23  and  C17_24 
ROOT
HETATM    1  C10 UNL     1      -4.530  -1.833   1.457  1.00  0.00     0.180 C 
HETATM    2  C11 UNL     1      -5.429  -1.494   2.641  1.00  0.00     0.035 C 
HETATM    3  C12 UNL     1      -5.239  -1.354   0.275  1.00  0.00     0.073 C 
HETATM    4  N3  UNL     1      -5.788  -0.975  -0.670  1.00  0.00    -0.196 NA
ENDROOT
BRANCH   1   5
HETATM    5  C9  UNL     1      -3.205  -1.227   1.639  1.00  0.00     0.235 C 
HETATM    6  N2  UNL     1      -2.119  -1.437   0.746  1.00  0.00    -0.347 N 
ATOM      7  H2  UNL     1      -2.280  -2.032  -0.067  1.00  0.00     0.163 HD
HETATM    8  O2  UNL     1      -3.004  -0.485   2.631  1.00  0.00    -0.272 OA
BRANCH   6   9
HETATM    9  C6  UNL     1      -0.784  -0.856   0.915  1.00  0.00     0.054 C 
HETATM   10  C7  UNL     1      -0.375  -1.210   2.294  1.00  0.00     0.043 C 
HETATM   11  C8  UNL     1      -0.001  -1.709  -0.124  1.00  0.00     0.043 C 
BRANCH   9  12
HETATM   12  C5  UNL     1      -0.791   0.551   0.519  1.00  0.00    -0.016 A 
HETATM   13  C4  UNL     1      -1.967   1.064  -0.085  1.00  0.00     0.058 A 
HETATM   14  C3  UNL     1      -2.173   2.303  -0.544  1.00  0.00     0.150 A 
HETATM   15  C22 UNL     1      -1.071   3.189  -0.400  1.00  0.00     0.157 A 
HETATM   16  C21 UNL     1       0.071   2.751   0.167  1.00  0.00     0.059 A 
HETATM   17  F1  UNL     1      -1.251   4.441  -0.861  1.00  0.00    -0.203 F 
HETATM   18  C13 UNL     1       0.255   1.422   0.648  1.00  0.00    -0.007 A 
BRANCH  14  19
HETATM   19  N1  UNL     1      -3.294   2.792  -1.186  1.00  0.00    -0.368 NA
HETATM   20  C2  UNL     1      -4.363   3.256  -1.797  1.00  0.00     0.288 C 
HETATM   21  C1  UNL     1      -4.279   4.550  -2.598  1.00  0.00     0.135 C 
HETATM   22  O1  UNL     1      -5.535   2.765  -1.828  1.00  0.00    -0.258 OA
ENDBRANCH  14  19
BRANCH  18  23
HETATM   23  C14 UNL     1       1.540   1.213   1.214  1.00  0.00     0.129 C 
BRANCH  23  24
HETATM   24  N4  UNL     1       2.686   0.806   0.434  1.00  0.00    -0.262 N 
HETATM   25  C15 UNL     1       3.280  -0.363   0.191  1.00  0.00     0.144 A 
HETATM   26  C16 UNL     1       4.350  -0.220  -0.662  1.00  0.00     0.052 A 
HETATM   27  N5  UNL     1       4.392   1.082  -0.935  1.00  0.00    -0.288 N 
HETATM   28  N6  UNL     1       3.425   1.690  -0.300  1.00  0.00    -0.237 N 
ATOM     29  H5  UNL     1       5.073   1.535  -1.545  1.00  0.00     0.188 HD
ATOM     30  H6  UNL     1       3.246   2.693  -0.346  1.00  0.00     0.209 HD
BRANCH  26  31
HETATM   31  C17 UNL     1       5.229  -1.345  -1.138  1.00  0.00    -0.006 C 
HETATM   32  C18 UNL     1       6.167  -0.874  -2.202  1.00  0.00     0.021 C 
HETATM   33  C19 UNL     1       4.284  -2.402  -1.681  1.00  0.00     0.021 C 
HETATM   34  C20 UNL     1       5.970  -1.972   0.035  1.00  0.00     0.021 C 
ENDBRANCH  26  31
ENDBRANCH  23  24
ENDBRANCH  18  23
ENDBRANCH   9  12
ENDBRANCH   6   9
ENDBRANCH   1   5
TORSDOF 7
