REMARK  9 active torsions:
REMARK  status: ('A' for Active; 'I' for Inactive)
REMARK    1  A    between atoms: C3_3  and  C5_5 
REMARK    2  A    between atoms: C5_5  and  O2_7 
REMARK    3  A    between atoms: O2_7  and  C6_8 
REMARK    4  A    between atoms: C9_12  and  C10_13 
REMARK    5  A    between atoms: C10_13  and  C11_14 
REMARK    6  A    between atoms: C11_14  and  O3_15 
REMARK    7  A    between atoms: N1_17  and  O4_19 
REMARK    8  A    between atoms: C17_27  and  O6_28 
REMARK    9  A    between atoms: O6_28  and  C18_29 
ROOT
HETATM    1  C6  UNL     1       0.672   0.229  -0.521  1.00  0.00     0.091 C 
HETATM    2  C7  UNL     1       0.987   0.535  -1.989  1.00  0.00     0.049 C 
HETATM    3  C8  UNL     1       0.888   1.521   0.238  1.00  0.00     0.122 C 
HETATM    4 CL1  UNL     1       1.491   1.034   1.871  1.00  0.00    -0.121 Cl
HETATM    5  C9  UNL     1      -0.292   2.398   0.447  1.00  0.00     0.021 C 
HETATM    6  C12 UNL     1      -1.437   2.267  -0.466  1.00  0.00     0.023 C 
HETATM    7  C13 UNL     1      -2.776   2.119   0.266  1.00  0.00     0.174 C 
HETATM    8  O5  UNL     1      -3.285   0.865  -0.035  1.00  0.00    -0.380 OA
HETATM    9  C14 UNL     1      -2.862   0.523  -1.292  1.00  0.00     0.064 C 
HETATM   10  C15 UNL     1      -3.605   1.112  -2.433  1.00  0.00     0.046 C 
HETATM   11  C16 UNL     1      -2.657  -0.963  -1.515  1.00  0.00     0.070 C 
HETATM   12  C17 UNL     1      -1.368  -1.310  -0.771  1.00  0.00     0.132 C 
HETATM   13  C21 UNL     1      -0.790  -0.038  -0.408  1.00  0.00     0.058 C 
HETATM   14  C22 UNL     1      -1.435   0.999  -1.280  1.00  0.00     0.036 C 
ENDROOT
BRANCH   1  15
HETATM   15  O2  UNL     1       1.454  -0.816  -0.036  1.00  0.00    -0.305 OA
BRANCH  15  16
HETATM   16  C5  UNL     1       2.840  -0.801   0.036  1.00  0.00     0.289 C 
HETATM   17  O1  UNL     1       3.428   0.239  -0.361  1.00  0.00    -0.260 OA
BRANCH  16  18
HETATM   18  C3  UNL     1       3.664  -1.889   0.532  1.00  0.00     0.009 C 
HETATM   19  C2  UNL     1       3.173  -3.029   0.972  1.00  0.00    -0.018 C 
HETATM   20  C1  UNL     1       4.050  -4.108   1.471  1.00  0.00     0.036 C 
HETATM   21  C4  UNL     1       5.138  -1.714   0.550  1.00  0.00     0.054 C 
ENDBRANCH  16  18
ENDBRANCH  15  16
ENDBRANCH   1  15
BRANCH   5  22
HETATM   22  C10 UNL     1       0.206   3.818   0.488  1.00  0.00     0.092 C 
BRANCH  22  23
HETATM   23  C11 UNL     1      -0.836   4.821   0.710  1.00  0.00     0.135 C 
HETATM   24  N1  UNL     1      -0.900   5.422   1.866  1.00  0.00    -0.251 N 
ATOM     25  H1  UNL     1      -1.619   6.124   2.040  1.00  0.00     0.196 HD
BRANCH  23  26
HETATM   26  O3  UNL     1      -1.802   5.223  -0.203  1.00  0.00    -0.348 OA
ATOM     27  H3  UNL     1      -2.479   5.874  -0.059  1.00  0.00     0.219 HD
ENDBRANCH  23  26
BRANCH  24  28
HETATM   28  O4  UNL     1      -0.003   5.106   2.836  1.00  0.00    -0.288 OA
ATOM     29  H4  UNL     1      -0.050   5.544   3.678  1.00  0.00     0.244 HD
ENDBRANCH  24  28
ENDBRANCH  22  23
ENDBRANCH   5  22
BRANCH  12  30
HETATM   30  O6  UNL     1      -1.680  -2.095   0.342  1.00  0.00    -0.380 OA
BRANCH  30  31
HETATM   31  C18 UNL     1      -1.211  -3.370   0.339  1.00  0.00     0.122 A 
HETATM   32  C19 UNL     1      -0.776  -4.041   1.622  1.00  0.00     0.034 A 
HETATM   33  C20 UNL     1      -1.999  -4.508   0.869  1.00  0.00     0.034 A 
ENDBRANCH  30  31
ENDBRANCH  12  30
TORSDOF 9
