REMARK  13 active torsions:
REMARK  status: ('A' for Active; 'I' for Inactive)
REMARK    1  A    between atoms: C2_2  and  C4_4 
REMARK    2  A    between atoms: C4_4  and  C5_5 
REMARK    3  A    between atoms: C5_5  and  N1_6 
REMARK    4  A    between atoms: C5_5  and  C7_10 
REMARK    5  A    between atoms: C7_10  and  N3_12 
REMARK    6  A    between atoms: N3_12  and  C9_14 
REMARK    7  A    between atoms: C9_14  and  C10_15 
REMARK    8  A    between atoms: C9_14  and  C13_26 
REMARK    9  A    between atoms: C10_15  and  O1_16 
REMARK   10  A    between atoms: C10_15  and  N4_18 
REMARK   11  A    between atoms: N4_18  and  C11_20 
REMARK   12  A    between atoms: C11_20  and  C12_21 
REMARK   13  A    between atoms: C12_21  and  N5_22 
ROOT
HETATM    1  N1  UNL     1      -3.219  -1.606   0.971  1.00  0.00    -0.322 N 
ATOM      2  H1  UNL     1      -3.800  -1.730   1.800  1.00  0.00     0.172 HD
HETATM    3  C6  UNL     1      -3.181  -2.576  -0.043  1.00  0.00     0.177 C 
HETATM    4  N2  UNL     1      -3.129  -3.361  -0.868  1.00  0.00    -0.172 NA
ENDROOT
BRANCH   1   5
HETATM    5  C5  UNL     1      -2.409  -0.432   0.797  1.00  0.00     0.114 C 
BRANCH   5   6
HETATM    6  C4  UNL     1      -2.802   0.317  -0.418  1.00  0.00     0.031 C 
BRANCH   6   7
HETATM    7  C2  UNL     1      -4.245   0.751  -0.319  1.00  0.00    -0.021 C 
HETATM    8  C1  UNL     1      -4.574   1.635   0.823  1.00  0.00     0.009 C 
HETATM    9  C3  UNL     1      -4.644   1.525  -1.592  1.00  0.00     0.009 C 
ENDBRANCH   6   7
ENDBRANCH   5   6
BRANCH   5  10
HETATM   10  C7  UNL     1      -0.961  -0.929   0.807  1.00  0.00     0.097 C 
HETATM   11  C8  UNL     1      -0.826  -1.651   2.155  1.00  0.00     0.034 C 
BRANCH  10  12
HETATM   12  N3  UNL     1      -0.035   0.109   0.665  1.00  0.00    -0.400 N 
ATOM     13  H3  UNL     1      -0.127   0.963   1.216  1.00  0.00     0.154 HD
BRANCH  12  14
HETATM   14  C9  UNL     1       1.056  -0.044  -0.274  1.00  0.00     0.204 C 
BRANCH  14  15
HETATM   15  C10 UNL     1       2.078   0.983   0.011  1.00  0.00     0.140 C 
BRANCH  15  16
HETATM   16  O1  UNL     1       1.752   1.862   0.929  1.00  0.00    -0.348 OA
ATOM     17  H1  UNL     1       2.410   2.523   1.112  1.00  0.00     0.219 HD
ENDBRANCH  15  16
BRANCH  15  18
HETATM   18  N4  UNL     1       3.338   1.193  -0.529  1.00  0.00    -0.371 N 
ATOM     19  H4  UNL     1       3.711   0.577  -1.251  1.00  0.00     0.161 HD
BRANCH  18  20
HETATM   20  C11 UNL     1       4.105   2.314  -0.035  1.00  0.00     0.148 C 
BRANCH  20  21
HETATM   21  C12 UNL     1       5.455   2.489  -0.654  1.00  0.00     0.249 C 
BRANCH  21  22
HETATM   22  N5  UNL     1       6.332   1.381  -0.456  1.00  0.00    -0.078 N 
ATOM     23  H53 UNL     1       6.419   1.166   0.537  1.00  0.00     0.274 HD
ATOM     24  H52 UNL     1       5.898   0.518  -0.782  1.00  0.00     0.274 HD
ATOM     25  H51 UNL     1       7.253   1.500  -0.878  1.00  0.00     0.274 HD
ENDBRANCH  21  22
ENDBRANCH  20  21
ENDBRANCH  18  20
ENDBRANCH  15  18
ENDBRANCH  14  15
BRANCH  14  26
HETATM   26  C13 UNL     1       1.628  -1.381  -0.320  1.00  0.00     0.056 A 
HETATM   27  C14 UNL     1       1.889  -2.092  -1.469  1.00  0.00     0.116 A 
HETATM   28  N6  UNL     1       2.401  -3.290  -1.112  1.00  0.00    -0.360 N 
HETATM   29  C15 UNL     1       2.467  -3.349   0.235  1.00  0.00     0.180 A 
ATOM     30  H6  UNL     1       2.690  -4.028  -1.754  1.00  0.00     0.166 HD
HETATM   31  N7  UNL     1       1.991  -2.180   0.680  1.00  0.00    -0.353 N 
ATOM     32  H7  UNL     1       1.916  -1.932   1.666  1.00  0.00     0.166 HD
ENDBRANCH  14  26
ENDBRANCH  12  14
ENDBRANCH  10  12
ENDBRANCH   5  10
ENDBRANCH   1   5
TORSDOF 13
