REMARK  13 active torsions:
REMARK  status: ('A' for Active; 'I' for Inactive)
REMARK    1  A    between atoms: N1_1  and  C1_5 
REMARK    2  A    between atoms: C1_5  and  C2_6 
REMARK    3  A    between atoms: C2_6  and  C3_7 
REMARK    4  A    between atoms: C3_7  and  N2_8 
REMARK    5  A    between atoms: N2_8  and  C4_10 
REMARK    6  A    between atoms: C5_13  and  C6_14 
REMARK    7  A    between atoms: C12_22  and  N5_23 
REMARK    8  A    between atoms: N5_23  and  C13_25 
REMARK    9  A    between atoms: C13_25  and  C14_26 
REMARK   10  A    between atoms: C14_26  and  N6_27 
REMARK   11  A    between atoms: N6_27  and  C15_29 
REMARK   12  A    between atoms: C15_29  and  C16_30 
REMARK   13  A    between atoms: C16_30  and  N7_31 
ROOT
HETATM    1  C4  UNL     1      -1.124   0.591   0.514  1.00  0.00     0.694 A 
HETATM    2  N3  UNL     1      -1.781  -0.573   0.671  1.00  0.00    -0.175 N 
ATOM      3  H3  UNL     1      -2.665  -0.572   1.181  1.00  0.00     0.186 HD
HETATM    4  C5  UNL     1      -1.321  -1.731   0.185  1.00  0.00     0.146 A 
HETATM    5  N4  UNL     1      -0.156  -1.689  -0.478  1.00  0.00    -0.175 N 
ATOM      6  H4  UNL     1       0.222  -2.555  -0.861  1.00  0.00     0.186 HD
HETATM    7  C12 UNL     1       0.548  -0.522  -0.661  1.00  0.00     0.694 A 
HETATM    8  N8  UNL     1       0.061   0.602  -0.167  1.00  0.00    -0.022 N 
ATOM      9  H8  UNL     1       0.569   1.477  -0.294  1.00  0.00     0.203 HD
ENDROOT
BRANCH   7  10
HETATM   10  N5  UNL     1       1.655  -0.546  -1.303  1.00  0.00    -0.224 N 
ATOM     11  H5  UNL     1       1.987  -1.440  -1.664  1.00  0.00     0.177 HD
BRANCH  10  12
HETATM   12  C13 UNL     1       2.446   0.616  -1.538  1.00  0.00     0.157 C 
BRANCH  12  13
HETATM   13  C14 UNL     1       3.344   0.826  -0.329  1.00  0.00     0.134 C 
BRANCH  13  14
HETATM   14  N6  UNL     1       4.155   1.984  -0.513  1.00  0.00    -0.418 N 
ATOM     15  H6  UNL     1       4.032   2.829   0.045  1.00  0.00     0.153 HD
BRANCH  14  16
HETATM   16  C15 UNL     1       5.152   1.881  -1.531  1.00  0.00     0.141 C 
BRANCH  16  17
HETATM   17  C16 UNL     1       6.219   0.895  -1.131  1.00  0.00     0.248 C 
BRANCH  17  18
HETATM   18  N7  UNL     1       6.891   1.258   0.083  1.00  0.00    -0.078 N 
ATOM     19  H73 UNL     1       7.273   2.202   0.020  1.00  0.00     0.274 HD
ATOM     20  H72 UNL     1       6.223   1.399   0.841  1.00  0.00     0.274 HD
ATOM     21  H71 UNL     1       7.613   0.591   0.354  1.00  0.00     0.274 HD
ENDBRANCH  17  18
ENDBRANCH  16  17
ENDBRANCH  14  16
ENDBRANCH  13  14
ENDBRANCH  12  13
ENDBRANCH  10  12
ENDBRANCH   7  10
BRANCH   4  22
HETATM   22  C6  UNL     1      -2.010  -3.025   0.337  1.00  0.00     0.009 A 
HETATM   23  C7  UNL     1      -1.440  -4.162  -0.210  1.00  0.00     0.015 A 
HETATM   24  C8  UNL     1      -1.988  -5.417  -0.133  1.00  0.00     0.001 A 
HETATM   25  C9  UNL     1      -3.187  -5.547   0.536  1.00  0.00     0.000 A 
HETATM   26  C10 UNL     1      -3.779  -4.431   1.092  1.00  0.00     0.001 A 
HETATM   27  C11 UNL     1      -3.197  -3.161   0.998  1.00  0.00     0.015 A 
ENDBRANCH   4  22
BRANCH   1  28
HETATM   28  N2  UNL     1      -1.538   1.704   0.965  1.00  0.00    -0.225 N 
ATOM     29  H2  UNL     1      -0.983   2.544   0.804  1.00  0.00     0.177 HD
BRANCH  28  30
HETATM   30  C3  UNL     1      -2.763   1.806   1.692  1.00  0.00     0.139 C 
BRANCH  30  31
HETATM   31  C2  UNL     1      -3.902   1.939   0.691  1.00  0.00     0.047 C 
BRANCH  31  32
HETATM   32  C1  UNL     1      -3.606   3.216  -0.110  1.00  0.00     0.231 C 
BRANCH  32  33
HETATM   33  N1  UNL     1      -4.697   3.341  -1.065  1.00  0.00    -0.079 N 
ATOM     34  H13 UNL     1      -4.828   2.514  -1.647  1.00  0.00     0.274 HD
ATOM     35  H12 UNL     1      -5.621   3.333  -0.634  1.00  0.00     0.274 HD
ATOM     36  H11 UNL     1      -4.500   4.189  -1.597  1.00  0.00     0.274 HD
ENDBRANCH  32  33
ENDBRANCH  31  32
ENDBRANCH  30  31
ENDBRANCH  28  30
ENDBRANCH   1  28
TORSDOF 13
