REMARK  12 active torsions:
REMARK  status: ('A' for Active; 'I' for Inactive)
REMARK    1  A    between atoms: C4_6  and  N1_7 
REMARK    2  A    between atoms: N1_7  and  C5_9 
REMARK    3  A    between atoms: C5_9  and  C6_10 
REMARK    4  A    between atoms: C5_9  and  C13_17 
REMARK    5  A    between atoms: C6_10  and  C7_11 
REMARK    6  A    between atoms: C13_17  and  O3_18 
REMARK    7  A    between atoms: C13_17  and  N2_20 
REMARK    8  A    between atoms: N2_20  and  C14_22 
REMARK    9  A    between atoms: C14_22  and  C15_23 
REMARK   10  A    between atoms: C15_23  and  O4_24 
REMARK   11  A    between atoms: C15_23  and  C16_26 
REMARK   12  A    between atoms: C16_26  and  O5_27 
ROOT
HETATM    1  C5  UNL     1      -0.544  -0.475  -0.405  1.00  0.00     0.035 C 
ENDROOT
BRANCH   1   2
HETATM    2  N1  UNL     1      -0.193  -1.667   0.228  1.00  0.00    -0.379 N 
ATOM      3  H1  UNL     1       0.800  -1.772   0.436  1.00  0.00     0.160 HD
BRANCH   2   4
HETATM    4  C4  UNL     1      -0.983  -2.719   0.612  1.00  0.00     0.183 C 
HETATM    5  C1  UNL     1      -1.926  -2.454   1.694  1.00  0.00     0.281 C 
HETATM    6  O1  UNL     1      -1.644  -1.968   2.834  1.00  0.00    -0.263 OA
HETATM    7  O2  UNL     1      -3.231  -2.819   1.313  1.00  0.00    -0.320 OA
HETATM    8  C2  UNL     1      -2.999  -3.906   0.408  1.00  0.00     0.181 C 
HETATM    9  C3  UNL     1      -1.915  -3.261  -0.469  1.00  0.00     0.062 C 
ENDBRANCH   2   4
ENDBRANCH   1   2
BRANCH   1  10
HETATM   10  C6  UNL     1      -1.366   0.372   0.503  1.00  0.00     0.095 C 
BRANCH  10  11
HETATM   11  C7  UNL     1      -1.802   1.679   0.046  1.00  0.00    -0.053 A 
HETATM   12  C8  UNL     1      -1.109   2.823   0.380  1.00  0.00     0.007 A 
HETATM   13  C9  UNL     1      -1.518   4.077  -0.027  1.00  0.00     0.001 A 
HETATM   14  C10 UNL     1      -2.641   4.214  -0.786  1.00  0.00     0.000 A 
HETATM   15  C11 UNL     1      -3.362   3.075  -1.142  1.00  0.00     0.001 A 
HETATM   16  C12 UNL     1      -2.930   1.829  -0.719  1.00  0.00     0.007 A 
ENDBRANCH  10  11
ENDBRANCH   1  10
BRANCH   1  17
HETATM   17  C13 UNL     1       0.472   0.164  -1.257  1.00  0.00     0.260 C 
BRANCH  17  18
HETATM   18  O3  UNL     1      -0.142   1.288  -1.939  1.00  0.00    -0.372 OA
ATOM     19  H3  UNL     1       0.514   1.700  -2.489  1.00  0.00     0.212 HD
ENDBRANCH  17  18
BRANCH  17  20
HETATM   20  N2  UNL     1       1.698   0.623  -0.809  1.00  0.00    -0.390 N 
ATOM     21  H2  UNL     1       1.910   1.617  -0.889  1.00  0.00     0.156 HD
BRANCH  20  22
HETATM   22  C14 UNL     1       2.670  -0.241  -0.242  1.00  0.00     0.150 C 
BRANCH  22  23
HETATM   23  C15 UNL     1       4.025   0.493  -0.150  1.00  0.00     0.159 C 
BRANCH  23  24
HETATM   24  O4  UNL     1       3.890   1.625   0.624  1.00  0.00    -0.392 OA
ATOM     25  H4  UNL     1       4.724   2.077   0.681  1.00  0.00     0.210 HD
ENDBRANCH  23  24
BRANCH  23  26
HETATM   26  C16 UNL     1       5.069  -0.416   0.457  1.00  0.00     0.197 C 
BRANCH  26  27
HETATM   27  O5  UNL     1       4.729  -0.798   1.753  1.00  0.00    -0.398 OA
ATOM     28  H5  UNL     1       5.385  -1.369   2.135  1.00  0.00     0.209 HD
ENDBRANCH  26  27
ENDBRANCH  23  26
ENDBRANCH  22  23
ENDBRANCH  20  22
ENDBRANCH  17  20
ENDBRANCH   1  17
TORSDOF 12
