REMARK  7 active torsions:
REMARK  status: ('A' for Active; 'I' for Inactive)
REMARK    1  A    between atoms: C1_4  and  C2_5 
REMARK    2  A    between atoms: C2_5  and  N2_6 
REMARK    3  A    between atoms: N2_6  and  C3_8 
REMARK    4  A    between atoms: C3_8  and  C4_9 
REMARK    5  A    between atoms: C4_9  and  N3_10 
REMARK    6  A    between atoms: N3_10  and  C5_12 
REMARK    7  A    between atoms: C8_19  and  N6_20 
ROOT
HETATM    1  C5  UNL     1      -1.715  -0.032   0.032  1.00  0.00     0.149 A 
HETATM    2  N4  UNL     1      -2.681  -0.984  -0.182  1.00  0.00    -0.348 N 
ATOM      3  H4  UNL     1      -2.425  -1.971  -0.170  1.00  0.00     0.167 HD
HETATM    4  C6  UNL     1      -3.945  -0.638  -0.404  1.00  0.00     0.107 A 
HETATM    5  C7  UNL     1      -4.311   0.697  -0.423  1.00  0.00     0.107 A 
HETATM    6  N5  UNL     1      -3.384   1.625  -0.217  1.00  0.00    -0.348 N 
ATOM      7  H5  UNL     1      -3.651   2.609  -0.230  1.00  0.00     0.167 HD
HETATM    8  C8  UNL     1      -2.066   1.285   0.014  1.00  0.00     0.143 A 
ENDROOT
BRANCH   1   9
HETATM    9  N3  UNL     1      -0.584  -0.488   0.242  1.00  0.00    -0.348 N 
ATOM     10  H3  UNL     1      -0.623  -1.507   0.206  1.00  0.00     0.167 HD
BRANCH   9  11
HETATM   11  C4  UNL     1       0.730  -0.089   0.512  1.00  0.00     0.106 C 
BRANCH  11  12
HETATM   12  C3  UNL     1       1.568  -1.340   0.642  1.00  0.00     0.104 C 
BRANCH  12  13
HETATM   13  N2  UNL     1       2.908  -1.224   0.954  1.00  0.00    -0.373 N 
ATOM     14  H2  UNL     1       3.232  -1.566   1.859  1.00  0.00     0.164 HD
BRANCH  13  15
HETATM   15  C2  UNL     1       3.844  -0.653   0.073  1.00  0.00     0.104 C 
BRANCH  15  16
HETATM   16  C1  UNL     1       3.699   0.833  -0.093  1.00  0.00     0.097 C 
HETATM   17  N1  UNL     1       4.054   1.354  -1.191  1.00  0.00    -0.407 N 
ATOM     18  H12 UNL     1       4.428   0.765  -1.935  1.00  0.00     0.155 HD
ATOM     19  H11 UNL     1       3.956   2.363  -1.304  1.00  0.00     0.155 HD
ENDBRANCH  15  16
ENDBRANCH  13  15
ENDBRANCH  12  13
ENDBRANCH  11  12
ENDBRANCH   9  11
ENDBRANCH   1   9
BRANCH   8  20
HETATM   20  N6  UNL     1      -1.282   2.287   0.172  1.00  0.00    -0.382 N 
ATOM     21  H62 UNL     1      -0.308   2.036   0.343  1.00  0.00     0.157 HD
ATOM     22  H61 UNL     1      -1.545   3.273   0.159  1.00  0.00     0.157 HD
ENDBRANCH   8  20
TORSDOF 7
