REMARK  6 active torsions:
REMARK  status: ('A' for Active; 'I' for Inactive)
REMARK    1  A    between atoms: C2_2  and  O1_3 
REMARK    2  A    between atoms: O1_3  and  C3_4 
REMARK    3  A    between atoms: C3_4  and  C4_5 
REMARK    4  A    between atoms: C4_5  and  C5_6 
REMARK    5  A    between atoms: C5_6  and  N1_7 
REMARK    6  A    between atoms: C7_16  and  N5_17 
ROOT
HETATM    1  N1  UNL     1      -1.779  -0.919  -0.471  1.00  0.00    -0.278 N 
HETATM    2  N2  UNL     1      -2.418   0.019  -1.234  1.00  0.00    -0.270 N 
ATOM      3  H2  UNL     1      -2.656  -0.042  -2.224  1.00  0.00     0.190 HD
HETATM    4  C6  UNL     1      -2.680   1.104  -0.339  1.00  0.00     0.190 C 
HETATM    5  N3  UNL     1      -3.102   2.302  -0.664  1.00  0.00    -0.370 N 
ATOM      6  H31 UNL     1      -3.289   3.076  -0.026  1.00  0.00     0.159 HD
ATOM      7  H32 UNL     1      -3.303   2.621  -1.612  1.00  0.00     0.159 HD
HETATM    8  N4  UNL     1      -2.400   0.660   0.982  1.00  0.00    -0.317 N 
ATOM      9  H4  UNL     1      -2.400   1.227   1.830  1.00  0.00     0.166 HD
HETATM   10  C7  UNL     1      -2.114  -0.762   0.886  1.00  0.00     0.406 C 
ENDROOT
BRANCH   1  11
HETATM   11  C5  UNL     1      -0.524  -1.361  -0.845  1.00  0.00     0.149 C 
BRANCH  11  12
HETATM   12  C4  UNL     1       0.530  -0.278  -0.529  1.00  0.00     0.048 C 
BRANCH  12  13
HETATM   13  C3  UNL     1       1.886  -0.781  -0.940  1.00  0.00     0.169 C 
BRANCH  13  14
HETATM   14  O1  UNL     1       2.878   0.119  -0.720  1.00  0.00    -0.391 OA
BRANCH  14  15
HETATM   15  C2  UNL     1       3.051   0.478   0.588  1.00  0.00     0.163 C 
HETATM   16  C1  UNL     1       4.221   1.458   0.729  1.00  0.00     0.033 C 
ENDBRANCH  14  15
ENDBRANCH  13  14
ENDBRANCH  12  13
ENDBRANCH  11  12
ENDBRANCH   1  11
BRANCH  10  17
HETATM   17  N5  UNL     1      -3.395  -1.437   1.155  1.00  0.00    -0.039 N 
ATOM     18  H53 UNL     1      -4.138  -1.116   0.534  1.00  0.00     0.279 HD
ATOM     19  H52 UNL     1      -3.382  -2.417   0.872  1.00  0.00     0.279 HD
ATOM     20  H51 UNL     1      -3.638  -1.323   2.139  1.00  0.00     0.279 HD
ENDBRANCH  10  17
TORSDOF 6
