REMARK  4 active torsions:
REMARK  status: ('A' for Active; 'I' for Inactive)
REMARK    1  A    between atoms: C2_2  and  C3_3 
REMARK    2  A    between atoms: C3_3  and  C4_4 
REMARK    3  A    between atoms: C4_4  and  N1_5 
REMARK    4  A    between atoms: C5_7  and  C6_8 
REMARK       I    between atoms: N3_14  and  C9_15 
REMARK       I    between atoms: C9_15  and  N4_16 
REMARK       I    between atoms: C9_15  and  N5_20 
ROOT
HETATM    1  C6  UNL     1      -0.962   0.293   0.258  1.00  0.00     0.462 C 
HETATM    2  N2  UNL     1      -0.725  -0.332  -1.013  1.00  0.00    -0.037 N 
ATOM      3  H21 UNL     1      -1.136  -1.261  -1.105  1.00  0.00     0.280 HD
ATOM      4  H22 UNL     1       0.241  -0.623  -1.162  1.00  0.00     0.280 HD
HETATM    5  C7  UNL     1      -1.204   0.617  -1.966  1.00  0.00     0.265 C 
HETATM    6  C8  UNL     1      -2.018   1.643  -1.202  1.00  0.00     0.308 C 
HETATM    7  N3  UNL     1      -2.114   1.128   0.137  1.00  0.00     0.184 N 
HETATM    8  C9  UNL     1      -3.366   0.433   0.293  1.00  0.00     0.615 C 
HETATM    9  N4  UNL     1      -3.540  -0.607  -0.690  1.00  0.00    -0.023 N 
ATOM     10  H41 UNL     1      -4.427  -1.099  -0.580  1.00  0.00     0.279 HD
ATOM     11  H42 UNL     1      -2.754  -1.257  -0.682  1.00  0.00     0.279 HD
ATOM     12  H43 UNL     1      -3.438  -0.240  -1.636  1.00  0.00     0.279 HD
HETATM   13  N5  UNL     1      -3.599  -0.047   1.623  1.00  0.00    -0.023 N 
ATOM     14  H51 UNL     1      -4.486  -0.539   1.733  1.00  0.00     0.279 HD
ATOM     15  H52 UNL     1      -3.524   0.714   2.298  1.00  0.00     0.279 HD
ATOM     16  H53 UNL     1      -2.823  -0.630   1.936  1.00  0.00     0.279 HD
ENDROOT
BRANCH   1  17
HETATM   17  C5  UNL     1       0.224   1.160   0.550  1.00  0.00     0.120 C 
HETATM   18  N1  UNL     1       1.370   0.712   0.847  1.00  0.00    -0.399 N 
ATOM     19  H1  UNL     1       2.104   1.397   1.026  1.00  0.00     0.158 HD
BRANCH  18  20
HETATM   20  C4  UNL     1       1.727  -0.661   0.954  1.00  0.00     0.119 C 
BRANCH  20  21
HETATM   21  C3  UNL     1       2.681  -1.103  -0.126  1.00  0.00     0.019 C 
BRANCH  21  22
HETATM   22  C2  UNL     1       3.974  -0.331  -0.102  1.00  0.00    -0.003 C 
HETATM   23  C1  UNL     1       4.724  -0.468   1.183  1.00  0.00     0.005 C 
ENDBRANCH  21  22
ENDBRANCH  20  21
ENDBRANCH  18  20
ENDBRANCH   1  17
TORSDOF 4
