REMARK  5 active torsions:
REMARK  status: ('A' for Active; 'I' for Inactive)
REMARK    1  A    between atoms: O1_2  and  C2_3 
REMARK    2  A    between atoms: C2_3  and  C3_4 
REMARK    3  A    between atoms: C3_4  and  N1_5 
REMARK    4  A    between atoms: N1_5  and  C4_7 
REMARK    5  A    between atoms: C4_7  and  C5_8 
ROOT
HETATM    1  C5  UNL     1      -0.754   0.222  -0.110  1.00  0.00     0.144 C 
HETATM    2  C6  UNL     1      -1.727   1.312   0.275  1.00  0.00     0.262 C 
HETATM    3  N2  UNL     1      -2.575   1.581  -0.834  1.00  0.00    -0.073 N 
ATOM      4  H21 UNL     1      -2.022   1.779  -1.668  1.00  0.00     0.277 HD
ATOM      5  H22 UNL     1      -3.041   2.481  -0.718  1.00  0.00     0.277 HD
HETATM    6  C7  UNL     1      -3.532   0.552  -1.100  1.00  0.00     0.237 C 
HETATM    7  C8  UNL     1      -3.675  -0.436  -0.017  1.00  0.00     0.071 C 
HETATM    8  C9  UNL     1      -2.587  -1.384   0.211  1.00  0.00     0.058 C 
HETATM    9  N3  UNL     1      -1.262  -1.069  -0.088  1.00  0.00    -0.392 N 
ATOM     10  H3  UNL     1      -0.626  -1.836  -0.304  1.00  0.00     0.159 HD
ENDROOT
BRANCH   1  11
HETATM   11  C4  UNL     1       0.389   0.357   0.877  1.00  0.00     0.082 C 
BRANCH  11  12
HETATM   12  N1  UNL     1       1.461  -0.544   0.729  1.00  0.00    -0.398 N 
ATOM     13  H1  UNL     1       1.665  -1.262   1.425  1.00  0.00     0.158 HD
BRANCH  12  14
HETATM   14  C3  UNL     1       2.243  -0.392  -0.451  1.00  0.00     0.145 C 
BRANCH  14  15
HETATM   15  C2  UNL     1       3.504  -1.227  -0.438  1.00  0.00     0.186 C 
BRANCH  15  16
HETATM   16  O1  UNL     1       4.337  -0.874   0.621  1.00  0.00    -0.394 OA
HETATM   17  C1  UNL     1       4.729   0.457   0.541  1.00  0.00     0.201 C 
ENDBRANCH  15  16
ENDBRANCH  14  15
ENDBRANCH  12  14
ENDBRANCH  11  12
ENDBRANCH   1  11
TORSDOF 5
