REMARK  7 active torsions:
REMARK  status: ('A' for Active; 'I' for Inactive)
REMARK    1  A    between atoms: O1_2  and  C2_3 
REMARK    2  A    between atoms: C2_3  and  C3_4 
REMARK    3  A    between atoms: C3_4  and  N1_5 
REMARK    4  A    between atoms: N1_5  and  N2_6 
REMARK    5  A    between atoms: N1_5  and  C4_9 
REMARK    6  A    between atoms: C4_9  and  C5_10 
REMARK    7  A    between atoms: C7_14  and  N4_15 
ROOT
HETATM    1  C5  UNL     1      -1.887  -0.715  -0.321  1.00  0.00     0.061 A 
HETATM    2  C6  UNL     1      -2.459  -0.150  -1.465  1.00  0.00     0.133 A 
HETATM    3  N3  UNL     1      -3.590   0.479  -1.127  1.00  0.00    -0.200 N 
ATOM      4  H3  UNL     1      -4.216   0.981  -1.757  1.00  0.00     0.183 HD
HETATM    5  C7  UNL     1      -3.746   0.327   0.189  1.00  0.00     0.676 A 
HETATM    6  N5  UNL     1      -2.713  -0.398   0.677  1.00  0.00    -0.193 N 
ATOM      7  H5  UNL     1      -2.586  -0.661   1.654  1.00  0.00     0.184 HD
ENDROOT
BRANCH   1   8
HETATM    8  C4  UNL     1      -0.630  -1.500  -0.244  1.00  0.00     0.201 C 
BRANCH   8   9
HETATM    9  N1  UNL     1       0.448  -0.600  -0.007  1.00  0.00    -0.327 N 
BRANCH   9  10
HETATM   10  C3  UNL     1       1.736  -1.215   0.093  1.00  0.00     0.168 C 
BRANCH  10  11
HETATM   11  C2  UNL     1       2.786  -0.174   0.342  1.00  0.00     0.188 C 
BRANCH  11  12
HETATM   12  O1  UNL     1       2.830   0.764  -0.694  1.00  0.00    -0.394 OA
HETATM   13  C1  UNL     1       3.817   1.728  -0.443  1.00  0.00     0.201 C 
ENDBRANCH  11  12
ENDBRANCH  10  11
ENDBRANCH   9  10
BRANCH   9  14
HETATM   14  N2  UNL     1       0.213   0.465   0.775  1.00  0.00    -0.347 N 
ATOM     15  H22 UNL     1       0.985   1.110   0.945  1.00  0.00     0.176 HD
ATOM     16  H21 UNL     1      -0.705   0.903   0.704  1.00  0.00     0.176 HD
ENDBRANCH   9  14
ENDBRANCH   8   9
ENDBRANCH   1   8
BRANCH   5  17
HETATM   17  N4  UNL     1      -4.720   0.793   0.879  1.00  0.00    -0.234 N 
ATOM     18  H42 UNL     1      -5.499   1.340   0.511  1.00  0.00     0.174 HD
ATOM     19  H41 UNL     1      -4.839   0.677   1.885  1.00  0.00     0.174 HD
ENDBRANCH   5  17
TORSDOF 7
