REMARK  8 active torsions:
REMARK  status: ('A' for Active; 'I' for Inactive)
REMARK    1  A    between atoms: C5_7  and  N2_8 
REMARK    2  A    between atoms: N2_8  and  C6_10 
REMARK    3  A    between atoms: C6_10  and  C7_11 
REMARK    4  A    between atoms: C6_10  and  C14_21 
REMARK    5  A    between atoms: C7_11  and  N3_12 
REMARK    6  A    between atoms: N3_12  and  C8_15 
REMARK    7  A    between atoms: C8_15  and  C10_17 
REMARK    8  A    between atoms: C10_17  and  C11_18 
ROOT
HETATM    1  C6  UNL     1      -0.973  -1.439   0.289  1.00  0.00     0.142 C 
ENDROOT
BRANCH   1   2
HETATM    2  N2  UNL     1      -1.808  -0.434  -0.275  1.00  0.00    -0.366 N 
ATOM      3  H2  UNL     1      -2.334  -0.700  -1.107  1.00  0.00     0.161 HD
BRANCH   2   4
HETATM    4  C5  UNL     1      -1.993   0.890   0.184  1.00  0.00     0.101 A 
HETATM    5  N1  UNL     1      -1.438   1.378   1.290  1.00  0.00    -0.353 N 
HETATM    6  C4  UNL     1      -1.586   2.625   1.748  1.00  0.00     0.090 A 
ATOM      7  H1  UNL     1      -0.850   0.747   1.835  1.00  0.00     0.166 HD
HETATM    8  C3  UNL     1      -2.365   3.513   1.056  1.00  0.00     0.024 A 
HETATM    9  C2  UNL     1      -2.970   3.085  -0.094  1.00  0.00    -0.057 A 
HETATM   10  C1  UNL     1      -3.824   4.026  -0.885  1.00  0.00     0.048 C 
HETATM   11  C20 UNL     1      -2.793   1.793  -0.533  1.00  0.00     0.054 A 
ENDBRANCH   2   4
ENDBRANCH   1   2
BRANCH   1  12
HETATM   12  C7  UNL     1       0.480  -1.370  -0.010  1.00  0.00     0.262 C 
BRANCH  12  13
HETATM   13  N3  UNL     1       1.149  -0.169   0.406  1.00  0.00    -0.069 N 
ATOM     14  H32 UNL     1       0.816   0.675  -0.059  1.00  0.00     0.277 HD
ATOM     15  H31 UNL     1       0.921   0.127   1.355  1.00  0.00     0.277 HD
BRANCH  13  16
HETATM   16  C8  UNL     1       2.600  -0.454   0.188  1.00  0.00     0.182 C 
HETATM   17  C9  UNL     1       2.928  -1.610   1.103  1.00  0.00     0.040 C 
BRANCH  16  18
HETATM   18  C10 UNL     1       3.422   0.720   0.656  1.00  0.00     0.037 C 
BRANCH  18  19
HETATM   19  C11 UNL     1       3.135   2.006  -0.047  1.00  0.00    -0.013 A 
HETATM   20  C12 UNL     1       3.897   3.247   0.345  1.00  0.00     0.005 A 
HETATM   21  C13 UNL     1       4.279   2.530  -0.907  1.00  0.00     0.005 A 
ENDBRANCH  18  19
ENDBRANCH  16  18
ENDBRANCH  13  16
ENDBRANCH  12  13
ENDBRANCH   1  12
BRANCH   1  22
HETATM   22  C14 UNL     1      -1.436  -2.790  -0.142  1.00  0.00    -0.034 A 
HETATM   23  C15 UNL     1      -1.529  -3.804   0.781  1.00  0.00     0.009 A 
HETATM   24  C16 UNL     1      -1.949  -5.029   0.320  1.00  0.00     0.001 A 
HETATM   25  C17 UNL     1      -2.270  -5.269  -0.996  1.00  0.00     0.000 A 
HETATM   26  C18 UNL     1      -2.171  -4.245  -1.904  1.00  0.00     0.001 A 
HETATM   27  C19 UNL     1      -1.749  -3.001  -1.458  1.00  0.00     0.009 A 
ENDBRANCH   1  22
TORSDOF 8
