REMARK  9 active torsions:
REMARK  status: ('A' for Active; 'I' for Inactive)
REMARK    1  A    between atoms: C2_2  and  C4_4 
REMARK    2  A    between atoms: C4_4  and  O1_5 
REMARK    3  A    between atoms: O1_5  and  C5_6 
REMARK    4  A    between atoms: C5_6  and  N1_7 
REMARK    5  A    between atoms: C5_6  and  C14_21 
REMARK    6  A    between atoms: N1_7  and  C6_9 
REMARK    7  A    between atoms: C6_9  and  C7_10 
REMARK    8  A    between atoms: C7_10  and  N2_11 
REMARK    9  A    between atoms: C7_10  and  C8_15 
ROOT
HETATM    1  N1  UNL     1      -0.503  -0.701   0.676  1.00  0.00    -0.374 N 
ATOM      2  H1  UNL     1      -0.728  -0.394   1.622  1.00  0.00     0.161 HD
ENDROOT
BRANCH   1   3
HETATM    3  C5  UNL     1       0.577  -0.092   0.007  1.00  0.00     0.224 C 
BRANCH   3   4
HETATM    4  O1  UNL     1       0.989   1.086   0.711  1.00  0.00    -0.366 OA
BRANCH   4   5
HETATM    5  C4  UNL     1       0.724   2.181  -0.084  1.00  0.00     0.174 C 
BRANCH   5   6
HETATM    6  C2  UNL     1       1.082   3.499   0.515  1.00  0.00     0.001 C 
HETATM    7  C1  UNL     1       2.531   3.643   0.854  1.00  0.00     0.011 C 
HETATM    8  C3  UNL     1       0.160   3.772   1.689  1.00  0.00     0.011 C 
ENDBRANCH   5   6
ENDBRANCH   4   5
ENDBRANCH   3   4
BRANCH   3   9
HETATM    9  C14 UNL     1       1.791  -0.871  -0.311  1.00  0.00     0.034 C 
HETATM   10  C15 UNL     1       1.671  -2.143  -1.050  1.00  0.00     0.009 C 
HETATM   11  C16 UNL     1       3.094  -2.439  -1.580  1.00  0.00     0.001 C 
HETATM   12  C17 UNL     1       3.883  -2.937  -0.387  1.00  0.00     0.000 C 
HETATM   13  C18 UNL     1       3.316  -2.465   0.927  1.00  0.00     0.001 C 
HETATM   14  C19 UNL     1       2.667  -1.129   0.904  1.00  0.00     0.009 C 
ENDBRANCH   3   9
ENDBRANCH   1   3
BRANCH   1  15
HETATM   15  C6  UNL     1      -1.276  -1.705   0.097  1.00  0.00     0.095 C 
BRANCH  15  16
HETATM   16  C7  UNL     1      -2.147  -1.223  -1.063  1.00  0.00     0.254 C 
BRANCH  16  17
HETATM   17  N2  UNL     1      -2.856  -2.425  -1.525  1.00  0.00    -0.066 N 
ATOM     18  H23 UNL     1      -2.241  -3.203  -1.764  1.00  0.00     0.275 HD
ATOM     19  H22 UNL     1      -3.374  -2.908  -0.791  1.00  0.00     0.275 HD
ATOM     20  H21 UNL     1      -3.437  -2.103  -2.299  1.00  0.00     0.275 HD
ENDBRANCH  16  17
BRANCH  16  21
HETATM   21  C8  UNL     1      -3.183  -0.289  -0.588  1.00  0.00    -0.023 A 
HETATM   22  C9  UNL     1      -3.233   1.039  -0.914  1.00  0.00     0.009 A 
HETATM   23  C10 UNL     1      -4.208   1.902  -0.452  1.00  0.00     0.001 A 
HETATM   24  C11 UNL     1      -5.178   1.367   0.388  1.00  0.00     0.000 A 
HETATM   25  C12 UNL     1      -5.149   0.035   0.729  1.00  0.00     0.001 A 
HETATM   26  C13 UNL     1      -4.167  -0.790   0.251  1.00  0.00     0.009 A 
ENDBRANCH  16  21
ENDBRANCH  15  16
ENDBRANCH   1  15
TORSDOF 9
