REMARK  9 active torsions:
REMARK  status: ('A' for Active; 'I' for Inactive)
REMARK    1  A    between atoms: C2_3  and  N2_4 
REMARK    2  A    between atoms: C2_3  and  C14_19 
REMARK    3  A    between atoms: N2_4  and  C3_6 
REMARK    4  A    between atoms: C3_6  and  C4_7 
REMARK    5  A    between atoms: C3_6  and  C5_10 
REMARK    6  A    between atoms: C4_7  and  O1_8 
REMARK    7  A    between atoms: C5_10  and  C6_11 
REMARK    8  A    between atoms: C6_11  and  C7_12 
REMARK    9  A    between atoms: C7_12  and  C8_13 
ROOT
HETATM    1  N1  UNL     1       2.034  -2.434  -2.127  1.00  0.00    -0.190 NA
HETATM    2  C1  UNL     1       2.310  -1.894  -1.133  1.00  0.00     0.118 C 
HETATM    3  C2  UNL     1       2.672  -1.186   0.120  1.00  0.00     0.120 C 
ENDROOT
BRANCH   3   4
HETATM    4  N2  UNL     1       1.693  -0.368   0.636  1.00  0.00    -0.374 N 
ATOM      5  H2  UNL     1       1.346  -0.619   1.562  1.00  0.00     0.160 HD
BRANCH   4   6
HETATM    6  C3  UNL     1       1.121   0.747   0.063  1.00  0.00     0.106 C 
BRANCH   6   7
HETATM    7  C4  UNL     1       2.073   1.920  -0.222  1.00  0.00     0.189 C 
BRANCH   7   8
HETATM    8  O1  UNL     1       1.369   2.982  -0.793  1.00  0.00    -0.399 OA
ATOM      9  H1  UNL     1       1.957   3.707  -0.969  1.00  0.00     0.209 HD
ENDBRANCH   7   8
ENDBRANCH   6   7
BRANCH   6  10
HETATM   10  C5  UNL     1       0.216   0.567  -1.120  1.00  0.00     0.027 C 
BRANCH  10  11
HETATM   11  C6  UNL     1      -0.995  -0.294  -0.843  1.00  0.00     0.002 C 
BRANCH  11  12
HETATM   12  C7  UNL     1      -1.846   0.293   0.244  1.00  0.00     0.005 C 
BRANCH  12  13
HETATM   13  C8  UNL     1      -3.079  -0.590   0.509  1.00  0.00    -0.014 C 
HETATM   14  C9  UNL     1      -3.845   0.080   1.595  1.00  0.00     0.004 C 
HETATM   15  C10 UNL     1      -5.305  -0.182   1.624  1.00  0.00     0.000 C 
HETATM   16  C11 UNL     1      -5.870   0.180   0.252  1.00  0.00     0.000 C 
HETATM   17  C12 UNL     1      -5.272  -0.841  -0.705  1.00  0.00     0.000 C 
HETATM   18  C13 UNL     1      -3.785  -0.741  -0.786  1.00  0.00     0.004 C 
ENDBRANCH  12  13
ENDBRANCH  11  12
ENDBRANCH  10  11
ENDBRANCH   6  10
ENDBRANCH   4   6
ENDBRANCH   3   4
BRANCH   3  19
HETATM   19  C14 UNL     1       4.065  -0.706   0.073  1.00  0.00     0.001 A 
HETATM   20  C15 UNL     1       4.624  -0.082   1.160  1.00  0.00     0.014 A 
HETATM   21  C16 UNL     1       5.916   0.385   1.180  1.00  0.00     0.001 A 
HETATM   22  C17 UNL     1       6.693   0.223   0.058  1.00  0.00     0.000 A 
HETATM   23  C18 UNL     1       6.174  -0.398  -1.058  1.00  0.00     0.001 A 
HETATM   24  C19 UNL     1       4.856  -0.859  -1.040  1.00  0.00     0.014 A 
ENDBRANCH   3  19
TORSDOF 9
