REMARK  8 active torsions:
REMARK  status: ('A' for Active; 'I' for Inactive)
REMARK    1  A    between atoms: C2_2  and  C3_3 
REMARK    2  A    between atoms: C3_3  and  C5_5 
REMARK    3  A    between atoms: C6_8  and  C7_9 
REMARK    4  A    between atoms: C6_8  and  N3_22 
REMARK    5  A    between atoms: C7_9  and  N2_10 
REMARK    6  A    between atoms: N2_10  and  C8_13 
REMARK    7  A    between atoms: C8_13  and  C10_15 
REMARK    8  A    between atoms: C10_15  and  C11_16 
ROOT
HETATM    1  C5  UNL     1      -3.640  -0.483  -0.139  1.00  0.00    -0.012 C 
HETATM    2  N1  UNL     1      -2.870   0.515  -0.199  1.00  0.00    -0.363 N 
ATOM      3  H1  UNL     1      -3.125   1.421  -0.592  1.00  0.00     0.161 HD
HETATM    4  C6  UNL     1      -1.567   0.197   0.369  1.00  0.00     0.221 C 
HETATM    5  C18 UNL     1      -1.509  -1.331   0.273  1.00  0.00     0.069 C 
HETATM    6  C19 UNL     1      -2.976  -1.653   0.489  1.00  0.00     0.057 C 
ENDROOT
BRANCH   4   7
HETATM    7  C7  UNL     1      -0.525   0.804  -0.511  1.00  0.00     0.294 C 
BRANCH   7   8
HETATM    8  N2  UNL     1       0.787   0.510   0.023  1.00  0.00    -0.067 N 
ATOM      9  H22 UNL     1       0.874   0.808   0.995  1.00  0.00     0.277 HD
ATOM     10  H21 UNL     1       0.923  -0.492   0.156  1.00  0.00     0.277 HD
BRANCH   8  11
HETATM   11  C8  UNL     1       1.832   1.089  -0.813  1.00  0.00     0.182 C 
HETATM   12  C9  UNL     1       1.794   0.494  -2.156  1.00  0.00     0.040 C 
BRANCH  11  13
HETATM   13  C10 UNL     1       3.105   1.200  -0.084  1.00  0.00     0.037 C 
BRANCH  13  14
HETATM   14  C11 UNL     1       3.753   0.007   0.482  1.00  0.00    -0.013 C 
HETATM   15  C12 UNL     1       4.170  -1.082  -0.433  1.00  0.00     0.005 C 
HETATM   16  C13 UNL     1       5.532  -0.820  -1.072  1.00  0.00     0.000 C 
HETATM   17  C14 UNL     1       6.625  -0.842  -0.025  1.00  0.00     0.000 C 
HETATM   18  C15 UNL     1       6.048  -0.562   1.349  1.00  0.00     0.000 C 
HETATM   19  C16 UNL     1       5.026   0.514   1.198  1.00  0.00     0.005 C 
ENDBRANCH  13  14
ENDBRANCH  11  13
ENDBRANCH   8  11
ENDBRANCH   7   8
ENDBRANCH   4   7
BRANCH   4  20
HETATM   20  N3  UNL     1      -1.542   0.622   1.733  1.00  0.00    -0.051 N 
HETATM   21  C17 UNL     1      -1.784   2.021   1.912  1.00  0.00     0.270 C 
ATOM     22  H32 UNL     1      -2.194   0.072   2.291  1.00  0.00     0.279 HD
ATOM     23  H31 UNL     1      -0.664   0.351   2.176  1.00  0.00     0.279 HD
ENDBRANCH   4  20
BRANCH   1  24
HETATM   24  C3  UNL     1      -5.055  -0.508  -0.632  1.00  0.00     0.026 C 
HETATM   25  C4  UNL     1      -5.421   0.753  -1.354  1.00  0.00     0.016 C 
BRANCH  24  26
HETATM   26  C2  UNL     1      -5.945  -0.820   0.526  1.00  0.00     0.005 C 
HETATM   27  C1  UNL     1      -7.385  -0.990   0.100  1.00  0.00     0.006 C 
ENDBRANCH  24  26
ENDBRANCH   1  24
TORSDOF 8
