REMARK  13 active torsions:
REMARK  status: ('A' for Active; 'I' for Inactive)
REMARK    1  A    between atoms: C2_2  and  C3_3 
REMARK    2  A    between atoms: C3_3  and  C4_4 
REMARK    3  A    between atoms: C7_7  and  C9_9 
REMARK    4  A    between atoms: C9_9  and  O1_10 
REMARK    5  A    between atoms: C9_9  and  N1_12 
REMARK    6  A    between atoms: N1_12  and  C10_14 
REMARK    7  A    between atoms: C10_14  and  C11_15 
REMARK    8  A    between atoms: C10_14  and  C12_19 
REMARK    9  A    between atoms: C11_15  and  N2_16 
REMARK   10  A    between atoms: C12_19  and  C13_20 
REMARK   11  A    between atoms: C13_20  and  C14_21 
REMARK   12  A    between atoms: C14_21  and  C15_22 
REMARK   13  A    between atoms: C16_23  and  C17_24 
ROOT
HETATM    1  C10 UNL     1       1.998   0.259   0.139  1.00  0.00     0.172 C 
ENDROOT
BRANCH   1   2
HETATM    2  N1  UNL     1       3.476   0.084   0.384  1.00  0.00    -0.358 N 
ATOM      3  H1  UNL     1       3.857   0.501   1.233  1.00  0.00     0.162 HD
BRANCH   2   4
HETATM    4  C9  UNL     1       4.363  -0.591  -0.438  1.00  0.00     0.121 C 
BRANCH   4   5
HETATM    5  C7  UNL     1       5.800  -0.868  -0.228  1.00  0.00     0.029 A 
HETATM    6  C3  UNL     1       6.889   0.098  -0.454  1.00  0.00    -0.025 A 
HETATM    7  C6  UNL     1       6.585  -0.985  -1.492  1.00  0.00     0.029 A 
HETATM    8  C8  UNL     1       6.037  -1.693   1.031  1.00  0.00     0.025 C 
BRANCH   6   9
HETATM    9  C2  UNL     1       8.253  -0.182   0.169  1.00  0.00     0.006 C 
HETATM   10  C1  UNL     1       8.509   0.496   1.460  1.00  0.00     0.006 C 
ENDBRANCH   6   9
BRANCH   6  11
HETATM   11  C4  UNL     1       6.641   1.538  -0.730  1.00  0.00     0.006 C 
HETATM   12  C5  UNL     1       7.640   2.105  -1.714  1.00  0.00     0.006 C 
ENDBRANCH   6  11
ENDBRANCH   4   5
BRANCH   4  13
HETATM   13  O1  UNL     1       3.896  -1.070  -1.555  1.00  0.00    -0.349 OA
ATOM     14  H1  UNL     1       2.973  -0.892  -1.690  1.00  0.00     0.219 HD
ENDBRANCH   4  13
ENDBRANCH   2   4
ENDBRANCH   1   2
BRANCH   1  15
HETATM   15  C11 UNL     1       1.589  -0.290  -1.130  1.00  0.00    -0.052 C 
BRANCH  15  16
HETATM   16  N2  UNL     1       1.249  -0.694  -2.208  1.00  0.00    -0.368 N 
ATOM     17  H22 UNL     1       1.368   0.319  -2.215  1.00  0.00     0.165 HD
ATOM     18  H21 UNL     1       0.960  -1.082  -3.106  1.00  0.00     0.165 HD
ENDBRANCH  15  16
ENDBRANCH   1  15
BRANCH   1  19
HETATM   19  C12 UNL     1       1.339  -0.391   1.268  1.00  0.00     0.039 C 
BRANCH  19  20
HETATM   20  C13 UNL     1      -0.093  -0.587   1.514  1.00  0.00     0.007 C 
BRANCH  20  21
HETATM   21  C14 UNL     1      -0.794  -1.395   0.427  1.00  0.00     0.027 C 
BRANCH  21  22
HETATM   22  C15 UNL     1      -2.104  -1.949   0.763  1.00  0.00    -0.029 C 
HETATM   23  C16 UNL     1      -3.353  -1.332   1.034  1.00  0.00    -0.016 C 
BRANCH  23  24
HETATM   24  C17 UNL     1      -4.199  -0.600   0.083  1.00  0.00     0.012 C 
HETATM   25  C18 UNL     1      -4.568  -1.455  -1.123  1.00  0.00     0.026 C 
HETATM   26  C19 UNL     1      -5.612  -0.568   0.849  1.00  0.00     0.024 C 
HETATM   27  C20 UNL     1      -6.683  -0.066  -0.048  1.00  0.00    -0.009 C 
HETATM   28  C21 UNL     1      -7.952  -0.020   0.813  1.00  0.00     0.011 C 
HETATM   29  C22 UNL     1      -6.438   1.296  -0.645  1.00  0.00    -0.040 C 
HETATM   30  C23 UNL     1      -6.878   2.399   0.310  1.00  0.00     0.015 C 
HETATM   31  C24 UNL     1      -7.352   1.388  -1.881  1.00  0.00     0.015 C 
HETATM   32  C25 UNL     1      -5.043   1.478  -1.077  1.00  0.00     0.062 C 
HETATM   33  C26 UNL     1      -3.994   0.803  -0.217  1.00  0.00    -0.007 C 
HETATM   34  N3  UNL     1      -3.065   1.574   0.170  1.00  0.00    -0.405 N 
ATOM     35  H32 UNL     1      -2.359   1.120   0.749  1.00  0.00     0.155 HD
ATOM     36  H31 UNL     1      -2.921   2.561  -0.041  1.00  0.00     0.155 HD
ENDBRANCH  23  24
ENDBRANCH  21  22
ENDBRANCH  20  21
ENDBRANCH  19  20
ENDBRANCH   1  19
TORSDOF 13
