REMARK  12 active torsions:
REMARK  status: ('A' for Active; 'I' for Inactive)
REMARK    1  A    between atoms: C2_2  and  C3_4 
REMARK    2  A    between atoms: C3_4  and  C4_5 
REMARK    3  A    between atoms: C4_5  and  C5_6 
REMARK    4  A    between atoms: C5_6  and  C6_7 
REMARK    5  A    between atoms: C6_7  and  C7_8 
REMARK    6  A    between atoms: C7_8  and  C8_9 
REMARK    7  A    between atoms: C8_9  and  C9_10 
REMARK    8  A    between atoms: C9_10  and  C10_11 
REMARK    9  A    between atoms: C15_16  and  C16_17 
REMARK   10  A    between atoms: C16_17  and  O2_18 
REMARK   11  A    between atoms: C19_22  and  C20_23 
REMARK   12  A    between atoms: C26_29  and  O3_30 
ROOT
HETATM    1  C10 UNL     1      -1.135  -0.285   0.196  1.00  0.00    -0.006 C 
HETATM    2  C11 UNL     1      -0.947  -1.707   0.695  1.00  0.00    -0.003 C 
HETATM    3  C12 UNL     1      -0.861  -1.886   2.149  1.00  0.00     0.011 C 
HETATM    4  C13 UNL     1      -1.917  -2.602  -0.032  1.00  0.00    -0.001 C 
HETATM    5  C14 UNL     1      -1.223  -3.824  -0.628  1.00  0.00     0.011 C 
HETATM    6  C15 UNL     1      -2.428  -1.739  -1.120  1.00  0.00     0.011 C 
HETATM    7  C17 UNL     1      -3.711  -1.131  -0.613  1.00  0.00     0.015 C 
HETATM    8  C18 UNL     1      -3.473  -0.618   0.797  1.00  0.00     0.007 C 
HETATM    9  C19 UNL     1      -2.297   0.380   0.840  1.00  0.00     0.001 C 
HETATM   10  C26 UNL     1      -1.365  -0.637  -1.246  1.00  0.00     0.138 C 
ENDROOT
BRANCH   1  11
HETATM   11  C9  UNL     1       0.165   0.403   0.455  1.00  0.00     0.013 C 
BRANCH  11  12
HETATM   12  C8  UNL     1       1.377  -0.172  -0.238  1.00  0.00     0.001 C 
BRANCH  12  13
HETATM   13  C7  UNL     1       2.522   0.772   0.188  1.00  0.00     0.000 C 
BRANCH  13  14
HETATM   14  C6  UNL     1       3.848   0.360  -0.441  1.00  0.00     0.000 C 
BRANCH  14  15
HETATM   15  C5  UNL     1       4.265  -1.003  -0.055  1.00  0.00     0.000 C 
BRANCH  15  16
HETATM   16  C4  UNL     1       5.537  -1.544  -0.599  1.00  0.00     0.007 C 
BRANCH  16  17
HETATM   17  C3  UNL     1       6.784  -0.825  -0.306  1.00  0.00     0.077 C 
BRANCH  17  18
HETATM   18  C2  UNL     1       7.038   0.481  -0.888  1.00  0.00     0.123 C 
HETATM   19  C1  UNL     1       8.039   1.367  -0.189  1.00  0.00     0.091 C 
HETATM   20  O1  UNL     1       6.485   0.869  -1.889  1.00  0.00    -0.298 OA
ENDBRANCH  17  18
ENDBRANCH  16  17
ENDBRANCH  15  16
ENDBRANCH  14  15
ENDBRANCH  13  14
ENDBRANCH  12  13
ENDBRANCH  11  12
ENDBRANCH   1  11
BRANCH   9  21
HETATM   21  C20 UNL     1      -2.859   1.623   0.363  1.00  0.00    -0.010 C 
HETATM   22  C21 UNL     1      -3.974   2.017   1.351  1.00  0.00     0.005 C 
HETATM   23  C22 UNL     1      -3.700   3.391   1.975  1.00  0.00     0.000 C 
HETATM   24  C23 UNL     1      -3.664   4.484   0.975  1.00  0.00     0.000 C 
HETATM   25  C24 UNL     1      -3.110   3.926  -0.306  1.00  0.00     0.000 C 
HETATM   26  C25 UNL     1      -2.092   2.837   0.109  1.00  0.00     0.005 C 
ENDBRANCH   9  21
BRANCH  10  27
HETATM   27  O3  UNL     1      -1.821   0.314  -2.076  1.00  0.00    -0.394 OA
ATOM     28  H3  UNL     1      -1.966   0.091  -2.988  1.00  0.00     0.210 HD
ENDBRANCH  10  27
BRANCH   6  29
HETATM   29  C16 UNL     1      -2.711  -2.391  -2.425  1.00  0.00     0.176 C 
BRANCH  29  30
HETATM   30  O2  UNL     1      -3.660  -3.375  -2.280  1.00  0.00    -0.400 OA
ATOM     31  H2  UNL     1      -3.841  -3.792  -3.114  1.00  0.00     0.209 HD
ENDBRANCH  29  30
ENDBRANCH   6  29
TORSDOF 12
