REMARK  11 active torsions:
REMARK  status: ('A' for Active; 'I' for Inactive)
REMARK    1  A    between atoms: C5_5  and  O1_6 
REMARK    2  A    between atoms: C11_13  and  N1_14 
REMARK    3  A    between atoms: N1_14  and  C12_17 
REMARK    4  A    between atoms: C12_17  and  C13_18 
REMARK    5  A    between atoms: C13_18  and  C14_19 
REMARK    6  A    between atoms: C14_19  and  C15_20 
REMARK    7  A    between atoms: C15_20  and  C16_21 
REMARK    8  A    between atoms: C16_21  and  C17_22 
REMARK    9  A    between atoms: C17_22  and  C18_23 
REMARK   10  A    between atoms: C18_23  and  C19_24 
REMARK   11  A    between atoms: C19_24  and  N2_25 
ROOT
HETATM    1  C12 UNL     1      -3.027   1.958  -1.137  1.00  0.00     0.232 C 
ENDROOT
BRANCH   1   2
HETATM    2  N1  UNL     1      -3.496   0.737  -1.699  1.00  0.00    -0.070 N 
ATOM      3  H12 UNL     1      -2.718   0.183  -2.057  1.00  0.00     0.277 HD
ATOM      4  H11 UNL     1      -3.997   0.910  -2.570  1.00  0.00     0.277 HD
BRANCH   2   5
HETATM    5  C11 UNL     1      -4.289  -0.030  -0.809  1.00  0.00     0.194 C 
HETATM    6  C2  UNL     1      -5.536   0.722  -0.456  1.00  0.00     0.046 C 
HETATM    7  C1  UNL     1      -6.104   1.408  -1.694  1.00  0.00     0.017 C 
HETATM    8  C3  UNL     1      -6.573  -0.187   0.076  1.00  0.00    -0.043 A 
HETATM    9  C4  UNL     1      -7.792   0.362   0.475  1.00  0.00     0.044 A 
HETATM   10  C8  UNL     1      -6.444  -1.541   0.213  1.00  0.00    -0.051 A 
HETATM   11  C5  UNL     1      -8.823  -0.407   0.984  1.00  0.00     0.066 A 
HETATM   12  C6  UNL     1      -8.668  -1.771   1.113  1.00  0.00     0.037 A 
HETATM   13  C7  UNL     1      -7.449  -2.332   0.715  1.00  0.00     0.010 A 
HETATM   14  C9  UNL     1      -5.165  -2.230  -0.204  1.00  0.00     0.041 C 
HETATM   15  C10 UNL     1      -4.660  -1.386  -1.388  1.00  0.00     0.038 C 
BRANCH  11  16
HETATM   16  O1  UNL     1     -10.029   0.142   1.378  1.00  0.00    -0.361 OA
ATOM     17  H1  UNL     1     -10.737  -0.386   1.728  1.00  0.00     0.217 HD
ENDBRANCH  11  16
ENDBRANCH   2   5
ENDBRANCH   1   2
BRANCH   1  18
HETATM   18  C13 UNL     1      -1.979   1.622  -0.064  1.00  0.00     0.027 C 
BRANCH  18  19
HETATM   19  C14 UNL     1      -0.897   0.875  -0.766  1.00  0.00     0.002 C 
BRANCH  19  20
HETATM   20  C15 UNL     1       0.254   0.455   0.127  1.00  0.00     0.000 C 
BRANCH  20  21
HETATM   21  C16 UNL     1       0.936   1.618   0.759  1.00  0.00     0.000 C 
BRANCH  21  22
HETATM   22  C17 UNL     1       2.056   1.159   1.641  1.00  0.00     0.002 C 
BRANCH  22  23
HETATM   23  C18 UNL     1       3.074   0.389   0.837  1.00  0.00     0.030 C 
BRANCH  23  24
HETATM   24  C19 UNL     1       4.186  -0.011   1.781  1.00  0.00     0.273 C 
BRANCH  24  25
HETATM   25  N2  UNL     1       5.225  -0.761   1.146  1.00  0.00     0.093 N 
HETATM   26  C20 UNL     1       4.857  -2.058   0.712  1.00  0.00     0.273 C 
HETATM   27  C21 UNL     1       5.988  -2.460  -0.203  1.00  0.00     0.037 C 
HETATM   28  C22 UNL     1       6.517  -1.167  -0.709  1.00  0.00     0.021 C 
HETATM   29  C23 UNL     1       8.035  -1.116  -0.723  1.00  0.00     0.007 C 
HETATM   30  C27 UNL     1       5.929  -0.063   0.118  1.00  0.00     0.227 C 
HETATM   31  C24 UNL     1       8.406   0.266  -1.235  1.00  0.00     0.001 C 
HETATM   32  C25 UNL     1       8.031   1.269  -0.196  1.00  0.00     0.002 C 
HETATM   33  C26 UNL     1       6.970   0.817   0.761  1.00  0.00     0.036 C 
ENDBRANCH  24  25
ENDBRANCH  23  24
ENDBRANCH  22  23
ENDBRANCH  21  22
ENDBRANCH  20  21
ENDBRANCH  19  20
ENDBRANCH  18  19
ENDBRANCH   1  18
TORSDOF 11
