REMARK  12 active torsions:
REMARK  status: ('A' for Active; 'I' for Inactive)
REMARK    1  A    between atoms: C2_2  and  C3_3 
REMARK    2  A    between atoms: C3_3  and  C4_4 
REMARK    3  A    between atoms: C4_4  and  O1_5 
REMARK    4  A    between atoms: O1_5  and  C5_6 
REMARK    5  A    between atoms: C5_6  and  C6_8 
REMARK    6  A    between atoms: C12_20  and  C13_21 
REMARK    7  A    between atoms: C14_22  and  C15_23 
REMARK    8  A    between atoms: C16_24  and  C17_25 
REMARK    9  A    between atoms: C18_26  and  C19_27 
REMARK   10  A    between atoms: C19_27  and  N3_28 
REMARK   11  A    between atoms: C21_33  and  C22_34 
REMARK   12  A    between atoms: C23_38  and  C24_39 
ROOT
HETATM    1  C13 UNL     1       1.428  -1.720  -0.419  1.00  0.00    -0.015 C 
HETATM    2  C14 UNL     1       0.132  -1.468  -0.357  1.00  0.00    -0.004 C 
ENDROOT
BRANCH   1   3
HETATM    3  C12 UNL     1       2.284  -1.848   0.801  1.00  0.00     0.071 C 
HETATM    4  C6  UNL     1       3.054  -0.709   1.223  1.00  0.00     0.143 C 
HETATM    5  C7  UNL     1       4.401  -0.991   1.740  1.00  0.00    -0.001 C 
HETATM    6  C8  UNL     1       5.177   0.162   2.347  1.00  0.00     0.064 C 
HETATM    7  N1  UNL     1       4.967  -2.106   1.720  1.00  0.00    -0.348 N 
HETATM    8  C9  UNL     1       4.335  -3.293   1.174  1.00  0.00     0.122 A 
ATOM      9  H1  UNL     1       5.909  -2.184   2.102  1.00  0.00     0.167 HD
HETATM   10  N2  UNL     1       4.886  -4.485   1.050  1.00  0.00    -0.303 N 
HETATM   11  C11 UNL     1       3.075  -3.124   0.691  1.00  0.00     0.041 A 
HETATM   12  C10 UNL     1       4.188  -5.446   0.464  1.00  0.00     0.290 A 
ATOM     13  H2  UNL     1       5.828  -4.663   1.398  1.00  0.00     0.171 HD
HETATM   14  O3  UNL     1       4.552  -6.664   0.254  1.00  0.00    -0.260 OA
HETATM   15  S1  UNL     1       2.718  -4.683   0.068  1.00  0.00    -0.029 SA
BRANCH   4  16
HETATM   16  C5  UNL     1       3.123   0.440   0.249  1.00  0.00     0.269 C 
HETATM   17  O2  UNL     1       2.889   0.258  -0.958  1.00  0.00    -0.264 OA
BRANCH  16  18
HETATM   18  O1  UNL     1       3.449   1.693   0.691  1.00  0.00    -0.321 OA
BRANCH  18  19
HETATM   19  C4  UNL     1       3.557   2.845  -0.085  1.00  0.00     0.178 C 
BRANCH  19  20
HETATM   20  C3  UNL     1       4.624   2.756  -1.137  1.00  0.00     0.026 C 
BRANCH  20  21
HETATM   21  C2  UNL     1       4.694   4.021  -1.951  1.00  0.00    -0.002 C 
HETATM   22  C1  UNL     1       4.996   5.253  -1.134  1.00  0.00     0.005 C 
ENDBRANCH  20  21
ENDBRANCH  19  20
ENDBRANCH  18  19
ENDBRANCH  16  18
ENDBRANCH   4  16
ENDBRANCH   1   3
BRANCH   2  23
HETATM   23  C15 UNL     1      -0.717  -1.340  -1.514  1.00  0.00    -0.004 C 
HETATM   24  C16 UNL     1      -1.991  -1.107  -1.543  1.00  0.00    -0.021 C 
BRANCH  24  25
HETATM   25  C17 UNL     1      -2.910  -0.907  -0.405  1.00  0.00     0.019 A 
HETATM   26  C18 UNL     1      -3.903  -2.002  -0.205  1.00  0.00     0.019 A 
HETATM   27  C20 UNL     1      -5.243  -1.374  -0.097  1.00  0.00     0.021 A 
HETATM   28  C21 UNL     1      -5.124   0.117  -0.288  1.00  0.00     0.099 A 
HETATM   29  C23 UNL     1      -3.666   0.397  -0.443  1.00  0.00     0.014 A 
BRANCH  26  30
HETATM   30  C19 UNL     1      -3.869  -3.047  -1.295  1.00  0.00     0.234 C 
BRANCH  30  31
HETATM   31  N3  UNL     1      -4.845  -4.096  -1.075  1.00  0.00    -0.079 N 
ATOM     32  H33 UNL     1      -4.732  -4.519  -0.154  1.00  0.00     0.274 HD
ATOM     33  H32 UNL     1      -5.783  -3.711  -0.961  1.00  0.00     0.274 HD
ATOM     34  H31 UNL     1      -4.822  -4.802  -1.811  1.00  0.00     0.274 HD
ENDBRANCH  30  31
ENDBRANCH  26  30
BRANCH  28  35
HETATM   35  C22 UNL     1      -5.945   0.471  -1.528  1.00  0.00     0.391 C 
HETATM   36  F1  UNL     1      -5.471  -0.181  -2.645  1.00  0.00    -0.171 F 
HETATM   37  F2  UNL     1      -7.256  -0.023  -1.373  1.00  0.00    -0.171 F 
HETATM   38  F3  UNL     1      -6.101   1.824  -1.707  1.00  0.00    -0.171 F 
ENDBRANCH  28  35
BRANCH  29  39
HETATM   39  C24 UNL     1      -3.115   1.478   0.416  1.00  0.00    -0.046 C 
HETATM   40  C25 UNL     1      -3.053   1.113   1.883  1.00  0.00     0.015 C 
HETATM   41  C26 UNL     1      -3.935   2.755   0.384  1.00  0.00     0.015 C 
HETATM   42  C27 UNL     1      -1.731   1.864  -0.039  1.00  0.00     0.015 C 
ENDBRANCH  29  39
ENDBRANCH  24  25
ENDBRANCH   2  23
TORSDOF 12
