REMARK  8 active torsions:
REMARK  status: ('A' for Active; 'I' for Inactive)
REMARK    1  A    between atoms: C2_2  and  C3_3 
REMARK    2  A    between atoms: C6_10  and  C7_11 
REMARK    3  A    between atoms: C8_12  and  O1_13 
REMARK    4  A    between atoms: N4_26  and  C17_27 
REMARK    5  A    between atoms: C17_27  and  N5_28 
REMARK    6  A    between atoms: C23_35  and  O2_36 
REMARK    7  A    between atoms: O2_36  and  C24_37 
REMARK    8  A    between atoms: C24_37  and  C25_38 
ROOT
HETATM    1  C3  UNL     1      -2.390  -1.526  -1.818  1.00  0.00     0.051 A 
HETATM    2  N1  UNL     1      -1.178  -1.220  -1.371  1.00  0.00    -0.351 N 
ATOM      3  H1  UNL     1      -0.377  -1.672  -1.812  1.00  0.00     0.166 HD
HETATM    4  C4  UNL     1      -0.933  -0.326  -0.344  1.00  0.00     0.119 A 
HETATM    5  C5  UNL     1       0.464  -0.176  -0.006  1.00  0.00     0.140 A 
HETATM    6  N2  UNL     1       1.378  -0.960  -0.737  1.00  0.00    -0.338 N 
ATOM      7  H2  UNL     1       1.109  -1.611  -1.475  1.00  0.00     0.167 HD
HETATM    8  C6  UNL     1       2.588  -0.758  -0.365  1.00  0.00     0.072 A 
HETATM    9  C15 UNL     1       2.555   0.164   0.624  1.00  0.00     0.039 A 
HETATM   10  C16 UNL     1       3.699   0.728   1.373  1.00  0.00     0.071 C 
HETATM   11  N4  UNL     1       1.218   0.499   0.814  1.00  0.00    -0.316 N 
HETATM   12  C22 UNL     1      -2.015   0.230   0.194  1.00  0.00     0.183 A 
HETATM   13  F1  UNL     1      -1.991   1.084   1.218  1.00  0.00    -0.200 F 
HETATM   14  C23 UNL     1      -3.353  -0.054  -0.239  1.00  0.00     0.150 A 
HETATM   15  C28 UNL     1      -3.507  -0.948  -1.260  1.00  0.00     0.175 A 
HETATM   16  F2  UNL     1      -4.714  -1.305  -1.763  1.00  0.00    -0.201 F 
ENDROOT
BRANCH  11  17
HETATM   17  C17 UNL     1       0.848   1.537   1.743  1.00  0.00     0.251 C 
BRANCH  17  18
HETATM   18  N5  UNL     1       1.054   2.850   1.260  1.00  0.00    -0.397 N 
HETATM   19  C18 UNL     1       0.538   3.267   0.036  1.00  0.00     0.118 C 
HETATM   20  C19 UNL     1       0.460   4.795   0.078  1.00  0.00     0.021 C 
HETATM   21  C20 UNL     1       0.374   5.128   1.557  1.00  0.00     0.021 C 
HETATM   22  C21 UNL     1       0.906   3.894   2.209  1.00  0.00     0.118 C 
ENDBRANCH  17  18
ENDBRANCH  11  17
BRANCH   8  23
HETATM   23  C7  UNL     1       3.754  -1.440  -0.949  1.00  0.00     0.056 A 
HETATM   24  C8  UNL     1       4.499  -1.045  -2.025  1.00  0.00     0.154 A 
HETATM   25  N3  UNL     1       5.448  -1.953  -2.197  1.00  0.00    -0.336 N 
HETATM   26  C9  UNL     1       5.362  -2.934  -1.278  1.00  0.00     0.047 A 
ATOM     27  H3  UNL     1       6.154  -1.914  -2.932  1.00  0.00     0.168 HD
HETATM   28  C10 UNL     1       6.095  -4.085  -1.029  1.00  0.00     0.054 A 
HETATM   29  C14 UNL     1       4.289  -2.623  -0.476  1.00  0.00     0.007 A 
HETATM   30  C11 UNL     1       5.727  -4.891   0.023  1.00  0.00     0.036 A 
HETATM   31 CL1  UNL     1       6.639  -6.347   0.354  1.00  0.00    -0.084 Cl
HETATM   32  C12 UNL     1       4.652  -4.574   0.822  1.00  0.00     0.025 A 
HETATM   33  C13 UNL     1       3.927  -3.448   0.585  1.00  0.00     0.016 A 
BRANCH  24  34
HETATM   34  O1  UNL     1       4.265   0.119  -2.780  1.00  0.00    -0.345 OA
ATOM     35  H1  UNL     1       4.783   0.393  -3.528  1.00  0.00     0.219 HD
ENDBRANCH  24  34
ENDBRANCH   8  23
BRANCH   1  36
HETATM   36  C2  UNL     1      -2.562  -2.487  -2.931  1.00  0.00     0.056 C 
HETATM   37  C1  UNL     1      -3.049  -3.835  -2.509  1.00  0.00     0.011 C 
ENDBRANCH   1  36
BRANCH  14  38
HETATM   38  O2  UNL     1      -4.431   0.542   0.342  1.00  0.00    -0.345 OA
BRANCH  38  39
HETATM   39  C24 UNL     1      -5.152   0.066   1.443  1.00  0.00     0.180 C 
BRANCH  39  40
HETATM   40  C25 UNL     1      -6.259   1.049   1.740  1.00  0.00     0.010 A 
HETATM   41  C26 UNL     1      -7.283   1.351   0.735  1.00  0.00     0.007 A 
HETATM   42  C27 UNL     1      -6.191   2.366   0.974  1.00  0.00     0.007 A 
ENDBRANCH  39  40
ENDBRANCH  38  39
ENDBRANCH  14  38
TORSDOF 8
