REMARK  13 active torsions:
REMARK  status: ('A' for Active; 'I' for Inactive)
REMARK    1  A    between atoms: C2_2  and  C3_3 
REMARK    2  A    between atoms: C3_3  and  N1_4 
REMARK    3  A    between atoms: N1_4  and  C4_5 
REMARK    4  A    between atoms: N1_4  and  C7_8 
REMARK    5  A    between atoms: C4_5  and  C5_6 
REMARK    6  A    between atoms: C7_8  and  O1_9 
REMARK    7  A    between atoms: C7_8  and  C8_11 
REMARK    8  A    between atoms: C11_14  and  N2_15 
REMARK    9  A    between atoms: C14_24  and  C15_25 
REMARK   10  A    between atoms: C16_26  and  C17_27 
REMARK   11  A    between atoms: C17_27  and  O2_28 
REMARK   12  A    between atoms: C17_27  and  C18_30 
REMARK   13  A    between atoms: C17_27  and  C25_37 
ROOT
HETATM    1  C8  UNL     1      -4.541   0.876   0.922  1.00  0.00     0.058 A 
HETATM    2  C9  UNL     1      -4.024   0.074  -0.034  1.00  0.00     0.041 A 
HETATM    3  C10 UNL     1      -2.694  -0.159  -0.053  1.00  0.00     0.043 A 
HETATM    4  C11 UNL     1      -1.965  -0.958  -0.961  1.00  0.00     0.115 A 
HETATM    5  N3  UNL     1      -0.637  -1.114  -0.877  1.00  0.00    -0.318 N 
HETATM    6  C12 UNL     1       0.054  -0.501   0.093  1.00  0.00     0.116 A 
HETATM    7  N4  UNL     1      -0.585   0.268   0.980  1.00  0.00    -0.335 N 
ATOM      8  H4  UNL     1      -0.054   0.732   1.717  1.00  0.00     0.168 HD
HETATM    9  C13 UNL     1      -1.944   0.442   0.914  1.00  0.00     0.090 A 
HETATM   10  S1  UNL     1      -3.097   1.307   1.815  1.00  0.00    -0.067 SA
HETATM   11  C14 UNL     1       1.520  -0.846  -0.035  1.00  0.00    -0.012 C 
HETATM   12  C26 UNL     1       1.427  -2.160  -0.692  1.00  0.00     0.062 C 
HETATM   13  C27 UNL     1       0.293  -1.874  -1.697  1.00  0.00     0.137 C 
ENDROOT
BRANCH  11  14
HETATM   14  C15 UNL     1       2.500  -0.092   0.334  1.00  0.00     0.010 C 
HETATM   15  C16 UNL     1       3.922  -0.053   0.386  1.00  0.00     0.021 C 
BRANCH  15  16
HETATM   16  C17 UNL     1       4.892  -1.106   0.197  1.00  0.00     0.177 C 
BRANCH  16  17
HETATM   17  O2  UNL     1       4.782  -1.759  -1.033  1.00  0.00    -0.377 OA
ATOM     18  H2  UNL     1       5.420  -2.452  -1.157  1.00  0.00     0.211 HD
ENDBRANCH  16  17
BRANCH  16  19
HETATM   19  C18 UNL     1       6.294  -0.398  -0.029  1.00  0.00     0.033 C 
HETATM   20  C19 UNL     1       6.747   0.443   1.071  1.00  0.00     0.008 C 
HETATM   21  C20 UNL     1       7.351   1.740   0.539  1.00  0.00     0.000 C 
HETATM   22  C21 UNL     1       8.632   1.594  -0.175  1.00  0.00     0.000 C 
HETATM   23  C22 UNL     1       9.155   0.217  -0.373  1.00  0.00     0.000 C 
HETATM   24  C23 UNL     1       8.317  -0.601  -1.336  1.00  0.00     0.000 C 
HETATM   25  C24 UNL     1       7.318  -1.380  -0.457  1.00  0.00     0.008 C 
ENDBRANCH  16  19
BRANCH  16  26
HETATM   26  C25 UNL     1       5.042  -2.063   1.306  1.00  0.00     0.422 C 
HETATM   27  F1  UNL     1       6.003  -3.059   1.019  1.00  0.00    -0.167 F 
HETATM   28  F2  UNL     1       5.405  -1.446   2.511  1.00  0.00    -0.167 F 
HETATM   29  F3  UNL     1       3.901  -2.744   1.584  1.00  0.00    -0.167 F 
ENDBRANCH  16  26
ENDBRANCH  15  16
ENDBRANCH  11  14
BRANCH   4  30
HETATM   30  N2  UNL     1      -2.544  -1.591  -1.933  1.00  0.00    -0.385 N 
ATOM     31  H22 UNL     1      -3.555  -1.472  -1.997  1.00  0.00     0.157 HD
ATOM     32  H21 UNL     1      -2.017  -2.168  -2.589  1.00  0.00     0.157 HD
ENDBRANCH   4  30
BRANCH   1  33
HETATM   33  C7  UNL     1      -5.876   1.340   1.239  1.00  0.00     0.155 C 
BRANCH  33  34
HETATM   34  N1  UNL     1      -7.046   1.059   0.570  1.00  0.00    -0.361 N 
BRANCH  34  35
HETATM   35  C3  UNL     1      -8.280   1.687   1.156  1.00  0.00     0.124 C 
BRANCH  35  36
HETATM   36  C2  UNL     1      -8.461   3.024   0.510  1.00  0.00     0.015 C 
HETATM   37  C1  UNL     1      -9.672   3.717   1.038  1.00  0.00     0.006 C 
ENDBRANCH  35  36
ENDBRANCH  34  35
BRANCH  34  38
HETATM   38  C4  UNL     1      -7.292   0.277  -0.594  1.00  0.00     0.124 C 
BRANCH  38  39
HETATM   39  C5  UNL     1      -7.578  -1.179  -0.224  1.00  0.00     0.015 C 
HETATM   40  C6  UNL     1      -7.836  -2.001  -1.470  1.00  0.00     0.006 C 
ENDBRANCH  38  39
ENDBRANCH  34  38
ENDBRANCH  33  34
BRANCH  33  41
HETATM   41  O1  UNL     1      -5.930   2.111   2.289  1.00  0.00    -0.345 OA
ATOM     42  H1  UNL     1      -5.123   2.305   2.751  1.00  0.00     0.219 HD
ENDBRANCH  33  41
ENDBRANCH   1  33
TORSDOF 13
