REMARK  3 active torsions:
REMARK  status: ('A' for Active; 'I' for Inactive)
REMARK    1  A    between atoms: C11_11  and  N1_12 
REMARK    2  A    between atoms: N1_12  and  S1_14 
REMARK    3  A    between atoms: C13_18  and  C14_19 
ROOT
HETATM    1  C1  UNL     1       4.902  -1.738   0.050  1.00  0.00     0.043 C 
HETATM    2  C2  UNL     1       3.572  -1.184  -0.277  1.00  0.00    -0.083 C 
HETATM    3  C3  UNL     1       3.024  -1.186  -1.486  1.00  0.00    -0.024 C 
HETATM    4  C4  UNL     1       1.661  -0.524  -1.368  1.00  0.00     0.033 C 
HETATM    5  C5  UNL     1       1.943   0.396  -0.262  1.00  0.00     0.002 C 
HETATM    6  C6  UNL     1       2.654  -0.535   0.705  1.00  0.00     0.018 C 
HETATM    7  C7  UNL     1       1.771  -1.457   1.443  1.00  0.00     0.010 C 
HETATM    8  C8  UNL     1       0.316  -1.203   1.450  1.00  0.00     0.012 C 
HETATM    9  C9  UNL     1      -0.194   0.103   1.033  1.00  0.00    -0.018 C 
HETATM   10  C10 UNL     1      -0.770   0.826   2.272  1.00  0.00     0.018 C 
HETATM   11  C11 UNL     1      -1.433   0.003   0.115  1.00  0.00     0.106 C 
HETATM   12  C13 UNL     1      -1.932   1.357  -0.239  1.00  0.00     0.020 C 
HETATM   13  C15 UNL     1      -0.884   2.136  -1.016  1.00  0.00     0.012 C 
HETATM   14  C16 UNL     1       0.296   2.284  -0.135  1.00  0.00    -0.013 C 
HETATM   15  C17 UNL     1       1.449   2.952  -0.898  1.00  0.00     0.010 C 
HETATM   16  C18 UNL     1       0.841   1.046   0.488  1.00  0.00     0.004 C 
ENDROOT
BRANCH  11  17
HETATM   17  N1  UNL     1      -2.448  -0.751   0.792  1.00  0.00    -0.314 N 
ATOM     18  H1  UNL     1      -2.847  -0.451   1.681  1.00  0.00     0.172 HD
BRANCH  17  19
HETATM   19  S1  UNL     1      -2.941  -2.181   0.010  1.00  0.00     0.223 S 
HETATM   20  C12 UNL     1      -4.628  -2.161  -0.546  1.00  0.00     0.185 C 
HETATM   21  O1  UNL     1      -2.829  -3.343   0.987  1.00  0.00    -0.206 OA
HETATM   22  O2  UNL     1      -2.119  -2.496  -1.223  1.00  0.00    -0.206 OA
ENDBRANCH  17  19
ENDBRANCH  11  17
BRANCH  12  23
HETATM   23  C14 UNL     1      -3.149   1.256  -1.115  1.00  0.00     0.091 C 
HETATM   24 BR1  UNL     1      -3.708   3.091  -1.531  1.00  0.00    -0.096 Br
ENDBRANCH  12  23
TORSDOF 3
