REMARK  3 active torsions:
REMARK  status: ('A' for Active; 'I' for Inactive)
REMARK    1  A    between atoms: C2_2  and  C3_3 
REMARK       I    between atoms: C3_3  and  N1_5 
REMARK    2  A    between atoms: C8_10  and  N2_11 
REMARK       I    between atoms: N2_11  and  C9_13 
REMARK    3  A    between atoms: C9_13  and  C10_15 
ROOT
HETATM    1  C3  UNL     1       2.294   0.741   0.333  1.00  0.00     0.234 C 
HETATM    2  O1  UNL     1       2.315   1.853   1.000  1.00  0.00    -0.272 OA
HETATM    3  N1  UNL     1       1.062   0.436  -0.235  1.00  0.00    -0.287 N 
HETATM    4  C4  UNL     1      -0.048   1.387  -0.012  1.00  0.00     0.135 C 
HETATM    5  C5  UNL     1      -1.177   1.152  -0.955  1.00  0.00     0.032 C 
HETATM    6  C6  UNL     1      -1.732  -0.251  -0.934  1.00  0.00    -0.010 C 
HETATM    7  C7  UNL     1      -2.599  -0.401  -2.171  1.00  0.00     0.018 C 
HETATM    8  C8  UNL     1      -2.487  -0.580   0.319  1.00  0.00     0.093 C 
HETATM    9  C13 UNL     1      -2.208  -2.075   0.536  1.00  0.00     0.027 C 
HETATM   10  C14 UNL     1      -0.756  -2.162   0.220  1.00  0.00     0.017 C 
HETATM   11  C15 UNL     1      -0.640  -1.292  -1.022  1.00  0.00     0.088 C 
HETATM   12  C16 UNL     1       0.712  -0.687  -1.013  1.00  0.00     0.231 C 
HETATM   13  O3  UNL     1       1.576  -1.210  -1.739  1.00  0.00    -0.273 OA
ENDROOT
BRANCH   1  14
HETATM   14  C2  UNL     1       3.566   0.034   0.311  1.00  0.00     0.038 C 
HETATM   15  C1  UNL     1       3.276  -1.384   0.842  1.00  0.00     0.025 C 
HETATM   16  C17 UNL     1       4.284  -0.051  -0.982  1.00  0.00     0.020 C 
HETATM   17  C18 UNL     1       5.748   0.371  -0.782  1.00  0.00     0.021 C 
HETATM   18  C19 UNL     1       5.842   1.806  -0.364  1.00  0.00     0.082 C 
HETATM   19 CL1  UNL     1       7.551   2.234  -0.242  1.00  0.00    -0.125 Cl
HETATM   20  C20 UNL     1       5.131   1.927   0.964  1.00  0.00     0.021 C 
HETATM   21  C21 UNL     1       4.489   0.652   1.360  1.00  0.00     0.020 C 
ENDBRANCH   1  14
BRANCH   8  22
HETATM   22  N2  UNL     1      -3.922  -0.479   0.174  1.00  0.00    -0.355 N 
HETATM   23  C9  UNL     1      -4.627   0.349   1.087  1.00  0.00     0.222 C 
HETATM   24  O2  UNL     1      -4.025   0.979   1.997  1.00  0.00    -0.273 OA
ATOM     25  H2  UNL     1      -4.413  -0.987  -0.562  1.00  0.00     0.162 HD
BRANCH  23  26
HETATM   26  C10 UNL     1      -6.104   0.525   1.030  1.00  0.00     0.078 A 
HETATM   27  C11 UNL     1      -6.960  -0.579   0.509  1.00  0.00     0.015 A 
HETATM   28  C12 UNL     1      -6.724   0.576  -0.381  1.00  0.00     0.015 A 
ENDBRANCH  23  26
ENDBRANCH   8  22
TORSDOF 3
