REMARK  3 active torsions:
REMARK  status: ('A' for Active; 'I' for Inactive)
REMARK       I    between atoms: N1_2  and  C2_3 
REMARK    1  A    between atoms: N1_2  and  C20_27 
REMARK    2  A    between atoms: C2_3  and  C3_5 
REMARK       I    between atoms: N2_9  and  C7_10 
REMARK       I    between atoms: C7_10  and  N3_12 
REMARK    3  A    between atoms: N3_12  and  C8_14 
ROOT
HETATM    1  C3  UNL     1       2.236   1.556   0.548  1.00  0.00     0.181 C 
HETATM    2  C4  UNL     1       3.301   2.595   0.390  1.00  0.00     0.037 C 
HETATM    3  C5  UNL     1       3.043   3.577   1.526  1.00  0.00     0.022 C 
HETATM    4  C6  UNL     1       1.645   3.294   1.999  1.00  0.00     0.129 C 
HETATM    5  N2  UNL     1       1.120   2.211   1.221  1.00  0.00    -0.321 N 
HETATM    6  C7  UNL     1      -0.253   1.839   1.126  1.00  0.00     0.319 C 
HETATM    7  O2  UNL     1      -1.100   2.503   1.764  1.00  0.00    -0.247 OA
HETATM    8  N3  UNL     1      -0.697   0.747   0.340  1.00  0.00    -0.335 N 
ATOM      9  H3  UNL     1      -0.020   0.195  -0.186  1.00  0.00     0.164 HD
ENDROOT
BRANCH   8  10
HETATM   10  C8  UNL     1      -2.105   0.407   0.277  1.00  0.00     0.130 C 
HETATM   11  C9  UNL     1      -2.548   0.636  -1.141  1.00  0.00     0.012 C 
HETATM   12  C10 UNL     1      -4.011   0.778  -1.321  1.00  0.00     0.011 C 
HETATM   13  C19 UNL     1      -2.012  -0.428  -2.084  1.00  0.00     0.011 C 
HETATM   14  C11 UNL     1      -4.820  -0.457  -1.281  1.00  0.00    -0.014 C 
HETATM   15  C12 UNL     1      -5.476  -0.767   0.021  1.00  0.00     0.005 C 
HETATM   16  C18 UNL     1      -4.139  -1.701  -1.780  1.00  0.00     0.009 C 
HETATM   17  C13 UNL     1      -4.744  -0.365   1.254  1.00  0.00     0.004 C 
HETATM   18  C14 UNL     1      -3.550  -1.169   1.603  1.00  0.00     0.045 C 
HETATM   19  C15 UNL     1      -2.323  -0.982   0.791  1.00  0.00     0.124 C 
HETATM   20  F1  UNL     1      -1.244  -1.233   1.667  1.00  0.00    -0.241 F 
HETATM   21  C16 UNL     1      -2.238  -2.069  -0.229  1.00  0.00     0.050 C 
HETATM   22  C17 UNL     1      -2.668  -1.722  -1.603  1.00  0.00    -0.011 C 
ENDBRANCH   8  10
BRANCH   1  23
HETATM   23  C2  UNL     1       2.690   0.367   1.322  1.00  0.00     0.242 C 
HETATM   24  N1  UNL     1       3.645  -0.559   0.855  1.00  0.00    -0.350 N 
HETATM   25  C1  UNL     1       4.030  -1.666   1.702  1.00  0.00     0.153 C 
HETATM   26  O1  UNL     1       2.187   0.171   2.478  1.00  0.00    -0.271 OA
BRANCH  24  27
HETATM   27  C20 UNL     1       4.211  -0.412  -0.445  1.00  0.00     0.086 C 
HETATM   28  C21 UNL     1       5.743  -0.458  -0.514  1.00  0.00     0.025 C 
HETATM   29  C22 UNL     1       5.552  -1.130  -1.883  1.00  0.00     0.004 C 
HETATM   30  C23 UNL     1       4.251  -1.694  -1.293  1.00  0.00     0.025 C 
ENDBRANCH  24  27
ENDBRANCH   1  23
TORSDOF 3
