REMARK  3 active torsions:
REMARK  status: ('A' for Active; 'I' for Inactive)
REMARK    1  A    between atoms: O1_2  and  N1_3 
REMARK    2  A    between atoms: C5_10  and  C6_11 
REMARK       I    between atoms: C6_11  and  N3_13 
REMARK    3  A    between atoms: N3_13  and  C7_15 
ROOT
HETATM    1  N1  UNL     1      -1.947   3.321   1.015  1.00  0.00    -0.250 N 
ATOM      2  H1  UNL     1      -2.950   3.504   1.035  1.00  0.00     0.196 HD
HETATM    3  C2  UNL     1      -1.637   2.175   0.536  1.00  0.00     0.149 A 
HETATM    4  N2  UNL     1      -2.676   1.377   0.127  1.00  0.00    -0.324 N 
ATOM      5  H2  UNL     1      -3.635   1.713   0.218  1.00  0.00     0.169 HD
HETATM    6  C3  UNL     1      -2.450   0.178  -0.383  1.00  0.00     0.130 A 
HETATM    7  C4  UNL     1      -1.158  -0.282  -0.509  1.00  0.00     0.090 A 
HETATM    8  C5  UNL     1      -0.052   0.507  -0.098  1.00  0.00     0.086 A 
HETATM    9  C10 UNL     1      -0.324   1.768   0.437  1.00  0.00     0.108 A 
HETATM   10  C11 UNL     1       0.705   2.625   0.924  1.00  0.00     0.104 C 
HETATM   11  N4  UNL     1       1.527   3.352   1.353  1.00  0.00    -0.191 NA
HETATM   12  N5  UNL     1      -0.919  -1.536  -1.134  1.00  0.00    -0.376 N 
ATOM     13  H5  UNL     1      -0.130  -1.685  -1.763  1.00  0.00     0.160 HD
HETATM   14  C12 UNL     1      -1.868  -2.593  -0.823  1.00  0.00     0.039 C 
HETATM   15  C13 UNL     1      -1.556  -3.776  -1.711  1.00  0.00     0.039 C 
HETATM   16  C14 UNL     1      -1.711  -2.959   0.628  1.00  0.00     0.039 C 
HETATM   17  C15 UNL     1      -3.275  -2.117  -1.050  1.00  0.00     0.151 C 
HETATM   18  N6  UNL     1      -3.478  -0.716  -0.824  1.00  0.00    -0.372 N 
ATOM     19  H6  UNL     1      -4.409  -0.333  -0.987  1.00  0.00     0.161 HD
ENDROOT
BRANCH   8  20
HETATM   20  C6  UNL     1       1.266  -0.049  -0.143  1.00  0.00     0.256 C 
HETATM   21  O2  UNL     1       1.342  -1.315  -0.384  1.00  0.00    -0.268 OA
HETATM   22  N3  UNL     1       2.544   0.454   0.009  1.00  0.00    -0.353 N 
ATOM     23  H3  UNL     1       2.670   1.449   0.194  1.00  0.00     0.163 HD
BRANCH  22  24
HETATM   24  C7  UNL     1       3.755  -0.435  -0.093  1.00  0.00     0.076 C 
HETATM   25  C8  UNL     1       4.511  -0.439   1.194  1.00  0.00     0.032 C 
HETATM   26  C9  UNL     1       4.641  -0.006  -1.198  1.00  0.00     0.032 C 
ENDBRANCH  22  24
ENDBRANCH   8  20
BRANCH   1  27
HETATM   27  O1  UNL     1      -1.209   4.314   1.490  1.00  0.00    -0.284 OA
HETATM   28  C1  UNL     1      -1.454   5.699   1.296  1.00  0.00     0.237 C 
ENDBRANCH   1  27
TORSDOF 3
