REMARK  3 active torsions:
REMARK  status: ('A' for Active; 'I' for Inactive)
REMARK    1  A    between atoms: C2_2  and  N1_3 
REMARK    2  A    between atoms: C2_2  and  C12_22 
REMARK       I    between atoms: N1_3  and  C3_5 
REMARK       I    between atoms: C3_5  and  N2_7 
REMARK       I    between atoms: N2_7  and  C4_9 
REMARK       I    between atoms: C4_9  and  N3_11 
REMARK    3  A    between atoms: N3_11  and  C5_13 
ROOT
HETATM    1  N1  UNL     1       1.651   2.598   0.861  1.00  0.00    -0.333 N 
ATOM      2  H1  UNL     1       0.978   2.129   0.254  1.00  0.00     0.165 HD
HETATM    3  C3  UNL     1       2.109   2.019   1.977  1.00  0.00     0.324 C 
HETATM    4  O1  UNL     1       2.949   2.473   2.761  1.00  0.00    -0.247 OA
HETATM    5  N2  UNL     1       1.592   0.508   2.493  1.00  0.00    -0.261 N 
ATOM      6  H2  UNL     1       1.898  -0.055   3.287  1.00  0.00     0.175 HD
HETATM    7  C4  UNL     1       0.652   0.251   1.553  1.00  0.00     0.324 C 
HETATM    8  O2  UNL     1      -0.039   0.981   0.852  1.00  0.00    -0.247 OA
HETATM    9  N3  UNL     1       0.365  -1.186   1.276  1.00  0.00    -0.337 N 
ATOM     10  H3  UNL     1       0.881  -1.913   1.771  1.00  0.00     0.164 HD
ENDROOT
BRANCH   1  11
HETATM   11  C2  UNL     1       2.183   3.995   0.537  1.00  0.00     0.134 C 
HETATM   12  C1  UNL     1       1.120   4.709  -0.175  1.00  0.00     0.039 C 
BRANCH  11  13
HETATM   13  C12 UNL     1       3.415   3.755  -0.328  1.00  0.00     0.056 A 
HETATM   14  C13 UNL     1       3.389   2.842  -1.351  1.00  0.00     0.098 A 
HETATM   15  S1  UNL     1       4.990   2.966  -1.949  1.00  0.00    -0.009 SA
HETATM   16  N5  UNL     1       5.559   4.136  -0.887  1.00  0.00    -0.270 N 
HETATM   17  N6  UNL     1       4.530   4.389  -0.126  1.00  0.00    -0.296 N 
ATOM     18  H5  UNL     1       6.490   4.551  -0.847  1.00  0.00     0.195 HD
ATOM     19  H6  UNL     1       4.601   5.079   0.622  1.00  0.00     0.187 HD
ENDBRANCH  11  13
ENDBRANCH   1  11
BRANCH   9  20
HETATM   20  C5  UNL     1      -0.625  -1.543   0.325  1.00  0.00     0.104 C 
HETATM   21  C6  UNL     1       0.010  -2.076  -0.969  1.00  0.00     0.139 C 
HETATM   22  N4  UNL     1      -1.040  -2.184  -1.927  1.00  0.00    -0.418 N 
HETATM   23  C7  UNL     1      -2.363  -1.992  -1.432  1.00  0.00     0.122 C 
ATOM     24  H4  UNL     1      -0.855  -2.387  -2.909  1.00  0.00     0.153 HD
HETATM   25  C8  UNL     1      -2.681  -2.745  -0.151  1.00  0.00    -0.030 C 
HETATM   26  C9  UNL     1      -2.953  -4.207  -0.487  1.00  0.00     0.016 C 
HETATM   27  C10 UNL     1      -3.889  -2.125   0.506  1.00  0.00     0.016 C 
HETATM   28  C11 UNL     1      -1.504  -2.673   0.804  1.00  0.00     0.037 C 
ENDBRANCH   9  20
TORSDOF 3
