REMARK  6 active torsions:
REMARK  status: ('A' for Active; 'I' for Inactive)
REMARK    1  A    between atoms: C2_2  and  C8_13 
REMARK    2  A    between atoms: N1_3  and  N2_5 
REMARK       I    between atoms: N2_5  and  C3_6 
REMARK    3  A    between atoms: C3_6  and  O2_8 
REMARK    4  A    between atoms: O2_8  and  C4_9 
REMARK    5  A    between atoms: C10_22  and  N6_23 
REMARK    6  A    between atoms: N6_23  and  C11_25 
ROOT
HETATM    1  C8  UNL     1      -1.186   0.072   0.243  1.00  0.00     0.161 A 
HETATM    2  N3  UNL     1      -1.149  -0.987  -0.584  1.00  0.00    -0.174 N 
ATOM      3  H3  UNL     1      -0.307  -1.139  -1.139  1.00  0.00     0.186 HD
HETATM    4  C9  UNL     1      -2.174  -1.863  -0.718  1.00  0.00     0.692 A 
HETATM    5  N4  UNL     1      -2.189  -2.859  -1.512  1.00  0.00    -0.234 N 
ATOM      6  H41 UNL     1      -2.961  -3.518  -1.613  1.00  0.00     0.174 HD
ATOM      7  H42 UNL     1      -1.346  -3.014  -2.065  1.00  0.00     0.174 HD
HETATM    8  N5  UNL     1      -3.310  -1.654   0.028  1.00  0.00    -0.023 N 
ATOM      9  H5  UNL     1      -4.105  -2.289  -0.043  1.00  0.00     0.203 HD
HETATM   10  C10 UNL     1      -3.348  -0.604   0.844  1.00  0.00     0.694 A 
HETATM   11  N7  UNL     1      -2.306   0.240   0.947  1.00  0.00    -0.174 N 
ATOM     12  H7  UNL     1      -2.375   1.034   1.584  1.00  0.00     0.186 HD
ENDROOT
BRANCH   1  13
HETATM   13  C2  UNL     1      -0.017   0.971   0.414  1.00  0.00     0.080 C 
HETATM   14  C1  UNL     1      -0.185   2.096   1.361  1.00  0.00     0.075 C 
HETATM   15  N1  UNL     1       1.020   0.722  -0.198  1.00  0.00    -0.231 N 
ATOM     16  H1  UNL     1       0.816  -0.103  -0.763  1.00  0.00     0.202 HD
BRANCH  15  17
HETATM   17  N2  UNL     1       2.217   1.018  -0.447  1.00  0.00    -0.258 NA
HETATM   18  C3  UNL     1       3.511   1.338  -0.715  1.00  0.00     0.459 C 
HETATM   19  O1  UNL     1       4.263   2.238  -0.186  1.00  0.00    -0.219 OA
BRANCH  18  20
HETATM   20  O2  UNL     1       4.222   0.630  -1.709  1.00  0.00    -0.281 OA
BRANCH  20  21
HETATM   21  C4  UNL     1       5.542   0.855  -2.052  1.00  0.00     0.062 C 
HETATM   22  C5  UNL     1       5.868   2.202  -2.622  1.00  0.00     0.046 C 
HETATM   23  C6  UNL     1       5.875  -0.150  -3.168  1.00  0.00     0.046 C 
HETATM   24  C7  UNL     1       6.500   0.546  -0.907  1.00  0.00     0.046 C 
ENDBRANCH  20  21
ENDBRANCH  18  20
ENDBRANCH  15  17
ENDBRANCH   1  13
BRANCH  10  25
HETATM   25  N6  UNL     1      -4.419  -0.387   1.537  1.00  0.00    -0.221 N 
ATOM     26  H6  UNL     1      -4.448   0.418   2.162  1.00  0.00     0.178 HD
BRANCH  25  27
HETATM   27  C11 UNL     1      -5.578  -1.253   1.452  1.00  0.00     0.099 C 
HETATM   28  C12 UNL     1      -5.547  -2.402   2.428  1.00  0.00     0.026 C 
HETATM   29  C13 UNL     1      -6.392  -1.590   3.375  1.00  0.00     0.004 C 
HETATM   30  C14 UNL     1      -6.719  -0.656   2.248  1.00  0.00     0.026 C 
ENDBRANCH  25  27
ENDBRANCH  10  25
TORSDOF 6
