REMARK  7 active torsions:
REMARK  status: ('A' for Active; 'I' for Inactive)
REMARK    1  A    between atoms: C1_2  and  C2_4 
REMARK    2  A    between atoms: C2_4  and  N2_5 
REMARK    3  A    between atoms: N2_5  and  C3_6 
REMARK       I    between atoms: N2_5  and  C10_14 
REMARK    4  A    between atoms: C3_6  and  C4_7 
REMARK    5  A    between atoms: C10_14  and  C11_16 
REMARK    6  A    between atoms: C11_16  and  C12_17 
REMARK    7  A    between atoms: C12_17  and  C13_18 
ROOT
HETATM    1  C11 UNL     1       0.800  -0.334  -0.462  1.00  0.00     0.149 C 
ENDROOT
BRANCH   1   2
HETATM    2  C10 UNL     1      -0.446  -0.503   0.315  1.00  0.00     0.223 C 
HETATM    3  N2  UNL     1      -1.718  -0.657  -0.297  1.00  0.00    -0.340 N 
HETATM    4  O2  UNL     1      -0.350  -0.507   1.577  1.00  0.00    -0.273 OA
BRANCH   3   5
HETATM    5  C2  UNL     1      -1.768  -0.645  -1.742  1.00  0.00     0.225 C 
BRANCH   5   6
HETATM    6  C1  UNL     1      -1.611  -2.002  -2.315  1.00  0.00     0.249 C 
HETATM    7  N1  UNL     1      -1.435  -3.152  -1.494  1.00  0.00    -0.061 NA
HETATM    8  O1  UNL     1      -1.632  -2.168  -3.561  1.00  0.00    -0.275 OA
ENDBRANCH   5   6
ENDBRANCH   3   5
BRANCH   3   9
HETATM    9  C3  UNL     1      -2.938  -0.822   0.427  1.00  0.00     0.165 C 
BRANCH   9  10
HETATM   10  C4  UNL     1      -3.609   0.465   0.740  1.00  0.00    -0.037 A 
HETATM   11  C5  UNL     1      -4.799   0.487   1.434  1.00  0.00     0.009 A 
HETATM   12  C6  UNL     1      -5.449   1.678   1.741  1.00  0.00     0.004 A 
HETATM   13  C7  UNL     1      -4.914   2.889   1.354  1.00  0.00     0.042 A 
HETATM   14  C8  UNL     1      -3.724   2.870   0.659  1.00  0.00     0.117 A 
HETATM   15  F1  UNL     1      -3.181   4.041   0.269  1.00  0.00    -0.206 F 
HETATM   16  C9  UNL     1      -3.078   1.678   0.355  1.00  0.00     0.051 A 
ENDBRANCH   9  10
ENDBRANCH   3   9
ENDBRANCH   1   2
BRANCH   1  17
HETATM   17  C12 UNL     1       2.009  -0.191   0.443  1.00  0.00     0.151 C 
HETATM   18  N3  UNL     1       1.890   0.983   1.284  1.00  0.00    -0.320 N 
HETATM   19  C19 UNL     1       2.432   0.648   2.550  1.00  0.00     0.324 C 
ATOM     20  H3  UNL     1       1.491   1.882   1.015  1.00  0.00     0.165 HD
HETATM   21  O3  UNL     1       2.761   1.467   3.480  1.00  0.00    -0.247 OA
HETATM   22  N4  UNL     1       2.565  -0.761   2.652  1.00  0.00    -0.277 N 
HETATM   23  C20 UNL     1       2.095  -1.292   1.422  1.00  0.00     0.259 C 
ATOM     24  H4  UNL     1       2.926  -1.286   3.448  1.00  0.00     0.173 HD
HETATM   25  O4  UNL     1       1.820  -2.517   1.281  1.00  0.00    -0.270 OA
BRANCH  17  26
HETATM   26  C13 UNL     1       3.226  -0.029  -0.377  1.00  0.00    -0.020 A 
HETATM   27  C14 UNL     1       3.112   0.148  -1.743  1.00  0.00     0.010 A 
HETATM   28  C15 UNL     1       4.238   0.305  -2.541  1.00  0.00     0.001 A 
HETATM   29  C16 UNL     1       5.497   0.285  -1.975  1.00  0.00     0.000 A 
HETATM   30  C17 UNL     1       5.636   0.111  -0.622  1.00  0.00     0.001 A 
HETATM   31  C18 UNL     1       4.485  -0.044   0.152  1.00  0.00     0.010 A 
ENDBRANCH  17  26
ENDBRANCH   1  17
TORSDOF 7
