REMARK  9 active torsions:
REMARK  status: ('A' for Active; 'I' for Inactive)
REMARK    1  A    between atoms: N1_1  and  C1_4 
REMARK    2  A    between atoms: C3_8  and  C4_9 
REMARK    3  A    between atoms: C4_9  and  N3_10 
REMARK    4  A    between atoms: N4_13  and  C7_14 
REMARK    5  A    between atoms: C7_14  and  O1_15 
REMARK    6  A    between atoms: N5_19  and  C10_20 
REMARK    7  A    between atoms: C10_20  and  O2_21 
REMARK    8  A    between atoms: O2_21  and  C11_22 
REMARK    9  A    between atoms: C11_22  and  C12_23 
ROOT
HETATM    1  C1  UNL     1      -0.059  -2.006  -2.187  1.00  0.00     0.679 A 
HETATM    2  N2  UNL     1       1.185  -1.865  -2.709  1.00  0.00    -0.201 N 
ATOM      3  H2  UNL     1       1.597  -2.598  -3.286  1.00  0.00     0.183 HD
HETATM    4  C2  UNL     1       1.863  -0.728  -2.444  1.00  0.00     0.116 A 
HETATM    5  C3  UNL     1       1.340   0.280  -1.670  1.00  0.00    -0.008 A 
HETATM    6  C9  UNL     1       0.074   0.094  -1.160  1.00  0.00     0.121 A 
HETATM    7  N5  UNL     1      -0.613  -1.049  -1.425  1.00  0.00    -0.171 N 
ENDROOT
BRANCH   7   8
HETATM    8  C10 UNL     1      -1.930  -1.224  -0.884  1.00  0.00     0.316 C 
BRANCH   8   9
HETATM    9  O2  UNL     1      -1.939  -1.827   0.355  1.00  0.00    -0.367 OA
BRANCH   9  10
HETATM   10  C11 UNL     1      -3.217  -1.980   0.816  1.00  0.00     0.208 C 
BRANCH  10  11
HETATM   11  C12 UNL     1      -4.001  -0.756   0.987  1.00  0.00    -0.033 A 
HETATM   12  C13 UNL     1      -3.835   0.052   2.115  1.00  0.00     0.009 A 
HETATM   13  C14 UNL     1      -4.572   1.203   2.291  1.00  0.00     0.002 A 
HETATM   14  C15 UNL     1      -5.497   1.603   1.367  1.00  0.00     0.019 A 
HETATM   15  C16 UNL     1      -5.685   0.827   0.240  1.00  0.00     0.011 A 
HETATM   16 BR1  UNL     1      -6.972   1.391  -1.036  1.00  0.00    -0.051 Br
HETATM   17  C17 UNL     1      -4.946  -0.314   0.080  1.00  0.00     0.028 A 
ENDBRANCH  10  11
ENDBRANCH   9  10
ENDBRANCH   8   9
ENDBRANCH   7   8
BRANCH   1  18
HETATM   18  N1  UNL     1      -0.748  -3.067  -2.408  1.00  0.00    -0.234 N 
ATOM     19  H12 UNL     1      -0.327  -3.794  -2.987  1.00  0.00     0.174 HD
ATOM     20  H11 UNL     1      -1.683  -3.173  -2.015  1.00  0.00     0.174 HD
ENDBRANCH   1  18
BRANCH   5  21
HETATM   21  C4  UNL     1       2.144   1.499  -1.422  1.00  0.00     0.170 C 
BRANCH  21  22
HETATM   22  N3  UNL     1       2.964   1.363  -0.225  1.00  0.00    -0.347 N 
HETATM   23  C5  UNL     1       2.608   1.700   1.048  1.00  0.00     0.109 A 
HETATM   24  C6  UNL     1       3.639   1.428   1.905  1.00  0.00     0.111 A 
HETATM   25  N4  UNL     1       4.631   0.924   1.169  1.00  0.00    -0.330 N 
HETATM   26  C8  UNL     1       4.217   0.887  -0.117  1.00  0.00     0.187 A 
BRANCH  25  27
HETATM   27  C7  UNL     1       5.929   0.488   1.648  1.00  0.00     0.295 C 
BRANCH  27  28
HETATM   28  O1  UNL     1       6.781   1.592   1.594  1.00  0.00    -0.382 OA
ATOM     29  H1  UNL     1       7.631   1.306   1.908  1.00  0.00     0.211 HD
ENDBRANCH  27  28
ENDBRANCH  25  27
ENDBRANCH  21  22
ENDBRANCH   5  21
TORSDOF 9
