REMARK  8 active torsions:
REMARK  status: ('A' for Active; 'I' for Inactive)
REMARK    1  A    between atoms: N1_1  and  N2_4 
REMARK    2  A    between atoms: N2_4  and  C1_5 
REMARK    3  A    between atoms: C1_5  and  C2_6 
REMARK    4  A    between atoms: C2_6  and  N3_7 
REMARK    5  A    between atoms: N3_7  and  C3_10 
REMARK    6  A    between atoms: C3_10  and  C4_11 
REMARK    7  A    between atoms: C4_11  and  C5_12 
REMARK    8  A    between atoms: C5_12  and  N4_13 
ROOT
HETATM    1  N4  UNL     1       0.497  -0.436  -0.019  1.00  0.00    -0.351 N 
ATOM      2  H4  UNL     1       0.410   0.257   0.724  1.00  0.00     0.166 HD
HETATM    3  C6  UNL     1      -0.584  -0.913  -0.413  1.00  0.00     0.175 C 
HETATM    4  N5  UNL     1      -1.737  -0.446   0.198  1.00  0.00    -0.336 N 
ATOM      5  H5  UNL     1      -1.646  -0.205   1.185  1.00  0.00     0.168 HD
HETATM    6  C7  UNL     1      -2.971  -0.266  -0.338  1.00  0.00     0.067 C 
HETATM    7  C8  UNL     1      -3.768   0.834   0.156  1.00  0.00    -0.008 A 
HETATM    8  C9  UNL     1      -3.508   1.500   1.355  1.00  0.00     0.014 A 
HETATM    9  C10 UNL     1      -4.247   2.599   1.776  1.00  0.00     0.001 A 
HETATM   10  C11 UNL     1      -5.280   3.084   1.021  1.00  0.00     0.000 A 
HETATM   11  C12 UNL     1      -5.562   2.452  -0.165  1.00  0.00     0.001 A 
HETATM   12  C13 UNL     1      -4.811   1.342  -0.586  1.00  0.00     0.014 A 
HETATM   13  C14 UNL     1      -3.503  -1.105  -1.297  1.00  0.00     0.106 C 
HETATM   14 BR1  UNL     1      -5.315  -1.562  -1.100  1.00  0.00    -0.043 Br
HETATM   15  C15 UNL     1      -2.835  -1.665  -2.375  1.00  0.00     0.268 C 
HETATM   16  O1  UNL     1      -3.511  -1.930  -3.396  1.00  0.00    -0.267 OA
HETATM   17  N6  UNL     1      -1.511  -1.950  -2.418  1.00  0.00    -0.286 N 
ATOM     18  H6  UNL     1      -1.160  -2.271  -3.321  1.00  0.00     0.172 HD
HETATM   19  C16 UNL     1      -0.581  -1.868  -1.422  1.00  0.00     0.292 C 
HETATM   20  O2  UNL     1       0.312  -2.731  -1.463  1.00  0.00    -0.264 OA
ENDROOT
BRANCH   1  21
HETATM   21  C5  UNL     1       1.811  -0.693  -0.427  1.00  0.00     0.064 C 
BRANCH  21  22
HETATM   22  C4  UNL     1       2.574  -1.523   0.593  1.00  0.00     0.072 C 
BRANCH  22  23
HETATM   23  C3  UNL     1       3.984  -1.802   0.130  1.00  0.00     0.237 C 
BRANCH  23  24
HETATM   24  N3  UNL     1       4.777  -0.641  -0.097  1.00  0.00    -0.069 N 
ATOM     25  H32 UNL     1       4.329  -0.027  -0.777  1.00  0.00     0.277 HD
ATOM     26  H31 UNL     1       5.624  -0.880  -0.614  1.00  0.00     0.277 HD
BRANCH  24  27
HETATM   27  C2  UNL     1       5.101   0.080   1.096  1.00  0.00     0.293 C 
BRANCH  27  28
HETATM   28  C1  UNL     1       5.944   1.280   0.774  1.00  0.00     0.208 C 
BRANCH  28  29
HETATM   29  N2  UNL     1       6.623   1.868   1.644  1.00  0.00    -0.348 NA
BRANCH  29  30
HETATM   30  N1  UNL     1       7.176   2.522   2.543  1.00  0.00    -0.281 N 
ATOM     31  H12 UNL     1       6.247   2.925   2.666  1.00  0.00     0.191 HD
ATOM     32  H11 UNL     1       7.730   3.002   3.253  1.00  0.00     0.191 HD
ENDBRANCH  29  30
ENDBRANCH  28  29
ENDBRANCH  27  28
ENDBRANCH  24  27
ENDBRANCH  23  24
ENDBRANCH  22  23
ENDBRANCH  21  22
ENDBRANCH   1  21
TORSDOF 8
