REMARK  10 active torsions:
REMARK  status: ('A' for Active; 'I' for Inactive)
REMARK    1  A    between atoms: C2_2  and  C4_4 
REMARK    2  A    between atoms: C4_4  and  C5_5 
REMARK    3  A    between atoms: C5_5  and  C6_6 
REMARK    4  A    between atoms: C6_6  and  C7_7 
REMARK    5  A    between atoms: C6_6  and  S1_15 
REMARK    6  A    between atoms: C7_7  and  C8_8 
REMARK    7  A    between atoms: C8_8  and  O2_10 
REMARK    8  A    between atoms: O2_10  and  C9_11 
REMARK    9  A    between atoms: S1_15  and  C13_16 
REMARK   10  A    between atoms: C13_16  and  C14_18 
ROOT
HETATM    1  C6  UNL     1       0.212   0.861   0.614  1.00  0.00     0.064 C 
ENDROOT
BRANCH   1   2
HETATM    2  C5  UNL     1      -0.937   1.746   1.003  1.00  0.00     0.016 C 
BRANCH   2   3
HETATM    3  C4  UNL     1      -0.600   3.211   0.956  1.00  0.00     0.005 C 
BRANCH   3   4
HETATM    4  C2  UNL     1      -1.799   4.045   1.360  1.00  0.00    -0.023 C 
HETATM    5  C1  UNL     1      -1.479   5.521   1.320  1.00  0.00     0.009 C 
HETATM    6  C3  UNL     1      -2.978   3.815   0.435  1.00  0.00     0.009 C 
ENDBRANCH   3   4
ENDBRANCH   2   3
ENDBRANCH   1   2
BRANCH   1   7
HETATM    7  C7  UNL     1       1.410   1.031   1.509  1.00  0.00     0.126 C 
BRANCH   7   8
HETATM    8  C8  UNL     1       2.486   0.118   1.044  1.00  0.00     0.260 C 
HETATM    9  O1  UNL     1       3.570   0.112   1.672  1.00  0.00    -0.265 OA
BRANCH   8  10
HETATM   10  O2  UNL     1       2.374  -0.729  -0.038  1.00  0.00    -0.311 OA
BRANCH  10  11
HETATM   11  C9  UNL     1       3.372  -1.595  -0.494  1.00  0.00     0.060 C 
HETATM   12  C10 UNL     1       4.638  -0.846  -0.896  1.00  0.00     0.045 C 
HETATM   13  C11 UNL     1       3.763  -2.662   0.477  1.00  0.00     0.045 C 
HETATM   14  C12 UNL     1       2.858  -2.250  -1.761  1.00  0.00     0.045 C 
ENDBRANCH  10  11
ENDBRANCH   8  10
ENDBRANCH   7   8
ENDBRANCH   1   7
BRANCH   1  15
HETATM   15  S1  UNL     1      -0.387  -0.856   0.631  1.00  0.00    -0.086 SA
BRANCH  15  16
HETATM   16  C13 UNL     1      -1.600  -1.093  -0.646  1.00  0.00     0.194 C 
HETATM   17  O3  UNL     1      -1.959  -0.199  -1.416  1.00  0.00    -0.285 OA
BRANCH  16  18
HETATM   18  C14 UNL     1      -2.223  -2.430  -0.807  1.00  0.00     0.020 C 
HETATM   19  C15 UNL     1      -3.229  -2.462  -1.929  1.00  0.00     0.023 C 
HETATM   20  C16 UNL     1      -1.147  -3.452  -1.162  1.00  0.00     0.023 C 
HETATM   21  C17 UNL     1      -2.893  -2.915   0.454  1.00  0.00     0.023 C 
ENDBRANCH  16  18
ENDBRANCH  15  16
ENDBRANCH   1  15
TORSDOF 10
