REMARK  7 active torsions:
REMARK  status: ('A' for Active; 'I' for Inactive)
REMARK    1  A    between atoms: C3_3  and  C5_5 
REMARK    2  A    between atoms: C5_5  and  C6_6 
REMARK    3  A    between atoms: C6_6  and  C7_7 
REMARK    4  A    between atoms: C7_7  and  C8_8 
REMARK    5  A    between atoms: C10_10  and  C11_11 
REMARK    6  A    between atoms: C11_11  and  C12_12 
REMARK    7  A    between atoms: C12_12  and  C13_13 
ROOT
HETATM    1  C11 UNL     1      -1.052   0.047  -0.397  1.00  0.00     0.033 C 
ENDROOT
BRANCH   1   2
HETATM    2  C10 UNL     1       0.132   0.182  -1.277  1.00  0.00    -0.024 C 
HETATM    3  C8  UNL     1       1.284   0.732  -0.875  1.00  0.00    -0.087 C 
HETATM    4  C9  UNL     1       1.307   1.274   0.491  1.00  0.00     0.043 C 
BRANCH   3   5
HETATM    5  C7  UNL     1       2.397   0.829  -1.795  1.00  0.00     0.034 C 
BRANCH   5   6
HETATM    6  C6  UNL     1       3.602   0.050  -1.390  1.00  0.00     0.009 C 
BRANCH   6   7
HETATM    7  C5  UNL     1       4.249   0.393  -0.090  1.00  0.00     0.034 C 
BRANCH   7   8
HETATM    8  C3  UNL     1       5.477  -0.506  -0.003  1.00  0.00    -0.088 C 
HETATM    9  C2  UNL     1       6.641   0.120   0.086  1.00  0.00    -0.029 C 
HETATM   10  C1  UNL     1       7.913  -0.663   0.178  1.00  0.00     0.036 C 
HETATM   11  C4  UNL     1       5.390  -1.970  -0.014  1.00  0.00     0.043 C 
ENDBRANCH   7   8
ENDBRANCH   6   7
ENDBRANCH   5   6
ENDBRANCH   3   5
ENDBRANCH   1   2
BRANCH   1  12
HETATM   12  C12 UNL     1      -2.208   0.823  -1.034  1.00  0.00     0.075 C 
BRANCH  12  13
HETATM   13  C13 UNL     1      -3.405   0.671  -0.122  1.00  0.00     0.196 C 
HETATM   14  C14 UNL     1      -3.049   1.238   1.222  1.00  0.00     0.082 C 
HETATM   15  O1  UNL     1      -4.480   1.312  -0.719  1.00  0.00    -0.200 OA
HETATM   16  O2  UNL     1      -5.534   1.376   0.032  1.00  0.00    -0.227 OA
HETATM   17  C15 UNL     1      -5.789   0.248   0.769  1.00  0.00     0.217 C 
HETATM   18  C16 UNL     1      -7.214  -0.206   0.438  1.00  0.00     0.066 C 
HETATM   19  C18 UNL     1      -4.980  -0.947   0.383  1.00  0.00     0.295 C 
HETATM   20  C17 UNL     1      -6.985  -1.628  -0.033  1.00  0.00     0.174 C 
HETATM   21  O3  UNL     1      -5.732  -1.510  -0.650  1.00  0.00    -0.358 OA
HETATM   22  O4  UNL     1      -3.692  -0.666  -0.002  1.00  0.00    -0.320 OA
ENDBRANCH  12  13
ENDBRANCH   1  12
TORSDOF 7
