REMARK  9 active torsions:
REMARK  status: ('A' for Active; 'I' for Inactive)
REMARK    1  A    between atoms: O1_1  and  C1_3 
REMARK    2  A    between atoms: C1_3  and  C12_17 
REMARK    3  A    between atoms: C2_4  and  C3_5 
REMARK    4  A    between atoms: C3_5  and  C4_6 
REMARK    5  A    between atoms: C4_6  and  C5_7 
REMARK    6  A    between atoms: C5_7  and  C6_8 
REMARK    7  A    between atoms: C9_11  and  N1_12 
REMARK    8  A    between atoms: C13_18  and  C14_19 
REMARK    9  A    between atoms: C15_20  and  C16_21 
ROOT
HETATM    1  C1  UNL     1       0.921  -0.196   0.437  1.00  0.00     0.065 C 
HETATM    2  C2  UNL     1       0.449   0.373  -0.773  1.00  0.00     0.036 C 
ENDROOT
BRANCH   2   3
HETATM    3  C3  UNL     1      -0.763   0.537  -1.150  1.00  0.00     0.003 C 
BRANCH   3   4
HETATM    4  C4  UNL     1      -1.979   0.204  -0.483  1.00  0.00     0.001 C 
BRANCH   4   5
HETATM    5  C5  UNL     1      -3.182   0.465  -1.064  1.00  0.00     0.011 C 
BRANCH   5   6
HETATM    6  C6  UNL     1      -4.402   0.127  -0.388  1.00  0.00    -0.036 A 
HETATM    7  C7  UNL     1      -5.596   0.431  -1.059  1.00  0.00     0.014 A 
HETATM    8  C8  UNL     1      -6.834   0.161  -0.526  1.00  0.00     0.037 A 
HETATM    9  C9  UNL     1      -6.928  -0.436   0.726  1.00  0.00     0.102 A 
HETATM   10  C10 UNL     1      -5.779  -0.740   1.396  1.00  0.00     0.037 A 
HETATM   11  C11 UNL     1      -4.540  -0.461   0.844  1.00  0.00     0.014 A 
BRANCH   9  12
HETATM   12  N1  UNL     1      -8.184  -0.733   1.316  1.00  0.00    -0.116 N 
HETATM   13  O2  UNL     1      -9.218  -0.439   0.671  1.00  0.00    -0.532 OA
HETATM   14  O3  UNL     1      -8.233  -1.321   2.551  1.00  0.00    -0.532 OA
ENDBRANCH   9  12
ENDBRANCH   5   6
ENDBRANCH   4   5
ENDBRANCH   3   4
ENDBRANCH   2   3
BRANCH   1  15
HETATM   15  O1  UNL     1      -0.005  -0.607   1.274  1.00  0.00    -0.361 OA
ATOM     16  H1  UNL     1       0.311  -0.988   2.085  1.00  0.00     0.217 HD
ENDBRANCH   1  15
BRANCH   1  17
HETATM   17  C12 UNL     1       2.226  -0.402   0.905  1.00  0.00     0.036 C 
HETATM   18  C13 UNL     1       3.424  -0.195   0.503  1.00  0.00     0.003 C 
BRANCH  18  19
HETATM   19  C14 UNL     1       3.935   0.382  -0.697  1.00  0.00     0.003 C 
HETATM   20  C15 UNL     1       5.144   0.578  -1.075  1.00  0.00     0.037 C 
BRANCH  20  21
HETATM   21  C16 UNL     1       6.413   0.315  -0.487  1.00  0.00     0.074 A 
HETATM   22  C17 UNL     1       6.812  -0.235   0.680  1.00  0.00     0.039 A 
HETATM   23  C18 UNL     1       8.213  -0.231   0.709  1.00  0.00     0.027 A 
HETATM   24  C19 UNL     1       8.587   0.338  -0.476  1.00  0.00     0.142 A 
HETATM   25  O4  UNL     1       7.547   0.646  -1.153  1.00  0.00    -0.323 OA
ENDBRANCH  20  21
ENDBRANCH  18  19
ENDBRANCH   1  17
TORSDOF 9
