REMARK  7 active torsions:
REMARK  status: ('A' for Active; 'I' for Inactive)
REMARK    1  A    between atoms: C2_2  and  C3_3 
REMARK    2  A    between atoms: C2_2  and  C6_6 
REMARK    3  A    between atoms: C7_7  and  C8_8 
REMARK    4  A    between atoms: C8_8  and  C9_10 
REMARK    5  A    between atoms: C9_10  and  C10_11 
REMARK    6  A    between atoms: C10_11  and  C11_13 
REMARK    7  A    between atoms: C16_19  and  S2_20 
ROOT
HETATM    1  C6  UNL     1      -1.423   0.933  -0.656  1.00  0.00     0.011 A 
HETATM    2  C7  UNL     1      -0.177   1.092  -1.176  1.00  0.00     0.029 A 
HETATM    3  C15 UNL     1       0.375   2.346  -1.050  1.00  0.00     0.067 A 
HETATM    4  S1  UNL     1      -0.816   3.240  -0.236  1.00  0.00    -0.093 SA
HETATM    5  C16 UNL     1      -1.993   2.029  -0.064  1.00  0.00     0.052 A 
ENDROOT
BRANCH   2   6
HETATM    6  C8  UNL     1       0.595  -0.013  -1.820  1.00  0.00     0.168 C 
HETATM    7  O1  UNL     1       0.145  -1.174  -1.903  1.00  0.00    -0.292 OA
BRANCH   6   8
HETATM    8  C9  UNL     1       1.936   0.245  -2.388  1.00  0.00     0.167 C 
BRANCH   8   9
HETATM    9  C10 UNL     1       3.014  -0.121  -1.392  1.00  0.00     0.156 C 
HETATM   10  O2  UNL     1       4.209   0.035  -1.729  1.00  0.00    -0.293 OA
BRANCH   9  11
HETATM   11  C11 UNL     1       2.603  -0.631  -0.100  1.00  0.00     0.052 C 
HETATM   12  C12 UNL     1       3.449  -0.976   0.836  1.00  0.00    -0.084 C 
HETATM   13  C13 UNL     1       4.901  -0.875   0.658  1.00  0.00     0.043 C 
HETATM   14  C14 UNL     1       2.917  -1.492   2.131  1.00  0.00     0.043 C 
ENDBRANCH   9  11
ENDBRANCH   8   9
ENDBRANCH   6   8
ENDBRANCH   2   6
BRANCH   1  15
HETATM   15  C2  UNL     1      -2.234  -0.327  -0.712  1.00  0.00    -0.033 C 
HETATM   16  C1  UNL     1      -2.801  -0.705  -1.831  1.00  0.00     0.024 C 
BRANCH  15  17
HETATM   17  C3  UNL     1      -2.398  -1.142   0.480  1.00  0.00     0.007 C 
HETATM   18  C4  UNL     1      -1.817  -0.754   1.620  1.00  0.00    -0.030 C 
HETATM   19  C5  UNL     1      -1.952  -1.546   2.862  1.00  0.00     0.036 C 
ENDBRANCH  15  17
ENDBRANCH   1  15
BRANCH   5  20
HETATM   20  S2  UNL     1      -3.631   2.136   0.714  1.00  0.00    -0.126 SA
HETATM   21  C17 UNL     1      -4.789   2.623  -0.611  1.00  0.00     0.096 C 
ENDBRANCH   5  20
TORSDOF 7
