REMARK  20 active torsions:
REMARK  status: ('A' for Active; 'I' for Inactive)
REMARK    1  A    between atoms: C2_2  and  C4_4 
REMARK    2  A    between atoms: C6_7  and  O1_8 
REMARK    3  A    between atoms: C6_7  and  C7_10 
REMARK    4  A    between atoms: C7_10  and  O2_11 
REMARK    5  A    between atoms: C8_13  and  O3_14 
REMARK    6  A    between atoms: C10_17  and  O4_18 
REMARK    7  A    between atoms: C14_23  and  C15_24 
REMARK    8  A    between atoms: C15_24  and  C16_25 
REMARK    9  A    between atoms: C16_25  and  O5_26 
REMARK   10  A    between atoms: C18_29  and  N2_30 
REMARK   11  A    between atoms: N2_30  and  C19_32 
REMARK   12  A    between atoms: C19_32  and  C20_33 
REMARK   13  A    between atoms: C20_33  and  C21_34 
REMARK   14  A    between atoms: C21_34  and  N3_35 
REMARK   15  A    between atoms: N3_35  and  C22_38 
REMARK   16  A    between atoms: C22_38  and  C23_39 
REMARK   17  A    between atoms: C23_39  and  O6_40 
REMARK   18  A    between atoms: C23_39  and  C24_42 
REMARK   19  A    between atoms: C24_42  and  O7_43 
REMARK   20  A    between atoms: C25_45  and  O8_46 
ROOT
HETATM    1  C4  UNL     1      -5.383  -0.095  -0.248  1.00  0.00     0.098 C 
HETATM    2  C5  UNL     1      -6.414  -0.835  -1.096  1.00  0.00     0.073 C 
HETATM    3  N1  UNL     1      -7.240  -1.412  -1.728  1.00  0.00    -0.196 NA
HETATM    4  C6  UNL     1      -5.828  -0.369   1.131  1.00  0.00     0.126 C 
HETATM    5  C8  UNL     1      -5.031  -1.358   1.950  1.00  0.00     0.159 C 
HETATM    6  C9  UNL     1      -4.577  -2.441   1.078  1.00  0.00     0.073 C 
HETATM    7  C10 UNL     1      -3.846  -2.087  -0.148  1.00  0.00     0.070 C 
HETATM    8  C11 UNL     1      -2.340  -2.114   0.201  1.00  0.00     0.044 C 
HETATM    9  C12 UNL     1      -1.873  -1.280  -0.918  1.00  0.00    -0.006 C 
HETATM   10  C13 UNL     1      -0.513  -1.073  -1.242  1.00  0.00     0.015 C 
HETATM   11  C14 UNL     1       0.479  -0.108  -0.783  1.00  0.00    -0.032 C 
HETATM   12  C17 UNL     1       1.176  -0.483   0.504  1.00  0.00     0.037 C 
HETATM   13  C18 UNL     1       2.115   0.499   1.071  1.00  0.00     0.106 C 
HETATM   14  C25 UNL     1       2.039   1.921   0.663  1.00  0.00     0.148 C 
HETATM   15  C26 UNL     1       1.119   2.342  -0.404  1.00  0.00    -0.015 C 
HETATM   16  C27 UNL     1       1.704   3.039  -1.598  1.00  0.00     0.018 C 
HETATM   17  C28 UNL     1       0.402   3.596   0.215  1.00  0.00     0.018 C 
HETATM   18  C29 UNL     1       0.020   1.338  -0.770  1.00  0.00     0.004 C 
HETATM   19  C30 UNL     1      -1.218   1.684  -0.099  1.00  0.00     0.007 C 
HETATM   20  C31 UNL     1      -2.224   0.654   0.313  1.00  0.00     0.006 C 
HETATM   21  C32 UNL     1      -2.823  -0.076  -0.759  1.00  0.00     0.003 C 
HETATM   22  C33 UNL     1      -4.123  -0.745  -0.789  1.00  0.00     0.015 C 
HETATM   23  C34 UNL     1      -4.278  -1.048  -2.288  1.00  0.00     0.020 C 
ENDROOT
BRANCH   1  24
HETATM   24  C2  UNL     1      -5.600   1.308  -0.657  1.00  0.00     0.004 C 
HETATM   25  C1  UNL     1      -5.388   1.770  -2.034  1.00  0.00     0.011 C 
HETATM   26  C3  UNL     1      -7.078   1.693  -0.385  1.00  0.00     0.011 C 
ENDBRANCH   1  24
BRANCH   4  27
HETATM   27  O1  UNL     1      -7.094  -1.089   1.084  1.00  0.00    -0.383 OA
ATOM     28  H1  UNL     1      -7.381  -1.266   1.972  1.00  0.00     0.210 HD
ENDBRANCH   4  27
BRANCH   4  29
HETATM   29  C7  UNL     1      -6.219   0.696   2.081  1.00  0.00     0.206 C 
BRANCH  29  30
HETATM   30  O2  UNL     1      -5.323   1.678   2.400  1.00  0.00    -0.398 OA
ATOM     31  H2  UNL     1      -5.574   2.362   3.010  1.00  0.00     0.209 HD
ENDBRANCH  29  30
ENDBRANCH   4  29
BRANCH   5  32
HETATM   32  O3  UNL     1      -4.157  -0.828   2.860  1.00  0.00    -0.392 OA
ATOM     33  H3  UNL     1      -3.656  -1.450   3.375  1.00  0.00     0.210 HD
ENDBRANCH   5  32
BRANCH   7  34
HETATM   34  O4  UNL     1      -4.006  -3.187  -0.992  1.00  0.00    -0.389 OA
ATOM     35  H4  UNL     1      -3.534  -2.958  -1.784  1.00  0.00     0.210 HD
ENDBRANCH   7  34
BRANCH  11  36
HETATM   36  C15 UNL     1       1.581  -0.185  -1.832  1.00  0.00     0.036 C 
BRANCH  36  37
HETATM   37  C16 UNL     1       2.264  -1.459  -2.094  1.00  0.00     0.165 C 
BRANCH  37  38
HETATM   38  O5  UNL     1       1.520  -2.523  -2.575  1.00  0.00    -0.401 OA
ATOM     39  H5  UNL     1       1.962  -3.347  -2.744  1.00  0.00     0.209 HD
ENDBRANCH  37  38
ENDBRANCH  36  37
ENDBRANCH  11  36
BRANCH  13  40
HETATM   40  N2  UNL     1       3.488   0.023   1.063  1.00  0.00    -0.414 N 
ATOM     41  H2  UNL     1       4.210   0.498   0.521  1.00  0.00     0.153 HD
BRANCH  40  42
HETATM   42  C19 UNL     1       3.783  -1.118   1.832  1.00  0.00     0.116 C 
BRANCH  42  43
HETATM   43  C20 UNL     1       5.277  -1.402   1.603  1.00  0.00     0.046 C 
BRANCH  43  44
HETATM   44  C21 UNL     1       6.132  -0.258   2.031  1.00  0.00     0.234 C 
BRANCH  44  45
HETATM   45  N3  UNL     1       7.508  -0.556   1.802  1.00  0.00    -0.073 N 
ATOM     46  H32 UNL     1       8.114   0.107   2.285  1.00  0.00     0.277 HD
ATOM     47  H31 UNL     1       7.785  -1.411   2.285  1.00  0.00     0.277 HD
BRANCH  45  48
HETATM   48  C22 UNL     1       7.827  -0.625   0.397  1.00  0.00     0.265 C 
BRANCH  48  49
HETATM   49  C23 UNL     1       9.301  -0.928   0.210  1.00  0.00     0.167 C 
BRANCH  49  50
HETATM   50  O6  UNL     1       9.499  -0.972  -1.189  1.00  0.00    -0.392 OA
ATOM     51  H6  UNL     1      10.422  -1.162  -1.306  1.00  0.00     0.210 HD
ENDBRANCH  49  50
BRANCH  49  52
HETATM   52  C24 UNL     1      10.164   0.207   0.715  1.00  0.00     0.197 C 
BRANCH  52  53
HETATM   53  O7  UNL     1      11.487  -0.066   0.392  1.00  0.00    -0.398 OA
ATOM     54  H7  UNL     1      12.029   0.647   0.709  1.00  0.00     0.209 HD
ENDBRANCH  52  53
ENDBRANCH  49  52
ENDBRANCH  48  49
ENDBRANCH  45  48
ENDBRANCH  44  45
ENDBRANCH  43  44
ENDBRANCH  42  43
ENDBRANCH  40  42
ENDBRANCH  13  40
BRANCH  14  55
HETATM   55  O8  UNL     1       3.334   2.420   0.350  1.00  0.00    -0.393 OA
ATOM     56  H8  UNL     1       3.285   3.332   0.088  1.00  0.00     0.210 HD
ENDBRANCH  14  55
TORSDOF 20
