REMARK  20 active torsions:
REMARK  status: ('A' for Active; 'I' for Inactive)
REMARK    1  A    between atoms: O1_2  and  C2_3 
REMARK    2  A    between atoms: C2_3  and  C3_4 
REMARK    3  A    between atoms: C2_3  and  C5_8 
REMARK    4  A    between atoms: C3_4  and  O2_6 
REMARK    5  A    between atoms: C5_8  and  O3_9 
REMARK    6  A    between atoms: C5_8  and  C6_11 
REMARK    7  A    between atoms: C6_11  and  O4_12 
REMARK    8  A    between atoms: C6_11  and  C7_14 
REMARK    9  A    between atoms: C9_16  and  O5_17 
REMARK   10  A    between atoms: C20_29  and  C21_30 
REMARK   11  A    between atoms: C21_30  and  O6_31 
REMARK   12  A    between atoms: C21_30  and  C22_33 
REMARK   13  A    between atoms: C22_33  and  C23_34 
REMARK   14  A    between atoms: C23_34  and  C24_35 
REMARK   15  A    between atoms: C24_35  and  N1_36 
REMARK   16  A    between atoms: C24_35  and  C25_40 
REMARK       I    between atoms: C25_40  and  N2_42 
REMARK   17  A    between atoms: N2_42  and  C26_44 
REMARK   18  A    between atoms: C26_44  and  C27_45 
REMARK   19  A    between atoms: C27_45  and  O8_46 
REMARK   20  A    between atoms: C32_52  and  O9_53 
ROOT
HETATM    1  C7  UNL     1      -3.497   0.572  -0.537  1.00  0.00     0.031 C 
HETATM    2  C8  UNL     1      -4.342   1.453  -1.419  1.00  0.00     0.040 C 
HETATM    3  C9  UNL     1      -4.868   2.710  -0.835  1.00  0.00     0.126 C 
HETATM    4  C10 UNL     1      -3.994   3.392   0.158  1.00  0.00    -0.017 C 
HETATM    5  C11 UNL     1      -4.656   3.643   1.455  1.00  0.00     0.018 C 
HETATM    6  C12 UNL     1      -3.710   4.827  -0.386  1.00  0.00     0.018 C 
HETATM    7  C13 UNL     1      -2.666   2.732   0.134  1.00  0.00     0.007 C 
HETATM    8  C14 UNL     1      -1.528   3.520   0.669  1.00  0.00     0.007 C 
HETATM    9  C15 UNL     1      -0.294   3.193  -0.181  1.00  0.00     0.008 C 
HETATM   10  C16 UNL     1      -0.469   1.778  -0.775  1.00  0.00     0.025 C 
HETATM   11  C17 UNL     1       0.957   1.305  -0.911  1.00  0.00     0.001 C 
HETATM   12  C18 UNL     1       1.696   1.938  -2.045  1.00  0.00     0.006 C 
HETATM   13  C19 UNL     1       2.956   1.094  -2.053  1.00  0.00     0.008 C 
HETATM   14  C20 UNL     1       2.544  -0.293  -1.533  1.00  0.00     0.023 C 
HETATM   15  C28 UNL     1       1.104  -0.163  -1.202  1.00  0.00    -0.034 C 
HETATM   16  C29 UNL     1       0.319  -0.586  -2.427  1.00  0.00     0.016 C 
HETATM   17  C30 UNL     1       0.626  -0.851   0.037  1.00  0.00     0.013 C 
HETATM   18  C31 UNL     1      -0.876  -0.548   0.115  1.00  0.00     0.040 C 
HETATM   19  C32 UNL     1      -1.120   0.902   0.273  1.00  0.00     0.070 C 
HETATM   20  C33 UNL     1      -2.623   1.246   0.453  1.00  0.00    -0.002 C 
HETATM   21  C34 UNL     1      -2.863   0.945   1.892  1.00  0.00     0.019 C 
ENDROOT
BRANCH  14  22
HETATM   22  C21 UNL     1       3.450  -0.779  -0.470  1.00  0.00     0.123 C 
BRANCH  22  23
HETATM   23  O6  UNL     1       3.051  -2.032  -0.036  1.00  0.00    -0.395 OA
ATOM     24  H6  UNL     1       3.633  -2.344   0.647  1.00  0.00     0.210 HD
ENDBRANCH  22  23
BRANCH  22  25
HETATM   25  C22 UNL     1       4.846  -0.918  -1.052  1.00  0.00     0.034 C 
BRANCH  25  26
HETATM   26  C23 UNL     1       5.825  -1.421  -0.011  1.00  0.00     0.045 C 
BRANCH  26  27
HETATM   27  C24 UNL     1       7.191  -1.525  -0.672  1.00  0.00     0.274 C 
BRANCH  27  28
HETATM   28  N1  UNL     1       7.532  -0.205  -1.120  1.00  0.00    -0.067 N 
ATOM     29  H13 UNL     1       6.823   0.212  -1.723  1.00  0.00     0.275 HD
ATOM     30  H12 UNL     1       7.495   0.494  -0.378  1.00  0.00     0.275 HD
ATOM     31  H11 UNL     1       8.448  -0.275  -1.563  1.00  0.00     0.275 HD
ENDBRANCH  27  28
BRANCH  27  32
HETATM   32  C25 UNL     1       8.226  -2.024   0.243  1.00  0.00     0.248 C 
HETATM   33  O7  UNL     1       8.144  -3.182   0.734  1.00  0.00    -0.271 OA
HETATM   34  N2  UNL     1       9.325  -1.192   0.576  1.00  0.00    -0.357 N 
ATOM     35  H2  UNL     1       9.399  -0.253   0.184  1.00  0.00     0.162 HD
BRANCH  34  36
HETATM   36  C26 UNL     1      10.336  -1.688   1.474  1.00  0.00     0.148 C 
BRANCH  36  37
HETATM   37  C27 UNL     1      11.427  -0.692   1.732  1.00  0.00     0.183 C 
BRANCH  37  38
HETATM   38  O8  UNL     1      12.369  -1.242   2.608  1.00  0.00    -0.399 OA
ATOM     39  H8  UNL     1      13.060  -0.611   2.771  1.00  0.00     0.209 HD
ENDBRANCH  37  38
ENDBRANCH  36  37
ENDBRANCH  34  36
ENDBRANCH  27  32
ENDBRANCH  26  27
ENDBRANCH  25  26
ENDBRANCH  22  25
ENDBRANCH  14  22
BRANCH  19  40
HETATM   40  O9  UNL     1      -0.407   1.286   1.414  1.00  0.00    -0.389 OA
ATOM     41  H9  UNL     1      -0.816   0.736   2.072  1.00  0.00     0.210 HD
ENDBRANCH  19  40
BRANCH   1  42
HETATM   42  C6  UNL     1      -4.062  -0.769  -0.304  1.00  0.00     0.154 C 
BRANCH  42  43
HETATM   43  C5  UNL     1      -5.395  -0.995   0.281  1.00  0.00     0.178 C 
BRANCH  43  44
HETATM   44  C2  UNL     1      -5.473  -2.470   0.704  1.00  0.00     0.180 C 
BRANCH  44  45
HETATM   45  O1  UNL     1      -4.538  -2.827   1.639  1.00  0.00    -0.385 OA
HETATM   46  C1  UNL     1      -5.012  -3.202   2.867  1.00  0.00     0.202 C 
ENDBRANCH  44  45
BRANCH  44  47
HETATM   47  C3  UNL     1      -5.527  -3.462  -0.397  1.00  0.00     0.145 C 
HETATM   48  C4  UNL     1      -6.081  -4.781   0.188  1.00  0.00     0.042 C 
BRANCH  47  49
HETATM   49  O2  UNL     1      -6.467  -3.100  -1.370  1.00  0.00    -0.393 OA
ATOM     50  H2  UNL     1      -6.502  -3.735  -2.075  1.00  0.00     0.210 HD
ENDBRANCH  47  49
ENDBRANCH  44  47
ENDBRANCH  43  44
BRANCH  43  51
HETATM   51  O3  UNL     1      -5.677  -0.332   1.473  1.00  0.00    -0.390 OA
ATOM     52  H3  UNL     1      -5.629   0.580   1.211  1.00  0.00     0.210 HD
ENDBRANCH  43  51
ENDBRANCH  42  43
BRANCH  42  53
HETATM   53  O4  UNL     1      -4.119  -1.531  -1.512  1.00  0.00    -0.393 OA
ATOM     54  H4  UNL     1      -3.259  -1.385  -1.889  1.00  0.00     0.210 HD
ENDBRANCH  42  53
ENDBRANCH   1  42
BRANCH   3  55
HETATM   55  O5  UNL     1      -6.141   2.557  -0.229  1.00  0.00    -0.395 OA
ATOM     56  H5  UNL     1      -6.478   3.363   0.145  1.00  0.00     0.210 HD
ENDBRANCH   3  55
TORSDOF 20
