REMARK  23 active torsions:
REMARK  status: ('A' for Active; 'I' for Inactive)
REMARK    1  A    between atoms: C2_2  and  C3_3 
REMARK    2  A    between atoms: C3_3  and  C6_6 
REMARK    3  A    between atoms: C6_6  and  C7_7 
REMARK    4  A    between atoms: C7_7  and  C9_9 
REMARK    5  A    between atoms: C9_9  and  O1_10 
REMARK    6  A    between atoms: C9_9  and  C11_14 
REMARK    7  A    between atoms: O1_10  and  C10_11 
REMARK    8  A    between atoms: C11_14  and  C13_16 
REMARK    9  A    between atoms: C13_16  and  C14_17 
REMARK   10  A    between atoms: C14_17  and  C15_18 
REMARK   11  A    between atoms: C15_18  and  O3_19 
REMARK   12  A    between atoms: C15_18  and  C18_23 
REMARK   13  A    between atoms: O3_19  and  C16_20 
REMARK   14  A    between atoms: C18_23  and  O5_25 
REMARK   15  A    between atoms: O5_25  and  C20_26 
REMARK   16  A    between atoms: C20_26  and  C21_28 
REMARK   17  A    between atoms: C21_28  and  O7_29 
REMARK   18  A    between atoms: C21_28  and  C22_31 
REMARK   19  A    between atoms: C22_31  and  C23_32 
REMARK   20  A    between atoms: C22_31  and  C27_43 
REMARK       I    between atoms: C23_32  and  N2_34 
REMARK   21  A    between atoms: N2_34  and  C24_36 
REMARK   22  A    between atoms: C27_43  and  O9_46 
REMARK   23  A    between atoms: O9_46  and  C30_47 
ROOT
HETATM    1  O5  UNL     1       2.126  -1.227   0.815  1.00  0.00    -0.311 OA
ENDROOT
BRANCH   1   2
HETATM    2  C18 UNL     1       1.337  -1.523   1.924  1.00  0.00     0.161 C 
HETATM    3  C19 UNL     1       1.708  -0.856   3.197  1.00  0.00     0.043 C 
BRANCH   2   4
HETATM    4  C15 UNL     1      -0.174  -1.285   1.664  1.00  0.00     0.183 C 
BRANCH   4   5
HETATM    5  C14 UNL     1      -0.454   0.133   1.498  1.00  0.00     0.004 C 
BRANCH   5   6
HETATM    6  C13 UNL     1      -1.305   0.822   0.832  1.00  0.00    -0.021 C 
BRANCH   6   7
HETATM    7  C11 UNL     1      -2.408   0.506  -0.085  1.00  0.00     0.034 C 
HETATM    8  C12 UNL     1      -2.550  -0.950  -0.304  1.00  0.00     0.017 C 
BRANCH   7   9
HETATM    9  C9  UNL     1      -3.716   1.130   0.419  1.00  0.00     0.144 C 
BRANCH   9  10
HETATM   10  C7  UNL     1      -4.812   0.939  -0.569  1.00  0.00     0.016 C 
HETATM   11  C8  UNL     1      -4.528   1.639  -1.895  1.00  0.00     0.013 C 
BRANCH  10  12
HETATM   12  C6  UNL     1      -6.137   1.473  -0.064  1.00  0.00     0.045 C 
BRANCH  12  13
HETATM   13  C3  UNL     1      -7.287   1.240  -0.930  1.00  0.00    -0.063 C 
HETATM   14  C4  UNL     1      -7.902   2.293  -1.460  1.00  0.00    -0.024 C 
HETATM   15  C5  UNL     1      -7.537   3.696  -1.270  1.00  0.00     0.036 C 
BRANCH  13  16
HETATM   16  C2  UNL     1      -7.793  -0.074  -1.229  1.00  0.00    -0.004 C 
HETATM   17  C1  UNL     1      -7.370  -1.229  -0.789  1.00  0.00     0.012 C 
ENDBRANCH  13  16
ENDBRANCH  12  13
ENDBRANCH  10  12
ENDBRANCH   9  10
BRANCH   9  18
HETATM   18  O1  UNL     1      -4.064   0.429   1.597  1.00  0.00    -0.300 OA
BRANCH  18  19
HETATM   19  C10 UNL     1      -4.171   0.978   2.843  1.00  0.00     0.373 C 
HETATM   20  N1  UNL     1      -4.532   0.135   3.925  1.00  0.00    -0.032 NA
HETATM   21  O2  UNL     1      -3.947   2.204   2.984  1.00  0.00    -0.242 OA
ENDBRANCH  18  19
ENDBRANCH   9  18
ENDBRANCH   7   9
ENDBRANCH   6   7
ENDBRANCH   5   6
ENDBRANCH   4   5
BRANCH   4  22
HETATM   22  O3  UNL     1      -0.749  -1.669   2.933  1.00  0.00    -0.310 OA
BRANCH  22  23
HETATM   23  C16 UNL     1      -1.459  -2.812   3.146  1.00  0.00     0.255 C 
HETATM   24  C17 UNL     1      -1.987  -3.048   4.529  1.00  0.00     0.126 C 
HETATM   25  O4  UNL     1      -1.644  -3.611   2.199  1.00  0.00    -0.266 OA
ENDBRANCH  22  23
ENDBRANCH   4  22
ENDBRANCH   2   4
ENDBRANCH   1   2
BRANCH   1  26
HETATM   26  C20 UNL     1       2.809  -2.167   0.073  1.00  0.00     0.289 C 
HETATM   27  O6  UNL     1       2.679  -3.370   0.460  1.00  0.00    -0.262 OA
BRANCH  26  28
HETATM   28  C21 UNL     1       3.661  -1.895  -1.106  1.00  0.00     0.233 C 
BRANCH  28  29
HETATM   29  O7  UNL     1       4.148  -3.104  -1.646  1.00  0.00    -0.385 OA
ATOM     30  H7  UNL     1       4.695  -2.929  -2.403  1.00  0.00     0.210 HD
ENDBRANCH  28  29
BRANCH  28  31
HETATM   31  C22 UNL     1       4.832  -1.065  -0.591  1.00  0.00     0.151 C 
BRANCH  31  32
HETATM   32  C23 UNL     1       4.294   0.182  -0.016  1.00  0.00     0.233 C 
HETATM   33  O8  UNL     1       4.461   0.461   1.209  1.00  0.00    -0.273 OA
HETATM   34  N2  UNL     1       3.566   1.139  -0.768  1.00  0.00    -0.312 N 
ATOM     35  H2  UNL     1       2.824   0.802  -1.381  1.00  0.00     0.170 HD
BRANCH  34  36
HETATM   36  C24 UNL     1       3.783   2.397  -0.724  1.00  0.00     0.123 A 
HETATM   37  C25 UNL     1       4.728   3.035   0.032  1.00  0.00     0.068 A 
HETATM   38  C26 UNL     1       4.640   4.407  -0.211  1.00  0.00     0.111 A 
HETATM   39  N3  UNL     1       3.656   4.539  -1.093  1.00  0.00    -0.310 N 
HETATM   40  N4  UNL     1       3.131   3.377  -1.415  1.00  0.00    -0.286 N 
ATOM     41  H3  UNL     1       3.345   5.433  -1.474  1.00  0.00     0.186 HD
ATOM     42  H4  UNL     1       2.364   3.232  -2.072  1.00  0.00     0.188 HD
ENDBRANCH  34  36
ENDBRANCH  31  32
BRANCH  31  43
HETATM   43  C27 UNL     1       5.924  -0.883  -1.593  1.00  0.00     0.078 C 
HETATM   44  C28 UNL     1       7.007  -0.047  -0.943  1.00  0.00     0.047 C 
HETATM   45  C29 UNL     1       5.418  -0.236  -2.835  1.00  0.00     0.047 C 
BRANCH  43  46
HETATM   46  O9  UNL     1       6.498  -2.158  -1.826  1.00  0.00    -0.310 OA
BRANCH  46  47
HETATM   47  C30 UNL     1       7.540  -2.424  -2.669  1.00  0.00     0.255 C 
HETATM   48  C31 UNL     1       8.090  -3.800  -2.866  1.00  0.00     0.126 C 
HETATM   49  O10 UNL     1       8.067  -1.493  -3.308  1.00  0.00    -0.266 OA
ENDBRANCH  46  47
ENDBRANCH  43  46
ENDBRANCH  31  43
ENDBRANCH  28  31
ENDBRANCH  26  28
ENDBRANCH   1  26
TORSDOF 23
