REMARK  3 active torsions:
REMARK  status: ('A' for Active; 'I' for Inactive)
REMARK    1  A    between atoms: C3_5  and  C4_6 
REMARK    2  A    between atoms: N3_7  and  N4_9 
REMARK    3  A    between atoms: C7_18  and  N8_19 
ROOT
HETATM    1  N1  UNL     1      -2.816   3.022   0.811  1.00  0.00    -0.171 NA
HETATM    2  C1  UNL     1      -2.586   1.940   0.477  1.00  0.00     0.203 C 
HETATM    3  N2  UNL     1      -2.282   0.636   0.071  1.00  0.00    -0.091 N 
HETATM    4  C2  UNL     1      -0.989   0.254  -0.134  1.00  0.00     0.145 A 
HETATM    5  C3  UNL     1      -0.632  -1.003  -0.530  1.00  0.00     0.067 A 
HETATM    6  C6  UNL     1      -1.703  -1.889  -0.714  1.00  0.00     0.272 A 
HETATM    7  O1  UNL     1      -1.469  -3.062  -1.076  1.00  0.00    -0.267 OA
HETATM    8  N7  UNL     1      -2.959  -1.471  -0.500  1.00  0.00    -0.154 N 
ATOM      9  H7  UNL     1      -3.715  -2.141  -0.643  1.00  0.00     0.187 HD
HETATM   10  C7  UNL     1      -3.287  -0.231  -0.111  1.00  0.00     0.694 A 
ENDROOT
BRANCH  10  11
HETATM   11  N8  UNL     1      -4.523   0.098   0.074  1.00  0.00    -0.233 N 
ATOM     12  H82 UNL     1      -4.773   1.042   0.370  1.00  0.00     0.174 HD
ATOM     13  H81 UNL     1      -5.288  -0.562  -0.065  1.00  0.00     0.174 HD
ENDBRANCH  10  11
BRANCH   5  14
HETATM   14  C4  UNL     1       0.693  -1.504  -0.773  1.00  0.00     0.125 C 
HETATM   15  N3  UNL     1       1.798  -0.913  -0.679  1.00  0.00    -0.309 N 
ATOM     16  H3  UNL     1       2.613  -1.483  -0.906  1.00  0.00     0.186 HD
BRANCH  15  17
HETATM   17  N4  UNL     1       2.073   0.365  -0.322  1.00  0.00    -0.276 N 
HETATM   18  C5  UNL     1       3.145   0.722   0.309  1.00  0.00     0.215 C 
HETATM   19  N5  UNL     1       4.106  -0.260   0.662  1.00  0.00    -0.065 NA
HETATM   20  N6  UNL     1       3.384   2.078   0.659  1.00  0.00    -0.065 NA
ATOM     21  H4  UNL     1       1.395   1.088  -0.565  1.00  0.00     0.189 HD
ENDBRANCH  15  17
ENDBRANCH   5  14
TORSDOF 3
