REMARK  5 active torsions:
REMARK  status: ('A' for Active; 'I' for Inactive)
REMARK    1  A    between atoms: S1_2  and  C2_3 
REMARK    2  A    between atoms: C3_6  and  N2_7 
REMARK    3  A    between atoms: N2_7  and  N3_9 
REMARK    4  A    between atoms: C5_16  and  N7_17 
REMARK    5  A    between atoms: N7_17  and  N8_19 
ROOT
HETATM    1  C2  UNL     1      -2.059  -0.533  -0.033  1.00  0.00     0.174 A 
HETATM    2  N1  UNL     1      -0.730  -0.573   0.128  1.00  0.00    -0.168 N 
ATOM      3  H1  UNL     1      -0.254  -1.471   0.212  1.00  0.00     0.186 HD
HETATM    4  C3  UNL     1      -0.022   0.567   0.179  1.00  0.00     0.713 A 
HETATM    5  N6  UNL     1      -0.590   1.782   0.074  1.00  0.00    -0.019 N 
ATOM      6  H6  UNL     1      -0.037   2.638   0.115  1.00  0.00     0.203 HD
HETATM    7  C5  UNL     1      -1.931   1.808  -0.089  1.00  0.00     0.713 A 
HETATM    8  N9  UNL     1      -2.641   0.674  -0.140  1.00  0.00    -0.168 N 
ATOM      9  H9  UNL     1      -3.652   0.727  -0.264  1.00  0.00     0.186 HD
ENDROOT
BRANCH   4  10
HETATM   10  N2  UNL     1       1.243   0.524   0.333  1.00  0.00    -0.129 N 
ATOM     11  H2  UNL     1       1.785   1.387   0.372  1.00  0.00     0.205 HD
BRANCH  10  12
HETATM   12  N3  UNL     1       1.878  -0.706   0.447  1.00  0.00    -0.262 N 
HETATM   13  C4  UNL     1       3.113  -0.804   0.126  1.00  0.00     0.216 C 
HETATM   14  N4  UNL     1       3.793   0.347  -0.335  1.00  0.00    -0.065 NA
HETATM   15  N5  UNL     1       3.728  -2.075   0.255  1.00  0.00    -0.065 NA
ATOM     16  H3  UNL     1       1.366  -1.522   0.783  1.00  0.00     0.190 HD
ENDBRANCH  10  12
ENDBRANCH   4  10
BRANCH   1  17
HETATM   17  S1  UNL     1      -3.064  -2.018  -0.110  1.00  0.00    -0.097 SA
HETATM   18  C1  UNL     1      -2.055  -3.491   0.056  1.00  0.00     0.099 C 
ENDBRANCH   1  17
BRANCH   7  19
HETATM   19  N7  UNL     1      -2.517   2.954  -0.194  1.00  0.00    -0.138 N 
ATOM     20  H7  UNL     1      -3.529   2.987  -0.316  1.00  0.00     0.205 HD
BRANCH  19  21
HETATM   21  N8  UNL     1      -1.801   4.143  -0.144  1.00  0.00    -0.331 N 
ATOM     22  H82 UNL     1      -0.790   4.092  -0.021  1.00  0.00     0.177 HD
ATOM     23  H81 UNL     1      -2.264   5.048  -0.227  1.00  0.00     0.177 HD
ENDBRANCH  19  21
ENDBRANCH   7  19
TORSDOF 5
