REMARK  3 active torsions:
REMARK  status: ('A' for Active; 'I' for Inactive)
REMARK    1  A    between atoms: N1_1  and  N2_4 
REMARK    2  A    between atoms: N2_4  and  S1_6 
REMARK    3  A    between atoms: S1_6  and  C1_9 
ROOT
HETATM    1  C1  UNL     1      -0.248   0.111  -0.385  1.00  0.00     0.189 A 
HETATM    2  C2  UNL     1      -1.109   0.769   0.457  1.00  0.00     0.149 A 
HETATM    3  N3  UNL     1      -0.723   1.999   1.029  1.00  0.00    -0.081 NA
HETATM    4  N4  UNL     1      -2.294   0.213   0.704  1.00  0.00    -0.295 N 
ATOM      5  H4  UNL     1      -2.951   0.684   1.325  1.00  0.00     0.171 HD
HETATM    6  C3  UNL     1      -2.636  -0.965   0.143  1.00  0.00     0.328 A 
HETATM    7  O3  UNL     1      -3.738  -1.518   0.351  1.00  0.00    -0.247 OA
HETATM    8  N5  UNL     1      -1.778  -1.613  -0.691  1.00  0.00    -0.274 N 
ATOM      9  H5  UNL     1      -2.053  -2.503  -1.108  1.00  0.00     0.173 HD
HETATM   10  C4  UNL     1      -0.574  -1.092  -0.970  1.00  0.00     0.276 A 
HETATM   11  O4  UNL     1       0.210  -1.684  -1.732  1.00  0.00    -0.266 OA
ENDROOT
BRANCH   1  12
HETATM   12  S1  UNL     1       1.311   0.807  -0.733  1.00  0.00     0.284 S 
HETATM   13  O1  UNL     1       1.696   0.396  -2.132  1.00  0.00    -0.199 OA
HETATM   14  O2  UNL     1       1.247   2.309  -0.643  1.00  0.00    -0.199 OA
BRANCH  12  15
HETATM   15  N2  UNL     1       2.511   0.284   0.389  1.00  0.00    -0.229 N 
ATOM     16  H2  UNL     1       2.714   0.780   1.257  1.00  0.00     0.199 HD
BRANCH  15  17
HETATM   17  N1  UNL     1       3.165  -0.853   0.012  1.00  0.00    -0.336 N 
ATOM     18  H12 UNL     1       2.951  -1.338  -0.859  1.00  0.00     0.177 HD
ATOM     19  H11 UNL     1       3.875  -1.162   0.676  1.00  0.00     0.177 HD
ENDBRANCH  15  17
ENDBRANCH  12  15
ENDBRANCH   1  12
TORSDOF 3
