REMARK  3 active torsions:
REMARK  status: ('A' for Active; 'I' for Inactive)
REMARK    1  A    between atoms: N1_1  and  C1_4 
REMARK    2  A    between atoms: N3_9  and  C3_10 
REMARK    3  A    between atoms: C3_10  and  C4_11 
ROOT
HETATM    1  C1  UNL     1      -2.999   0.567  -0.219  1.00  0.00     0.683 A 
HETATM    2  N2  UNL     1      -2.262   0.775   0.897  1.00  0.00    -0.141 N 
ATOM      3  H2  UNL     1      -2.620   1.409   1.612  1.00  0.00     0.189 HD
HETATM    4  C2  UNL     1      -1.076   0.177   1.097  1.00  0.00     0.345 A 
HETATM    5  O1  UNL     1      -0.407   0.390   2.150  1.00  0.00    -0.246 OA
HETATM    6  N3  UNL     1      -0.573  -0.666   0.174  1.00  0.00    -0.243 N 
HETATM    7  C6  UNL     1      -1.297  -0.881  -0.941  1.00  0.00     0.345 A 
HETATM    8  O3  UNL     1      -0.892  -1.659  -1.853  1.00  0.00    -0.246 OA
HETATM    9  N7  UNL     1      -2.491  -0.279  -1.141  1.00  0.00    -0.141 N 
ATOM     10  H7  UNL     1      -3.013  -0.466  -1.997  1.00  0.00     0.189 HD
ENDROOT
BRANCH   6  11
HETATM   11  C3  UNL     1       0.681  -1.344   0.308  1.00  0.00     0.216 C 
BRANCH  11  12
HETATM   12  C4  UNL     1       1.812  -0.572  -0.249  1.00  0.00     0.118 A 
HETATM   13  N4  UNL     1       2.280  -0.617  -1.508  1.00  0.00    -0.283 N 
HETATM   14  N5  UNL     1       3.311   0.241  -1.577  1.00  0.00    -0.250 N 
ATOM     15  H4  UNL     1       1.920  -1.194  -2.268  1.00  0.00     0.188 HD
HETATM   16  C5  UNL     1       3.487   0.817  -0.381  1.00  0.00     0.340 A 
ATOM     17  H5  UNL     1       3.871   0.425  -2.409  1.00  0.00     0.192 HD
HETATM   18  O2  UNL     1       4.380   1.669  -0.135  1.00  0.00    -0.245 OA
HETATM   19  N6  UNL     1       2.557   0.311   0.441  1.00  0.00    -0.294 N 
ATOM     20  H6  UNL     1       2.435   0.554   1.424  1.00  0.00     0.172 HD
ENDBRANCH  11  12
ENDBRANCH   6  11
BRANCH   1  21
HETATM   21  N1  UNL     1      -4.136   1.143  -0.405  1.00  0.00    -0.234 N 
ATOM     22  H12 UNL     1      -4.520   1.782   0.291  1.00  0.00     0.174 HD
ATOM     23  H11 UNL     1      -4.691   0.986  -1.246  1.00  0.00     0.174 HD
ENDBRANCH   1  21
TORSDOF 3
