REMARK  1 active torsions:
REMARK  status: ('A' for Active; 'I' for Inactive)
REMARK    1  A    between atoms: C6_9  and  C7_10 
ROOT
HETATM    1  C1  UNL     1      -3.787   1.542  -0.648  1.00  0.00     0.012 C 
HETATM    2  C2  UNL     1      -2.799   1.023  -0.184  1.00  0.00    -0.113 C 
HETATM    3  C3  UNL     1      -1.600   0.386   0.356  1.00  0.00     0.068 C 
HETATM    4  C4  UNL     1      -1.907  -1.051   0.619  1.00  0.00     0.044 C 
HETATM    5  C5  UNL     1      -0.711  -1.896   0.921  1.00  0.00     0.234 C 
HETATM    6  N1  UNL     1       0.393  -1.666   0.011  1.00  0.00    -0.070 N 
ATOM      7  H11 UNL     1       0.202  -2.009  -0.931  1.00  0.00     0.277 HD
ATOM      8  H12 UNL     1       1.198  -2.258   0.215  1.00  0.00     0.277 HD
HETATM    9  C6  UNL     1       0.719  -0.263   0.033  1.00  0.00     0.191 C 
HETATM   10  C10 UNL     1      -0.436   0.478  -0.609  1.00  0.00     0.050 C 
ENDROOT
BRANCH   9  11
HETATM   11  C7  UNL     1       2.003   0.039  -0.702  1.00  0.00     0.016 A 
HETATM   12  C8  UNL     1       2.363   1.528  -0.686  1.00  0.00     0.007 A 
HETATM   13  C9  UNL     1       3.191   0.528   0.031  1.00  0.00     0.007 A 
ENDBRANCH   9  11
TORSDOF 1
