REMARK  2 active torsions:
REMARK  status: ('A' for Active; 'I' for Inactive)
REMARK    1  A    between atoms: C2_2  and  N1_4 
REMARK       I    between atoms: N1_4  and  C4_6 
REMARK       I    between atoms: C4_6  and  N2_8 
REMARK    2  A    between atoms: N2_8  and  C6_10 
ROOT
HETATM    1  N1  UNL     1      -1.178   0.211  -0.013  1.00  0.00    -0.339 N 
ATOM      2  H1  UNL     1      -1.010   1.215  -0.071  1.00  0.00     0.164 HD
HETATM    3  C4  UNL     1      -0.080  -0.655   0.218  1.00  0.00     0.318 C 
HETATM    4  O1  UNL     1      -0.271  -1.878   0.290  1.00  0.00    -0.247 OA
HETATM    5  N2  UNL     1       1.217  -0.115   0.363  1.00  0.00    -0.334 N 
HETATM    6  C5  UNL     1       1.470   1.305   0.284  1.00  0.00     0.154 C 
ENDROOT
BRANCH   1   7
HETATM    7  C2  UNL     1      -2.533  -0.283  -0.170  1.00  0.00     0.078 C 
HETATM    8  C1  UNL     1      -3.009   0.172  -1.541  1.00  0.00     0.032 C 
HETATM    9  C3  UNL     1      -3.370   0.327   0.930  1.00  0.00     0.032 C 
ENDBRANCH   1   7
BRANCH   5  10
HETATM   10  C6  UNL     1       2.326  -1.004   0.604  1.00  0.00     0.088 A 
HETATM   11  C7  UNL     1       3.573  -0.678  -0.206  1.00  0.00     0.027 A 
HETATM   12  C8  UNL     1       3.542  -0.500   1.250  1.00  0.00     0.027 A 
ENDBRANCH   5  10
TORSDOF 2
