REMARK  1 active torsions:
REMARK  status: ('A' for Active; 'I' for Inactive)
REMARK    1  A    between atoms: C6_6  and  C7_7 
ROOT
HETATM    1  C1  UNL     1      -1.516   1.536   0.807  1.00  0.00     0.015 C 
HETATM    2  C2  UNL     1      -1.610   0.203   0.108  1.00  0.00    -0.040 A 
HETATM    3  C3  UNL     1      -3.050  -0.157  -0.268  1.00  0.00     0.015 C 
HETATM    4  C4  UNL     1      -0.594  -0.239  -0.859  1.00  0.00    -0.001 A 
HETATM    5  C5  UNL     1       0.822   0.250  -0.834  1.00  0.00     0.019 C 
HETATM    6  C6  UNL     1       1.470  -0.842   0.023  1.00  0.00     0.076 C 
HETATM    7  C8  UNL     1       0.528  -0.798   1.217  1.00  0.00     0.019 C 
HETATM    8  C9  UNL     1      -0.798  -0.948   0.504  1.00  0.00    -0.001 A 
ENDROOT
BRANCH   6   9
HETATM    9  C7  UNL     1       2.855  -0.542   0.369  1.00  0.00     0.235 C 
HETATM   10  N1  UNL     1       3.263   0.591   1.098  1.00  0.00    -0.062 NA
HETATM   11  O1  UNL     1       3.746  -1.348  -0.008  1.00  0.00    -0.277 OA
ENDBRANCH   6   9
TORSDOF 1
