REMARK  3 active torsions:
REMARK  status: ('A' for Active; 'I' for Inactive)
REMARK    1  A    between atoms: C2_2  and  O1_3 
REMARK    2  A    between atoms: O1_3  and  C3_4 
REMARK    3  A    between atoms: C3_4  and  C4_6 
ROOT
HETATM    1  C4  UNL     1       0.116  -0.663   0.339  1.00  0.00     0.112 C 
HETATM    2  C5  UNL     1      -0.531  -1.544  -0.711  1.00  0.00     0.019 C 
HETATM    3  C6  UNL     1      -1.947  -1.790  -0.258  1.00  0.00     0.025 C 
HETATM    4  C7  UNL     1      -2.656  -0.452  -0.249  1.00  0.00     0.073 C 
HETATM    5  C8  UNL     1      -4.030  -0.709   0.383  1.00  0.00     0.032 C 
HETATM    6  N1  UNL     1      -1.981   0.490   0.576  1.00  0.00    -0.409 N 
ATOM      7  H1  UNL     1      -2.456   1.001   1.320  1.00  0.00     0.154 HD
HETATM    8  C9  UNL     1      -0.593   0.672   0.291  1.00  0.00     0.031 C 
HETATM    9  C10 UNL     1      -0.018   1.539   1.410  1.00  0.00     0.038 C 
HETATM   10  C11 UNL     1      -0.381   1.355  -1.021  1.00  0.00     0.038 C 
ENDROOT
BRANCH   1  11
HETATM   11  C3  UNL     1       1.553  -0.560   0.036  1.00  0.00     0.265 C 
HETATM   12  O2  UNL     1       2.069  -1.152  -0.966  1.00  0.00    -0.265 OA
BRANCH  11  13
HETATM   13  O1  UNL     1       2.454   0.175   0.798  1.00  0.00    -0.321 OA
BRANCH  13  14
HETATM   14  C2  UNL     1       3.815   0.285   0.528  1.00  0.00     0.174 C 
HETATM   15  C1  UNL     1       4.161   0.874  -0.788  1.00  0.00     0.034 C 
ENDBRANCH  13  14
ENDBRANCH  11  13
ENDBRANCH   1  11
TORSDOF 3
