REMARK  3 active torsions:
REMARK  status: ('A' for Active; 'I' for Inactive)
REMARK    1  A    between atoms: S1_2  and  C2_3 
REMARK    2  A    between atoms: C9_13  and  N2_14 
REMARK    3  A    between atoms: N2_14  and  C10_16 
ROOT
HETATM    1  C2  UNL     1      -0.969   0.157  -0.025  1.00  0.00     0.040 C 
HETATM    2  C3  UNL     1      -1.222  -0.498   1.299  1.00  0.00     0.030 C 
HETATM    3  C4  UNL     1       0.089  -0.463  -0.896  1.00  0.00     0.033 C 
HETATM    4  C5  UNL     1       1.220  -1.070  -0.101  1.00  0.00     0.041 C 
HETATM    5  C6  UNL     1       1.842   0.011   0.748  1.00  0.00     0.183 C 
HETATM    6  C7  UNL     1       2.315  -0.669   2.027  1.00  0.00     0.040 C 
HETATM    7  N1  UNL     1       0.905   1.031   1.148  1.00  0.00    -0.064 N 
ATOM      8  H11 UNL     1       1.392   1.872   1.459  1.00  0.00     0.278 HD
ATOM      9  H12 UNL     1       0.439   0.777   2.019  1.00  0.00     0.278 HD
HETATM   10  C8  UNL     1      -0.057   1.343   0.120  1.00  0.00     0.227 C 
HETATM   11  C9  UNL     1       0.522   0.961  -1.237  1.00  0.00     0.121 C 
ENDROOT
BRANCH  11  12
HETATM   12  N2  UNL     1      -0.185   1.531  -2.363  1.00  0.00    -0.361 N 
ATOM     13  H2  UNL     1      -0.961   1.040  -2.807  1.00  0.00     0.162 HD
BRANCH  12  14
HETATM   14  C10 UNL     1       0.201   2.665  -2.773  1.00  0.00     0.348 C 
HETATM   15  O1  UNL     1       0.371   3.865  -3.029  1.00  0.00    -0.284 OA
ENDBRANCH  12  14
ENDBRANCH  11  12
BRANCH   1  16
HETATM   16  S1  UNL     1      -2.493   0.420  -0.929  1.00  0.00    -0.161 SA
HETATM   17  C1  UNL     1      -3.318  -1.194  -1.117  1.00  0.00     0.090 C 
ENDBRANCH   1  16
TORSDOF 3
