REMARK  1 active torsions:
REMARK  status: ('A' for Active; 'I' for Inactive)
REMARK    1  A    between atoms: C1_2  and  C2_4 
ROOT
HETATM    1  C2  UNL     1       0.877  -0.110   0.102  1.00  0.00     0.053 C 
HETATM    2  C3  UNL     1       0.396  -1.180  -0.847  1.00  0.00     0.025 C 
HETATM    3  C4  UNL     1      -1.114  -1.046  -0.646  1.00  0.00    -0.013 C 
HETATM    4  C5  UNL     1      -1.590   0.336  -1.002  1.00  0.00     0.009 C 
HETATM    5  C6  UNL     1      -0.825   1.420  -0.326  1.00  0.00    -0.013 C 
HETATM    6  C7  UNL     1      -0.813   1.206   1.193  1.00  0.00     0.010 C 
HETATM    7  C8  UNL     1      -0.084  -0.142   1.243  1.00  0.00     0.005 C 
HETATM    8  C9  UNL     1      -1.160  -1.179   0.881  1.00  0.00     0.010 C 
HETATM    9  C10 UNL     1       0.657   1.224  -0.625  1.00  0.00     0.025 C 
ENDROOT
BRANCH   1  10
HETATM   10  C1  UNL     1       2.276  -0.214   0.469  1.00  0.00     0.182 C 
HETATM   11  O1  UNL     1       2.572  -0.361   1.680  1.00  0.00    -0.647 OA
HETATM   12  O2  UNL     1       3.287  -0.157  -0.454  1.00  0.00    -0.647 OA
ENDBRANCH   1  10
TORSDOF 1
