REMARK  1 active torsions:
REMARK  status: ('A' for Active; 'I' for Inactive)
REMARK    1  A    between atoms: N1_2  and  C2_5 
ROOT
HETATM    1  C2  UNL     1       1.260  -0.316  -0.321  1.00  0.00     0.195 C 
HETATM    2  C3  UNL     1       0.455   0.427   0.717  1.00  0.00     0.025 C 
HETATM    3  C4  UNL     1      -0.555   1.357   0.118  1.00  0.00    -0.007 C 
HETATM    4  C5  UNL     1      -0.790   0.925  -1.311  1.00  0.00     0.010 C 
HETATM    5  C6  UNL     1      -0.909  -0.572  -1.375  1.00  0.00    -0.007 C 
HETATM    6  C7  UNL     1      -2.199  -0.926  -0.630  1.00  0.00     0.010 C 
HETATM    7  C8  UNL     1      -1.794  -0.510   0.788  1.00  0.00    -0.009 C 
HETATM    8  C9  UNL     1      -1.815   0.985   0.909  1.00  0.00     0.010 C 
HETATM    9  C10 UNL     1      -0.345  -0.848   0.888  1.00  0.00     0.002 C 
HETATM   10  C11 UNL     1       0.117  -1.250  -0.494  1.00  0.00     0.025 C 
ENDROOT
BRANCH   1  11
HETATM   11  N1  UNL     1       2.511  -0.833   0.146  1.00  0.00    -0.074 N 
HETATM   12  C1  UNL     1       3.381   0.300   0.415  1.00  0.00     0.267 C 
ATOM     13  H12 UNL     1       2.926  -1.509  -0.496  1.00  0.00     0.277 HD
ATOM     14  H11 UNL     1       2.409  -1.455   0.948  1.00  0.00     0.277 HD
ENDBRANCH   1  11
TORSDOF 1
