REMARK  1 active torsions:
REMARK  status: ('A' for Active; 'I' for Inactive)
REMARK    1  A    between atoms: C3_3  and  C5_5 
ROOT
HETATM    1  C1  UNL     1      -2.896   1.638  -1.824  1.00  0.00     0.012 C 
HETATM    2  C2  UNL     1      -2.434   0.676  -1.274  1.00  0.00    -0.113 C 
HETATM    3  C3  UNL     1      -1.872  -0.507  -0.571  1.00  0.00     0.064 C 
HETATM    4  C4  UNL     1      -2.400  -0.514   0.834  1.00  0.00     0.024 C 
ENDROOT
BRANCH   3   5
HETATM    5  C5  UNL     1      -0.395  -0.419  -0.678  1.00  0.00     0.008 C 
HETATM    6  C6  UNL     1       0.355  -1.553  -0.016  1.00  0.00     0.039 C 
HETATM    7  C7  UNL     1       1.813  -1.075   0.029  1.00  0.00     0.186 C 
HETATM    8  C8  UNL     1       1.937  -0.171   1.240  1.00  0.00     0.033 C 
HETATM    9  N1  UNL     1       2.067  -0.230  -1.139  1.00  0.00    -0.070 N 
HETATM   10  C9  UNL     1       0.678   0.688   1.300  1.00  0.00     0.009 C 
HETATM   11  C10 UNL     1       0.194   0.857  -0.147  1.00  0.00     0.017 C 
HETATM   12  C11 UNL     1       1.487   1.108  -0.938  1.00  0.00     0.237 C 
ATOM     13  H12 UNL     1       3.060  -0.184  -1.366  1.00  0.00     0.277 HD
ATOM     14  H11 UNL     1       1.735  -0.663  -2.001  1.00  0.00     0.277 HD
ENDBRANCH   3   5
TORSDOF 1
