REMARK  1 active torsions:
REMARK  status: ('A' for Active; 'I' for Inactive)
REMARK       I    between atoms: N1_2  and  C2_4 
REMARK    1  A    between atoms: C2_4  and  C3_6 
ROOT
HETATM    1  C3  UNL     1       0.390  -0.243  -0.788  1.00  0.00     0.082 C 
HETATM    2  C4  UNL     1      -0.498  -1.426  -1.045  1.00  0.00     0.015 C 
HETATM    3  C5  UNL     1      -1.878  -0.798  -0.906  1.00  0.00     0.010 C 
HETATM    4  C6  UNL     1      -1.725   0.034   0.334  1.00  0.00    -0.040 A 
HETATM    5  C7  UNL     1      -2.324  -0.559   1.589  1.00  0.00     0.015 C 
HETATM    6  C8  UNL     1      -2.058   1.501   0.134  1.00  0.00     0.010 A 
HETATM    7  C9  UNL     1      -0.585   1.804   0.237  1.00  0.00     0.007 A 
HETATM    8  C10 UNL     1      -0.249   0.361   0.452  1.00  0.00     0.007 A 
ENDROOT
BRANCH   1   9
HETATM    9  C2  UNL     1       1.779  -0.637  -0.589  1.00  0.00     0.221 C 
HETATM   10  N1  UNL     1       2.809   0.289  -0.331  1.00  0.00    -0.365 N 
HETATM   11  C1  UNL     1       4.169  -0.128  -0.139  1.00  0.00     0.149 C 
ATOM     12  H1  UNL     1       2.582   1.282  -0.279  1.00  0.00     0.161 HD
HETATM   13  O1  UNL     1       2.078  -1.856  -0.649  1.00  0.00    -0.273 OA
ENDBRANCH   1   9
TORSDOF 1
