REMARK  2 active torsions:
REMARK  status: ('A' for Active; 'I' for Inactive)
REMARK    1  A    between atoms: C3_3  and  C4_4 
REMARK    2  A    between atoms: C8_10  and  C9_11 
ROOT
HETATM    1  C1  UNL     1       0.058  -0.422   3.040  1.00  0.00     0.098 C 
HETATM    2  C2  UNL     1      -0.343  -0.283   1.888  1.00  0.00    -0.167 C 
HETATM    3  C3  UNL     1      -0.836  -0.134   0.541  1.00  0.00     0.096 C 
HETATM    4  C5  UNL     1      -2.027  -1.161   0.354  1.00  0.00     0.032 C 
HETATM    5  C6  UNL     1      -2.022  -1.407  -1.137  1.00  0.00     0.003 C 
HETATM    6  C7  UNL     1      -0.796  -0.677  -1.683  1.00  0.00     0.011 C 
HETATM    7  C8  UNL     1       0.091  -0.747  -0.436  1.00  0.00     0.036 C 
ENDROOT
BRANCH   3   8
HETATM    8  C4  UNL     1      -1.416   1.158   0.262  1.00  0.00     0.251 C 
HETATM    9  N1  UNL     1      -0.856   2.456   0.396  1.00  0.00    -0.061 NA
HETATM   10  O1  UNL     1      -2.633   1.162  -0.180  1.00  0.00    -0.275 OA
ENDBRANCH   3   8
BRANCH   7  11
HETATM   11  C9  UNL     1       1.446  -0.379  -0.571  1.00  0.00    -0.024 C 
HETATM   12  C10 UNL     1       2.094   0.547   0.084  1.00  0.00    -0.034 C 
HETATM   13  C11 UNL     1       3.564   0.795  -0.211  1.00  0.00     0.036 C 
ENDBRANCH   7  11
TORSDOF 2
