REMARK  2 active torsions:
REMARK  status: ('A' for Active; 'I' for Inactive)
REMARK    1  A    between atoms: C5_5  and  N1_6 
REMARK       I    between atoms: N1_6  and  C6_8 
REMARK    2  A    between atoms: C6_8  and  C7_10 
ROOT
HETATM    1  N1  UNL     1      -0.854  -0.107  -0.171  1.00  0.00    -0.356 N 
ATOM      2  H1  UNL     1      -1.274   0.693  -0.645  1.00  0.00     0.162 HD
HETATM    3  C6  UNL     1      -1.708  -1.087   0.409  1.00  0.00     0.222 C 
HETATM    4  O1  UNL     1      -1.209  -2.102   1.008  1.00  0.00    -0.273 OA
ENDROOT
BRANCH   1   5
HETATM    5  C5  UNL     1       0.570  -0.202  -0.114  1.00  0.00     0.084 C 
HETATM    6  C4  UNL     1       1.254  -0.245  -1.432  1.00  0.00     0.025 C 
HETATM    7  C3  UNL     1       2.427   0.720  -1.302  1.00  0.00     0.006 C 
HETATM    8  C2  UNL     1       2.627   0.873   0.185  1.00  0.00    -0.017 C 
HETATM    9  C1  UNL     1       3.331  -0.290   0.812  1.00  0.00     0.010 C 
HETATM   10  C10 UNL     1       1.196   0.932   0.683  1.00  0.00     0.029 C 
ENDBRANCH   1   5
BRANCH   3  11
HETATM   11  C7  UNL     1      -3.189  -0.985   0.348  1.00  0.00     0.078 A 
HETATM   12  C8  UNL     1      -3.806   0.392   0.550  1.00  0.00     0.015 A 
HETATM   13  C9  UNL     1      -3.833  -0.242  -0.778  1.00  0.00     0.015 A 
ENDBRANCH   3  11
TORSDOF 2
