REMARK  2 active torsions:
REMARK  status: ('A' for Active; 'I' for Inactive)
REMARK       I    between atoms: C1_2  and  N1_3 
REMARK    1  A    between atoms: C1_2  and  C5_8 
REMARK    2  A    between atoms: N1_3  and  C2_5 
ROOT
HETATM    1  C5  UNL     1       0.920   0.586  -0.706  1.00  0.00     0.084 C 
HETATM    2  C6  UNL     1       1.453  -0.815  -0.820  1.00  0.00     0.058 C 
HETATM    3  C7  UNL     1       2.810  -1.011  -0.297  1.00  0.00     0.056 C 
HETATM    4  N2  UNL     1       3.302  -0.112   0.666  1.00  0.00    -0.402 N 
ATOM      5  H2  UNL     1       4.039  -0.392   1.313  1.00  0.00     0.158 HD
HETATM    6  C8  UNL     1       2.751   1.187   0.716  1.00  0.00     0.119 C 
HETATM    7  C9  UNL     1       1.223   1.042   0.728  1.00  0.00     0.034 C 
ENDROOT
BRANCH   1   8
HETATM    8  C1  UNL     1      -0.523   0.675  -0.912  1.00  0.00     0.222 C 
HETATM    9  O1  UNL     1      -0.953   1.388  -1.857  1.00  0.00    -0.273 OA
HETATM   10  N1  UNL     1      -1.492   0.012  -0.119  1.00  0.00    -0.356 N 
ATOM     11  H1  UNL     1      -1.162  -0.570   0.651  1.00  0.00     0.162 HD
BRANCH  10  12
HETATM   12  C2  UNL     1      -2.907   0.107  -0.331  1.00  0.00     0.084 A 
HETATM   13  C3  UNL     1      -3.865   0.025   0.786  1.00  0.00     0.027 A 
HETATM   14  C4  UNL     1      -3.705  -1.131  -0.140  1.00  0.00     0.027 A 
ENDBRANCH  10  12
ENDBRANCH   1   8
TORSDOF 2
