REMARK  2 active torsions:
REMARK  status: ('A' for Active; 'I' for Inactive)
REMARK       I    between atoms: C1_2  and  N1_3 
REMARK    1  A    between atoms: C1_2  and  C9_12 
REMARK    2  A    between atoms: N1_3  and  C2_5 
ROOT
HETATM    1  C2  UNL     1      -0.600  -0.070   1.195  1.00  0.00     0.092 C 
HETATM    2  C3  UNL     1      -1.773   0.754   0.715  1.00  0.00     0.009 C 
HETATM    3  C4  UNL     1      -1.742   0.945  -0.767  1.00  0.00     0.007 C 
HETATM    4  C5  UNL     1      -2.044  -0.342  -1.456  1.00  0.00     0.001 C 
HETATM    5  C6  UNL     1      -1.393  -1.479  -0.712  1.00  0.00     0.007 C 
HETATM    6  C7  UNL     1      -1.429  -1.288   0.780  1.00  0.00     0.009 C 
HETATM    7  C8  UNL     1      -2.646  -0.433   1.163  1.00  0.00     0.013 C 
ENDROOT
BRANCH   1   8
HETATM    8  N1  UNL     1       0.639   0.060   0.528  1.00  0.00    -0.355 N 
HETATM    9  C1  UNL     1       1.848   0.271   1.233  1.00  0.00     0.222 C 
HETATM   10  O1  UNL     1       1.784   0.340   2.486  1.00  0.00    -0.273 OA
ATOM     11  H1  UNL     1       0.663   0.000  -0.490  1.00  0.00     0.162 HD
BRANCH   9  12
HETATM   12  C9  UNL     1       3.163   0.413   0.590  1.00  0.00     0.078 A 
HETATM   13  C10 UNL     1       3.442  -0.163  -0.748  1.00  0.00     0.015 A 
HETATM   14  C11 UNL     1       3.147   1.325  -0.628  1.00  0.00     0.015 A 
ENDBRANCH   9  12
ENDBRANCH   1   8
TORSDOF 2
