REMARK  2 active torsions:
REMARK  status: ('A' for Active; 'I' for Inactive)
REMARK    1  A    between atoms: C7_7  and  C8_8 
REMARK       I    between atoms: C8_8  and  N1_10 
REMARK    2  A    between atoms: N1_10  and  C9_12 
ROOT
HETATM    1  C1  UNL     1      -0.121   1.260   1.330  1.00  0.00     0.015 C 
HETATM    2  C2  UNL     1      -0.699   0.505   0.168  1.00  0.00    -0.036 C 
HETATM    3  C3  UNL     1      -1.142   1.515  -0.863  1.00  0.00     0.015 C 
HETATM    4  C4  UNL     1      -1.983  -0.153   0.695  1.00  0.00     0.010 C 
HETATM    5  C5  UNL     1      -2.056  -1.436  -0.112  1.00  0.00     0.002 C 
HETATM    6  C6  UNL     1      -0.621  -1.854  -0.173  1.00  0.00     0.015 C 
HETATM    7  C7  UNL     1       0.127  -0.557  -0.402  1.00  0.00     0.086 C 
ENDROOT
BRANCH   7   8
HETATM    8  C8  UNL     1       1.530  -0.629   0.014  1.00  0.00     0.228 C 
HETATM    9  O1  UNL     1       1.886  -1.709   0.587  1.00  0.00    -0.273 OA
HETATM   10  N1  UNL     1       2.514   0.342  -0.146  1.00  0.00    -0.305 N 
ATOM     11  H1  UNL     1       2.278   1.224  -0.600  1.00  0.00     0.171 HD
BRANCH  10  12
HETATM   12  C9  UNL     1       3.829   0.127   0.308  1.00  0.00     0.355 C 
HETATM   13  O2  UNL     1       4.756   0.984   0.184  1.00  0.00    -0.283 OA
ENDBRANCH  10  12
ENDBRANCH   7   8
TORSDOF 2
