REMARK  2 active torsions:
REMARK  status: ('A' for Active; 'I' for Inactive)
REMARK    1  A    between atoms: S1_2  and  N1_5 
REMARK    2  A    between atoms: N1_5  and  C2_7 
ROOT
HETATM    1  C2  UNL     1       0.114  -0.251   0.028  1.00  0.00     0.092 C 
HETATM    2  C3  UNL     1      -0.897  -1.294   0.417  1.00  0.00     0.026 C 
HETATM    3  C4  UNL     1      -2.184  -0.739   0.906  1.00  0.00     0.002 C 
HETATM    4  C5  UNL     1      -2.781   0.105  -0.226  1.00  0.00     0.000 C 
HETATM    5  C6  UNL     1      -1.858   1.265  -0.403  1.00  0.00     0.002 C 
HETATM    6  C7  UNL     1      -0.454   0.924  -0.680  1.00  0.00     0.026 C 
ENDROOT
BRANCH   1   7
HETATM    7  N1  UNL     1       1.171  -0.768  -0.781  1.00  0.00    -0.315 N 
ATOM      8  H1  UNL     1       1.004  -1.153  -1.711  1.00  0.00     0.172 HD
BRANCH   7   9
HETATM    9  S1  UNL     1       2.722  -0.701  -0.097  1.00  0.00     0.223 S 
HETATM   10  C1  UNL     1       3.266   0.944   0.253  1.00  0.00     0.185 C 
HETATM   11  O1  UNL     1       3.689  -1.286  -1.091  1.00  0.00    -0.206 OA
HETATM   12  O2  UNL     1       2.852  -1.506   1.162  1.00  0.00    -0.206 OA
ENDBRANCH   7   9
ENDBRANCH   1   7
TORSDOF 2
