REMARK  1 active torsions:
REMARK  status: ('A' for Active; 'I' for Inactive)
REMARK    1  A    between atoms: C3_6  and  C4_7 
REMARK       I    between atoms: C4_7  and  N2_9 
ROOT
HETATM    1  C1  UNL     1      -3.758   0.163  -0.941  1.00  0.00     0.051 C 
HETATM    2  C2  UNL     1      -2.557   0.663  -0.176  1.00  0.00     0.244 C 
HETATM    3  N1  UNL     1      -1.376   0.152  -0.837  1.00  0.00    -0.049 N 
ATOM      4  H11 UNL     1      -1.142   0.656  -1.692  1.00  0.00     0.279 HD
ATOM      5  H12 UNL     1      -1.516  -0.764  -1.264  1.00  0.00     0.279 HD
HETATM    6  C3  UNL     1      -0.309   0.170   0.154  1.00  0.00     0.287 C 
HETATM    7  C7  UNL     1      -0.752  -0.887   1.186  1.00  0.00     0.119 C 
HETATM    8  S1  UNL     1      -2.492  -0.306   1.389  1.00  0.00    -0.134 SA
ENDROOT
BRANCH   6   9
HETATM    9  C4  UNL     1       0.936  -0.175  -0.520  1.00  0.00     0.250 C 
HETATM   10  O1  UNL     1       0.886  -0.688  -1.691  1.00  0.00    -0.271 OA
HETATM   11  N2  UNL     1       2.248   0.007  -0.000  1.00  0.00    -0.359 N 
HETATM   12  C5  UNL     1       3.431  -0.410  -0.752  1.00  0.00     0.152 C 
HETATM   13  C6  UNL     1       2.450   0.629   1.263  1.00  0.00     0.152 C 
ENDBRANCH   6   9
TORSDOF 1
