REMARK  2 active torsions:
REMARK  status: ('A' for Active; 'I' for Inactive)
REMARK       I    between atoms: C2_2  and  N1_4 
REMARK    1  A    between atoms: N1_4  and  C3_6 
REMARK    2  A    between atoms: C6_9  and  N2_10 
ROOT
HETATM    1  C3  UNL     1       0.943  -0.259  -0.666  1.00  0.00     0.086 C 
HETATM    2  C4  UNL     1       0.300  -1.611  -0.476  1.00  0.00     0.027 C 
HETATM    3  C5  UNL     1      -0.964  -1.311   0.297  1.00  0.00     0.027 C 
HETATM    4  C6  UNL     1      -1.356   0.012  -0.299  1.00  0.00     0.080 C 
HETATM    5  C9  UNL     1      -0.050   0.763  -0.145  1.00  0.00     0.050 C 
ENDROOT
BRANCH   1   6
HETATM    6  N1  UNL     1       2.219  -0.211   0.001  1.00  0.00    -0.357 N 
HETATM    7  C2  UNL     1       3.439   0.054  -0.647  1.00  0.00     0.213 C 
HETATM    8  C1  UNL     1       4.725   0.093   0.095  1.00  0.00     0.117 C 
HETATM    9  O1  UNL     1       3.500   0.272  -1.892  1.00  0.00    -0.274 OA
ATOM     10  H1  UNL     1       2.239  -0.380   1.007  1.00  0.00     0.162 HD
ENDBRANCH   1   6
BRANCH   4  11
HETATM   11  N2  UNL     1      -2.492   0.626   0.190  1.00  0.00    -0.416 N 
HETATM   12  C7  UNL     1      -3.741  -0.027   0.027  1.00  0.00     0.143 C 
HETATM   13  C8  UNL     1      -2.430   1.668   1.125  1.00  0.00     0.143 C 
ENDBRANCH   4  11
TORSDOF 2
