REMARK  3 active torsions:
REMARK  status: ('A' for Active; 'I' for Inactive)
REMARK    1  A    between atoms: C1_2  and  N1_3 
REMARK    2  A    between atoms: C1_2  and  N2_10 
REMARK    3  A    between atoms: N1_3  and  C2_5 
ROOT
HETATM    1  S1  UNL     1       0.885  -1.859   1.314  1.00  0.00    -0.041 SA
HETATM    2  C1  UNL     1       0.281  -0.463   0.733  1.00  0.00     0.170 C 
ENDROOT
BRANCH   2   3
HETATM    3  N1  UNL     1       1.118   0.671   0.547  1.00  0.00    -0.361 N 
ATOM      4  H1  UNL     1       0.729   1.541   0.183  1.00  0.00     0.162 HD
BRANCH   3   5
HETATM    5  C2  UNL     1       2.516   0.587   0.874  1.00  0.00     0.102 C 
HETATM    6  C3  UNL     1       3.284  -0.481   0.084  1.00  0.00     0.028 C 
HETATM    7  C4  UNL     1       4.434   0.534   0.030  1.00  0.00     0.024 C 
HETATM    8  C5  UNL     1       3.350   1.619   0.106  1.00  0.00     0.105 C 
HETATM    9 CL1  UNL     1       3.804   3.038   1.043  1.00  0.00    -0.123 Cl
ENDBRANCH   3   5
ENDBRANCH   2   3
BRANCH   2  10
HETATM   10  N2  UNL     1      -1.089  -0.389   0.414  1.00  0.00    -0.358 N 
HETATM   11  C6  UNL     1      -1.687   0.820  -0.104  1.00  0.00     0.125 C 
HETATM   12  C7  UNL     1      -3.195   0.735  -0.027  1.00  0.00     0.020 C 
HETATM   13  C8  UNL     1      -3.728  -0.476  -0.750  1.00  0.00     0.003 C 
HETATM   14  C9  UNL     1      -2.804  -1.656  -0.657  1.00  0.00     0.020 C 
HETATM   15  C10 UNL     1      -1.938  -1.537   0.603  1.00  0.00     0.125 C 
ENDBRANCH   2  10
TORSDOF 3
