REMARK  3 active torsions:
REMARK  status: ('A' for Active; 'I' for Inactive)
REMARK    1  A    between atoms: C7_7  and  N1_8 
REMARK    2  A    between atoms: N1_8  and  C8_10 
REMARK    3  A    between atoms: C8_10  and  N2_12 
ROOT
HETATM    1  N1  UNL     1       0.192   0.287  -0.039  1.00  0.00    -0.362 N 
ATOM      2  H1  UNL     1       0.484   1.113   0.483  1.00  0.00     0.162 HD
ENDROOT
BRANCH   1   3
HETATM    3  C7  UNL     1      -1.175   0.204  -0.389  1.00  0.00     0.087 C 
HETATM    4  C2  UNL     1      -1.970  -0.920   0.156  1.00  0.00     0.004 C 
HETATM    5  C1  UNL     1      -2.419  -0.710   1.586  1.00  0.00     0.012 C 
HETATM    6  C3  UNL     1      -3.241  -1.032  -0.700  1.00  0.00     0.006 C 
HETATM    7  C4  UNL     1      -4.006   0.256  -0.723  1.00  0.00     0.001 C 
HETATM    8  C5  UNL     1      -3.168   1.472  -0.926  1.00  0.00     0.002 C 
HETATM    9  C6  UNL     1      -1.908   1.489  -0.090  1.00  0.00     0.025 C 
ENDBRANCH   1   3
BRANCH   1  10
HETATM   10  C8  UNL     1       1.195  -0.663  -0.341  1.00  0.00     0.170 C 
HETATM   11  S1  UNL     1       0.860  -2.023  -1.175  1.00  0.00    -0.041 SA
BRANCH  10  12
HETATM   12  N2  UNL     1       2.540  -0.475   0.064  1.00  0.00    -0.355 N 
HETATM   13  C9  UNL     1       3.693  -1.324  -0.148  1.00  0.00     0.128 C 
HETATM   14  C10 UNL     1       4.903  -0.416  -0.181  1.00  0.00     0.058 C 
HETATM   15  C11 UNL     1       4.476   0.798   0.619  1.00  0.00     0.189 C 
HETATM   16  F1  UNL     1       5.083   0.838   1.859  1.00  0.00    -0.248 F 
HETATM   17  C12 UNL     1       2.998   0.683   0.808  1.00  0.00     0.162 C 
ENDBRANCH  10  12
ENDBRANCH   1  10
TORSDOF 3
