REMARK  1 active torsions:
REMARK  status: ('A' for Active; 'I' for Inactive)
REMARK       I    between atoms: C2_5  and  N3_6 
REMARK       I    between atoms: C2_5  and  N4_14 
REMARK    1  A    between atoms: N3_6  and  C3_8 
ROOT
HETATM    1  N1  UNL     1      -0.864  -2.433  -2.808  1.00  0.00    -0.171 NA
HETATM    2  C1  UNL     1      -0.230  -1.584  -2.305  1.00  0.00     0.196 C 
HETATM    3  N2  UNL     1       0.534  -0.563  -1.727  1.00  0.00    -0.126 N 
ATOM      4  H2  UNL     1       1.506  -0.454  -2.017  1.00  0.00     0.197 HD
HETATM    5  C2  UNL     1       0.064   0.232  -0.856  1.00  0.00     0.685 C 
HETATM    6  N3  UNL     1       0.905   1.241  -0.318  1.00  0.00    -0.221 N 
ATOM      7  H3  UNL     1       0.520   2.184  -0.272  1.00  0.00     0.178 HD
HETATM    8  N4  UNL     1      -1.277   0.169  -0.379  1.00  0.00    -0.217 N 
HETATM    9  C8  UNL     1      -2.414   0.419  -1.248  1.00  0.00     0.141 C 
HETATM   10  C9  UNL     1      -3.505  -0.556  -0.825  1.00  0.00     0.020 C 
HETATM   11  C10 UNL     1      -4.022  -0.081   0.521  1.00  0.00     0.003 C 
HETATM   12  C11 UNL     1      -2.928   0.370   1.428  1.00  0.00     0.020 C 
HETATM   13  C12 UNL     1      -1.566  -0.149   1.006  1.00  0.00     0.141 C 
ENDROOT
BRANCH   6  14
HETATM   14  C3  UNL     1       2.233   1.067   0.164  1.00  0.00     0.102 C 
HETATM   15  C4  UNL     1       3.234   0.586  -0.837  1.00  0.00     0.028 C 
HETATM   16  C5  UNL     1       3.787  -0.729  -0.290  1.00  0.00     0.039 C 
HETATM   17  C6  UNL     1       3.719  -0.426   1.206  1.00  0.00     0.172 C 
HETATM   18  F1  UNL     1       3.969  -1.529   1.970  1.00  0.00    -0.249 F 
HETATM   19  C7  UNL     1       2.294   0.072   1.326  1.00  0.00     0.062 C 
ENDBRANCH   6  14
TORSDOF 1
