REMARK  2 active torsions:
REMARK  status: ('A' for Active; 'I' for Inactive)
REMARK    1  A    between atoms: C7_8  and  C8_9 
REMARK       I    between atoms: C8_9  and  N2_11 
REMARK    2  A    between atoms: N2_11  and  C9_13 
ROOT
HETATM    1  C1  UNL     1      -4.319  -0.348   0.904  1.00  0.00     0.310 C 
HETATM    2  N1  UNL     1      -3.104   0.427   1.053  1.00  0.00     0.090 N 
HETATM    3  C2  UNL     1      -2.882   1.253  -0.138  1.00  0.00     0.278 C 
HETATM    4  C3  UNL     1      -1.459   1.003  -0.576  1.00  0.00     0.029 C 
HETATM    5  C4  UNL     1      -1.441  -0.340  -1.271  1.00  0.00     0.009 C 
HETATM    6  C5  UNL     1      -1.915  -1.257  -0.131  1.00  0.00     0.037 C 
HETATM    7  C6  UNL     1      -1.927  -0.424   1.111  1.00  0.00     0.236 C 
HETATM    8  C7  UNL     1      -0.841   0.613   0.775  1.00  0.00     0.117 C 
ENDROOT
BRANCH   8   9
HETATM    9  C8  UNL     1       0.472  -0.022   0.622  1.00  0.00     0.225 C 
HETATM   10  O1  UNL     1       0.631  -1.175   1.051  1.00  0.00    -0.273 OA
HETATM   11  N2  UNL     1       1.554   0.636   0.006  1.00  0.00    -0.353 N 
ATOM     12  H2  UNL     1       1.389   1.583  -0.334  1.00  0.00     0.163 HD
BRANCH  11  13
HETATM   13  C9  UNL     1       2.856   0.097  -0.184  1.00  0.00     0.022 C 
HETATM   14  C10 UNL     1       3.759   1.081  -0.879  1.00  0.00     0.037 C 
HETATM   15  C11 UNL     1       3.465  -0.146   1.200  1.00  0.00     0.037 C 
HETATM   16  C12 UNL     1       2.901  -1.210  -0.913  1.00  0.00     0.037 C 
ENDBRANCH  11  13
ENDBRANCH   8   9
TORSDOF 2
