REMARK  1 active torsions:
REMARK  status: ('A' for Active; 'I' for Inactive)
REMARK    1  A    between atoms: C7_7  and  N1_8 
REMARK       I    between atoms: N1_8  and  C8_10 
REMARK       I    between atoms: C8_10  and  N2_12 
ROOT
HETATM    1  C1  UNL     1      -1.861   0.596  -2.423  1.00  0.00     0.015 C 
HETATM    2  C2  UNL     1      -2.398  -0.012  -1.175  1.00  0.00    -0.042 C 
HETATM    3  C3  UNL     1      -3.523  -0.943  -1.468  1.00  0.00     0.015 C 
HETATM    4  C4  UNL     1      -2.945   1.055  -0.212  1.00  0.00     0.014 C 
HETATM    5  C5  UNL     1      -2.465   0.691   1.149  1.00  0.00    -0.012 C 
HETATM    6  C6  UNL     1      -1.033   1.206   1.280  1.00  0.00     0.030 C 
HETATM    7  C7  UNL     1      -0.393   0.480   0.102  1.00  0.00     0.091 C 
HETATM    8  C12 UNL     1      -1.324  -0.619  -0.301  1.00  0.00     0.017 C 
HETATM    9  C13 UNL     1      -2.135  -0.803   0.994  1.00  0.00     0.012 C 
ENDROOT
BRANCH   7  10
HETATM   10  N1  UNL     1       0.937   0.028   0.414  1.00  0.00    -0.338 N 
HETATM   11  C8  UNL     1       2.107   0.497  -0.212  1.00  0.00     0.320 C 
HETATM   12  O1  UNL     1       2.019   1.362  -1.101  1.00  0.00    -0.247 OA
HETATM   13  N2  UNL     1       3.368  -0.001   0.157  1.00  0.00    -0.303 N 
HETATM   14  C9  UNL     1       4.724   0.283  -0.299  1.00  0.00     0.135 C 
HETATM   15  C11 UNL     1       3.893  -0.978   1.112  1.00  0.00     0.276 C 
HETATM   16  C10 UNL     1       5.168  -1.043   0.276  1.00  0.00     0.079 C 
HETATM   17  F1  UNL     1       3.239  -2.179   1.108  1.00  0.00    -0.227 F 
ATOM     18  H1  UNL     1       1.039  -0.682   1.139  1.00  0.00     0.164 HD
ENDBRANCH   7  10
TORSDOF 1
