REMARK  3 active torsions:
REMARK  status: ('A' for Active; 'I' for Inactive)
REMARK    1  A    between atoms: C1_2  and  N1_3 
REMARK    2  A    between atoms: C1_2  and  N2_11 
REMARK    3  A    between atoms: N1_3  and  C2_5 
ROOT
HETATM    1  N1  UNL     1      -0.477   0.282  -0.146  1.00  0.00    -0.361 N 
ATOM      2  H1  UNL     1      -0.288   0.615  -1.091  1.00  0.00     0.162 HD
ENDROOT
BRANCH   1   3
HETATM    3  C1  UNL     1       0.606  -0.064   0.718  1.00  0.00     0.170 C 
HETATM    4  S1  UNL     1       0.357  -0.581   2.262  1.00  0.00    -0.041 SA
BRANCH   3   5
HETATM    5  N2  UNL     1       1.959   0.035   0.295  1.00  0.00    -0.358 N 
HETATM    6  C7  UNL     1       2.414   0.485  -1.029  1.00  0.00     0.125 C 
HETATM    7  C8  UNL     1       3.860   0.793  -0.850  1.00  0.00     0.021 C 
HETATM    8  C9  UNL     1       4.291  -0.251   0.170  1.00  0.00     0.021 C 
HETATM    9  C10 UNL     1       3.114  -0.291   1.093  1.00  0.00     0.125 C 
ENDBRANCH   3   5
ENDBRANCH   1   3
BRANCH   1  10
HETATM   10  C2  UNL     1      -1.815   0.164   0.308  1.00  0.00     0.102 C 
HETATM   11  C3  UNL     1      -2.322  -1.209   0.580  1.00  0.00     0.027 C 
HETATM   12  C4  UNL     1      -3.826  -0.957   0.770  1.00  0.00     0.004 C 
HETATM   13  C5  UNL     1      -4.131   0.327   0.027  1.00  0.00     0.022 C 
HETATM   14  C6  UNL     1      -2.837   0.708  -0.666  1.00  0.00     0.105 C 
HETATM   15 CL1  UNL     1      -2.684   2.434  -0.940  1.00  0.00    -0.123 Cl
ENDBRANCH   1  10
TORSDOF 3
