REMARK  5 active torsions:
REMARK  status: ('A' for Active; 'I' for Inactive)
REMARK    1  A    between atoms: C3_4  and  C4_5 
REMARK    2  A    between atoms: C4_5  and  N2_7 
REMARK    3  A    between atoms: C4_5  and  C7_17 
REMARK       I    between atoms: N2_7  and  C6_9 
REMARK       I    between atoms: C6_9  and  N3_11 
REMARK    4  A    between atoms: N3_11  and  N4_13 
REMARK    5  A    between atoms: N4_13  and  N5_14 
ROOT
HETATM    1  N2  UNL     1       1.284   0.493   0.428  1.00  0.00    -0.319 N 
ATOM      2  H2  UNL     1       0.930   1.214   1.056  1.00  0.00     0.166 HD
HETATM    3  C6  UNL     1       2.604   0.646  -0.061  1.00  0.00     0.347 C 
HETATM    4  O1  UNL     1       3.114  -0.193  -0.840  1.00  0.00    -0.245 OA
HETATM    5  N3  UNL     1       3.423   1.749   0.299  1.00  0.00    -0.165 N 
ATOM      6  H3  UNL     1       3.983   1.700   1.150  1.00  0.00     0.209 HD
ENDROOT
BRANCH   1   7
HETATM    7  C4  UNL     1       0.407  -0.594   0.110  1.00  0.00     0.141 C 
HETATM    8  C5  UNL     1       0.248  -0.830  -1.373  1.00  0.00     0.055 C 
BRANCH   7   9
HETATM    9  C3  UNL     1      -0.921  -0.367   0.781  1.00  0.00     0.097 C 
HETATM   10  N1  UNL     1      -1.788   0.454   0.413  1.00  0.00    -0.399 N 
HETATM   11  C1  UNL     1      -1.633   1.309  -0.721  1.00  0.00     0.148 C 
HETATM   12  C2  UNL     1      -3.047   0.594   1.136  1.00  0.00     0.148 C 
ENDBRANCH   7   9
BRANCH   7  13
HETATM   13  C7  UNL     1       1.013  -1.846   0.663  1.00  0.00     0.264 C 
HETATM   14  N6  UNL     1       0.373  -3.101   0.470  1.00  0.00    -0.059 NA
HETATM   15  O2  UNL     1       2.086  -1.761   1.293  1.00  0.00    -0.274 OA
ENDBRANCH   7  13
ENDBRANCH   1   7
BRANCH   5  16
HETATM   16  N4  UNL     1       3.470   2.761  -0.396  1.00  0.00    -0.239 NA
BRANCH  16  17
HETATM   17  N5  UNL     1       3.483   3.692  -1.212  1.00  0.00    -0.260 N 
ATOM     18  H52 UNL     1       3.248   2.965  -1.888  1.00  0.00     0.193 HD
ATOM     19  H51 UNL     1       3.522   4.532  -1.789  1.00  0.00     0.193 HD
ENDBRANCH  16  17
ENDBRANCH   5  16
TORSDOF 5
