REMARK  2 active torsions:
REMARK  status: ('A' for Active; 'I' for Inactive)
REMARK    1  A    between atoms: N1_3  and  C5_6 
REMARK    2  A    between atoms: C5_6  and  C6_7 
REMARK       I    between atoms: C6_7  and  N2_9 
REMARK       I    between atoms: C7_11  and  N4_13 
ROOT
HETATM    1  C1  UNL     1      -3.431   2.261  -1.157  1.00  0.00     0.044 C 
HETATM    2  C2  UNL     1      -3.035   1.226  -0.681  1.00  0.00     0.105 C 
HETATM    3  N1  UNL     1      -2.582  -0.000  -0.128  1.00  0.00    -0.003 N 
HETATM    4  C3  UNL     1      -3.249  -1.077  -0.817  1.00  0.00     0.290 C 
HETATM    5  C4  UNL     1      -2.911   0.045   1.278  1.00  0.00     0.290 C 
ENDROOT
BRANCH   3   6
HETATM    6  C5  UNL     1      -1.176  -0.071  -0.370  1.00  0.00     0.355 C 
BRANCH   6   7
HETATM    7  C6  UNL     1      -0.551  -1.338   0.020  1.00  0.00     0.251 C 
HETATM    8  O1  UNL     1      -1.136  -2.327   0.532  1.00  0.00    -0.271 OA
HETATM    9  N2  UNL     1       0.849  -1.484  -0.191  1.00  0.00    -0.300 N 
HETATM   10  C7  UNL     1       1.645  -0.850   0.604  1.00  0.00     0.196 C 
ATOM     11  H2  UNL     1       1.211  -2.069  -0.944  1.00  0.00     0.171 HD
HETATM   12  N3  UNL     1       1.163  -0.031   1.660  1.00  0.00    -0.063 NA
HETATM   13  N4  UNL     1       3.069  -0.934   0.472  1.00  0.00    -0.323 N 
HETATM   14  C8  UNL     1       3.720   0.033  -0.055  1.00  0.00     0.091 C 
ATOM     15  H4  UNL     1       3.564  -1.764   0.798  1.00  0.00     0.169 HD
HETATM   16  C9  UNL     1       5.201  -0.125  -0.160  1.00  0.00     0.085 C 
HETATM   17  N5  UNL     1       3.057   1.190  -0.511  1.00  0.00    -0.088 NA
ENDBRANCH   6   7
ENDBRANCH   3   6
TORSDOF 2
