REMARK  3 active torsions:
REMARK  status: ('A' for Active; 'I' for Inactive)
REMARK    1  A    between atoms: C6_7  and  N2_8 
REMARK    2  A    between atoms: N2_8  and  O1_10 
REMARK    3  A    between atoms: C8_12  and  N3_13 
REMARK       I    between atoms: N3_13  and  C9_15 
ROOT
HETATM    1  C1  UNL     1       1.139  -2.232   0.441  1.00  0.00     0.014 C 
HETATM    2  C2  UNL     1       0.428  -1.151   1.175  1.00  0.00     0.034 C 
HETATM    3  C3  UNL     1      -1.066  -1.364   1.078  1.00  0.00     0.245 C 
HETATM    4  N1  UNL     1      -1.529  -0.390   0.084  1.00  0.00    -0.050 N 
HETATM    5  C4  UNL     1      -2.902  -0.023   0.468  1.00  0.00     0.274 C 
HETATM    6  C5  UNL     1      -1.524  -0.962  -1.182  1.00  0.00     0.274 C 
HETATM    7  C6  UNL     1      -0.688   0.734   0.358  1.00  0.00     0.333 C 
HETATM    8  C8  UNL     1       0.695   0.238   0.678  1.00  0.00     0.143 C 
ENDROOT
BRANCH   8   9
HETATM    9  N3  UNL     1       1.650   0.337  -0.359  1.00  0.00    -0.337 N 
HETATM   10  C9  UNL     1       2.885   1.048  -0.231  1.00  0.00     0.329 C 
HETATM   11  N4  UNL     1       3.843   1.145  -1.275  1.00  0.00    -0.040 NA
HETATM   12  O2  UNL     1       3.191   1.642   0.853  1.00  0.00    -0.251 OA
ATOM     13  H3  UNL     1       1.448  -0.123  -1.247  1.00  0.00     0.164 HD
ENDBRANCH   8   9
BRANCH   7  14
HETATM   14  N2  UNL     1      -0.803   1.820  -0.498  1.00  0.00    -0.268 N 
HETATM   15  C7  UNL     1      -0.358   1.954  -1.845  1.00  0.00     0.181 C 
BRANCH  14  16
HETATM   16  O1  UNL     1      -1.355   2.826  -0.088  1.00  0.00    -0.291 OA
ATOM     17  H1  UNL     1      -1.434   3.570  -0.674  1.00  0.00     0.244 HD
ENDBRANCH  14  16
ENDBRANCH   7  14
TORSDOF 3
