REMARK  3 active torsions:
REMARK  status: ('A' for Active; 'I' for Inactive)
REMARK    1  A    between atoms: C4_4  and  N1_5 
REMARK    2  A    between atoms: N1_5  and  C5_6 
REMARK    3  A    between atoms: N1_5  and  C6_9 
ROOT
HETATM    1  N1  UNL     1      -0.346   0.217  -0.028  1.00  0.00    -0.351 N 
ENDROOT
BRANCH   1   2
HETATM    2  C4  UNL     1       0.968  -0.061  -0.660  1.00  0.00     0.091 A 
HETATM    3  C2  UNL     1       2.123   0.190   0.296  1.00  0.00     0.006 A 
HETATM    4  C1  UNL     1       3.401   0.759  -0.282  1.00  0.00     0.012 C 
HETATM    5  C3  UNL     1       1.782  -1.192  -0.164  1.00  0.00     0.032 A 
ENDBRANCH   1   2
BRANCH   1   6
HETATM    6  C5  UNL     1      -0.509   1.535   0.419  1.00  0.00     0.183 C 
HETATM    7  N2  UNL     1      -1.684   1.989   1.038  1.00  0.00    -0.070 NA
HETATM    8  S1  UNL     1       0.684   2.675   0.250  1.00  0.00    -0.044 SA
ENDBRANCH   1   6
BRANCH   1   9
HETATM    9  C6  UNL     1      -1.289  -0.849   0.052  1.00  0.00     0.078 C 
HETATM   10  C7  UNL     1      -1.701  -1.272  -1.357  1.00  0.00     0.032 C 
HETATM   11  C8  UNL     1      -2.468  -0.598   0.934  1.00  0.00     0.032 C 
ENDBRANCH   1   9
TORSDOF 3
