REMARK  4 active torsions:
REMARK  status: ('A' for Active; 'I' for Inactive)
REMARK    1  A    between atoms: C2_2  and  C3_3 
REMARK    2  A    between atoms: C3_3  and  C4_4 
REMARK    3  A    between atoms: C6_6  and  N1_7 
REMARK    4  A    between atoms: C10_11  and  N2_12 
ROOT
HETATM    1  C4  UNL     1       1.121  -0.788   0.232  1.00  0.00     0.086 C 
HETATM    2  C5  UNL     1      -0.154  -1.031  -0.538  1.00  0.00     0.054 C 
HETATM    3  C6  UNL     1      -0.807  -0.262   0.593  1.00  0.00     0.222 C 
HETATM    4  C10 UNL     1       0.449   0.437   0.782  1.00  0.00     0.229 C 
ENDROOT
BRANCH   3   5
HETATM    5  N1  UNL     1      -2.037   0.261   0.181  1.00  0.00    -0.072 N 
HETATM    6  C7  UNL     1      -2.816  -0.929  -0.251  1.00  0.00     0.272 C 
HETATM    7  C8  UNL     1      -2.114   1.179  -0.885  1.00  0.00     0.272 C 
HETATM    8  C9  UNL     1      -2.816   0.766   1.321  1.00  0.00     0.272 C 
ENDBRANCH   3   5
BRANCH   4   9
HETATM    9  N2  UNL     1       0.673   1.686   0.122  1.00  0.00    -0.072 N 
ATOM     10  H23 UNL     1       1.677   1.856   0.062  1.00  0.00     0.274 HD
ATOM     11  H22 UNL     1       0.433   1.589  -0.864  1.00  0.00     0.274 HD
ATOM     12  H21 UNL     1       0.217   2.518   0.496  1.00  0.00     0.274 HD
ENDBRANCH   4   9
BRANCH   1  13
HETATM   13  C3  UNL     1       2.392  -0.751  -0.361  1.00  0.00    -0.176 C 
BRANCH  13  14
HETATM   14  C2  UNL     1       3.533  -0.717  -0.893  1.00  0.00     0.076 C 
HETATM   15  C1  UNL     1       4.697  -0.217  -0.029  1.00  0.00     0.017 C 
ENDBRANCH  13  14
ENDBRANCH   1  13
TORSDOF 4
