REMARK  10 active torsions:
REMARK  status: ('A' for Active; 'I' for Inactive)
REMARK    1  A    between atoms: S1_2  and  C1_4 
REMARK    2  A    between atoms: S1_2  and  N2_21 
REMARK    3  A    between atoms: C1_4  and  C2_5 
REMARK    4  A    between atoms: C2_5  and  C3_6 
REMARK    5  A    between atoms: C10_17  and  C11_18 
REMARK    6  A    between atoms: C11_18  and  O4_19 
REMARK    7  A    between atoms: N2_21  and  C12_23 
REMARK    8  A    between atoms: C12_23  and  C13_24 
REMARK    9  A    between atoms: C13_24  and  O5_25 
REMARK   10  A    between atoms: C13_24  and  C14_27 
ROOT
HETATM    1  O1  UNL     1       0.215  -0.814  -2.005  1.00  0.00    -0.206 OA
HETATM    2  S1  UNL     1       0.070  -0.044  -0.738  1.00  0.00     0.230 S 
HETATM    3  O2  UNL     1      -0.113   1.464  -1.310  1.00  0.00    -0.206 OA
ENDROOT
BRANCH   2   4
HETATM    4  C1  UNL     1       1.491   0.034   0.189  1.00  0.00     0.164 C 
BRANCH   4   5
HETATM    5  C2  UNL     1       2.639   0.138  -0.830  1.00  0.00     0.027 C 
BRANCH   5   6
HETATM    6  C3  UNL     1       3.989  -0.312  -0.282  1.00  0.00    -0.028 C 
HETATM    7  C4  UNL     1       3.883  -1.675   0.317  1.00  0.00     0.036 C 
HETATM    8  C5  UNL     1       5.177  -2.405   0.174  1.00  0.00     0.169 C 
HETATM    9  O3  UNL     1       6.167  -1.684   0.782  1.00  0.00    -0.382 OA
HETATM   10  C6  UNL     1       6.718  -0.665   0.100  1.00  0.00     0.183 C 
HETATM   11  C7  UNL     1       6.285  -0.408  -1.289  1.00  0.00     0.218 C 
HETATM   12  C9  UNL     1       6.165   0.701   0.364  1.00  0.00     0.224 C 
HETATM   13  C8  UNL     1       4.824  -0.509  -1.562  1.00  0.00     0.046 C 
HETATM   14  N1  UNL     1       6.532   1.013  -1.020  1.00  0.00    -0.061 N 
ATOM     15  H12 UNL     1       7.418   1.460  -1.255  1.00  0.00     0.278 HD
ATOM     16  H11 UNL     1       6.066   1.751  -1.548  1.00  0.00     0.278 HD
HETATM   17  C10 UNL     1       4.617   0.743   0.513  1.00  0.00     0.051 C 
BRANCH  17  18
HETATM   18  C11 UNL     1       4.306   0.756   1.978  1.00  0.00     0.171 C 
BRANCH  18  19
HETATM   19  O4  UNL     1       5.189   0.088   2.797  1.00  0.00    -0.400 OA
ATOM     20  H4  UNL     1       4.992   0.096   3.726  1.00  0.00     0.209 HD
ENDBRANCH  18  19
ENDBRANCH  17  18
ENDBRANCH   5   6
ENDBRANCH   4   5
ENDBRANCH   2   4
BRANCH   2  21
HETATM   21  N2  UNL     1      -1.489  -0.368  -0.089  1.00  0.00    -0.293 N 
ATOM     22  H2  UNL     1      -2.058  -1.187  -0.303  1.00  0.00     0.177 HD
BRANCH  21  23
HETATM   23  C12 UNL     1      -1.848   0.643   0.759  1.00  0.00     0.132 C 
BRANCH  23  24
HETATM   24  C13 UNL     1      -3.092   1.323   0.229  1.00  0.00     0.064 C 
BRANCH  24  25
HETATM   25  O5  UNL     1      -3.292   2.499   0.879  1.00  0.00    -0.363 OA
ATOM     26  H5  UNL     1      -4.073   2.926   0.546  1.00  0.00     0.217 HD
ENDBRANCH  24  25
BRANCH  24  27
HETATM   27  C14 UNL     1      -4.226   0.644  -0.292  1.00  0.00     0.050 C 
HETATM   28  C15 UNL     1      -5.393   1.684  -0.197  1.00  0.00     0.014 C 
HETATM   29  C16 UNL     1      -6.638   1.167  -0.822  1.00  0.00     0.033 C 
HETATM   30  C17 UNL     1      -7.130  -0.013  -0.017  1.00  0.00     0.121 C 
HETATM   31  C18 UNL     1      -6.730  -1.309  -0.654  1.00  0.00     0.032 C 
HETATM   32  O6  UNL     1      -6.777   0.109   1.304  1.00  0.00    -0.385 OA
HETATM   33  C19 UNL     1      -5.256  -1.536  -0.511  1.00  0.00     0.010 C 
HETATM   34  C20 UNL     1      -4.616  -0.562   0.456  1.00  0.00     0.020 C 
HETATM   35  C21 UNL     1      -5.507  -0.293   1.622  1.00  0.00     0.173 C 
ENDBRANCH  24  27
ENDBRANCH  23  24
ENDBRANCH  21  23
ENDBRANCH   2  21
TORSDOF 10
