REMARK  11 active torsions:
REMARK  status: ('A' for Active; 'I' for Inactive)
REMARK    1  A    between atoms: O1_2  and  C2_3 
REMARK       I    between atoms: C2_3  and  N1_5 
REMARK    2  A    between atoms: C5_8  and  C6_9 
REMARK    3  A    between atoms: C6_9  and  C7_10 
REMARK    4  A    between atoms: C7_10  and  N2_11 
REMARK    5  A    between atoms: C7_10  and  C15_24 
REMARK    6  A    between atoms: N2_11  and  C8_13 
REMARK    7  A    between atoms: C8_13  and  O3_14 
REMARK    8  A    between atoms: C8_13  and  C9_16 
REMARK    9  A    between atoms: C9_16  and  C10_18 
REMARK   10  A    between atoms: C10_18  and  N3_19 
REMARK       I    between atoms: C15_24  and  N4_26 
REMARK   11  A    between atoms: N4_26  and  C16_28 
ROOT
HETATM    1  C7  UNL     1      -0.125  -1.061  -0.785  1.00  0.00     0.172 C 
ENDROOT
BRANCH   1   2
HETATM    2  C6  UNL     1      -1.594  -0.789  -0.658  1.00  0.00     0.039 C 
BRANCH   2   3
HETATM    3  C5  UNL     1      -2.106   0.576  -0.596  1.00  0.00    -0.009 C 
HETATM    4  C4  UNL     1      -1.830   1.390  -1.827  1.00  0.00     0.024 C 
HETATM    5  C3  UNL     1      -3.102   2.146  -2.254  1.00  0.00     0.128 C 
HETATM    6  N1  UNL     1      -3.733   2.719  -1.084  1.00  0.00    -0.328 N 
HETATM    7  C2  UNL     1      -3.881   4.109  -0.886  1.00  0.00     0.362 C 
HETATM    8  C21 UNL     1      -4.225   1.805  -0.085  1.00  0.00     0.128 C 
HETATM    9  O2  UNL     1      -3.466   4.937  -1.731  1.00  0.00    -0.238 OA
HETATM   10  C20 UNL     1      -3.636   0.452  -0.394  1.00  0.00     0.024 C 
BRANCH   7  11
HETATM   11  O1  UNL     1      -4.492   4.582   0.254  1.00  0.00    -0.309 OA
HETATM   12  C1  UNL     1      -4.644   5.957   0.460  1.00  0.00     0.215 C 
ENDBRANCH   7  11
ENDBRANCH   2   3
ENDBRANCH   1   2
BRANCH   1  13
HETATM   13  N2  UNL     1       0.490  -0.535  -1.931  1.00  0.00    -0.378 N 
ATOM     14  H2  UNL     1       0.002   0.088  -2.574  1.00  0.00     0.157 HD
BRANCH  13  15
HETATM   15  C8  UNL     1       1.865  -0.937  -2.139  1.00  0.00     0.287 C 
BRANCH  15  16
HETATM   16  O3  UNL     1       2.274  -0.169  -3.292  1.00  0.00    -0.370 OA
ATOM     17  H3  UNL     1       3.176  -0.433  -3.429  1.00  0.00     0.212 HD
ENDBRANCH  15  16
BRANCH  15  18
HETATM   18  C9  UNL     1       2.789  -0.530  -1.063  1.00  0.00     0.202 C 
HETATM   19  O4  UNL     1       2.738  -1.054   0.028  1.00  0.00    -0.291 OA
BRANCH  18  20
HETATM   20  C10 UNL     1       3.794   0.522  -1.289  1.00  0.00     0.355 C 
BRANCH  20  21
HETATM   21  N3  UNL     1       4.598   0.773  -0.107  1.00  0.00     0.095 N 
HETATM   22  C11 UNL     1       3.885   1.373   0.968  1.00  0.00     0.273 C 
HETATM   23  C12 UNL     1       4.841   2.261   1.711  1.00  0.00     0.032 C 
HETATM   24  C13 UNL     1       6.174   2.028   1.032  1.00  0.00     0.032 C 
HETATM   25  C14 UNL     1       5.700   1.660  -0.368  1.00  0.00     0.273 C 
ENDBRANCH  20  21
ENDBRANCH  18  20
ENDBRANCH  15  18
ENDBRANCH  13  15
ENDBRANCH   1  13
BRANCH   1  26
HETATM   26  C15 UNL     1      -0.012  -2.555  -0.616  1.00  0.00     0.240 C 
HETATM   27  O5  UNL     1       0.454  -3.273  -1.494  1.00  0.00    -0.271 OA
HETATM   28  N4  UNL     1      -0.445  -3.186   0.583  1.00  0.00    -0.353 N 
ATOM     29  H4  UNL     1      -0.831  -2.604   1.326  1.00  0.00     0.163 HD
BRANCH  28  30
HETATM   30  C16 UNL     1      -0.365  -4.607   0.798  1.00  0.00     0.111 C 
HETATM   31  C17 UNL     1      -1.684  -5.205   1.267  1.00  0.00     0.054 C 
HETATM   32  C18 UNL     1      -1.786  -4.582   2.633  1.00  0.00     0.234 C 
HETATM   33  N5  UNL     1      -0.448  -4.369   3.094  1.00  0.00    -0.073 N 
HETATM   34  C19 UNL     1       0.458  -4.846   2.070  1.00  0.00     0.257 C 
ATOM     35  H52 UNL     1      -0.271  -3.400   3.358  1.00  0.00     0.277 HD
ATOM     36  H51 UNL     1      -0.272  -4.792   4.005  1.00  0.00     0.277 HD
ENDBRANCH  28  30
ENDBRANCH   1  26
TORSDOF 11
