REMARK  11 active torsions:
REMARK  status: ('A' for Active; 'I' for Inactive)
REMARK    1  A    between atoms: N1_2  and  C2_4 
REMARK    2  A    between atoms: C3_5  and  C4_6 
REMARK    3  A    between atoms: C4_6  and  O1_7 
REMARK    4  A    between atoms: C4_6  and  N2_9 
REMARK    5  A    between atoms: C5_11  and  C7_14 
REMARK       I    between atoms: N4_18  and  C10_19 
REMARK    6  A    between atoms: C10_19  and  C11_21 
REMARK    7  A    between atoms: C11_21  and  N5_22 
REMARK    8  A    between atoms: C11_21  and  C16_31 
REMARK       I    between atoms: N5_22  and  C12_24 
REMARK       I    between atoms: C12_24  and  N6_26 
REMARK    9  A    between atoms: N6_26  and  C13_28 
REMARK   10  A    between atoms: C20_35  and  C21_36 
REMARK   11  A    between atoms: C21_36  and  O5_37 
ROOT
HETATM    1  N2  UNL     1       3.851   0.839   1.303  1.00  0.00    -0.329 N 
ATOM      2  H2  UNL     1       3.857   0.188   2.088  1.00  0.00     0.168 HD
HETATM    3  C5  UNL     1       4.850   1.577   1.317  1.00  0.00     0.161 C 
HETATM    4  C6  UNL     1       5.794   1.368   2.415  1.00  0.00     0.121 C 
HETATM    5  N3  UNL     1       6.556   1.243   3.273  1.00  0.00    -0.190 NA
ENDROOT
BRANCH   3   6
HETATM    6  C7  UNL     1       5.182   2.620   0.381  1.00  0.00     0.182 C 
HETATM    7  C8  UNL     1       6.357   3.504   0.414  1.00  0.00     0.099 C 
HETATM    8  O2  UNL     1       4.349   2.783  -0.581  1.00  0.00    -0.290 OA
ENDBRANCH   3   6
BRANCH   1   9
HETATM    9  C4  UNL     1       2.738   0.664   0.512  1.00  0.00     0.124 C 
BRANCH   9  10
HETATM   10  C3  UNL     1       2.497  -0.165  -0.658  1.00  0.00     0.103 C 
HETATM   11  C2  UNL     1       2.784  -1.622  -0.437  1.00  0.00     0.114 C 
HETATM   12  C20 UNL     1       1.668  -1.954   0.566  1.00  0.00     0.134 C 
HETATM   13  N4  UNL     1       0.533  -1.150   0.183  1.00  0.00    -0.337 N 
HETATM   14  C9  UNL     1       0.956  -0.314  -0.941  1.00  0.00     0.141 C 
HETATM   15  C10 UNL     1      -0.774  -1.215   0.708  1.00  0.00     0.267 C 
HETATM   16  O3  UNL     1      -0.783  -1.593   1.943  1.00  0.00    -0.266 OA
BRANCH  11  17
HETATM   17  N1  UNL     1       4.047  -2.001  -0.050  1.00  0.00    -0.418 N 
HETATM   18  C1  UNL     1       5.159  -1.788  -0.883  1.00  0.00     0.140 C 
ATOM     19  H1  UNL     1       4.180  -2.445   0.859  1.00  0.00     0.153 HD
ENDBRANCH  11  17
BRANCH  12  20
HETATM   20  C21 UNL     1       1.465  -3.440   0.384  1.00  0.00     0.191 C 
BRANCH  20  21
HETATM   21  O5  UNL     1       0.483  -3.919   1.189  1.00  0.00    -0.399 OA
ATOM     22  H5  UNL     1       0.355  -4.853   1.075  1.00  0.00     0.209 HD
ENDBRANCH  20  21
ENDBRANCH  12  20
BRANCH  15  23
HETATM   23  C11 UNL     1      -2.046  -0.908   0.038  1.00  0.00     0.089 C 
BRANCH  23  24
HETATM   24  N5  UNL     1      -2.390   0.464  -0.141  1.00  0.00    -0.307 N 
HETATM   25  C12 UNL     1      -3.526   1.185   0.260  1.00  0.00     0.320 C 
HETATM   26  O4  UNL     1      -4.442   0.600   0.921  1.00  0.00    -0.247 OA
HETATM   27  N6  UNL     1      -3.720   2.556  -0.053  1.00  0.00    -0.339 N 
ATOM     28  H6  UNL     1      -2.942   3.045  -0.496  1.00  0.00     0.164 HD
ATOM     29  H5  UNL     1      -1.694   1.014  -0.645  1.00  0.00     0.170 HD
BRANCH  27  30
HETATM   30  C13 UNL     1      -4.902   3.311   0.196  1.00  0.00     0.078 C 
HETATM   31  C14 UNL     1      -5.392   3.164   1.651  1.00  0.00     0.032 C 
HETATM   32  C15 UNL     1      -4.783   4.762  -0.099  1.00  0.00     0.032 C 
ENDBRANCH  27  30
ENDBRANCH  23  24
BRANCH  23  33
HETATM   33  C16 UNL     1      -2.569  -1.928  -0.899  1.00  0.00    -0.003 C 
HETATM   34  C17 UNL     1      -2.739  -3.229  -0.103  1.00  0.00     0.021 C 
HETATM   35  C18 UNL     1      -4.030  -1.562  -1.257  1.00  0.00     0.021 C 
HETATM   36  C19 UNL     1      -1.898  -2.139  -2.206  1.00  0.00     0.021 C 
ENDBRANCH  23  33
ENDBRANCH  15  23
ENDBRANCH   9  10
BRANCH   9  37
HETATM   37  O1  UNL     1       1.704   1.365   0.886  1.00  0.00    -0.349 OA
ATOM     38  H1  UNL     1       1.861   1.907   1.650  1.00  0.00     0.219 HD
ENDBRANCH   9  37
ENDBRANCH   1   9
TORSDOF 11
