REMARK  9 active torsions:
REMARK  status: ('A' for Active; 'I' for Inactive)
REMARK    1  A    between atoms: C5_9  and  C6_10 
REMARK       I    between atoms: C6_10  and  N3_12 
REMARK    2  A    between atoms: N3_12  and  C7_14 
REMARK    3  A    between atoms: C7_14  and  C8_15 
REMARK    4  A    between atoms: C7_14  and  C15_22 
REMARK    5  A    between atoms: C8_15  and  C9_16 
REMARK    6  A    between atoms: C15_22  and  O2_23 
REMARK    7  A    between atoms: C15_22  and  C16_25 
REMARK    8  A    between atoms: C16_25  and  C17_26 
REMARK       I    between atoms: C17_26  and  N4_28 
REMARK    9  A    between atoms: C21_32  and  C22_33 
ROOT
HETATM    1  C7  UNL     1       0.069   1.131   0.269  1.00  0.00     0.019 C 
ENDROOT
BRANCH   1   2
HETATM    2  N3  UNL     1      -0.822   0.047   0.416  1.00  0.00    -0.330 N 
HETATM    3  C6  UNL     1      -1.872  -0.380  -0.424  1.00  0.00     0.257 C 
HETATM    4  O1  UNL     1      -2.157   0.183  -1.498  1.00  0.00    -0.271 OA
ATOM      5  H3  UNL     1      -0.686  -0.513   1.258  1.00  0.00     0.168 HD
BRANCH   3   6
HETATM    6  C5  UNL     1      -2.709  -1.553  -0.056  1.00  0.00     0.339 C 
HETATM    7  N1  UNL     1      -3.732  -1.838  -1.003  1.00  0.00     0.101 N 
HETATM    8  C1  UNL     1      -5.003  -1.385  -0.414  1.00  0.00     0.311 C 
HETATM    9  C2  UNL     1      -3.893  -3.266  -1.230  1.00  0.00     0.300 C 
HETATM   10  C3  UNL     1      -3.689  -4.064   0.037  1.00  0.00     0.262 C 
HETATM   11  N2  UNL     1      -2.420  -3.807   0.668  1.00  0.00    -0.071 N 
HETATM   12  C4  UNL     1      -1.754  -2.752  -0.030  1.00  0.00     0.277 C 
ATOM     13  H22 UNL     1      -2.515  -3.612   1.665  1.00  0.00     0.277 HD
ATOM     14  H21 UNL     1      -1.846  -4.647   0.740  1.00  0.00     0.277 HD
ENDBRANCH   3   6
ENDBRANCH   1   2
BRANCH   1  15
HETATM   15  C8  UNL     1      -0.389   2.285  -0.598  1.00  0.00     0.060 C 
BRANCH  15  16
HETATM   16  C9  UNL     1      -1.601   2.976  -0.024  1.00  0.00    -0.009 C 
HETATM   17  C10 UNL     1      -1.951   4.088  -1.010  1.00  0.00     0.005 C 
HETATM   18  C11 UNL     1      -1.122   5.325  -0.787  1.00  0.00     0.000 C 
HETATM   19  C12 UNL     1      -1.636   6.026   0.462  1.00  0.00     0.000 C 
HETATM   20  C13 UNL     1      -2.112   4.923   1.383  1.00  0.00     0.000 C 
HETATM   21  C14 UNL     1      -1.227   3.703   1.275  1.00  0.00     0.005 C 
ENDBRANCH  15  16
ENDBRANCH   1  15
BRANCH   1  22
HETATM   22  C15 UNL     1       1.495   0.832   0.003  1.00  0.00     0.172 C 
BRANCH  22  23
HETATM   23  O2  UNL     1       2.280   1.980  -0.124  1.00  0.00    -0.389 OA
ATOM     24  H2  UNL     1       3.195   1.788  -0.295  1.00  0.00     0.210 HD
ENDBRANCH  22  23
BRANCH  22  25
HETATM   25  C16 UNL     1       2.134  -0.038   1.066  1.00  0.00     0.140 C 
BRANCH  25  26
HETATM   26  C17 UNL     1       3.569  -0.266   0.682  1.00  0.00     0.223 C 
HETATM   27  O3  UNL     1       4.369   0.683   0.860  1.00  0.00    -0.273 OA
HETATM   28  N4  UNL     1       4.005  -1.492   0.144  1.00  0.00    -0.337 N 
HETATM   29  C18 UNL     1       3.138  -2.633  -0.090  1.00  0.00     0.127 C 
HETATM   30  C21 UNL     1       5.352  -1.805  -0.253  1.00  0.00     0.188 C 
HETATM   31  C19 UNL     1       3.841  -3.497  -1.101  1.00  0.00     0.022 C 
HETATM   32  C20 UNL     1       5.239  -2.913  -1.283  1.00  0.00     0.038 C 
BRANCH  30  33
HETATM   33  C22 UNL     1       6.185  -2.265   0.889  1.00  0.00     0.196 C 
HETATM   34  O4  UNL     1       7.376  -2.563   0.652  1.00  0.00    -0.646 OA
HETATM   35  O5  UNL     1       5.708  -2.378   2.187  1.00  0.00    -0.646 OA
ENDBRANCH  30  33
ENDBRANCH  25  26
ENDBRANCH  22  25
ENDBRANCH   1  22
TORSDOF 9
