REMARK  7 active torsions:
REMARK  status: ('A' for Active; 'I' for Inactive)
REMARK    1  A    between atoms: N1_2  and  C2_4 
REMARK    2  A    between atoms: C2_4  and  C3_5 
REMARK    3  A    between atoms: C3_5  and  C4_6 
REMARK    4  A    between atoms: C4_6  and  O1_7 
REMARK    5  A    between atoms: O1_7  and  C5_8 
REMARK    6  A    between atoms: C7_10  and  N2_11 
REMARK    7  A    between atoms: C9_16  and  N3_17 
ROOT
HETATM    1  C5  UNL     1      -0.937  -0.063  -0.269  1.00  0.00     0.153 C 
HETATM    2  C6  UNL     1      -1.874   0.238  -1.417  1.00  0.00     0.067 C 
HETATM    3  C7  UNL     1      -3.261   0.313  -0.826  1.00  0.00     0.188 C 
HETATM    4  C8  UNL     1      -2.942   0.846   0.573  1.00  0.00     0.068 C 
HETATM    5  C9  UNL     1      -1.823  -0.075   0.946  1.00  0.00     0.214 C 
ENDROOT
BRANCH   1   6
HETATM    6  O1  UNL     1      -0.295  -1.272  -0.428  1.00  0.00    -0.384 OA
BRANCH   6   7
HETATM    7  C4  UNL     1       1.064  -1.236  -0.547  1.00  0.00     0.169 C 
BRANCH   7   8
HETATM    8  C3  UNL     1       1.808  -0.620   0.585  1.00  0.00     0.045 C 
BRANCH   8   9
HETATM    9  C2  UNL     1       3.308  -0.656   0.374  1.00  0.00     0.115 C 
BRANCH   9  10
HETATM   10  N1  UNL     1       3.764   0.026  -0.788  1.00  0.00    -0.425 N 
HETATM   11  C1  UNL     1       3.640   1.461  -0.746  1.00  0.00     0.139 C 
ATOM     12  H1  UNL     1       4.151  -0.466  -1.593  1.00  0.00     0.152 HD
ENDBRANCH   9  10
ENDBRANCH   8   9
ENDBRANCH   7   8
ENDBRANCH   6   7
ENDBRANCH   1   6
BRANCH   5  13
HETATM   13  N3  UNL     1      -1.130   0.324   2.137  1.00  0.00    -0.072 N 
ATOM     14  H33 UNL     1      -0.297  -0.246   2.285  1.00  0.00     0.274 HD
ATOM     15  H32 UNL     1      -0.687   1.235   2.016  1.00  0.00     0.274 HD
ATOM     16  H31 UNL     1      -1.731   0.316   2.961  1.00  0.00     0.274 HD
ENDBRANCH   5  13
BRANCH   3  17
HETATM   17  N2  UNL     1      -3.898  -0.969  -0.793  1.00  0.00    -0.075 N 
ATOM     18  H23 UNL     1      -3.912  -1.400  -1.717  1.00  0.00     0.274 HD
ATOM     19  H22 UNL     1      -3.324  -1.656  -0.304  1.00  0.00     0.274 HD
ATOM     20  H21 UNL     1      -4.835  -0.918  -0.394  1.00  0.00     0.274 HD
ENDBRANCH   3  17
TORSDOF 7
