REMARK  7 active torsions:
REMARK  status: ('A' for Active; 'I' for Inactive)
REMARK    1  A    between atoms: C2_2  and  C4_4 
REMARK    2  A    between atoms: C4_4  and  N1_5 
REMARK    3  A    between atoms: C4_4  and  C5_9 
REMARK    4  A    between atoms: C5_9  and  O1_10 
REMARK    5  A    between atoms: C5_9  and  C6_12 
REMARK    6  A    between atoms: C6_12  and  N2_13 
REMARK    7  A    between atoms: N2_13  and  C7_14 
ROOT
HETATM    1  C5  UNL     1      -0.660  -0.734  -0.095  1.00  0.00     0.201 C 
ENDROOT
BRANCH   1   2
HETATM    2  C4  UNL     1      -2.020  -0.458  -0.658  1.00  0.00     0.221 C 
BRANCH   2   3
HETATM    3  C2  UNL     1      -2.687   0.774  -0.133  1.00  0.00     0.011 C 
HETATM    4  C1  UNL     1      -3.056   0.677   1.324  1.00  0.00     0.011 C 
HETATM    5  C3  UNL     1      -4.013   0.884  -0.900  1.00  0.00     0.011 C 
ENDBRANCH   2   3
BRANCH   2   6
HETATM    6  N1  UNL     1      -2.900  -1.616  -0.524  1.00  0.00    -0.072 N 
ATOM      7  H13 UNL     1      -3.220  -1.739   0.437  1.00  0.00     0.274 HD
ATOM      8  H12 UNL     1      -3.805  -1.457  -0.967  1.00  0.00     0.274 HD
ATOM      9  H11 UNL     1      -2.445  -2.456  -0.882  1.00  0.00     0.274 HD
ENDBRANCH   2   6
ENDBRANCH   1   2
BRANCH   1  10
HETATM   10  O1  UNL     1      -0.615  -1.054   1.233  1.00  0.00    -0.387 OA
ATOM     11  H1  UNL     1       0.248  -1.229   1.590  1.00  0.00     0.210 HD
ENDBRANCH   1  10
BRANCH   1  12
HETATM   12  C6  UNL     1       0.258   0.435  -0.466  1.00  0.00     0.193 C 
BRANCH  12  13
HETATM   13  N2  UNL     1       1.546   0.284  -0.246  1.00  0.00    -0.386 NA
BRANCH  13  14
HETATM   14  C7  UNL     1       2.704   0.139  -0.027  1.00  0.00     0.250 C 
HETATM   15  N3  UNL     1       3.838   0.465  -0.907  1.00  0.00    -0.349 N 
HETATM   16  C8  UNL     1       4.938  -0.283  -0.369  1.00  0.00     0.143 C 
ATOM     17  H3  UNL     1       3.841   1.084  -1.718  1.00  0.00     0.163 HD
HETATM   18  C9  UNL     1       4.698  -0.053   1.131  1.00  0.00     0.143 C 
HETATM   19  N4  UNL     1       3.304  -0.412   1.200  1.00  0.00    -0.349 N 
ATOM     20  H4  UNL     1       2.834  -0.935   1.939  1.00  0.00     0.163 HD
ENDBRANCH  13  14
ENDBRANCH  12  13
ENDBRANCH   1  12
TORSDOF 7
