REMARK  7 active torsions:
REMARK  status: ('A' for Active; 'I' for Inactive)
REMARK    1  A    between atoms: N1_1  and  C1_5 
REMARK    2  A    between atoms: C1_5  and  C2_6 
REMARK    3  A    between atoms: C2_6  and  C3_7 
REMARK    4  A    between atoms: C3_7  and  N2_8 
REMARK    5  A    between atoms: N2_8  and  C4_10 
REMARK    6  A    between atoms: C4_10  and  C5_11 
REMARK    7  A    between atoms: C8_15  and  N3_16 
ROOT
HETATM    1  C5  UNL     1      -0.933  -0.109   0.316  1.00  0.00     0.029 C 
HETATM    2  C6  UNL     1      -1.637  -1.221   1.064  1.00  0.00     0.174 C 
HETATM    3  O1  UNL     1      -2.827  -0.831   1.642  1.00  0.00    -0.389 OA
HETATM    4  C7  UNL     1      -3.719  -0.580   0.575  1.00  0.00     0.200 C 
HETATM    5  C8  UNL     1      -3.205   0.717  -0.047  1.00  0.00     0.207 C 
HETATM    6  C9  UNL     1      -1.871   0.445  -0.703  1.00  0.00     0.043 C 
ENDROOT
BRANCH   1   7
HETATM    7  C4  UNL     1       0.292  -0.759  -0.322  1.00  0.00     0.120 C 
BRANCH   7   8
HETATM    8  N2  UNL     1       1.069   0.161  -1.069  1.00  0.00    -0.421 N 
ATOM      9  H2  UNL     1       0.797   1.140  -1.152  1.00  0.00     0.153 HD
BRANCH   8  10
HETATM   10  C3  UNL     1       2.235  -0.333  -1.693  1.00  0.00     0.115 C 
BRANCH  10  11
HETATM   11  C2  UNL     1       3.357  -0.747  -0.776  1.00  0.00     0.046 C 
BRANCH  11  12
HETATM   12  C1  UNL     1       3.852   0.402   0.071  1.00  0.00     0.231 C 
BRANCH  12  13
HETATM   13  N1  UNL     1       2.852   0.971   0.921  1.00  0.00    -0.079 N 
ATOM     14  H13 UNL     1       2.037   1.253   0.376  1.00  0.00     0.274 HD
ATOM     15  H12 UNL     1       2.428   0.251   1.506  1.00  0.00     0.274 HD
ATOM     16  H11 UNL     1       3.186   1.747   1.493  1.00  0.00     0.274 HD
ENDBRANCH  12  13
ENDBRANCH  11  12
ENDBRANCH  10  11
ENDBRANCH   8  10
ENDBRANCH   7   8
ENDBRANCH   1   7
BRANCH   5  17
HETATM   17  N3  UNL     1      -3.135   1.681   1.015  1.00  0.00    -0.073 N 
ATOM     18  H33 UNL     1      -4.017   1.795   1.515  1.00  0.00     0.274 HD
ATOM     19  H32 UNL     1      -2.578   1.366   1.809  1.00  0.00     0.274 HD
ATOM     20  H31 UNL     1      -2.792   2.547   0.600  1.00  0.00     0.274 HD
ENDBRANCH   5  17
TORSDOF 7
