REMARK  7 active torsions:
REMARK  status: ('A' for Active; 'I' for Inactive)
REMARK    1  A    between atoms: O1_2  and  C2_3 
REMARK    2  A    between atoms: C2_3  and  C3_4 
REMARK    3  A    between atoms: C3_4  and  O2_5 
REMARK    4  A    between atoms: O2_5  and  N1_6 
REMARK    5  A    between atoms: N1_6  and  N2_8 
REMARK    6  A    between atoms: N2_8  and  C4_10 
REMARK    7  A    between atoms: C7_15  and  N4_16 
ROOT
HETATM    1  C4  UNL     1      -1.953   0.122   0.611  1.00  0.00     0.138 A 
HETATM    2  C5  UNL     1      -2.356  -0.530  -0.562  1.00  0.00     0.068 A 
HETATM    3  C6  UNL     1      -3.614  -0.361  -1.082  1.00  0.00     0.110 A 
HETATM    4  N3  UNL     1      -4.473   0.450  -0.446  1.00  0.00    -0.202 N 
ATOM      5  H3  UNL     1      -5.411   0.581  -0.826  1.00  0.00     0.183 HD
HETATM    6  C7  UNL     1      -4.120   1.100   0.693  1.00  0.00     0.677 A 
HETATM    7  N5  UNL     1      -2.874   0.912   1.179  1.00  0.00    -0.176 N 
ATOM      8  H5  UNL     1      -2.617   1.404   2.035  1.00  0.00     0.186 HD
ENDROOT
BRANCH   1   9
HETATM    9  N2  UNL     1      -0.763  -0.060   1.070  1.00  0.00    -0.265 N 
ATOM     10  H2  UNL     1      -0.464   0.413   1.923  1.00  0.00     0.190 HD
BRANCH   9  11
HETATM   11  N1  UNL     1       0.112  -0.906   0.395  1.00  0.00    -0.206 N 
ATOM     12  H1  UNL     1      -0.200  -1.858   0.204  1.00  0.00     0.216 HD
BRANCH  11  13
HETATM   13  O2  UNL     1       1.340  -0.554  -0.023  1.00  0.00    -0.263 OA
BRANCH  13  14
HETATM   14  C3  UNL     1       2.359  -1.210   0.646  1.00  0.00     0.229 C 
BRANCH  14  15
HETATM   15  C2  UNL     1       3.665  -0.702   0.058  1.00  0.00     0.195 C 
BRANCH  15  16
HETATM   16  O1  UNL     1       3.750   0.654   0.247  1.00  0.00    -0.394 OA
HETATM   17  C1  UNL     1       4.964   1.119  -0.300  1.00  0.00     0.201 C 
ENDBRANCH  15  16
ENDBRANCH  14  15
ENDBRANCH  13  14
ENDBRANCH  11  13
ENDBRANCH   9  11
ENDBRANCH   1   9
BRANCH   6  18
HETATM   18  N4  UNL     1      -4.979   1.867   1.266  1.00  0.00    -0.234 N 
ATOM     19  H42 UNL     1      -5.920   2.009   0.899  1.00  0.00     0.174 HD
ATOM     20  H41 UNL     1      -4.714   2.355   2.121  1.00  0.00     0.174 HD
ENDBRANCH   6  18
TORSDOF 7
