REMARK  7 active torsions:
REMARK  status: ('A' for Active; 'I' for Inactive)
REMARK    1  A    between atoms: N1_2  and  C2_4 
REMARK    2  A    between atoms: C2_4  and  C3_5 
REMARK    3  A    between atoms: C3_5  and  O1_6 
REMARK    4  A    between atoms: C3_5  and  C4_8 
REMARK    5  A    between atoms: C4_8  and  N2_9 
REMARK    6  A    between atoms: C4_8  and  C5_13 
REMARK    7  A    between atoms: C5_13  and  C7_15 
ROOT
HETATM    1  C4  UNL     1       0.125  -1.060  -0.694  1.00  0.00     0.245 C 
ENDROOT
BRANCH   1   2
HETATM    2  C3  UNL     1       1.533  -1.174  -0.215  1.00  0.00     0.089 C 
BRANCH   2   3
HETATM    3  C2  UNL     1       2.356   0.033  -0.599  1.00  0.00     0.117 C 
BRANCH   3   4
HETATM    4  N1  UNL     1       2.218   1.193   0.182  1.00  0.00    -0.401 N 
HETATM    5  C1  UNL     1       2.754   1.162   1.513  1.00  0.00     0.145 C 
ATOM      6  H1  UNL     1       1.755   2.025  -0.183  1.00  0.00     0.158 HD
ENDBRANCH   3   4
ENDBRANCH   2   3
BRANCH   2   7
HETATM    7  O1  UNL     1       1.734  -1.678   1.024  1.00  0.00    -0.361 OA
ATOM      8  H1  UNL     1       1.216  -2.437   1.266  1.00  0.00     0.217 HD
ENDBRANCH   2   7
ENDBRANCH   1   2
BRANCH   1   9
HETATM    9  N2  UNL     1      -0.508  -2.388  -0.703  1.00  0.00    -0.069 N 
ATOM     10  H23 UNL     1       0.028  -3.065  -1.246  1.00  0.00     0.275 HD
ATOM     11  H22 UNL     1      -0.448  -2.847   0.206  1.00  0.00     0.275 HD
ATOM     12  H21 UNL     1      -1.471  -2.310  -1.031  1.00  0.00     0.275 HD
ENDBRANCH   1   9
BRANCH   1  13
HETATM   13  C5  UNL     1      -0.768  -0.114   0.018  1.00  0.00     0.026 C 
HETATM   14  C6  UNL     1      -0.949  -0.450   1.479  1.00  0.00     0.013 C 
BRANCH  13  15
HETATM   15  C7  UNL     1      -2.123   0.005  -0.674  1.00  0.00     0.043 C 
HETATM   16  C8  UNL     1      -3.074   0.959  -0.016  1.00  0.00     0.239 C 
HETATM   17  N3  UNL     1      -2.621   2.019  -0.928  1.00  0.00    -0.074 N 
HETATM   18  C9  UNL     1      -2.160   0.987  -1.820  1.00  0.00     0.239 C 
ATOM     19  H32 UNL     1      -3.265   2.741  -1.252  1.00  0.00     0.277 HD
ATOM     20  H31 UNL     1      -1.989   2.752  -0.605  1.00  0.00     0.277 HD
ENDBRANCH  13  15
ENDBRANCH   1  13
TORSDOF 7
