REMARK  6 active torsions:
REMARK  status: ('A' for Active; 'I' for Inactive)
REMARK    1  A    between atoms: C3_3  and  N1_4 
REMARK    2  A    between atoms: C3_3  and  C5_8 
REMARK    3  A    between atoms: N1_4  and  C4_6 
REMARK    4  A    between atoms: C5_8  and  O2_9 
REMARK    5  A    between atoms: C5_8  and  C6_11 
REMARK    6  A    between atoms: C8_13  and  N2_14 
ROOT
HETATM    1  C1  UNL     1       2.544   1.488  -2.471  1.00  0.00     0.014 C 
HETATM    2  C2  UNL     1       2.324   0.877  -1.444  1.00  0.00    -0.089 C 
HETATM    3  C3  UNL     1       2.081   0.133  -0.206  1.00  0.00     0.193 C 
ENDROOT
BRANCH   3   4
HETATM    4  N1  UNL     1       1.976   1.041   0.895  1.00  0.00    -0.351 N 
ATOM      5  H1  UNL     1       1.216   1.721   0.886  1.00  0.00     0.163 HD
BRANCH   4   6
HETATM    6  C4  UNL     1       2.872   1.050   2.002  1.00  0.00     0.349 C 
HETATM    7  O1  UNL     1       3.837   0.263   2.117  1.00  0.00    -0.284 OA
ENDBRANCH   4   6
ENDBRANCH   3   4
BRANCH   3   8
HETATM    8  C5  UNL     1       0.942  -0.812  -0.391  1.00  0.00     0.183 C 
BRANCH   8   9
HETATM    9  O2  UNL     1       0.744  -1.622   0.697  1.00  0.00    -0.390 OA
ATOM     10  H2  UNL     1       0.019  -2.224   0.579  1.00  0.00     0.210 HD
ENDBRANCH   8   9
BRANCH   8  11
HETATM   11  C6  UNL     1      -0.346  -0.213  -0.860  1.00  0.00     0.219 C 
HETATM   12  C7  UNL     1      -1.090   0.567   0.181  1.00  0.00     0.070 C 
HETATM   13  C8  UNL     1      -2.532   0.179   0.005  1.00  0.00     0.211 C 
HETATM   14  C9  UNL     1      -2.397  -1.263  -0.437  1.00  0.00     0.265 C 
HETATM   15  N3  UNL     1      -1.214  -1.338  -1.228  1.00  0.00    -0.066 N 
ATOM     16  H32 UNL     1      -1.411  -1.373  -2.228  1.00  0.00     0.277 HD
ATOM     17  H31 UNL     1      -0.744  -2.240  -1.149  1.00  0.00     0.277 HD
BRANCH  13  18
HETATM   18  N2  UNL     1      -3.278   0.206   1.240  1.00  0.00    -0.073 N 
ATOM     19  H23 UNL     1      -2.829  -0.373   1.949  1.00  0.00     0.274 HD
ATOM     20  H22 UNL     1      -3.199   1.116   1.693  1.00  0.00     0.274 HD
ATOM     21  H21 UNL     1      -4.256  -0.057   1.121  1.00  0.00     0.274 HD
ENDBRANCH  13  18
ENDBRANCH   8  11
ENDBRANCH   3   8
TORSDOF 6
