REMARK  8 active torsions:
REMARK  status: ('A' for Active; 'I' for Inactive)
REMARK    1  A    between atoms: N1_1  and  C1_4 
REMARK       I    between atoms: N4_10  and  C3_12 
REMARK    2  A    between atoms: C3_12  and  C4_14 
REMARK    3  A    between atoms: C4_14  and  C5_16 
REMARK    4  A    between atoms: C5_16  and  N5_17 
REMARK    5  A    between atoms: C5_16  and  C6_21 
REMARK    6  A    between atoms: C7_24  and  N7_25 
REMARK    7  A    between atoms: N7_25  and  C8_27 
REMARK    8  A    between atoms: C8_27  and  C9_28 
ROOT
HETATM    1  C1  UNL     1      -1.853   2.216  -1.193  1.00  0.00     0.692 A 
HETATM    2  N2  UNL     1      -0.529   2.117  -1.408  1.00  0.00    -0.131 N 
ATOM      3  H2  UNL     1      -0.004   2.929  -1.734  1.00  0.00     0.205 HD
HETATM    4  N3  UNL     1       0.092   0.974  -1.199  1.00  0.00    -0.268 N 
ATOM      5  H3  UNL     1       1.096   0.905  -1.364  1.00  0.00     0.189 HD
HETATM    6  C2  UNL     1      -0.601  -0.120  -0.762  1.00  0.00     0.168 A 
HETATM    7  N4  UNL     1      -0.011  -1.233  -0.556  1.00  0.00    -0.302 N 
ATOM      8  H4  UNL     1      -0.521  -2.055  -0.231  1.00  0.00     0.171 HD
HETATM    9  C3  UNL     1       1.417  -1.276  -0.805  1.00  0.00     0.295 C 
HETATM   10  O1  UNL     1       1.770  -1.458  -2.005  1.00  0.00    -0.264 OA
HETATM   11  C7  UNL     1      -1.961  -0.044  -0.535  1.00  0.00     0.163 A 
HETATM   12  N8  UNL     1      -2.564   1.133  -0.757  1.00  0.00    -0.172 N 
ATOM     13  H8  UNL     1      -3.568   1.221  -0.598  1.00  0.00     0.186 HD
ENDROOT
BRANCH  11  14
HETATM   14  N7  UNL     1      -2.581  -1.089  -0.126  1.00  0.00    -0.363 N 
ATOM     15  H7  UNL     1      -2.029  -1.936   0.012  1.00  0.00     0.161 HD
BRANCH  14  16
HETATM   16  C8  UNL     1      -3.978  -1.168   0.153  1.00  0.00     0.234 C 
BRANCH  16  17
HETATM   17  C9  UNL     1      -4.180  -0.760   1.580  1.00  0.00     0.191 C 
HETATM   18  O4  UNL     1      -3.220  -0.423   2.322  1.00  0.00    -0.647 OA
HETATM   19  O5  UNL     1      -5.489  -0.774   2.041  1.00  0.00    -0.647 OA
ENDBRANCH  16  17
ENDBRANCH  14  16
ENDBRANCH  11  14
BRANCH   9  20
HETATM   20  C4  UNL     1       2.296  -1.115   0.302  1.00  0.00     0.256 C 
HETATM   21  O2  UNL     1       1.771  -0.938   1.463  1.00  0.00    -0.284 OA
BRANCH  20  22
HETATM   22  C5  UNL     1       3.765  -1.125   0.274  1.00  0.00     0.350 C 
BRANCH  22  23
HETATM   23  N5  UNL     1       4.251  -1.326  -1.054  1.00  0.00    -0.059 N 
ATOM     24  H53 UNL     1       3.861  -2.170  -1.473  1.00  0.00     0.275 HD
ATOM     25  H52 UNL     1       3.867  -0.639  -1.703  1.00  0.00     0.275 HD
ATOM     26  H51 UNL     1       5.271  -1.333  -1.073  1.00  0.00     0.275 HD
ENDBRANCH  22  23
BRANCH  22  27
HETATM   27  C6  UNL     1       4.336   0.117   0.886  1.00  0.00     0.269 C 
HETATM   28  N6  UNL     1       3.982   0.497   2.195  1.00  0.00    -0.060 NA
HETATM   29  O3  UNL     1       5.127   0.790   0.189  1.00  0.00    -0.274 OA
ENDBRANCH  22  27
ENDBRANCH  20  22
ENDBRANCH   9  20
BRANCH   1  30
HETATM   30  N1  UNL     1      -2.484   3.323  -1.391  1.00  0.00    -0.233 N 
ATOM     31  H12 UNL     1      -1.953   4.131  -1.716  1.00  0.00     0.174 HD
ATOM     32  H11 UNL     1      -3.488   3.398  -1.228  1.00  0.00     0.174 HD
ENDBRANCH   1  30
TORSDOF 8
