REMARK  8 active torsions:
REMARK  status: ('A' for Active; 'I' for Inactive)
REMARK    1  A    between atoms: C1_2  and  C2_3 
REMARK    2  A    between atoms: C1_2  and  C3_8 
REMARK    3  A    between atoms: C2_3  and  O2_4 
REMARK    4  A    between atoms: C2_3  and  O3_6 
REMARK    5  A    between atoms: C3_8  and  N1_9 
REMARK    6  A    between atoms: C3_8  and  C6_20 
REMARK    7  A    between atoms: N1_9  and  C4_11 
REMARK    8  A    between atoms: N7_29  and  O7_30 
ROOT
HETATM    1  C3  UNL     1      -0.803  -0.491  -0.241  1.00  0.00     0.244 C 
ENDROOT
BRANCH   1   2
HETATM    2  C1  UNL     1      -1.483  -1.723   0.191  1.00  0.00     0.211 C 
HETATM    3  O1  UNL     1      -2.617  -1.644   0.626  1.00  0.00    -0.290 OA
BRANCH   2   4
HETATM    4  C2  UNL     1      -0.864  -3.055   0.127  1.00  0.00     0.328 C 
BRANCH   4   5
HETATM    5  O2  UNL     1       0.420  -3.089  -0.374  1.00  0.00    -0.365 OA
ATOM      6  H2  UNL     1       0.820  -3.950  -0.415  1.00  0.00     0.213 HD
ENDBRANCH   4   5
BRANCH   4   7
HETATM    7  O3  UNL     1      -1.638  -3.923  -0.660  1.00  0.00    -0.365 OA
ATOM      8  H3  UNL     1      -1.238  -4.784  -0.701  1.00  0.00     0.213 HD
ENDBRANCH   4   7
ENDBRANCH   2   4
ENDBRANCH   1   2
BRANCH   1   9
HETATM    9  N1  UNL     1       0.520  -0.679  -0.743  1.00  0.00    -0.206 N 
ATOM     10  H1  UNL     1       0.999  -1.547  -0.505  1.00  0.00     0.179 HD
BRANCH   9  11
HETATM   11  C4  UNL     1       1.150   0.173  -1.476  1.00  0.00     0.697 A 
HETATM   12  N2  UNL     1       2.398  -0.013  -1.946  1.00  0.00    -0.128 N 
HETATM   13  N3  UNL     1       2.772   1.036  -2.665  1.00  0.00    -0.237 N 
ATOM     14  H2  UNL     1       2.971  -0.839  -1.774  1.00  0.00     0.205 HD
HETATM   15  C5  UNL     1       1.765   1.934  -2.677  1.00  0.00     0.353 A 
ATOM     16  H3  UNL     1       3.672   1.146  -3.132  1.00  0.00     0.192 HD
HETATM   17  O4  UNL     1       1.770   3.048  -3.262  1.00  0.00    -0.245 OA
HETATM   18  N4  UNL     1       0.771   1.379  -1.935  1.00  0.00    -0.139 N 
ATOM     19  H4  UNL     1      -0.133   1.815  -1.752  1.00  0.00     0.189 HD
ENDBRANCH   9  11
ENDBRANCH   1   9
BRANCH   1  20
HETATM   20  C6  UNL     1      -0.686   0.473   0.899  1.00  0.00     0.150 A 
HETATM   21  N5  UNL     1       0.279   0.338   1.826  1.00  0.00    -0.294 N 
HETATM   22  C7  UNL     1       0.342   1.232   2.836  1.00  0.00     0.329 A 
ATOM     23  H5  UNL     1       0.952  -0.426   1.767  1.00  0.00     0.172 HD
HETATM   24  O5  UNL     1       1.251   1.108   3.713  1.00  0.00    -0.246 OA
HETATM   25  N6  UNL     1      -0.527   2.261   2.954  1.00  0.00    -0.258 N 
HETATM   26  C8  UNL     1      -1.478   2.363   2.007  1.00  0.00     0.356 A 
ATOM     27  H6  UNL     1      -0.465   2.928   3.723  1.00  0.00     0.175 HD
HETATM   28  O6  UNL     1      -2.320   3.303   2.061  1.00  0.00    -0.244 OA
HETATM   29  N7  UNL     1      -1.571   1.481   0.977  1.00  0.00    -0.157 N 
BRANCH  29  30
HETATM   30  O7  UNL     1      -2.545   1.590   0.013  1.00  0.00    -0.277 OA
ATOM     31  H7  UNL     1      -3.171   2.303   0.068  1.00  0.00     0.245 HD
ENDBRANCH  29  30
ENDBRANCH   1  20
TORSDOF 8
