REMARK  6 active torsions:
REMARK  status: ('A' for Active; 'I' for Inactive)
REMARK    1  A    between atoms: N1_2  and  N2_3 
REMARK    2  A    between atoms: C2_5  and  O1_6 
REMARK    3  A    between atoms: C2_5  and  C3_8 
REMARK    4  A    between atoms: C3_8  and  N3_9 
REMARK    5  A    between atoms: C3_8  and  C10_27 
REMARK       I    between atoms: N3_9  and  C4_11 
REMARK    6  A    between atoms: C4_11  and  C5_13 
ROOT
HETATM    1  N3  UNL     1      -0.487  -0.065  -0.650  1.00  0.00    -0.335 N 
ATOM      2  H3  UNL     1      -0.609  -0.940  -0.140  1.00  0.00     0.164 HD
HETATM    3  C4  UNL     1       0.793   0.598  -0.813  1.00  0.00     0.269 C 
HETATM    4  O2  UNL     1       0.852   1.638  -1.505  1.00  0.00    -0.266 OA
ENDROOT
BRANCH   3   5
HETATM    5  C5  UNL     1       1.971   0.058  -0.179  1.00  0.00     0.108 C 
HETATM    6  C6  UNL     1       2.026   0.111   1.209  1.00  0.00     0.094 C 
HETATM    7  C7  UNL     1       3.209   0.127   1.965  1.00  0.00     0.217 C 
HETATM    8  O3  UNL     1       2.965   0.445   3.161  1.00  0.00    -0.284 OA
HETATM    9  C8  UNL     1       4.509  -0.138   1.629  1.00  0.00     0.154 C 
HETATM   10  N4  UNL     1       5.416  -0.227   2.534  1.00  0.00    -0.382 N 
HETATM   11  N5  UNL     1       4.956  -0.374   0.352  1.00  0.00    -0.292 N 
ATOM     12  H42 UNL     1       5.084  -0.052   3.482  1.00  0.00     0.157 HD
ATOM     13  H41 UNL     1       6.385  -0.424   2.284  1.00  0.00     0.157 HD
HETATM   14  C9  UNL     1       4.246  -0.539  -0.778  1.00  0.00     0.326 C 
ATOM     15  H5  UNL     1       5.969  -0.432   0.246  1.00  0.00     0.172 HD
HETATM   16  O4  UNL     1       4.922  -0.763  -1.840  1.00  0.00    -0.247 OA
HETATM   17  N6  UNL     1       2.925  -0.495  -0.998  1.00  0.00    -0.304 N 
ATOM     18  H6  UNL     1       2.593  -0.917  -1.865  1.00  0.00     0.171 HD
ENDBRANCH   3   5
BRANCH   1  19
HETATM   19  C3  UNL     1      -1.567   0.645  -1.286  1.00  0.00     0.262 C 
BRANCH  19  20
HETATM   20  C2  UNL     1      -2.891   0.261  -0.878  1.00  0.00     0.161 C 
HETATM   21  N2  UNL     1      -3.338   0.028   0.380  1.00  0.00    -0.286 N 
ATOM     22  H2  UNL     1      -2.687   0.107   1.161  1.00  0.00     0.184 HD
BRANCH  21  23
HETATM   23  N1  UNL     1      -4.686  -0.322   0.638  1.00  0.00    -0.144 NA
HETATM   24  C1  UNL     1      -4.864  -0.435   2.080  1.00  0.00     0.159 C 
ENDBRANCH  21  23
BRANCH  20  25
HETATM   25  O1  UNL     1      -3.792   0.160  -1.868  1.00  0.00    -0.347 OA
ATOM     26  H1  UNL     1      -3.479   0.323  -2.750  1.00  0.00     0.219 HD
ENDBRANCH  20  25
ENDBRANCH  19  20
BRANCH  19  27
HETATM   27  C10 UNL     1      -1.461   0.280  -2.797  1.00  0.00     0.205 C 
HETATM   28  O5  UNL     1      -0.475  -0.413  -3.101  1.00  0.00    -0.646 OA
HETATM   29  O6  UNL     1      -2.413   0.725  -3.692  1.00  0.00    -0.646 OA
ENDBRANCH  19  27
ENDBRANCH   1  19
TORSDOF 6
