REMARK  9 active torsions:
REMARK  status: ('A' for Active; 'I' for Inactive)
REMARK    1  A    between atoms: C1_4  and  O1_5 
REMARK    2  A    between atoms: C1_4  and  N2_7 
REMARK    3  A    between atoms: N2_7  and  C2_9 
REMARK    4  A    between atoms: C2_9  and  O2_10 
REMARK    5  A    between atoms: C2_9  and  C3_12 
REMARK    6  A    between atoms: C3_12  and  N3_13 
REMARK    7  A    between atoms: C3_12  and  C9_29 
REMARK    8  A    between atoms: N3_13  and  C4_15 
REMARK       I    between atoms: C9_29  and  N8_31 
REMARK    9  A    between atoms: N8_31  and  N9_33 
ROOT
HETATM    1  C3  UNL     1      -1.086   0.027   1.013  1.00  0.00     0.241 C 
ENDROOT
BRANCH   1   2
HETATM    2  C2  UNL     1      -2.316  -0.862   0.982  1.00  0.00     0.253 C 
BRANCH   2   3
HETATM    3  N2  UNL     1      -2.909  -0.884  -0.348  1.00  0.00    -0.328 N 
ATOM      4  H2  UNL     1      -2.481  -0.339  -1.097  1.00  0.00     0.165 HD
BRANCH   3   5
HETATM    5  C1  UNL     1      -4.073  -1.651  -0.620  1.00  0.00     0.212 C 
HETATM    6  N1  UNL     1      -5.047  -1.117  -1.265  1.00  0.00    -0.366 N 
ATOM      7  H12 UNL     1      -5.883  -1.668  -1.460  1.00  0.00     0.159 HD
ATOM      8  H11 UNL     1      -4.989  -0.150  -1.583  1.00  0.00     0.159 HD
BRANCH   5   9
HETATM    9  O1  UNL     1      -4.151  -2.962  -0.189  1.00  0.00    -0.333 OA
ATOM     10  H1  UNL     1      -3.431  -3.357   0.288  1.00  0.00     0.220 HD
ENDBRANCH   5   9
ENDBRANCH   3   5
ENDBRANCH   2   3
BRANCH   2  11
HETATM   11  O2  UNL     1      -2.002  -2.176   1.314  1.00  0.00    -0.374 OA
ATOM     12  H2  UNL     1      -1.615  -2.162   2.182  1.00  0.00     0.212 HD
ENDBRANCH   2  11
ENDBRANCH   1   2
BRANCH   1  13
HETATM   13  N3  UNL     1      -0.099  -0.434   0.103  1.00  0.00    -0.208 N 
ATOM     14  H3  UNL     1      -0.429  -1.001  -0.678  1.00  0.00     0.178 HD
BRANCH  13  15
HETATM   15  C4  UNL     1       1.165  -0.214   0.157  1.00  0.00     0.683 A 
HETATM   16  N4  UNL     1       1.687   0.523   1.150  1.00  0.00    -0.154 N 
HETATM   17  C5  UNL     1       3.017   0.720   1.156  1.00  0.00     0.290 A 
ATOM     18  H4  UNL     1       1.093   0.921   1.877  1.00  0.00     0.187 HD
HETATM   19  O3  UNL     1       3.499   1.411   2.089  1.00  0.00    -0.265 OA
HETATM   20  C6  UNL     1       3.823   0.182   0.172  1.00  0.00     0.147 A 
HETATM   21  N5  UNL     1       5.155   0.210  -0.076  1.00  0.00    -0.345 N 
HETATM   22  C8  UNL     1       3.287  -0.578  -0.852  1.00  0.00     0.154 A 
HETATM   23  C7  UNL     1       5.409  -0.498  -1.194  1.00  0.00     0.182 A 
ATOM     24  H5  UNL     1       5.853   0.690   0.492  1.00  0.00     0.167 HD
HETATM   25  N6  UNL     1       4.258  -0.993  -1.688  1.00  0.00    -0.336 N 
ATOM     26  H6  UNL     1       4.145  -1.565  -2.525  1.00  0.00     0.168 HD
HETATM   27  N7  UNL     1       1.954  -0.750  -0.821  1.00  0.00    -0.174 N 
ATOM     28  H7  UNL     1       1.514  -1.303  -1.557  1.00  0.00     0.186 HD
ENDBRANCH  13  15
ENDBRANCH   1  13
BRANCH   1  29
HETATM   29  C9  UNL     1      -1.450   1.449   0.813  1.00  0.00     0.263 C 
HETATM   30  O4  UNL     1      -2.307   2.016   1.563  1.00  0.00    -0.269 OA
HETATM   31  N8  UNL     1      -0.859   2.229  -0.220  1.00  0.00    -0.275 N 
ATOM     32  H8  UNL     1      -0.169   1.802  -0.838  1.00  0.00     0.189 HD
BRANCH  31  33
HETATM   33  N9  UNL     1      -1.209   3.574  -0.402  1.00  0.00    -0.343 N 
ATOM     34  H92 UNL     1      -1.900   3.985   0.225  1.00  0.00     0.176 HD
ATOM     35  H91 UNL     1      -0.785   4.133  -1.142  1.00  0.00     0.176 HD
ENDBRANCH  31  33
ENDBRANCH   1  29
TORSDOF 9
