REMARK  8 active torsions:
REMARK  status: ('A' for Active; 'I' for Inactive)
REMARK    1  A    between atoms: C1_4  and  C2_5 
REMARK    2  A    between atoms: C1_4  and  N10_34 
REMARK    3  A    between atoms: C2_5  and  N2_6 
REMARK    4  A    between atoms: N6_19  and  N7_21 
REMARK    5  A    between atoms: C7_23  and  C8_24 
REMARK    6  A    between atoms: C8_24  and  O2_25 
REMARK    7  A    between atoms: C8_24  and  O3_27 
REMARK    8  A    between atoms: N10_34  and  N11_36 
ROOT
HETATM    1  N2  UNL     1       3.038  -0.708   0.070  1.00  0.00    -0.218 N 
ATOM      2  H2  UNL     1       3.130  -1.666  -0.267  1.00  0.00     0.178 HD
HETATM    3  C3  UNL     1       1.897  -0.111   0.040  1.00  0.00     0.694 A 
HETATM    4  N3  UNL     1       1.782   1.221   0.511  1.00  0.00    -0.132 N 
ATOM      5  H3  UNL     1       2.599   1.712   0.874  1.00  0.00     0.205 HD
HETATM    6  N4  UNL     1       0.539   1.852   0.472  1.00  0.00    -0.278 N 
ATOM      7  H4  UNL     1       0.466   2.810   0.814  1.00  0.00     0.188 HD
HETATM    8  C4  UNL     1      -0.523   1.274   0.021  1.00  0.00     0.162 A 
HETATM    9  C5  UNL     1      -1.781   2.048   0.031  1.00  0.00     0.291 A 
HETATM   10  O1  UNL     1      -1.830   3.226   0.460  1.00  0.00    -0.265 OA
HETATM   11  N5  UNL     1      -2.933   1.386  -0.471  1.00  0.00    -0.153 N 
ATOM     12  H5  UNL     1      -3.837   1.858  -0.495  1.00  0.00     0.187 HD
HETATM   13  C6  UNL     1      -2.797   0.050  -0.940  1.00  0.00     0.701 A 
HETATM   14  N6  UNL     1      -3.892  -0.515  -1.393  1.00  0.00    -0.132 N 
ATOM     15  H6  UNL     1      -3.840  -1.473  -1.739  1.00  0.00     0.205 HD
HETATM   16  N8  UNL     1      -1.568  -0.663  -0.933  1.00  0.00    -0.172 N 
ATOM     17  H8  UNL     1      -1.533  -1.621  -1.282  1.00  0.00     0.186 HD
HETATM   18  C9  UNL     1      -0.481  -0.094  -0.480  1.00  0.00     0.170 A 
HETATM   19  N9  UNL     1       0.754  -0.805  -0.473  1.00  0.00    -0.172 N 
ATOM     20  H9  UNL     1       0.821  -1.763  -0.817  1.00  0.00     0.186 HD
ENDROOT
BRANCH   1  21
HETATM   21  C2  UNL     1       4.184   0.000   0.588  1.00  0.00     0.215 C 
BRANCH  21  22
HETATM   22  C1  UNL     1       5.385  -0.858   0.365  1.00  0.00     0.107 C 
HETATM   23  N1  UNL     1       5.294  -2.019  -0.204  1.00  0.00    -0.387 N 
ATOM     24  H12 UNL     1       4.398  -2.389  -0.521  1.00  0.00     0.157 HD
ATOM     25  H11 UNL     1       6.115  -2.605  -0.356  1.00  0.00     0.157 HD
BRANCH  22  26
HETATM   26  N10 UNL     1       6.622  -0.347   0.803  1.00  0.00    -0.295 N 
ATOM     27  H10 UNL     1       6.967  -0.566   1.738  1.00  0.00     0.187 HD
BRANCH  26  28
HETATM   28  N11 UNL     1       7.366   0.454  -0.044  1.00  0.00    -0.344 N 
ATOM     29 2H11 UNL     1       7.007   0.663  -0.976  1.00  0.00     0.176 HD
ATOM     30 1H11 UNL     1       8.262   0.824   0.273  1.00  0.00     0.176 HD
ENDBRANCH  26  28
ENDBRANCH  22  26
ENDBRANCH  21  22
ENDBRANCH   1  21
BRANCH  14  31
HETATM   31  N7  UNL     1      -5.115   0.136  -1.420  1.00  0.00    -0.297 N 
HETATM   32  C7  UNL     1      -6.032   0.000  -0.525  1.00  0.00     0.140 C 
ATOM     33  H7  UNL     1      -5.302   0.765  -2.201  1.00  0.00     0.186 HD
BRANCH  32  34
HETATM   34  C8  UNL     1      -5.869  -0.890   0.660  1.00  0.00     0.295 C 
BRANCH  34  35
HETATM   35  O2  UNL     1      -6.105  -2.190   0.245  1.00  0.00    -0.367 OA
ATOM     36  H2  UNL     1      -6.001  -2.757   1.000  1.00  0.00     0.213 HD
ENDBRANCH  34  35
BRANCH  34  37
HETATM   37  O3  UNL     1      -6.670  -0.497   1.714  1.00  0.00    -0.367 OA
ATOM     38  H3  UNL     1      -6.566  -1.064   2.469  1.00  0.00     0.213 HD
ENDBRANCH  34  37
ENDBRANCH  32  34
ENDBRANCH  14  31
TORSDOF 8
