REMARK  9 active torsions:
REMARK  status: ('A' for Active; 'I' for Inactive)
REMARK    1  A    between atoms: N1_1  and  N2_4 
REMARK       I    between atoms: C1_6  and  N3_7 
REMARK       I    between atoms: C1_6  and  N5_12 
REMARK    2  A    between atoms: N3_7  and  N4_9 
REMARK    3  A    between atoms: N5_12  and  N6_14 
REMARK    4  A    between atoms: N6_14  and  S1_16 
REMARK    5  A    between atoms: S1_16  and  C2_19 
REMARK    6  A    between atoms: C3_24  and  N9_25 
REMARK    7  A    between atoms: N9_25  and  C4_27 
REMARK    8  A    between atoms: C4_27  and  C5_28 
REMARK    9  A    between atoms: C5_28  and  O3_29 
ROOT
HETATM    1  S1  UNL     1      -1.273  -1.706  -0.029  1.00  0.00     0.299 S 
HETATM    2  O1  UNL     1      -1.924  -1.362  -1.339  1.00  0.00    -0.197 OA
HETATM    3  O2  UNL     1      -1.292  -3.198   0.214  1.00  0.00    -0.197 OA
ENDROOT
BRANCH   1   4
HETATM    4  N6  UNL     1      -2.056  -0.928   1.292  1.00  0.00    -0.207 N 
ATOM      5  H6  UNL     1      -2.146  -1.296   2.239  1.00  0.00     0.201 HD
BRANCH   4   6
HETATM    6  N5  UNL     1      -2.545   0.297   0.834  1.00  0.00    -0.120 N 
HETATM    7  C1  UNL     1      -3.902   0.414   0.461  1.00  0.00     0.725 C 
HETATM    8  N2  UNL     1      -4.264   1.366  -0.307  1.00  0.00    -0.136 N 
HETATM    9  N3  UNL     1      -4.838  -0.521   0.942  1.00  0.00    -0.136 N 
ATOM     10  H2  UNL     1      -3.578   2.039  -0.650  1.00  0.00     0.205 HD
ATOM     11  H3  UNL     1      -5.062  -1.334   0.369  1.00  0.00     0.205 HD
ATOM     12  H5  UNL     1      -1.925   1.104   0.769  1.00  0.00     0.206 HD
BRANCH   8  13
HETATM   13  N1  UNL     1      -5.601   1.479  -0.673  1.00  0.00    -0.331 N 
ATOM     14  H12 UNL     1      -6.274   0.798  -0.321  1.00  0.00     0.177 HD
ATOM     15  H11 UNL     1      -5.890   2.240  -1.287  1.00  0.00     0.177 HD
ENDBRANCH   8  13
BRANCH   9  16
HETATM   16  N4  UNL     1      -5.477  -0.370   2.192  1.00  0.00    -0.331 N 
ATOM     17  H42 UNL     1      -5.241   0.449   2.752  1.00  0.00     0.177 HD
ATOM     18  H41 UNL     1      -6.155  -1.047   2.541  1.00  0.00     0.177 HD
ENDBRANCH   9  16
ENDBRANCH   4   6
ENDBRANCH   1   4
BRANCH   1  19
HETATM   19  C2  UNL     1       0.410  -1.223  -0.027  1.00  0.00     0.234 A 
HETATM   20  N7  UNL     1       1.369  -1.885   0.632  1.00  0.00    -0.270 N 
HETATM   21  N8  UNL     1       2.633  -1.506   0.621  1.00  0.00    -0.131 N 
ATOM     22  H7  UNL     1       1.112  -2.716   1.164  1.00  0.00     0.188 HD
HETATM   23  C3  UNL     1       3.042  -0.413  -0.062  1.00  0.00     0.695 A 
ATOM     24  H8  UNL     1       3.320  -2.052   1.141  1.00  0.00     0.205 HD
HETATM   25  N10 UNL     1       2.116   0.286  -0.740  1.00  0.00    -0.152 N 
HETATM   26  C6  UNL     1       0.834  -0.103  -0.726  1.00  0.00     0.301 A 
ATOM     27  H10 UNL     1       2.390   1.115  -1.267  1.00  0.00     0.187 HD
HETATM   28  O4  UNL     1      -0.003   0.576  -1.371  1.00  0.00    -0.264 OA
BRANCH  23  29
HETATM   29  N9  UNL     1       4.253  -0.026  -0.089  1.00  0.00    -0.223 N 
ATOM     30  H9  UNL     1       4.969  -0.545   0.419  1.00  0.00     0.177 HD
BRANCH  29  31
HETATM   31  C4  UNL     1       4.609   1.152  -0.843  1.00  0.00     0.164 C 
BRANCH  31  32
HETATM   32  C5  UNL     1       6.114   1.316  -0.706  1.00  0.00     0.184 C 
BRANCH  32  33
HETATM   33  O3  UNL     1       6.748   0.185  -1.217  1.00  0.00    -0.399 OA
ATOM     34  H3  UNL     1       7.689   0.287  -1.131  1.00  0.00     0.209 HD
ENDBRANCH  32  33
ENDBRANCH  31  32
ENDBRANCH  29  31
ENDBRANCH  23  29
ENDBRANCH   1  19
TORSDOF 9
