REMARK  6 active torsions:
REMARK  status: ('A' for Active; 'I' for Inactive)
REMARK    1  A    between atoms: O1_3  and  C3_4 
REMARK    2  A    between atoms: N1_5  and  C4_7 
REMARK    3  A    between atoms: C7_10  and  O2_11 
REMARK    4  A    between atoms: C8_13  and  O3_14 
REMARK    5  A    between atoms: C9_16  and  O4_17 
REMARK    6  A    between atoms: C10_19  and  O5_20 
ROOT
HETATM    1  C1  UNL     1       4.885  -0.397  -1.140  1.00  0.00     0.045 C 
HETATM    2  C2  UNL     1       4.377  -0.658  -0.077  1.00  0.00     0.049 C 
HETATM    3  O1  UNL     1       3.807  -0.940   1.148  1.00  0.00    -0.257 OA
ENDROOT
BRANCH   3   4
HETATM    4  C3  UNL     1       2.425  -0.737   1.340  1.00  0.00     0.242 C 
HETATM    5  N1  UNL     1       1.795  -0.104   0.409  1.00  0.00    -0.372 N 
ATOM      6  H1  UNL     1       2.273   0.233  -0.426  1.00  0.00     0.161 HD
BRANCH   5   7
HETATM    7  C4  UNL     1       0.371   0.105   0.608  1.00  0.00     0.120 C 
HETATM    8  C5  UNL     1      -0.163   1.024  -0.445  1.00  0.00     0.038 C 
HETATM    9  C6  UNL     1       0.407   2.414  -0.162  1.00  0.00     0.015 C 
HETATM   10  C7  UNL     1      -1.662   1.156  -0.253  1.00  0.00     0.155 C 
HETATM   11  C8  UNL     1      -2.370  -0.143  -0.343  1.00  0.00     0.178 C 
HETATM   12  C9  UNL     1      -1.557  -1.349  -0.108  1.00  0.00     0.180 C 
HETATM   13  C10 UNL     1      -0.345  -1.192   0.726  1.00  0.00     0.172 C 
BRANCH  10  14
HETATM   14  O2  UNL     1      -1.884   1.713   1.004  1.00  0.00    -0.392 OA
ATOM     15  H2  UNL     1      -2.823   1.796   1.124  1.00  0.00     0.210 HD
ENDBRANCH  10  14
BRANCH  11  16
HETATM   16  O3  UNL     1      -3.471  -0.094   0.540  1.00  0.00    -0.390 OA
ATOM     17  H3  UNL     1      -3.925  -0.927   0.482  1.00  0.00     0.210 HD
ENDBRANCH  11  16
BRANCH  12  18
HETATM   18  O4  UNL     1      -1.214  -1.949  -1.342  1.00  0.00    -0.390 OA
ATOM     19  H4  UNL     1      -0.690  -2.727  -1.190  1.00  0.00     0.210 HD
ENDBRANCH  12  18
BRANCH  13  20
HETATM   20  O5  UNL     1       0.541  -2.225   0.368  1.00  0.00    -0.391 OA
ATOM     21  H5  UNL     1       0.083  -3.054   0.443  1.00  0.00     0.210 HD
ENDBRANCH  13  20
ENDBRANCH   5   7
ENDBRANCH   3   4
TORSDOF 6
