REMARK  6 active torsions:
REMARK  status: ('A' for Active; 'I' for Inactive)
REMARK    1  A    between atoms: O1_1  and  C1_3 
REMARK    2  A    between atoms: C4_7  and  O3_8 
REMARK    3  A    between atoms: O3_8  and  C5_9 
REMARK    4  A    between atoms: C7_11  and  O4_12 
REMARK    5  A    between atoms: C8_14  and  O5_15 
REMARK    6  A    between atoms: C10_18  and  O6_19 
ROOT
HETATM    1  C5  UNL     1      -0.248  -1.024  -0.106  1.00  0.00     0.156 C 
HETATM    2  C6  UNL     1      -0.936  -0.668   1.198  1.00  0.00     0.069 C 
HETATM    3  C7  UNL     1      -1.592   0.705   1.065  1.00  0.00     0.149 C 
HETATM    4  C8  UNL     1      -2.797   0.453   0.152  1.00  0.00     0.149 C 
HETATM    5  C9  UNL     1      -2.184   0.154  -1.197  1.00  0.00     0.068 C 
HETATM    6  C10 UNL     1      -1.272  -1.017  -1.200  1.00  0.00     0.149 C 
ENDROOT
BRANCH   1   7
HETATM    7  O3  UNL     1       0.789  -0.163  -0.274  1.00  0.00    -0.350 OA
BRANCH   7   8
HETATM    8  C4  UNL     1       2.045  -0.703  -0.275  1.00  0.00     0.298 C 
HETATM    9  C1  UNL     1       3.031  -0.020   0.608  1.00  0.00     0.198 C 
HETATM   10  C2  UNL     1       3.505   1.107  -0.184  1.00  0.00     0.033 C 
HETATM   11  C3  UNL     1       3.240   0.852  -1.452  1.00  0.00     0.137 C 
HETATM   12  O2  UNL     1       2.605  -0.400  -1.567  1.00  0.00    -0.330 OA
BRANCH   9  13
HETATM   13  O1  UNL     1       2.531   0.321   1.853  1.00  0.00    -0.387 OA
ATOM     14  H1  UNL     1       2.222  -0.414   2.369  1.00  0.00     0.210 HD
ENDBRANCH   9  13
ENDBRANCH   7   8
ENDBRANCH   1   7
BRANCH   6  15
HETATM   15  O6  UNL     1      -0.701  -1.083  -2.471  1.00  0.00    -0.393 OA
ATOM     16  H6  UNL     1      -1.350  -1.079  -3.165  1.00  0.00     0.210 HD
ENDBRANCH   6  15
BRANCH   3  17
HETATM   17  O4  UNL     1      -1.939   1.254   2.262  1.00  0.00    -0.393 OA
ATOM     18  H4  UNL     1      -2.347   2.108   2.179  1.00  0.00     0.210 HD
ENDBRANCH   3  17
BRANCH   4  19
HETATM   19  O5  UNL     1      -3.611   1.555   0.062  1.00  0.00    -0.393 OA
ATOM     20  H5  UNL     1      -4.358   1.399  -0.504  1.00  0.00     0.210 HD
ENDBRANCH   4  19
TORSDOF 6
