REMARK  5 active torsions:
REMARK  status: ('A' for Active; 'I' for Inactive)
REMARK    1  A    between atoms: O1_2  and  N1_3 
REMARK    2  A    between atoms: N1_3  and  C2_4 
REMARK    3  A    between atoms: C4_6  and  O2_8 
REMARK    4  A    between atoms: C6_10  and  O3_11 
REMARK    5  A    between atoms: C7_13  and  O4_14 
ROOT
HETATM    1  C2  UNL     1       1.240  -0.275  -0.374  1.00  0.00     0.141 C 
HETATM    2  C3  UNL     1       0.726  -1.675  -0.176  1.00  0.00     0.067 C 
HETATM    3  C4  UNL     1      -0.798  -1.579  -0.197  1.00  0.00     0.092 C 
HETATM    4  C5  UNL     1      -1.366  -1.812  -1.551  1.00  0.00     0.049 C 
HETATM    5  C6  UNL     1      -1.055  -0.246   0.390  1.00  0.00     0.144 C 
HETATM    6  C7  UNL     1      -2.174   0.524  -0.239  1.00  0.00     0.186 C 
HETATM    7  C8  UNL     1      -1.542   1.898  -0.430  1.00  0.00     0.150 C 
HETATM    8  C9  UNL     1      -1.384   2.650   0.844  1.00  0.00     0.042 C 
HETATM    9  O5  UNL     1      -0.266   1.524  -0.909  1.00  0.00    -0.373 OA
HETATM   10  C10 UNL     1       0.146   0.635   0.090  1.00  0.00     0.183 C 
ENDROOT
BRANCH   1  11
HETATM   11  N1  UNL     1       2.409  -0.029   0.433  1.00  0.00    -0.094 NA
BRANCH  11  12
HETATM   12  O1  UNL     1       3.432  -0.851   0.157  1.00  0.00    -0.291 OA
HETATM   13  C1  UNL     1       4.623  -0.105   0.087  1.00  0.00     0.231 C 
ENDBRANCH  11  12
ENDBRANCH   1  11
BRANCH   3  14
HETATM   14  O2  UNL     1      -1.312  -2.585   0.653  1.00  0.00    -0.387 OA
ATOM     15  H2  UNL     1      -2.260  -2.525   0.640  1.00  0.00     0.210 HD
ENDBRANCH   3  14
BRANCH   5  16
HETATM   16  O3  UNL     1      -1.230  -0.414   1.775  1.00  0.00    -0.381 OA
ATOM     17  H3  UNL     1      -1.395   0.442   2.152  1.00  0.00     0.211 HD
ENDBRANCH   5  16
BRANCH   6  18
HETATM   18  O4  UNL     1      -3.279   0.672   0.599  1.00  0.00    -0.390 OA
ATOM     19  H4  UNL     1      -3.989   1.161   0.200  1.00  0.00     0.210 HD
ENDBRANCH   6  18
TORSDOF 5
