REMARK  5 active torsions:
REMARK  status: ('A' for Active; 'I' for Inactive)
REMARK    1  A    between atoms: C1_2  and  C2_4 
REMARK       I    between atoms: C2_4  and  N2_6 
REMARK    2  A    between atoms: N2_6  and  C3_8 
REMARK    3  A    between atoms: N4_11  and  N5_12 
REMARK       I    between atoms: N5_12  and  C5_14 
REMARK    4  A    between atoms: C5_14  and  C6_16 
REMARK    5  A    between atoms: N6_24  and  N7_25 
ROOT
HETATM    1  C3  UNL     1      -2.304  -0.591   0.815  1.00  0.00     0.149 A 
HETATM    2  C4  UNL     1      -0.968  -0.183   0.616  1.00  0.00     0.175 A 
HETATM    3  N3  UNL     1      -0.621   1.004   1.309  1.00  0.00    -0.078 NA
HETATM    4  N4  UNL     1      -0.108  -0.866  -0.140  1.00  0.00    -0.184 N 
HETATM    5  C12 UNL     1      -0.641  -2.011  -0.711  1.00  0.00     0.371 A 
HETATM    6  O4  UNL     1       0.133  -2.713  -1.448  1.00  0.00    -0.242 OA
HETATM    7  N6  UNL     1      -1.887  -2.434  -0.552  1.00  0.00    -0.171 N 
HETATM    8  C13 UNL     1      -2.721  -1.727   0.209  1.00  0.00     0.300 A 
HETATM    9  O5  UNL     1      -3.900  -2.118   0.365  1.00  0.00    -0.263 OA
ENDROOT
BRANCH   4  10
HETATM   10  N5  UNL     1       1.203  -0.554  -0.430  1.00  0.00    -0.254 N 
HETATM   11  C5  UNL     1       2.086   0.470  -0.184  1.00  0.00     0.270 C 
HETATM   12  O3  UNL     1       1.877   1.507   0.450  1.00  0.00    -0.266 OA
ATOM     13  H5  UNL     1       1.641  -1.291  -0.983  1.00  0.00     0.191 HD
BRANCH  11  14
HETATM   14  C6  UNL     1       3.498   0.395  -0.714  1.00  0.00     0.033 A 
HETATM   15  C7  UNL     1       3.788  -0.342  -1.833  1.00  0.00     0.017 A 
HETATM   16  C8  UNL     1       5.110  -0.411  -2.304  1.00  0.00     0.001 A 
HETATM   17  C9  UNL     1       6.119   0.263  -1.642  1.00  0.00     0.000 A 
HETATM   18  C10 UNL     1       5.826   1.004  -0.518  1.00  0.00     0.001 A 
HETATM   19  C11 UNL     1       4.519   1.052  -0.080  1.00  0.00     0.017 A 
ENDBRANCH  11  14
ENDBRANCH   4  10
BRANCH   1  20
HETATM   20  N2  UNL     1      -3.128   0.206   1.634  1.00  0.00    -0.312 N 
HETATM   21  C2  UNL     1      -3.918   1.272   1.164  1.00  0.00     0.311 C 
HETATM   22  O2  UNL     1      -3.913   1.556  -0.049  1.00  0.00    -0.262 OA
ATOM     23  H2  UNL     1      -3.154  -0.003   2.632  1.00  0.00     0.169 HD
BRANCH  21  24
HETATM   24  C1  UNL     1      -4.732   2.033   2.082  1.00  0.00     0.322 C 
HETATM   25  N1  UNL     1      -5.532   3.110   1.609  1.00  0.00    -0.053 NA
HETATM   26  O1  UNL     1      -4.785   1.802   3.321  1.00  0.00    -0.266 OA
ENDBRANCH  21  24
ENDBRANCH   1  20
BRANCH   7  27
HETATM   27  N7  UNL     1      -2.338  -3.631  -1.185  1.00  0.00    -0.331 N 
ATOM     28  H72 UNL     1      -1.699  -4.172  -1.768  1.00  0.00     0.177 HD
ATOM     29  H71 UNL     1      -3.297  -3.957  -1.063  1.00  0.00     0.177 HD
ENDBRANCH   7  27
TORSDOF 5
