REMARK  7 active torsions:
REMARK  status: ('A' for Active; 'I' for Inactive)
REMARK    1  A    between atoms: O1_2  and  C2_3 
REMARK    2  A    between atoms: C3_6  and  N2_7 
REMARK    3  A    between atoms: C5_13  and  N4_14 
REMARK    4  A    between atoms: C7_20  and  N7_21 
REMARK    5  A    between atoms: N8_24  and  C10_25 
REMARK    6  A    between atoms: C10_25  and  C11_26 
REMARK    7  A    between atoms: C11_26  and  O2_27 
ROOT
HETATM    1  N4  UNL     1      -2.310   1.691  -3.096  1.00  0.00    -0.277 N 
ATOM      2  H4  UNL     1      -3.246   2.003  -3.355  1.00  0.00     0.179 HD
HETATM    3  C6  UNL     1      -1.251   1.756  -4.011  1.00  0.00     0.183 C 
HETATM    4  N5  UNL     1      -0.353   1.818  -4.767  1.00  0.00    -0.172 NA
ENDROOT
BRANCH   1   5
HETATM    5  C5  UNL     1      -2.072   1.229  -1.925  1.00  0.00     0.160 A 
HETATM    6  C4  UNL     1      -3.095   1.155  -1.007  1.00  0.00     0.126 A 
HETATM    7  N3  UNL     1      -4.338   1.553  -1.292  1.00  0.00    -0.186 N 
HETATM    8  C14 UNL     1      -2.857   0.652   0.281  1.00  0.00     0.131 A 
HETATM    9  C3  UNL     1      -5.329   1.479  -0.388  1.00  0.00     0.678 A 
ATOM     10  H3  UNL     1      -4.540   1.923  -2.221  1.00  0.00     0.184 HD
HETATM   11  N1  UNL     1      -5.086   0.988   0.860  1.00  0.00    -0.168 N 
HETATM   12  C2  UNL     1      -3.863   0.567   1.226  1.00  0.00     0.187 A 
ATOM     13  H1  UNL     1      -5.851   0.939   1.533  1.00  0.00     0.186 HD
HETATM   14  N9  UNL     1      -1.621   0.248   0.598  1.00  0.00    -0.185 N 
HETATM   15  C7  UNL     1      -0.620   0.316  -0.290  1.00  0.00     0.682 A 
ATOM     16  H9  UNL     1      -1.438  -0.118   1.532  1.00  0.00     0.184 HD
HETATM   17  N6  UNL     1      -0.869   0.801  -1.518  1.00  0.00    -0.173 N 
ATOM     18  H6  UNL     1      -0.095   0.846  -2.181  1.00  0.00     0.186 HD
BRANCH   9  19
HETATM   19  N2  UNL     1      -6.531   1.866  -0.673  1.00  0.00    -0.234 N 
ATOM     20  H22 UNL     1      -7.283   1.810   0.013  1.00  0.00     0.174 HD
ATOM     21  H21 UNL     1      -6.713   2.233  -1.607  1.00  0.00     0.174 HD
ENDBRANCH   9  19
BRANCH  12  22
HETATM   22  O1  UNL     1      -3.613   0.065   2.504  1.00  0.00    -0.339 OA
HETATM   23  C1  UNL     1      -3.903  -1.326   2.717  1.00  0.00     0.211 C 
ENDBRANCH  12  22
BRANCH  15  24
HETATM   24  N7  UNL     1       0.714  -0.119   0.068  1.00  0.00    -0.214 N 
HETATM   25  C8  UNL     1       1.178  -1.466  -0.179  1.00  0.00     0.171 C 
HETATM   26  C9  UNL     1       2.670  -1.528  -0.189  1.00  0.00     0.293 C 
HETATM   27  N8  UNL     1       3.309  -0.907   0.929  1.00  0.00     0.093 N 
HETATM   28  C12 UNL     1       2.470  -0.018   1.681  1.00  0.00     0.293 C 
HETATM   29  C13 UNL     1       1.639   0.800   0.698  1.00  0.00     0.171 C 
BRANCH  27  30
HETATM   30  C10 UNL     1       4.531  -0.212   0.550  1.00  0.00     0.298 C 
BRANCH  30  31
HETATM   31  C11 UNL     1       5.605  -1.210   0.126  1.00  0.00     0.194 C 
BRANCH  31  32
HETATM   32  O2  UNL     1       6.759  -0.514  -0.227  1.00  0.00    -0.399 OA
ATOM     33  H2  UNL     1       7.428  -1.135  -0.491  1.00  0.00     0.209 HD
ENDBRANCH  31  32
ENDBRANCH  30  31
ENDBRANCH  27  30
ENDBRANCH  15  24
ENDBRANCH   1   5
TORSDOF 7
