REMARK  5 active torsions:
REMARK  status: ('A' for Active; 'I' for Inactive)
REMARK    1  A    between atoms: N1_1  and  C1_4 
REMARK    2  A    between atoms: C3_12  and  C4_13 
REMARK    3  A    between atoms: N5_14  and  C5_16 
REMARK    4  A    between atoms: C5_16  and  C6_17 
REMARK    5  A    between atoms: C6_17  and  N6_18 
ROOT
HETATM    1  N6  UNL     1       0.137  -0.091   0.676  1.00  0.00    -0.233 NA
HETATM    2  C7  UNL     1       0.784   0.403  -0.485  1.00  0.00     0.111 C 
HETATM    3  C8  UNL     1      -0.175   0.838  -1.575  1.00  0.00     0.043 C 
HETATM    4  C9  UNL     1      -0.812   2.158  -1.319  1.00  0.00     0.233 C 
HETATM    5  N7  UNL     1      -2.130   2.104  -0.761  1.00  0.00    -0.073 N 
ATOM      6  H71 UNL     1      -2.423   3.031  -0.453  1.00  0.00     0.277 HD
ATOM      7  H72 UNL     1      -2.116   1.618   0.135  1.00  0.00     0.277 HD
HETATM    8  C10 UNL     1      -3.118   1.530  -1.624  1.00  0.00     0.258 C 
HETATM    9  C11 UNL     1      -4.434   1.465  -0.885  1.00  0.00     0.195 C 
HETATM   10  O1  UNL     1      -4.337   0.845   0.343  1.00  0.00    -0.388 OA
HETATM   11  C12 UNL     1      -4.684  -0.499   0.211  1.00  0.00     0.195 C 
HETATM   12  C13 UNL     1      -4.456  -1.306   1.440  1.00  0.00     0.258 C 
HETATM   13  N8  UNL     1      -3.236  -1.053   2.127  1.00  0.00    -0.072 N 
ATOM     14  H81 UNL     1      -3.397  -0.978   3.131  1.00  0.00     0.277 HD
ATOM     15  H82 UNL     1      -2.905  -0.107   1.936  1.00  0.00     0.277 HD
HETATM   16  C14 UNL     1      -2.192  -2.030   1.845  1.00  0.00     0.249 C 
HETATM   17  C15 UNL     1      -1.516  -1.754   0.531  1.00  0.00     0.156 C 
HETATM   18  N9  UNL     1      -0.117  -1.478   0.637  1.00  0.00    -0.163 NA
ENDROOT
BRANCH   1  19
HETATM   19  C6  UNL     1       0.785   0.312   1.880  1.00  0.00     0.129 C 
BRANCH  19  20
HETATM   20  C5  UNL     1       2.118  -0.280   2.154  1.00  0.00     0.135 C 
BRANCH  20  21
HETATM   21  N5  UNL     1       3.113   0.013   1.152  1.00  0.00    -0.396 N 
HETATM   22  C4  UNL     1       4.000  -0.813   0.777  1.00  0.00     0.116 C 
ATOM     23  H5  UNL     1       3.103   0.937   0.720  1.00  0.00     0.159 HD
BRANCH  22  24
HETATM   24  C3  UNL     1       5.024  -0.580  -0.221  1.00  0.00     0.093 A 
HETATM   25  C1  UNL     1       5.176   0.601  -0.901  1.00  0.00     0.142 A 
HETATM   26  N2  UNL     1       6.191   0.685  -1.837  1.00  0.00    -0.283 N 
HETATM   27  N3  UNL     1       6.972  -0.318  -2.063  1.00  0.00    -0.295 N 
ATOM     28  H2  UNL     1       6.325   1.553  -2.357  1.00  0.00     0.188 HD
HETATM   29  C2  UNL     1       6.821  -1.465  -1.398  1.00  0.00     0.197 A 
ATOM     30  H3  UNL     1       7.713  -0.233  -2.758  1.00  0.00     0.187 HD
HETATM   31  N4  UNL     1       5.877  -1.619  -0.493  1.00  0.00    -0.347 N 
ATOM     32  H4  UNL     1       5.781  -2.505   0.003  1.00  0.00     0.167 HD
BRANCH  25  33
HETATM   33  N1  UNL     1       4.457   1.620  -0.729  1.00  0.00    -0.383 N 
ATOM     34  H12 UNL     1       4.570   2.498  -1.235  1.00  0.00     0.157 HD
ATOM     35  H11 UNL     1       3.709   1.558  -0.039  1.00  0.00     0.157 HD
ENDBRANCH  25  33
ENDBRANCH  22  24
ENDBRANCH  20  21
ENDBRANCH  19  20
ENDBRANCH   1  19
TORSDOF 5
