REMARK  8 active torsions:
REMARK  status: ('A' for Active; 'I' for Inactive)
REMARK    1  A    between atoms: N1_1  and  C1_4 
REMARK    2  A    between atoms: C4_7  and  S1_8 
REMARK    3  A    between atoms: S1_8  and  N2_11 
REMARK    4  A    between atoms: C5_12  and  N3_13 
REMARK    5  A    between atoms: C6_17  and  C7_18 
REMARK    6  A    between atoms: C7_18  and  N4_19 
REMARK    7  A    between atoms: N4_19  and  N5_21 
REMARK       I    between atoms: N5_21  and  C8_23 
REMARK    8  A    between atoms: N7_26  and  O4_27 
ROOT
HETATM    1  N2  UNL     1      -0.627  -0.953   0.258  1.00  0.00    -0.126 N 
HETATM    2  C5  UNL     1      -1.226  -1.044  -0.928  1.00  0.00     0.180 A 
HETATM    3  S2  UNL     1       0.100  -1.114  -2.003  1.00  0.00    -0.029 SA
HETATM    4  C6  UNL     1       1.340  -1.020  -0.835  1.00  0.00     0.143 A 
HETATM    5  N7  UNL     1       0.650  -0.940   0.308  1.00  0.00    -0.136 N 
ENDROOT
BRANCH   1   6
HETATM    6  S1  UNL     1      -1.623  -0.849   1.706  1.00  0.00     0.287 S 
HETATM    7  O1  UNL     1      -0.810  -0.940   2.946  1.00  0.00    -0.198 OA
HETATM    8  O2  UNL     1      -2.572  -2.039   1.734  1.00  0.00    -0.198 OA
BRANCH   6   9
HETATM    9  C4  UNL     1      -2.603   0.587   1.645  1.00  0.00     0.097 A 
HETATM   10  C3  UNL     1      -3.919   0.601   1.237  1.00  0.00     0.030 A 
HETATM   11  C2  UNL     1      -4.646   1.779   1.199  1.00  0.00     0.049 A 
HETATM   12  C1  UNL     1      -4.041   2.958   1.579  1.00  0.00     0.098 A 
HETATM   13  N8  UNL     1      -2.757   2.948   1.978  1.00  0.00    -0.351 N 
HETATM   14  C9  UNL     1      -2.046   1.816   2.018  1.00  0.00     0.115 A 
ATOM     15  H8  UNL     1      -2.315   3.824   2.257  1.00  0.00     0.166 HD
BRANCH  12  16
HETATM   16  N1  UNL     1      -4.732   4.065   1.540  1.00  0.00    -0.385 N 
ATOM     17  H12 UNL     1      -5.706   4.073   1.237  1.00  0.00     0.157 HD
ATOM     18  H11 UNL     1      -4.284   4.937   1.821  1.00  0.00     0.157 HD
ENDBRANCH  12  16
ENDBRANCH   6   9
ENDBRANCH   1   6
BRANCH   2  19
HETATM   19  N3  UNL     1      -2.492  -1.078  -1.240  1.00  0.00    -0.377 N 
ATOM     20  H32 UNL     1      -3.284  -1.036  -0.598  1.00  0.00     0.158 HD
ATOM     21  H31 UNL     1      -2.951  -1.148  -2.148  1.00  0.00     0.158 HD
ENDBRANCH   2  19
BRANCH   5  22
HETATM   22  O4  UNL     1       1.404  -0.846   1.505  1.00  0.00    -0.266 OA
ATOM     23  H4  UNL     1       2.353  -0.836   1.542  1.00  0.00     0.247 HD
ENDBRANCH   5  22
BRANCH   4  24
HETATM   24  C7  UNL     1       2.811  -1.025  -1.035  1.00  0.00     0.148 C 
BRANCH  24  25
HETATM   25  N4  UNL     1       3.209  -1.113  -2.237  1.00  0.00    -0.305 N 
ATOM     26  H4  UNL     1       2.486  -1.171  -2.954  1.00  0.00     0.186 HD
BRANCH  25  27
HETATM   27  N5  UNL     1       4.508  -1.138  -2.672  1.00  0.00    -0.254 N 
HETATM   28  C8  UNL     1       5.509  -1.871  -1.994  1.00  0.00     0.347 C 
HETATM   29  N6  UNL     1       6.854  -1.897  -2.445  1.00  0.00    -0.038 NA
HETATM   30  O3  UNL     1       5.235  -2.535  -0.954  1.00  0.00    -0.249 OA
ATOM     31  H5  UNL     1       4.760  -0.613  -3.509  1.00  0.00     0.191 HD
ENDBRANCH  25  27
ENDBRANCH  24  25
ENDBRANCH   4  24
TORSDOF 8
