REMARK  2 active torsions:
REMARK  status: ('A' for Active; 'I' for Inactive)
REMARK    1  A    between atoms: C2_2  and  N1_4 
REMARK    2  A    between atoms: N1_4  and  C3_6 
ROOT
HETATM    1  C3  UNL     1      -0.124  -0.876   0.068  1.00  0.00     0.118 C 
HETATM    2  C4  UNL     1      -1.076  -1.344  -1.022  1.00  0.00     0.168 C 
HETATM    3  S2  UNL     1      -2.406  -0.888   0.051  1.00  0.00     0.156 S 
HETATM    4  O1  UNL     1      -3.594  -0.292  -0.605  1.00  0.00    -0.227 OA
HETATM    5  O2  UNL     1      -2.644  -1.804   1.182  1.00  0.00    -0.227 OA
HETATM    6  C5  UNL     1      -1.055   0.269   0.303  1.00  0.00     0.078 C 
HETATM    7  C6  UNL     1      -1.154   0.834   1.678  1.00  0.00     0.034 C 
HETATM    8  C7  UNL     1      -1.044   1.322  -0.782  1.00  0.00     0.034 C 
ENDROOT
BRANCH   1   9
HETATM    9  N1  UNL     1       1.178  -0.565  -0.459  1.00  0.00    -0.377 N 
ATOM     10  H1  UNL     1       1.323  -0.664  -1.464  1.00  0.00     0.160 HD
BRANCH   9  11
HETATM   11  C2  UNL     1       2.261  -0.134   0.324  1.00  0.00     0.069 C 
HETATM   12  C1  UNL     1       3.558   0.161  -0.314  1.00  0.00     0.081 C 
HETATM   13  S1  UNL     1       2.139   0.052   1.933  1.00  0.00    -0.066 SA
ENDBRANCH   9  11
ENDBRANCH   1   9
TORSDOF 2
