REMARK  1 active torsions:
REMARK  status: ('A' for Active; 'I' for Inactive)
REMARK    1  A    between atoms: C2_2  and  C3_3 
REMARK       I    between atoms: N3_13  and  C10_14 
ROOT
HETATM    1  C3  UNL     1      -0.533  -0.246   0.171  1.00  0.00     0.107 C 
HETATM    2  C4  UNL     1      -1.415   0.424   1.166  1.00  0.00     0.051 C 
HETATM    3  C5  UNL     1      -1.533   1.898   1.105  1.00  0.00     0.025 C 
HETATM    4  C6  UNL     1      -0.729   2.629   0.099  1.00  0.00     0.134 C 
HETATM    5  N1  UNL     1      -0.039   1.820  -0.854  1.00  0.00    -0.352 N 
ATOM      6  H1  UNL     1       0.764   2.173  -1.374  1.00  0.00     0.174 HD
HETATM    7  N2  UNL     1      -0.506   0.555  -1.034  1.00  0.00    -0.207 NA
HETATM    8  C7  UNL     1       0.220  -0.064  -2.107  1.00  0.00     0.118 C 
HETATM    9  C8  UNL     1       1.540  -0.622  -1.706  1.00  0.00     0.036 C 
HETATM   10  C9  UNL     1       1.606  -1.308  -0.393  1.00  0.00     0.129 C 
HETATM   11  N3  UNL     1       0.829  -0.481   0.568  1.00  0.00    -0.329 N 
HETATM   12  C10 UNL     1       1.499  -0.047   1.705  1.00  0.00     0.217 C 
HETATM   13  C11 UNL     1       2.916  -0.414   1.915  1.00  0.00     0.117 C 
HETATM   14  O1  UNL     1       0.971   0.646   2.575  1.00  0.00    -0.274 OA
ENDROOT
BRANCH   1  15
HETATM   15  C2  UNL     1      -1.123  -1.613  -0.145  1.00  0.00     0.045 C 
HETATM   16  C1  UNL     1      -2.529  -1.497  -0.704  1.00  0.00     0.009 C 
ENDBRANCH   1  15
TORSDOF 1
