REMARK  7 active torsions:
REMARK  status: ('A' for Active; 'I' for Inactive)
REMARK    1  A    between atoms: C11_11  and  C12_12 
REMARK    2  A    between atoms: C14_14  and  O1_15 
REMARK    3  A    between atoms: N1_17  and  C15_18 
REMARK    4  A    between atoms: C15_18  and  C16_19 
REMARK    5  A    between atoms: C16_19  and  C17_20 
REMARK    6  A    between atoms: C17_20  and  N2_21 
REMARK    7  A    between atoms: C23_27  and  O2_28 
ROOT
HETATM    1  C12 UNL     1      -1.336  -1.020   0.904  1.00  0.00     0.006 A 
HETATM    2  C13 UNL     1      -1.188  -1.476   2.183  1.00  0.00     0.068 A 
HETATM    3  C14 UNL     1       0.161  -1.707   2.354  1.00  0.00     0.144 A 
HETATM    4  N1  UNL     1       0.827  -1.408   1.227  1.00  0.00    -0.308 N 
HETATM    5  C23 UNL     1      -0.079  -0.987   0.335  1.00  0.00     0.151 A 
ENDROOT
BRANCH   1   6
HETATM    6  C11 UNL     1      -2.586  -0.626   0.223  1.00  0.00    -0.003 A 
HETATM    7  C6  UNL     1      -2.580   0.815  -0.243  1.00  0.00     0.008 A 
HETATM    8  C5  UNL     1      -2.816   0.807  -1.724  1.00  0.00     0.015 C 
HETATM    9  C7  UNL     1      -3.769   1.067   0.600  1.00  0.00    -0.035 A 
HETATM   10  C4  UNL     1      -3.461  -0.530  -2.023  1.00  0.00     0.010 C 
HETATM   11  C3  UNL     1      -4.930  -0.353  -1.888  1.00  0.00    -0.020 C 
HETATM   12  C24 UNL     1      -3.025  -1.471  -0.921  1.00  0.00     0.023 C 
HETATM   13  C2  UNL     1      -5.541   0.502  -1.079  1.00  0.00    -0.086 C 
HETATM   14  C1  UNL     1      -7.026   0.446  -1.169  1.00  0.00     0.043 C 
HETATM   15  C9  UNL     1      -5.010   1.480  -0.128  1.00  0.00     0.043 C 
HETATM   16  C8  UNL     1      -3.454   2.080   1.694  1.00  0.00     0.016 C 
HETATM   17  C10 UNL     1      -3.733  -0.315   1.165  1.00  0.00     0.024 A 
ENDBRANCH   1   6
BRANCH   5  18
HETATM   18  O2  UNL     1       0.212  -0.586  -0.950  1.00  0.00    -0.345 OA
ATOM     19  H2  UNL     1       1.077  -0.563  -1.342  1.00  0.00     0.219 HD
ENDBRANCH   5  18
BRANCH   3  20
HETATM   20  O1  UNL     1       0.777  -2.179   3.502  1.00  0.00    -0.346 OA
ATOM     21  H1  UNL     1       1.706  -2.338   3.620  1.00  0.00     0.219 HD
ENDBRANCH   3  20
BRANCH   4  22
HETATM   22  C15 UNL     1       2.252  -1.511   1.013  1.00  0.00     0.135 C 
BRANCH  22  23
HETATM   23  C16 UNL     1       2.942  -0.214   1.389  1.00  0.00     0.050 C 
BRANCH  23  24
HETATM   24  C17 UNL     1       4.424  -0.280   1.185  1.00  0.00     0.274 C 
BRANCH  24  25
HETATM   25  N2  UNL     1       4.727  -0.553  -0.194  1.00  0.00     0.088 N 
HETATM   26  C18 UNL     1       6.146  -0.749  -0.412  1.00  0.00     0.272 C 
HETATM   27  C19 UNL     1       6.951   0.525  -0.378  1.00  0.00     0.030 C 
HETATM   28  C20 UNL     1       6.337   1.602  -1.246  1.00  0.00     0.003 C 
HETATM   29  C21 UNL     1       5.197   1.003  -2.048  1.00  0.00     0.030 C 
HETATM   30  C22 UNL     1       4.159   0.377  -1.136  1.00  0.00     0.272 C 
ENDBRANCH  24  25
ENDBRANCH  23  24
ENDBRANCH  22  23
ENDBRANCH   4  22
TORSDOF 7
