REMARK  7 active torsions:
REMARK  status: ('A' for Active; 'I' for Inactive)
REMARK    1  A    between atoms: C2_2  and  C3_3 
REMARK    2  A    between atoms: C3_3  and  C4_4 
REMARK    3  A    between atoms: C4_4  and  C5_5 
REMARK    4  A    between atoms: C5_5  and  O1_6 
REMARK    5  A    between atoms: O1_6  and  C6_7 
REMARK    6  A    between atoms: C10_11  and  O2_12 
REMARK    7  A    between atoms: C21_24  and  O3_25 
ROOT
HETATM    1  C6  UNL     1       0.536  -0.995  -0.004  1.00  0.00     0.131 C 
HETATM    2  C7  UNL     1       0.062  -2.171   0.824  1.00  0.00     0.038 C 
HETATM    3  C8  UNL     1      -1.327  -2.609   0.436  1.00  0.00    -0.001 C 
HETATM    4  C9  UNL     1      -1.639  -3.697   1.435  1.00  0.00     0.037 C 
HETATM    5  C10 UNL     1      -3.024  -4.168   1.523  1.00  0.00     0.118 C 
HETATM    6  C11 UNL     1      -3.959  -2.984   1.605  1.00  0.00     0.032 C 
HETATM    7  C12 UNL     1      -3.196  -1.690   1.639  1.00  0.00     0.012 C 
HETATM    8  C13 UNL     1      -2.329  -1.518   0.374  1.00  0.00    -0.036 C 
HETATM    9  C14 UNL     1      -3.309  -1.882  -0.751  1.00  0.00     0.016 C 
HETATM   10  C15 UNL     1      -1.841  -0.133   0.242  1.00  0.00     0.006 C 
HETATM   11  C16 UNL     1      -2.464   0.637  -0.925  1.00  0.00     0.007 C 
HETATM   12  C17 UNL     1      -1.581   0.729  -2.121  1.00  0.00     0.015 C 
HETATM   13  C18 UNL     1      -0.437   1.682  -1.792  1.00  0.00    -0.002 C 
HETATM   14  C19 UNL     1       0.715   1.488  -2.726  1.00  0.00     0.021 C 
HETATM   15  C20 UNL     1      -0.956   3.088  -1.993  1.00  0.00     0.052 C 
HETATM   16  C21 UNL     1      -0.256   4.114  -1.187  1.00  0.00     0.157 C 
HETATM   17  C22 UNL     1       0.908   3.608  -0.373  1.00  0.00     0.092 C 
HETATM   18  N1  UNL     1       0.574   2.367   0.207  1.00  0.00    -0.372 N 
ATOM     19  H1  UNL     1       0.853   2.214   1.176  1.00  0.00     0.164 HD
HETATM   20  C23 UNL     1      -0.051   1.415  -0.381  1.00  0.00     0.001 C 
HETATM   21  C24 UNL     1      -0.376   0.127   0.323  1.00  0.00     0.066 C 
ENDROOT
BRANCH   1  22
HETATM   22  O1  UNL     1       1.813  -0.687   0.528  1.00  0.00    -0.385 OA
BRANCH  22  23
HETATM   23  C5  UNL     1       2.840  -0.877  -0.356  1.00  0.00     0.168 C 
BRANCH  23  24
HETATM   24  C4  UNL     1       4.121  -0.494   0.401  1.00  0.00     0.026 C 
BRANCH  24  25
HETATM   25  C3  UNL     1       4.045   0.952   0.842  1.00  0.00     0.002 C 
BRANCH  25  26
HETATM   26  C2  UNL     1       5.354   1.238   1.580  1.00  0.00    -0.004 C 
HETATM   27  C1  UNL     1       5.392   2.669   2.072  1.00  0.00     0.005 C 
ENDBRANCH  25  26
ENDBRANCH  24  25
ENDBRANCH  23  24
ENDBRANCH  22  23
ENDBRANCH   1  22
BRANCH   5  28
HETATM   28  O2  UNL     1      -3.138  -4.953   2.678  1.00  0.00    -0.396 OA
ATOM     29  H2  UNL     1      -4.036  -5.258   2.735  1.00  0.00     0.210 HD
ENDBRANCH   5  28
BRANCH  16  30
HETATM   30  O3  UNL     1      -1.155   4.717  -0.280  1.00  0.00    -0.390 OA
ATOM     31  H3  UNL     1      -0.706   5.375   0.237  1.00  0.00     0.210 HD
ENDBRANCH  16  30
TORSDOF 7
