REMARK  8 active torsions:
REMARK  status: ('A' for Active; 'I' for Inactive)
REMARK    1  A    between atoms: C2_2  and  C3_3 
REMARK    2  A    between atoms: C3_3  and  C4_4 
REMARK    3  A    between atoms: C4_4  and  C5_5 
REMARK    4  A    between atoms: C5_5  and  O1_6 
REMARK    5  A    between atoms: O1_6  and  C6_7 
REMARK    6  A    between atoms: C6_7  and  C7_9 
REMARK    7  A    between atoms: C16_18  and  O3_19 
REMARK    8  A    between atoms: C22_26  and  O4_27 
ROOT
HETATM    1  C7  UNL     1       1.288  -0.822  -0.481  1.00  0.00     0.092 C 
HETATM    2  C8  UNL     1       1.231   0.409  -1.392  1.00  0.00     0.016 C 
HETATM    3  C9  UNL     1      -0.216   0.452  -1.829  1.00  0.00     0.013 C 
HETATM    4  C10 UNL     1      -1.095   0.780  -0.649  1.00  0.00    -0.008 C 
HETATM    5  C11 UNL     1      -1.442   2.246  -0.711  1.00  0.00     0.019 C 
HETATM    6  C12 UNL     1      -2.207  -0.191  -0.522  1.00  0.00     0.009 C 
HETATM    7  C13 UNL     1      -3.589   0.211  -0.835  1.00  0.00     0.002 C 
HETATM    8  C14 UNL     1      -4.137  -0.367  -2.125  1.00  0.00     0.008 C 
HETATM    9  C15 UNL     1      -5.642  -0.314  -1.917  1.00  0.00     0.033 C 
HETATM   10  C16 UNL     1      -5.851  -0.084  -0.427  1.00  0.00     0.126 C 
HETATM   11  C17 UNL     1      -4.536  -0.475   0.160  1.00  0.00    -0.014 C 
HETATM   12  C18 UNL     1      -4.423  -1.999   0.022  1.00  0.00     0.018 C 
HETATM   13  C19 UNL     1      -4.302  -0.041   1.554  1.00  0.00     0.012 C 
HETATM   14  C20 UNL     1      -2.869   0.337   1.847  1.00  0.00     0.009 C 
HETATM   15  C21 UNL     1      -1.895  -0.352   0.936  1.00  0.00     0.026 C 
HETATM   16  C22 UNL     1      -0.590   0.400   0.679  1.00  0.00     0.073 C 
HETATM   17  C23 UNL     1       0.610  -0.426   0.800  1.00  0.00     0.031 C 
HETATM   18  C24 UNL     1       0.391  -1.732   1.583  1.00  0.00     0.014 C 
ENDROOT
BRANCH   1  19
HETATM   19  C6  UNL     1       2.687  -1.259  -0.249  1.00  0.00     0.263 C 
HETATM   20  O2  UNL     1       3.062  -2.414  -0.589  1.00  0.00    -0.265 OA
BRANCH  19  21
HETATM   21  O1  UNL     1       3.635  -0.437   0.342  1.00  0.00    -0.321 OA
BRANCH  21  22
HETATM   22  C5  UNL     1       4.951  -0.920   0.533  1.00  0.00     0.178 C 
BRANCH  22  23
HETATM   23  C4  UNL     1       5.835   0.116   1.188  1.00  0.00     0.027 C 
BRANCH  23  24
HETATM   24  C3  UNL     1       5.950   1.379   0.373  1.00  0.00     0.002 C 
BRANCH  24  25
HETATM   25  C2  UNL     1       6.531   1.138  -0.989  1.00  0.00    -0.004 C 
HETATM   26  C1  UNL     1       7.933   0.542  -0.908  1.00  0.00     0.005 C 
ENDBRANCH  24  25
ENDBRANCH  23  24
ENDBRANCH  22  23
ENDBRANCH  21  22
ENDBRANCH  19  21
ENDBRANCH   1  19
BRANCH  16  27
HETATM   27  O4  UNL     1      -0.549   1.475   1.603  1.00  0.00    -0.388 OA
ATOM     28  H4  UNL     1      -0.223   1.230   2.461  1.00  0.00     0.210 HD
ENDBRANCH  16  27
BRANCH  10  29
HETATM   29  O3  UNL     1      -6.185   1.243  -0.252  1.00  0.00    -0.395 OA
ATOM     30  H3  UNL     1      -6.315   1.387   0.678  1.00  0.00     0.210 HD
ENDBRANCH  10  29
TORSDOF 8
