REMARK  7 active torsions:
REMARK  status: ('A' for Active; 'I' for Inactive)
REMARK    1  A    between atoms: C2_2  and  C3_3 
REMARK    2  A    between atoms: C3_3  and  C4_4 
REMARK    3  A    between atoms: C4_4  and  O1_5 
REMARK    4  A    between atoms: O1_5  and  C5_6 
REMARK    5  A    between atoms: C10_11  and  O2_12 
REMARK    6  A    between atoms: C15_18  and  O3_19 
REMARK    7  A    between atoms: C21_27  and  C22_28 
ROOT
HETATM    1  C5  UNL     1       3.139   1.151   0.637  1.00  0.00     0.102 A 
HETATM    2  C6  UNL     1       2.021   0.536   0.111  1.00  0.00     0.047 A 
HETATM    3  C7  UNL     1       0.816   0.469   0.773  1.00  0.00    -0.042 A 
HETATM    4  C8  UNL     1       0.700   1.034   2.013  1.00  0.00    -0.049 A 
HETATM    5  C9  UNL     1       1.794   1.650   2.556  1.00  0.00     0.047 A 
HETATM    6  C10 UNL     1       3.010   1.717   1.887  1.00  0.00     0.099 A 
HETATM    7  C11 UNL     1      -0.596   0.954   2.704  1.00  0.00     0.039 C 
HETATM    8  C12 UNL     1      -1.657   1.291   1.713  1.00  0.00     0.010 C 
HETATM    9  C13 UNL     1      -1.587   0.564   0.407  1.00  0.00     0.002 C 
HETATM   10  C14 UNL     1      -0.366  -0.222   0.139  1.00  0.00     0.052 C 
HETATM   11  C15 UNL     1      -0.359  -1.627   0.634  1.00  0.00     0.128 C 
HETATM   12  C16 UNL     1      -1.634  -2.369   0.449  1.00  0.00     0.049 C 
HETATM   13  C17 UNL     1      -2.763  -1.617  -0.103  1.00  0.00     0.023 C 
HETATM   14  C18 UNL     1      -4.061  -2.313   0.340  1.00  0.00     0.024 C 
HETATM   15  C19 UNL     1      -2.828  -1.632  -1.607  1.00  0.00     0.136 C 
HETATM   16  O4  UNL     1      -2.163  -2.207  -2.418  1.00  0.00    -0.297 OA
HETATM   17  C20 UNL     1      -3.982  -0.709  -1.882  1.00  0.00     0.084 C 
HETATM   18  C21 UNL     1      -3.705   0.391  -0.916  1.00  0.00    -0.002 C 
HETATM   19  C24 UNL     1      -2.877  -0.183   0.216  1.00  0.00     0.010 C 
ENDROOT
BRANCH   1  20
HETATM   20  O1  UNL     1       4.350   1.198  -0.071  1.00  0.00    -0.348 OA
BRANCH  20  21
HETATM   21  C4  UNL     1       4.395   0.594  -1.344  1.00  0.00     0.176 C 
BRANCH  21  22
HETATM   22  C3  UNL     1       5.749   0.717  -1.990  1.00  0.00     0.026 C 
BRANCH  22  23
HETATM   23  C2  UNL     1       6.827   0.047  -1.133  1.00  0.00    -0.002 C 
HETATM   24  C1  UNL     1       6.517  -1.430  -0.953  1.00  0.00     0.005 C 
ENDBRANCH  22  23
ENDBRANCH  21  22
ENDBRANCH  20  21
ENDBRANCH   1  20
BRANCH   6  25
HETATM   25  O2  UNL     1       4.126   2.343   2.435  1.00  0.00    -0.358 OA
ATOM     26  H2  UNL     1       4.037   2.733   3.297  1.00  0.00     0.217 HD
ENDBRANCH   6  25
BRANCH  11  27
HETATM   27  O3  UNL     1       0.655  -2.312  -0.083  1.00  0.00    -0.395 OA
ATOM     28  H3  UNL     1       0.659  -3.208   0.233  1.00  0.00     0.210 HD
ENDBRANCH  11  27
BRANCH  18  29
HETATM   29  C22 UNL     1      -4.915   1.135  -0.452  1.00  0.00     0.001 C 
HETATM   30  C23 UNL     1      -5.567   1.742  -1.689  1.00  0.00     0.005 C 
ENDBRANCH  18  29
TORSDOF 7
