REMARK  9 active torsions:
REMARK  status: ('A' for Active; 'I' for Inactive)
REMARK    1  A    between atoms: N1_8  and  C8_9 
REMARK    2  A    between atoms: C8_9  and  C9_10 
REMARK    3  A    between atoms: C9_10  and  C10_11 
REMARK    4  A    between atoms: C10_11  and  C11_12 
REMARK    5  A    between atoms: C12_13  and  C13_14 
REMARK    6  A    between atoms: C13_14  and  C14_15 
REMARK    7  A    between atoms: C15_16  and  O1_17 
REMARK    8  A    between atoms: C17_20  and  O2_21 
REMARK    9  A    between atoms: C19_24  and  N2_25 
ROOT
HETATM    1  C14 UNL     1       3.389  -1.671  -0.805  1.00  0.00     0.013 A 
HETATM    2  C15 UNL     1       3.097  -3.041  -0.775  1.00  0.00     0.077 A 
HETATM    3  C16 UNL     1       3.380  -3.826   0.314  1.00  0.00     0.073 A 
HETATM    4  C17 UNL     1       3.971  -3.275   1.428  1.00  0.00     0.070 A 
HETATM    5  C18 UNL     1       4.263  -1.941   1.414  1.00  0.00     0.066 A 
HETATM    6  C19 UNL     1       3.971  -1.146   0.301  1.00  0.00     0.042 A 
ENDROOT
BRANCH   1   7
HETATM    7  C13 UNL     1       3.015  -0.960  -2.037  1.00  0.00     0.137 C 
BRANCH   7   8
HETATM    8  C12 UNL     1       1.547  -0.731  -2.087  1.00  0.00    -0.102 C 
HETATM    9  C11 UNL     1       0.355  -0.553  -2.152  1.00  0.00    -0.106 C 
BRANCH   9  10
HETATM   10  C10 UNL     1      -1.080  -0.356  -2.253  1.00  0.00     0.095 C 
BRANCH  10  11
HETATM   11  C9  UNL     1      -1.670   0.176  -0.965  1.00  0.00     0.031 C 
BRANCH  11  12
HETATM   12  C8  UNL     1      -3.173   0.326  -1.228  1.00  0.00     0.118 C 
BRANCH  12  13
HETATM   13  N1  UNL     1      -3.789   0.822  -0.047  1.00  0.00    -0.405 N 
HETATM   14  C2  UNL     1      -3.810  -0.068   1.053  1.00  0.00     0.075 C 
HETATM   15  C1  UNL     1      -4.051  -1.503   0.738  1.00  0.00     0.032 C 
HETATM   16  C3  UNL     1      -4.801   0.424   2.088  1.00  0.00     0.024 C 
HETATM   17  C4  UNL     1      -6.211   0.409   1.529  1.00  0.00     0.004 C 
HETATM   18  C5  UNL     1      -6.243   1.026   0.163  1.00  0.00     0.024 C 
HETATM   19  C6  UNL     1      -4.925   1.645  -0.228  1.00  0.00     0.075 C 
HETATM   20  C7  UNL     1      -5.084   2.176  -1.634  1.00  0.00     0.032 C 
ENDBRANCH  12  13
ENDBRANCH  11  12
ENDBRANCH  10  11
ENDBRANCH   9  10
ENDBRANCH   7   8
ENDBRANCH   1   7
BRANCH   2  21
HETATM   21  O1  UNL     1       2.505  -3.640  -1.865  1.00  0.00    -0.360 OA
ATOM     22  H1  UNL     1       2.307  -4.569  -1.845  1.00  0.00     0.217 HD
ENDBRANCH   2  21
BRANCH   6  23
HETATM   23  N2  UNL     1       4.347   0.218   0.415  1.00  0.00    -0.380 N 
HETATM   24  C20 UNL     1       5.435   0.735  -0.360  1.00  0.00     0.123 C 
HETATM   25  C21 UNL     1       5.164   2.146  -0.805  1.00  0.00     0.020 C 
HETATM   26  C22 UNL     1       4.978   2.960   0.469  1.00  0.00     0.003 C 
HETATM   27  C23 UNL     1       3.768   2.485   1.227  1.00  0.00     0.020 C 
HETATM   28  C24 UNL     1       3.616   1.022   1.337  1.00  0.00     0.123 C 
ENDBRANCH   6  23
BRANCH   4  29
HETATM   29  O2  UNL     1       4.256  -4.069   2.526  1.00  0.00    -0.361 OA
ATOM     30  H2  UNL     1       4.664  -3.689   3.295  1.00  0.00     0.217 HD
ENDBRANCH   4  29
TORSDOF 9
