REMARK  8 active torsions:
REMARK  status: ('A' for Active; 'I' for Inactive)
REMARK    1  A    between atoms: C3_3  and  O1_4 
REMARK    2  A    between atoms: C4_6  and  C5_7 
REMARK    3  A    between atoms: C5_7  and  O2_8 
REMARK    4  A    between atoms: C5_7  and  N1_10 
REMARK    5  A    between atoms: N1_10  and  C6_12 
REMARK    6  A    between atoms: N2_20  and  C14_21 
REMARK    7  A    between atoms: C17_24  and  C18_25 
REMARK    8  A    between atoms: C18_25  and  C19_26 
ROOT
HETATM    1  C1  UNL     1       1.092   2.763   2.417  1.00  0.00     0.071 C 
HETATM    2  C2  UNL     1       0.142   1.830   1.743  1.00  0.00     0.042 A 
HETATM    3  C3  UNL     1      -1.213   1.802   1.873  1.00  0.00     0.104 A 
HETATM    4  C4  UNL     1      -1.710   0.782   1.062  1.00  0.00     0.072 A 
HETATM    5  C12 UNL     1      -0.600   0.232   0.468  1.00  0.00     0.025 A 
HETATM    6  C13 UNL     1      -0.648  -0.899  -0.505  1.00  0.00     0.069 C 
HETATM    7  N2  UNL     1       0.533   0.878   0.889  1.00  0.00    -0.346 N 
ENDROOT
BRANCH   4   8
HETATM    8  C5  UNL     1      -3.127   0.479   0.968  1.00  0.00     0.151 C 
BRANCH   8   9
HETATM    9  O2  UNL     1      -3.908   1.235   1.697  1.00  0.00    -0.346 OA
ATOM     10  H2  UNL     1      -4.835   1.037   1.636  1.00  0.00     0.219 HD
ENDBRANCH   8   9
BRANCH   8  11
HETATM   11  N1  UNL     1      -3.745  -0.518   0.195  1.00  0.00    -0.366 N 
ATOM     12  H1  UNL     1      -3.175  -1.131  -0.388  1.00  0.00     0.162 HD
BRANCH  11  13
HETATM   13  C6  UNL     1      -5.200  -0.686   0.218  1.00  0.00     0.083 C 
HETATM   14  C7  UNL     1      -5.590  -2.045   0.767  1.00  0.00     0.025 C 
HETATM   15  C8  UNL     1      -7.100  -1.961   1.021  1.00  0.00     0.002 C 
HETATM   16  C9  UNL     1      -7.821  -1.745  -0.278  1.00  0.00     0.000 C 
HETATM   17  C10 UNL     1      -7.304  -0.539  -1.004  1.00  0.00     0.002 C 
HETATM   18  C11 UNL     1      -5.811  -0.518  -1.132  1.00  0.00     0.025 C 
ENDBRANCH  11  13
ENDBRANCH   8  11
ENDBRANCH   4   8
BRANCH   3  19
HETATM   19  O1  UNL     1      -1.917   2.666   2.687  1.00  0.00    -0.358 OA
ATOM     20  H1  UNL     1      -2.862   2.646   2.778  1.00  0.00     0.217 HD
ENDBRANCH   3  19
BRANCH   7  21
HETATM   21  C14 UNL     1       1.815   0.495   0.429  1.00  0.00     0.090 C 
HETATM   22  C15 UNL     1       3.002   0.803   1.236  1.00  0.00     0.026 C 
HETATM   23  C16 UNL     1       4.218   0.117   0.584  1.00  0.00     0.007 C 
HETATM   24  C17 UNL     1       4.244   0.017  -0.871  1.00  0.00    -0.014 C 
HETATM   25  C22 UNL     1       3.000   0.280  -1.661  1.00  0.00     0.007 C 
HETATM   26  C23 UNL     1       2.078   1.175  -0.924  1.00  0.00     0.026 C 
BRANCH  24  27
HETATM   27  C18 UNL     1       5.467   0.583  -1.567  1.00  0.00     0.013 C 
BRANCH  27  28
HETATM   28  C19 UNL     1       6.773   0.005  -1.328  1.00  0.00     0.034 C 
HETATM   29  C20 UNL     1       6.967  -1.467  -1.710  1.00  0.00     0.174 C 
HETATM   30  O3  UNL     1       7.963  -1.480  -0.695  1.00  0.00    -0.390 OA
HETATM   31  C21 UNL     1       7.280  -0.410  -0.001  1.00  0.00     0.174 C 
ENDBRANCH  27  28
ENDBRANCH  24  27
ENDBRANCH   7  21
TORSDOF 8
