REMARK  8 active torsions:
REMARK  status: ('A' for Active; 'I' for Inactive)
REMARK    1  A    between atoms: C2_2  and  C3_3 
REMARK    2  A    between atoms: C3_3  and  C4_5 
REMARK    3  A    between atoms: C4_5  and  C5_6 
REMARK    4  A    between atoms: C5_6  and  C8_9 
REMARK    5  A    between atoms: C11_12  and  C13_14 
REMARK    6  A    between atoms: C13_14  and  C14_16 
REMARK    7  A    between atoms: C14_16  and  O3_17 
REMARK    8  A    between atoms: C19_23  and  O4_24 
ROOT
HETATM    1  C8  UNL     1       1.768  -0.986   0.733  1.00  0.00     0.029 C 
HETATM    2  C9  UNL     1       0.489  -0.182   0.820  1.00  0.00    -0.015 C 
HETATM    3  C10 UNL     1      -0.305  -1.117   0.320  1.00  0.00    -0.059 C 
HETATM    4  C11 UNL     1      -1.631  -1.603  -0.106  1.00  0.00     0.044 C 
HETATM    5  C12 UNL     1      -2.318  -2.487   0.912  1.00  0.00     0.028 C 
HETATM    6  C20 UNL     1      -1.418  -2.490  -1.342  1.00  0.00     0.022 C 
HETATM    7  C21 UNL     1      -0.397  -3.546  -1.149  1.00  0.00     0.002 C 
HETATM    8  C22 UNL     1       0.972  -2.932  -0.813  1.00  0.00     0.014 C 
HETATM    9  C23 UNL     1       0.903  -2.043   0.341  1.00  0.00    -0.012 C 
HETATM   10  C24 UNL     1       0.678  -2.985   1.577  1.00  0.00     0.021 C 
ENDROOT
BRANCH   4  11
HETATM   11  C13 UNL     1      -2.528  -0.511  -0.529  1.00  0.00     0.176 C 
HETATM   12  O2  UNL     1      -2.933  -0.484  -1.676  1.00  0.00    -0.293 OA
BRANCH  11  13
HETATM   13  C14 UNL     1      -2.990   0.591   0.354  1.00  0.00     0.144 C 
HETATM   14  C15 UNL     1      -2.537   1.896  -0.257  1.00  0.00     0.049 C 
HETATM   15  C16 UNL     1      -3.323   3.020   0.409  1.00  0.00     0.004 C 
HETATM   16  C17 UNL     1      -4.754   3.055  -0.101  1.00  0.00     0.003 C 
HETATM   17  C18 UNL     1      -5.049   1.657  -0.614  1.00  0.00     0.035 C 
HETATM   18  C19 UNL     1      -4.516   0.629   0.346  1.00  0.00     0.160 C 
BRANCH  13  19
HETATM   19  O3  UNL     1      -2.523   0.540   1.641  1.00  0.00    -0.379 OA
ATOM     20  H3  UNL     1      -2.818   1.245   2.206  1.00  0.00     0.211 HD
ENDBRANCH  13  19
BRANCH  18  21
HETATM   21  O4  UNL     1      -5.037   0.922   1.605  1.00  0.00    -0.392 OA
ATOM     22  H4  UNL     1      -5.987   0.946   1.600  1.00  0.00     0.210 HD
ENDBRANCH  18  21
ENDBRANCH  11  13
ENDBRANCH   4  11
BRANCH   1  23
HETATM   23  C5  UNL     1       2.750  -0.227  -0.088  1.00  0.00    -0.033 C 
HETATM   24  C6  UNL     1       4.075  -0.915  -0.233  1.00  0.00     0.016 C 
HETATM   25  C7  UNL     1       2.166   0.240  -1.405  1.00  0.00     0.016 C 
BRANCH  23  26
HETATM   26  C4  UNL     1       3.030   1.085   0.675  1.00  0.00     0.087 C 
BRANCH  26  27
HETATM   27  C3  UNL     1       3.969   1.975   0.013  1.00  0.00     0.127 C 
HETATM   28  O1  UNL     1       3.639   2.660  -0.930  1.00  0.00    -0.298 OA
BRANCH  27  29
HETATM   29  C2  UNL     1       5.394   2.103   0.451  1.00  0.00     0.074 C 
HETATM   30  C1  UNL     1       6.164   3.089  -0.388  1.00  0.00     0.013 C 
ENDBRANCH  27  29
ENDBRANCH  26  27
ENDBRANCH  23  26
ENDBRANCH   1  23
TORSDOF 8
