REMARK  3 active torsions:
REMARK  status: ('A' for Active; 'I' for Inactive)
REMARK    1  A    between atoms: C1_4  and  C2_5 
REMARK    2  A    between atoms: C1_4  and  N2_8 
REMARK    3  A    between atoms: C8_15  and  C9_16 
ROOT
HETATM    1  N2  UNL     1       2.246   0.331  -0.156  1.00  0.00    -0.366 N 
HETATM    2  C3  UNL     1       1.555  -0.662   0.641  1.00  0.00     0.152 C 
HETATM    3  C4  UNL     1       0.136  -0.118   0.793  1.00  0.00     0.257 C 
HETATM    4  N3  UNL     1      -0.521   0.011  -0.464  1.00  0.00    -0.063 N 
HETATM    5  C5  UNL     1      -0.871  -1.282  -1.015  1.00  0.00     0.237 C 
HETATM    6  C6  UNL     1      -1.771  -2.091  -0.146  1.00  0.00     0.029 C 
HETATM    7  C7  UNL     1      -2.894  -1.370   0.481  1.00  0.00     0.019 C 
HETATM    8  C8  UNL     1      -2.633   0.069   0.820  1.00  0.00     0.113 C 
HETATM    9  C10 UNL     1      -1.785   0.700  -0.242  1.00  0.00     0.253 C 
HETATM   10  C11 UNL     1       0.194   0.755  -1.457  1.00  0.00     0.257 C 
HETATM   11  C12 UNL     1       1.662   0.678  -1.427  1.00  0.00     0.152 C 
ENDROOT
BRANCH   8  12
HETATM   12  C9  UNL     1      -3.899   0.815   0.883  1.00  0.00     0.178 C 
HETATM   13  O1  UNL     1      -4.977   0.240   0.670  1.00  0.00    -0.648 OA
HETATM   14  O2  UNL     1      -3.894   2.153   1.179  1.00  0.00    -0.648 OA
ENDBRANCH   8  12
BRANCH   1  15
HETATM   15  C1  UNL     1       3.441   0.920   0.319  1.00  0.00     0.098 C 
HETATM   16  N1  UNL     1       3.381   2.094   0.845  1.00  0.00    -0.387 N 
ATOM     17  H12 UNL     1       4.243   2.519   1.188  1.00  0.00     0.157 HD
ATOM     18  H11 UNL     1       2.491   2.588   0.917  1.00  0.00     0.157 HD
BRANCH  15  19
HETATM   19  C2  UNL     1       4.733   0.203   0.214  1.00  0.00     0.196 C 
HETATM   20 BR1  UNL     1       5.179  -0.197  -1.623  1.00  0.00    -0.071 Br
HETATM   21 BR2  UNL     1       4.722  -1.416   1.291  1.00  0.00    -0.071 Br
ENDBRANCH  15  19
ENDBRANCH   1  15
TORSDOF 3
