REMARK  2 active torsions:
REMARK  status: ('A' for Active; 'I' for Inactive)
REMARK    1  A    between atoms: C5_5  and  C6_6 
REMARK       I    between atoms: N2_9  and  C7_10 
REMARK       I    between atoms: C7_10  and  N4_19 
REMARK       I    between atoms: N3_11  and  C8_13 
REMARK    2  A    between atoms: C8_13  and  C9_15 
ROOT
HETATM    1  C1  UNL     1      -3.243   3.498   1.587  1.00  0.00     0.012 C 
HETATM    2  C2  UNL     1      -2.378   2.848   1.062  1.00  0.00    -0.111 C 
HETATM    3  C3  UNL     1      -1.350   2.048   0.417  1.00  0.00     0.085 C 
HETATM    4  C4  UNL     1      -1.974   1.249  -0.737  1.00  0.00     0.054 C 
HETATM    5  C5  UNL     1      -0.799   0.310  -1.040  1.00  0.00     0.192 C 
HETATM    6  N2  UNL     1      -0.372  -0.064   0.280  1.00  0.00    -0.203 N 
HETATM    7  C7  UNL     1       0.409  -1.164   0.722  1.00  0.00     0.679 C 
HETATM    8  N3  UNL     1       1.676  -1.150   0.564  1.00  0.00    -0.158 N 
ATOM      9  H3  UNL     1       2.203  -1.958   0.896  1.00  0.00     0.187 HD
HETATM   10  C8  UNL     1       2.406  -0.090  -0.041  1.00  0.00     0.266 C 
HETATM   11  O2  UNL     1       2.171   1.112   0.233  1.00  0.00    -0.270 OA
HETATM   12  N4  UNL     1      -0.171  -2.298   1.350  1.00  0.00    -0.230 N 
ATOM     13  H4  UNL     1       0.095  -3.230   1.032  1.00  0.00     0.177 HD
HETATM   14  C11 UNL     1      -1.124  -2.172   2.423  1.00  0.00     0.165 C 
HETATM   15  C12 UNL     1      -0.873   0.905   1.275  1.00  0.00     0.159 C 
ENDROOT
BRANCH   5  16
HETATM   16  C6  UNL     1      -1.206  -0.798  -1.908  1.00  0.00     0.254 C 
HETATM   17  N1  UNL     1      -1.224  -2.165  -1.593  1.00  0.00    -0.060 NA
HETATM   18  O1  UNL     1      -1.586  -0.464  -3.083  1.00  0.00    -0.275 OA
ENDBRANCH   5  16
BRANCH  10  19
HETATM   19  C9  UNL     1       3.477  -0.384  -1.022  1.00  0.00     0.153 C 
HETATM   20  C10 UNL     1       4.062   0.922  -1.492  1.00  0.00     0.051 C 
HETATM   21 BR1  UNL     1       2.749  -1.297  -2.581  1.00  0.00    -0.063 Br
HETATM   22 BR2  UNL     1       4.891  -1.435  -0.229  1.00  0.00    -0.063 Br
ENDBRANCH  10  19
TORSDOF 2
