REMARK  4 active torsions:
REMARK  status: ('A' for Active; 'I' for Inactive)
REMARK    1  A    between atoms: O1_2  and  C2_3 
REMARK    2  A    between atoms: C6_10  and  C7_11 
REMARK    3  A    between atoms: C7_11  and  N2_12 
REMARK    4  A    between atoms: C12_20  and  N3_21 
ROOT
HETATM    1  N2  UNL     1       1.472  -0.177  -0.589  1.00  0.00    -0.315 N 
HETATM    2  C8  UNL     1       2.164  -1.264  -1.049  1.00  0.00     0.118 A 
HETATM    3  C9  UNL     1       3.355  -1.703  -0.582  1.00  0.00     0.045 A 
HETATM    4 BR1  UNL     1       4.227  -3.222  -1.327  1.00  0.00    -0.048 Br
HETATM    5  C10 UNL     1       3.946  -1.005   0.457  1.00  0.00     0.051 A 
HETATM    6 BR2  UNL     1       5.628  -1.593   1.111  1.00  0.00    -0.048 Br
HETATM    7  C11 UNL     1       3.285   0.088   0.946  1.00  0.00     0.075 A 
HETATM    8 BR3  UNL     1       4.089   1.053   2.379  1.00  0.00    -0.045 Br
HETATM    9  C12 UNL     1       2.046   0.480   0.403  1.00  0.00     0.144 A 
ENDROOT
BRANCH   1  10
HETATM   10  C7  UNL     1       0.270   0.117  -1.278  1.00  0.00     0.113 C 
BRANCH  10  11
HETATM   11  C6  UNL     1      -0.992  -0.342  -0.743  1.00  0.00     0.029 A 
HETATM   12  C2  UNL     1      -1.898   0.502  -0.147  1.00  0.00     0.086 A 
HETATM   13  C3  UNL     1      -3.042   0.010   0.439  1.00  0.00     0.112 A 
HETATM   14  C4  UNL     1      -3.242  -1.360   0.403  1.00  0.00     0.247 A 
HETATM   15  O2  UNL     1      -4.296  -1.807   0.946  1.00  0.00    -0.268 OA
HETATM   16  N1  UNL     1      -2.359  -2.183  -0.182  1.00  0.00    -0.333 N 
HETATM   17  C5  UNL     1      -1.259  -1.701  -0.744  1.00  0.00     0.107 A 
ATOM     18  H1  UNL     1      -2.535  -3.188  -0.195  1.00  0.00     0.168 HD
BRANCH  12  19
HETATM   19  O1  UNL     1      -1.711   1.898  -0.110  1.00  0.00    -0.355 OA
HETATM   20  C1  UNL     1      -2.618   2.797   0.475  1.00  0.00     0.210 C 
ENDBRANCH  12  19
ENDBRANCH  10  11
ENDBRANCH   1  10
BRANCH   9  21
HETATM   21  N3  UNL     1       1.471   1.619   1.001  1.00  0.00    -0.290 N 
HETATM   22  N4  UNL     1       1.617   2.769   0.513  1.00  0.00    -0.344 N 
ATOM     23  H42 UNL     1       2.170   2.862  -0.339  1.00  0.00     0.176 HD
ATOM     24  H41 UNL     1       1.201   3.593   0.946  1.00  0.00     0.176 HD
ATOM     25  H3  UNL     1       0.921   1.508   1.853  1.00  0.00     0.188 HD
ENDBRANCH   9  21
TORSDOF 4
