REMARK  8 active torsions:
REMARK  status: ('A' for Active; 'I' for Inactive)
REMARK    1  A    between atoms: N1_4  and  C4_5 
REMARK    2  A    between atoms: C4_5  and  N2_6 
REMARK    3  A    between atoms: C7_10  and  C8_11 
REMARK    4  A    between atoms: C12_20  and  N5_21 
REMARK    5  A    between atoms: N5_21  and  C13_23 
REMARK    6  A    between atoms: C13_23  and  C14_24 
REMARK    7  A    between atoms: C14_24  and  C15_25 
REMARK    8  A    between atoms: C21_33  and  O1_34 
ROOT
HETATM    1  N2  UNL     1      -0.815  -0.382  -0.678  1.00  0.00    -0.175 N 
HETATM    2  C5  UNL     1      -1.407   0.756  -1.077  1.00  0.00     0.132 A 
HETATM    3  C6  UNL     1      -0.899   1.983  -0.673  1.00  0.00     0.056 A 
HETATM    4 BR1  UNL     1      -1.856   3.526  -1.266  1.00  0.00    -0.047 Br
HETATM    5  C7  UNL     1       0.202   2.035   0.129  1.00  0.00     0.094 A 
HETATM    6  N4  UNL     1       0.745   0.838   0.490  1.00  0.00    -0.188 N 
ATOM      7  H4  UNL     1       1.570   0.852   1.090  1.00  0.00     0.184 HD
HETATM    8  C12 UNL     1       0.269  -0.356   0.111  1.00  0.00     0.685 A 
ENDROOT
BRANCH   1   9
HETATM    9  C4  UNL     1      -1.404  -1.652  -1.128  1.00  0.00     0.277 C 
BRANCH   9  10
HETATM   10  N1  UNL     1      -2.453  -2.078  -0.229  1.00  0.00    -0.348 N 
HETATM   11  C3  UNL     1      -3.720  -1.637  -0.405  1.00  0.00     0.101 A 
HETATM   12  C2  UNL     1      -4.769  -2.012   0.379  1.00  0.00    -0.013 A 
HETATM   13  C1  UNL     1      -6.163  -1.516   0.179  1.00  0.00     0.052 C 
HETATM   14  C21 UNL     1      -4.541  -2.886   1.408  1.00  0.00     0.074 A 
HETATM   15  C20 UNL     1      -3.261  -3.330   1.583  1.00  0.00     0.054 A 
HETATM   16  C19 UNL     1      -2.225  -2.928   0.767  1.00  0.00     0.095 A 
BRANCH  14  17
HETATM   17  O1  UNL     1      -5.597  -3.281   2.220  1.00  0.00    -0.360 OA
ATOM     18  H1  UNL     1      -5.439  -3.887   2.934  1.00  0.00     0.217 HD
ENDBRANCH  14  17
ENDBRANCH   9  10
ENDBRANCH   1   9
BRANCH   8  19
HETATM   19  N5  UNL     1       0.854  -1.407   0.496  1.00  0.00    -0.205 N 
ATOM     20  H5  UNL     1       0.416  -2.259   0.146  1.00  0.00     0.183 HD
BRANCH  19  21
HETATM   21  C13 UNL     1       1.973  -1.656   1.299  1.00  0.00     0.083 C 
BRANCH  21  22
HETATM   22  C14 UNL     1       3.255  -1.989   0.569  1.00  0.00     0.085 C 
BRANCH  22  23
HETATM   23  C15 UNL     1       3.712  -0.917  -0.339  1.00  0.00    -0.037 A 
HETATM   24  C16 UNL     1       4.540   0.154  -0.062  1.00  0.00     0.025 A 
HETATM   25  C17 UNL     1       4.699   0.891  -1.215  1.00  0.00     0.088 A 
HETATM   26  N6  UNL     1       3.990   0.295  -2.187  1.00  0.00    -0.375 N 
HETATM   27  C18 UNL     1       3.381  -0.811  -1.665  1.00  0.00     0.095 A 
ATOM     28  H6  UNL     1       3.918   0.614  -3.153  1.00  0.00     0.164 HD
ENDBRANCH  22  23
ENDBRANCH  21  22
ENDBRANCH  19  21
ENDBRANCH   8  19
BRANCH   5  29
HETATM   29  C8  UNL     1       0.826   3.276   0.563  1.00  0.00     0.062 A 
HETATM   30  C9  UNL     1       1.814   3.318   1.572  1.00  0.00     0.052 A 
HETATM   31  C10 UNL     1       2.192   4.610   1.800  1.00  0.00     0.028 A 
HETATM   32 BR2  UNL     1       3.504   5.239   3.070  1.00  0.00    -0.050 Br
HETATM   33  C11 UNL     1       1.454   5.376   0.948  1.00  0.00     0.107 A 
HETATM   34  N3  UNL     1       0.649   4.539   0.224  1.00  0.00    -0.363 N 
ATOM     35  H3  UNL     1      -0.008   4.853  -0.490  1.00  0.00     0.165 HD
ENDBRANCH   5  29
TORSDOF 8
