REMARK  7 active torsions:
REMARK  status: ('A' for Active; 'I' for Inactive)
REMARK    1  A    between atoms: S1_2  and  C2_3 
REMARK    2  A    between atoms: C2_3  and  C3_4 
REMARK    3  A    between atoms: C3_4  and  C4_5 
REMARK    4  A    between atoms: N1_12  and  C10_14 
REMARK    5  A    between atoms: C10_14  and  C11_15 
REMARK    6  A    between atoms: C10_14  and  C13_22 
REMARK       I    between atoms: C11_15  and  N2_17 
REMARK       I    between atoms: C13_22  and  N5_24 
REMARK    7  A    between atoms: N5_24  and  C14_26 
ROOT
HETATM    1  C10 UNL     1       0.618   1.003  -0.670  1.00  0.00     0.268 C 
ENDROOT
BRANCH   1   2
HETATM    2  N1  UNL     1      -0.291   0.134   0.164  1.00  0.00    -0.364 N 
HETATM    3  C2  UNL     1      -1.195  -0.589  -0.411  1.00  0.00     0.067 C 
ATOM      4  H1  UNL     1      -0.192   0.117   1.179  1.00  0.00     0.161 HD
BRANCH   3   5
HETATM    5  S1  UNL     1      -2.282   1.145  -1.081  1.00  0.00    -0.117 SA
HETATM    6  C1  UNL     1      -3.430   1.462  -1.820  1.00  0.00     0.097 C 
ENDBRANCH   3   5
BRANCH   3   7
HETATM    7  C3  UNL     1      -2.180  -1.372  -1.053  1.00  0.00     0.048 C 
BRANCH   7   8
HETATM    8  C4  UNL     1      -3.333  -1.603  -0.122  1.00  0.00    -0.034 A 
HETATM    9  C5  UNL     1      -4.620  -1.785  -0.569  1.00  0.00     0.013 A 
HETATM   10  C6  UNL     1      -5.666  -1.965   0.300  1.00  0.00     0.020 A 
HETATM   11  C7  UNL     1      -5.336  -1.953   1.649  1.00  0.00     0.011 A 
HETATM   12 BR1  UNL     1      -6.775  -2.236   2.864  1.00  0.00    -0.051 Br
HETATM   13  C8  UNL     1      -4.071  -1.775   2.143  1.00  0.00     0.020 A 
HETATM   14  C9  UNL     1      -3.046  -1.595   1.244  1.00  0.00     0.013 A 
ENDBRANCH   7   8
ENDBRANCH   3   7
ENDBRANCH   1   2
BRANCH   1  15
HETATM   15  C11 UNL     1       1.448   1.940   0.057  1.00  0.00     0.256 C 
HETATM   16  O1  UNL     1       2.237   1.603   0.958  1.00  0.00    -0.270 OA
HETATM   17  N2  UNL     1       1.313   3.296  -0.294  1.00  0.00    -0.301 N 
HETATM   18  C12 UNL     1       1.414   4.435   0.034  1.00  0.00     0.203 C 
ATOM     19  H2  UNL     1       0.981   3.307  -1.258  1.00  0.00     0.171 HD
HETATM   20  N3  UNL     1       1.867   4.868   1.311  1.00  0.00    -0.066 NA
HETATM   21  N4  UNL     1       0.942   5.545  -0.800  1.00  0.00    -0.066 NA
ENDBRANCH   1  15
BRANCH   1  22
HETATM   22  C13 UNL     1       1.379  -0.202  -1.303  1.00  0.00     0.255 C 
HETATM   23  O2  UNL     1       1.224  -0.298  -2.582  1.00  0.00    -0.270 OA
HETATM   24  N5  UNL     1       2.109  -1.087  -0.663  1.00  0.00    -0.311 N 
ATOM     25  H5  UNL     1       1.387  -1.702  -0.289  1.00  0.00     0.170 HD
BRANCH  24  26
HETATM   26  C14 UNL     1       3.099  -1.617  -0.248  1.00  0.00     0.107 A 
HETATM   27  C15 UNL     1       4.342  -1.034  -0.563  1.00  0.00     0.048 A 
HETATM   28  C16 UNL     1       5.487  -1.635  -0.154  1.00  0.00     0.005 A 
HETATM   29  C17 UNL     1       5.408  -2.793   0.557  1.00  0.00     0.017 A 
HETATM   30  C18 UNL     1       4.215  -3.392   0.885  1.00  0.00     0.089 A 
HETATM   31  N6  UNL     1       3.101  -2.793   0.478  1.00  0.00    -0.352 N 
ATOM     32  H6  UNL     1       2.205  -3.221   0.712  1.00  0.00     0.166 HD
ENDBRANCH  24  26
ENDBRANCH   1  22
TORSDOF 7
