REMARK  6 active torsions:
REMARK  status: ('A' for Active; 'I' for Inactive)
REMARK    1  A    between atoms: C1_2  and  C2_3 
REMARK    2  A    between atoms: C1_2  and  C8_10 
REMARK    3  A    between atoms: C8_10  and  N1_11 
REMARK    4  A    between atoms: C8_10  and  C14_20 
REMARK       I    between atoms: N1_11  and  C9_13 
REMARK    5  A    between atoms: C9_13  and  C10_15 
REMARK    6  A    between atoms: C10_15  and  N2_16 
REMARK       I    between atoms: C14_20  and  N3_22 
REMARK       I    between atoms: C15_24  and  N5_26 
REMARK       I    between atoms: N5_26  and  C16_28 
ROOT
HETATM    1  C8  UNL     1      -1.094   0.007   0.226  1.00  0.00     0.194 C 
ENDROOT
BRANCH   1   2
HETATM    2  C1  UNL     1      -1.436   1.265   0.929  1.00  0.00    -0.099 C 
HETATM    3  B1  UNL     1      -0.442   1.672   2.133  1.00  0.00     0.132 B 
BRANCH   2   4
HETATM    4  C2  UNL     1      -1.772   2.509   0.218  1.00  0.00    -0.044 A 
HETATM    5  C3  UNL     1      -0.877   3.169  -0.582  1.00  0.00     0.012 A 
HETATM    6  C4  UNL     1      -1.195   4.406  -1.173  1.00  0.00     0.020 A 
HETATM    7  C5  UNL     1      -2.402   4.990  -0.969  1.00  0.00     0.011 A 
HETATM    8 BR1  UNL     1      -2.872   6.686  -1.761  1.00  0.00    -0.051 Br
HETATM    9  C6  UNL     1      -3.314   4.351  -0.176  1.00  0.00     0.020 A 
HETATM   10  C7  UNL     1      -3.010   3.142   0.403  1.00  0.00     0.012 A 
ENDBRANCH   2   4
ENDBRANCH   1   2
BRANCH   1  11
HETATM   11  N1  UNL     1       0.208  -0.068  -0.408  1.00  0.00    -0.344 N 
HETATM   12  C9  UNL     1       1.454  -0.299   0.224  1.00  0.00     0.244 C 
HETATM   13  O1  UNL     1       1.625  -0.419   1.458  1.00  0.00    -0.272 OA
ATOM     14  H1  UNL     1       0.229   0.060  -1.420  1.00  0.00     0.163 HD
BRANCH  12  15
HETATM   15  C10 UNL     1       2.683  -0.411  -0.605  1.00  0.00     0.338 C 
BRANCH  15  16
HETATM   16  N2  UNL     1       3.932  -0.426   0.054  1.00  0.00    -0.070 N 
HETATM   17  C11 UNL     1       4.083  -1.302   1.132  1.00  0.00     0.272 C 
HETATM   18  C12 UNL     1       4.914  -0.866  -0.978  1.00  0.00     0.272 C 
HETATM   19  C13 UNL     1       4.340   0.947   0.384  1.00  0.00     0.272 C 
ENDBRANCH  15  16
ENDBRANCH  12  15
ENDBRANCH   1  11
BRANCH   1  20
HETATM   20  C14 UNL     1      -2.120  -0.291  -0.771  1.00  0.00     0.250 C 
HETATM   21  O2  UNL     1      -2.979   0.643  -1.049  1.00  0.00    -0.270 OA
HETATM   22  N3  UNL     1      -2.276  -1.439  -1.486  1.00  0.00    -0.299 N 
HETATM   23  C15 UNL     1      -2.548  -2.656  -1.208  1.00  0.00     0.198 C 
ATOM     24  H3  UNL     1      -2.144  -1.292  -2.487  1.00  0.00     0.171 HD
HETATM   25  N4  UNL     1      -2.609  -3.523  -2.345  1.00  0.00    -0.063 NA
HETATM   26  N5  UNL     1      -2.749  -3.090   0.102  1.00  0.00    -0.285 N 
HETATM   27  C16 UNL     1      -3.060  -4.389   0.488  1.00  0.00     0.335 C 
ATOM     28  H5  UNL     1      -2.660  -2.393   0.842  1.00  0.00     0.172 HD
HETATM   29  N6  UNL     1      -3.235  -4.622   1.888  1.00  0.00    -0.040 NA
HETATM   30  O3  UNL     1      -3.186  -5.338  -0.309  1.00  0.00    -0.251 OA
ENDBRANCH   1  20
TORSDOF 6
