REMARK  8 active torsions:
REMARK  status: ('A' for Active; 'I' for Inactive)
REMARK       I    between atoms: C1_4  and  N3_6 
REMARK       I    between atoms: N3_6  and  C2_7 
REMARK    1  A    between atoms: C2_7  and  C3_9 
REMARK    2  A    between atoms: C6_12  and  C7_13 
REMARK    3  A    between atoms: N4_16  and  C10_17 
REMARK    4  A    between atoms: C10_17  and  C11_18 
REMARK    5  A    between atoms: C11_18  and  N5_19 
REMARK    6  A    between atoms: C11_18  and  C12_23 
REMARK    7  A    between atoms: N6_27  and  C16_28 
REMARK    8  A    between atoms: C16_28  and  C17_29 
ROOT
HETATM    1  C7  UNL     1      -2.763   0.098  -0.717  1.00  0.00     0.045 A 
HETATM    2  C8  UNL     1      -2.215   0.703  -1.824  1.00  0.00     0.037 A 
HETATM    3  C9  UNL     1      -0.836   0.640  -1.932  1.00  0.00     0.111 A 
HETATM    4  N4  UNL     1      -0.028   0.041  -1.041  1.00  0.00    -0.298 N 
HETATM    5  N7  UNL     1      -0.608  -0.530   0.011  1.00  0.00    -0.264 N 
ATOM      6  H7  UNL     1      -0.022  -0.995   0.704  1.00  0.00     0.190 HD
HETATM    7  C24 UNL     1      -1.951  -0.516   0.194  1.00  0.00     0.271 A 
HETATM    8  O2  UNL     1      -2.420  -1.094   1.241  1.00  0.00    -0.266 OA
ENDROOT
BRANCH   4   9
HETATM    9  C10 UNL     1       1.420   0.040  -1.236  1.00  0.00     0.186 C 
BRANCH   9  10
HETATM   10  C11 UNL     1       2.048   1.256  -0.602  1.00  0.00     0.237 C 
BRANCH  10  11
HETATM   11  N5  UNL     1       1.497   2.484  -1.171  1.00  0.00    -0.069 N 
ATOM     12  H53 UNL     1       1.585   2.501  -2.187  1.00  0.00     0.275 HD
ATOM     13  H52 UNL     1       0.479   2.507  -1.104  1.00  0.00     0.275 HD
ATOM     14  H51 UNL     1       1.922   3.306  -0.742  1.00  0.00     0.275 HD
ENDBRANCH  10  11
BRANCH  10  15
HETATM   15  C12 UNL     1       3.530   1.277  -0.827  1.00  0.00    -0.011 A 
HETATM   16  C13 UNL     1       3.981   1.632  -2.104  1.00  0.00     0.012 A 
HETATM   17  C14 UNL     1       5.332   1.668  -2.309  1.00  0.00     0.018 A 
HETATM   18  C15 UNL     1       6.201   1.366  -1.298  1.00  0.00     0.090 A 
HETATM   19  N6  UNL     1       5.784   1.021  -0.056  1.00  0.00    -0.362 N 
HETATM   20  C23 UNL     1       4.459   0.988   0.138  1.00  0.00     0.100 A 
BRANCH  19  21
HETATM   21  C16 UNL     1       6.787   0.736   0.945  1.00  0.00     0.166 C 
BRANCH  21  22
HETATM   22  C17 UNL     1       7.139  -0.705   0.892  1.00  0.00    -0.040 A 
HETATM   23  C18 UNL     1       6.522  -1.638   1.694  1.00  0.00     0.010 A 
HETATM   24  C19 UNL     1       6.853  -2.981   1.653  1.00  0.00     0.019 A 
HETATM   25  C20 UNL     1       7.825  -3.448   0.799  1.00  0.00     0.011 A 
HETATM   26 BR1  UNL     1       8.304  -5.299   0.737  1.00  0.00    -0.051 Br
HETATM   27  C21 UNL     1       8.446  -2.515  -0.009  1.00  0.00     0.019 A 
HETATM   28  C22 UNL     1       8.114  -1.178   0.036  1.00  0.00     0.010 A 
ENDBRANCH  21  22
ENDBRANCH  19  21
ENDBRANCH  10  15
ENDBRANCH   9  10
ENDBRANCH   4   9
BRANCH   1  29
HETATM   29  C6  UNL     1      -4.212   0.155  -0.539  1.00  0.00    -0.020 A 
HETATM   30  C5  UNL     1      -4.696   0.451   0.711  1.00  0.00     0.013 A 
HETATM   31  C4  UNL     1      -6.087   0.522   0.866  1.00  0.00     0.019 A 
HETATM   32  C3  UNL     1      -6.941   0.305  -0.180  1.00  0.00     0.046 A 
HETATM   33  C26 UNL     1      -6.404   0.013  -1.405  1.00  0.00     0.019 A 
HETATM   34  C25 UNL     1      -5.036  -0.069  -1.612  1.00  0.00     0.013 A 
BRANCH  32  35
HETATM   35  C2  UNL     1      -8.429   0.391   0.024  1.00  0.00     0.328 C 
HETATM   36  N3  UNL     1      -9.047  -0.215   1.043  1.00  0.00    -0.334 NA
HETATM   37  C1  UNL     1      -9.682  -0.838   2.090  1.00  0.00     0.264 C 
HETATM   38  N1  UNL     1      -8.862  -1.535   2.898  1.00  0.00    -0.362 N 
HETATM   39  N2  UNL     1     -11.057  -0.847   2.428  1.00  0.00    -0.049 NA
ATOM     40  H12 UNL     1      -9.333  -1.998   3.675  1.00  0.00     0.159 HD
ATOM     41  H11 UNL     1      -7.872  -1.529   2.655  1.00  0.00     0.159 HD
HETATM   42  O1  UNL     1      -8.962   1.103  -0.894  1.00  0.00    -0.251 OA
ENDBRANCH  32  35
ENDBRANCH   1  29
TORSDOF 8
