REMARK  9 active torsions:
REMARK  status: ('A' for Active; 'I' for Inactive)
REMARK    1  A    between atoms: N2_4  and  C3_5 
REMARK    2  A    between atoms: C3_5  and  C4_6 
REMARK    3  A    between atoms: C8_11  and  C9_12 
REMARK    4  A    between atoms: C12_17  and  N4_18 
REMARK    5  A    between atoms: N5_21  and  C13_22 
REMARK    6  A    between atoms: C13_22  and  C14_23 
REMARK    7  A    between atoms: C17_26  and  C18_27 
REMARK    8  A    between atoms: C21_30  and  S1_31 
REMARK    9  A    between atoms: S1_31  and  N6_32 
ROOT
HETATM    1  C9  UNL     1      -2.546  -2.523   0.182  1.00  0.00     0.080 A 
HETATM    2  C10 UNL     1      -2.877  -3.753  -0.405  1.00  0.00     0.050 A 
HETATM    3  C11 UNL     1      -2.291  -4.919   0.006  1.00  0.00     0.108 A 
HETATM    4  N3  UNL     1      -1.385  -4.864   0.990  1.00  0.00    -0.202 N 
ATOM      5  H3  UNL     1      -0.943  -5.728   1.304  1.00  0.00     0.183 HD
HETATM    6  C12 UNL     1      -1.036  -3.695   1.583  1.00  0.00     0.678 A 
HETATM    7  N5  UNL     1      -1.618  -2.556   1.169  1.00  0.00    -0.177 N 
ENDROOT
BRANCH   7   8
HETATM    8  C13 UNL     1      -1.165  -1.341   1.778  1.00  0.00     0.186 C 
BRANCH   8   9
HETATM    9  C14 UNL     1       0.121  -0.808   1.291  1.00  0.00    -0.039 A 
HETATM   10  C15 UNL     1       0.905  -0.125   2.215  1.00  0.00     0.010 A 
HETATM   11  C16 UNL     1       2.120   0.361   1.822  1.00  0.00     0.013 A 
HETATM   12  C17 UNL     1       2.652   0.231   0.559  1.00  0.00    -0.026 A 
HETATM   13  C24 UNL     1       1.868  -0.449  -0.354  1.00  0.00     0.013 A 
HETATM   14  C25 UNL     1       0.630  -0.949   0.029  1.00  0.00     0.010 A 
BRANCH  12  15
HETATM   15  C18 UNL     1       3.959   0.779   0.214  1.00  0.00    -0.026 A 
HETATM   16  C19 UNL     1       4.768   0.168  -0.742  1.00  0.00     0.014 A 
HETATM   17  C20 UNL     1       6.001   0.689  -1.066  1.00  0.00     0.026 A 
HETATM   18  C21 UNL     1       6.486   1.833  -0.459  1.00  0.00     0.079 A 
HETATM   19  C22 UNL     1       5.698   2.447   0.486  1.00  0.00     0.026 A 
HETATM   20  C23 UNL     1       4.465   1.919   0.805  1.00  0.00     0.014 A 
BRANCH  18  21
HETATM   21  S1  UNL     1       8.053   2.489  -0.873  1.00  0.00     0.256 S 
HETATM   22  O1  UNL     1       8.530   3.253   0.353  1.00  0.00    -0.201 OA
HETATM   23  O2  UNL     1       9.009   1.408  -1.218  1.00  0.00    -0.201 OA
BRANCH  21  24
HETATM   24  N6  UNL     1       7.976   3.610  -2.164  1.00  0.00    -0.324 N 
ATOM     25  H62 UNL     1       7.103   3.858  -2.631  1.00  0.00     0.169 HD
ATOM     26  H61 UNL     1       8.890   3.993  -2.406  1.00  0.00     0.169 HD
ENDBRANCH  21  24
ENDBRANCH  18  21
ENDBRANCH  12  15
ENDBRANCH   8   9
ENDBRANCH   7   8
BRANCH   1  27
HETATM   27  C8  UNL     1      -3.256  -1.322  -0.234  1.00  0.00     0.064 A 
HETATM   28  N1  UNL     1      -4.325  -0.946   0.469  1.00  0.00    -0.345 N 
HETATM   29  C1  UNL     1      -4.836  -1.669   1.639  1.00  0.00     0.157 C 
HETATM   30  C2  UNL     1      -4.990   0.167   0.075  1.00  0.00     0.185 A 
HETATM   31  N2  UNL     1      -4.621   0.903  -0.986  1.00  0.00    -0.349 N 
HETATM   32  C6  UNL     1      -3.548   0.548  -1.714  1.00  0.00     0.094 A 
HETATM   33  C7  UNL     1      -2.868  -0.588  -1.312  1.00  0.00     0.049 A 
BRANCH  31  34
HETATM   34  C3  UNL     1      -5.374   2.098  -1.368  1.00  0.00     0.156 C 
BRANCH  34  35
HETATM   35  C4  UNL     1      -4.833   3.290  -0.688  1.00  0.00     0.001 C 
HETATM   36  C5  UNL     1      -4.353   4.321  -1.354  1.00  0.00     0.053 C 
HETATM   37 BR1  UNL     1      -3.655   5.862  -0.478  1.00  0.00    -0.064 Br
ENDBRANCH  34  35
ENDBRANCH  31  34
ENDBRANCH   1  27
BRANCH   6  38
HETATM   38  N4  UNL     1      -0.164  -3.795   2.512  1.00  0.00    -0.234 N 
ATOM     39  H42 UNL     1       0.278  -4.659   2.826  1.00  0.00     0.174 HD
ATOM     40  H41 UNL     1       0.098  -2.916   2.958  1.00  0.00     0.174 HD
ENDBRANCH   6  38
TORSDOF 9
