REMARK  11 active torsions:
REMARK  status: ('A' for Active; 'I' for Inactive)
REMARK    1  A    between atoms: C5_5  and  C6_6 
REMARK    2  A    between atoms: C6_6  and  C7_7 
REMARK    3  A    between atoms: C7_7  and  C8_8 
REMARK    4  A    between atoms: C8_8  and  C9_9 
REMARK    5  A    between atoms: C9_9  and  C10_10 
REMARK    6  A    between atoms: C13_13  and  C14_14 
REMARK    7  A    between atoms: C22_25  and  C23_26 
REMARK    8  A    between atoms: C23_26  and  C24_27 
REMARK    9  A    between atoms: C24_27  and  C25_29 
REMARK   10  A    between atoms: C26_32  and  C27_33 
REMARK   11  A    between atoms: C30_36  and  C31_37 
ROOT
HETATM    1  C10 UNL     1      -0.741  -0.237   0.504  1.00  0.00    -0.026 A 
HETATM    2  C11 UNL     1      -0.721   1.155   0.356  1.00  0.00     0.013 A 
HETATM    3  C12 UNL     1       0.430   1.852   0.155  1.00  0.00     0.015 A 
HETATM    4  C13 UNL     1       1.709   1.212   0.067  1.00  0.00     0.003 A 
HETATM    5  C22 UNL     1       1.664  -0.141   0.183  1.00  0.00    -0.006 A 
HETATM    6  C26 UNL     1       0.500  -0.902   0.423  1.00  0.00     0.012 A 
ENDROOT
BRANCH   1   7
HETATM    7  C9  UNL     1      -1.904  -0.786   0.762  1.00  0.00    -0.014 C 
BRANCH   7   8
HETATM    8  C8  UNL     1      -3.112   0.138   0.868  1.00  0.00     0.032 C 
BRANCH   8   9
HETATM    9  C7  UNL     1      -4.337  -0.705   1.152  1.00  0.00     0.033 C 
BRANCH   9  10
HETATM   10  C6  UNL     1      -5.499   0.199   1.253  1.00  0.00     0.003 C 
BRANCH  10  11
HETATM   11  C5  UNL     1      -6.118   0.564   0.149  1.00  0.00     0.028 A 
HETATM   12  C4  UNL     1      -5.808   0.196  -1.140  1.00  0.00     0.031 A 
HETATM   13  C3  UNL     1      -6.702   0.797  -1.997  1.00  0.00     0.031 A 
HETATM   14  C2  UNL     1      -7.561   1.534  -1.240  1.00  0.00     0.023 A 
HETATM   15  C1  UNL     1      -8.577   2.270  -1.700  1.00  0.00     0.043 C 
HETATM   16  N3  UNL     1      -7.201   1.387   0.052  1.00  0.00    -0.357 N 
ATOM     17  H3  UNL     1      -7.671   1.828   0.842  1.00  0.00     0.166 HD
ENDBRANCH  10  11
ENDBRANCH   9  10
ENDBRANCH   8   9
ENDBRANCH   7   8
ENDBRANCH   1   7
BRANCH   6  18
HETATM   18  C27 UNL     1       0.553  -2.189   0.582  1.00  0.00     0.044 A 
HETATM   19  C28 UNL     1      -0.247  -3.243   0.769  1.00  0.00     0.033 A 
HETATM   20  C29 UNL     1       0.225  -4.245   1.552  1.00  0.00     0.032 A 
HETATM   21  C30 UNL     1       1.469  -3.804   1.916  1.00  0.00     0.043 A 
HETATM   22  N2  UNL     1       1.684  -2.611   1.364  1.00  0.00    -0.355 N 
ATOM     23  H2  UNL     1       2.539  -2.068   1.481  1.00  0.00     0.166 HD
BRANCH  21  24
HETATM   24  C31 UNL     1       2.319  -4.474   2.699  1.00  0.00     0.114 C 
HETATM   25 CL1  UNL     1       1.875  -6.028   3.338  1.00  0.00    -0.095 Cl
ENDBRANCH  21  24
ENDBRANCH   6  18
BRANCH   5  26
HETATM   26  C23 UNL     1       2.501  -0.750  -0.741  1.00  0.00     0.075 C 
BRANCH  26  27
HETATM   27  C24 UNL     1       3.055  -1.863  -1.326  1.00  0.00     0.248 C 
HETATM   28  O2  UNL     1       2.918  -3.069  -1.169  1.00  0.00    -0.281 OA
BRANCH  27  29
HETATM   29  C25 UNL     1       4.082  -1.609  -2.432  1.00  0.00     0.251 C 
HETATM   30  O3  UNL     1       4.376  -0.467  -2.782  1.00  0.00    -0.642 OA
HETATM   31  O4  UNL     1       4.650  -2.704  -3.005  1.00  0.00    -0.642 OA
ENDBRANCH  27  29
ENDBRANCH  26  27
ENDBRANCH   5  26
BRANCH   4  32
HETATM   32  C14 UNL     1       2.711   2.003  -0.171  1.00  0.00     0.057 A 
HETATM   33  N1  UNL     1       2.591   3.438  -0.419  1.00  0.00    -0.321 N 
HETATM   34  C15 UNL     1       3.815   4.061  -0.283  1.00  0.00     0.257 A 
ATOM     35  H1  UNL     1       1.722   3.914  -0.660  1.00  0.00     0.169 HD
HETATM   36  O1  UNL     1       4.006   5.302  -0.445  1.00  0.00    -0.267 OA
HETATM   37  C16 UNL     1       4.781   3.053   0.067  1.00  0.00     0.044 A 
HETATM   38  C17 UNL     1       6.138   3.222   0.384  1.00  0.00     0.018 A 
HETATM   39  C21 UNL     1       4.162   1.817   0.147  1.00  0.00     0.007 A 
HETATM   40  C18 UNL     1       6.887   2.153   0.796  1.00  0.00     0.001 A 
HETATM   41  C19 UNL     1       6.257   0.925   0.884  1.00  0.00     0.001 A 
HETATM   42  C20 UNL     1       4.940   0.752   0.574  1.00  0.00     0.015 A 
ENDBRANCH   4  32
TORSDOF 11
