REMARK  9 active torsions:
REMARK  status: ('A' for Active; 'I' for Inactive)
REMARK    1  A    between atoms: C3_5  and  C4_6 
REMARK    2  A    between atoms: C4_6  and  C6_8 
REMARK    3  A    between atoms: C14_17  and  C15_18 
REMARK       I    between atoms: C15_18  and  N2_20 
REMARK    4  A    between atoms: N2_20  and  C16_22 
REMARK    5  A    between atoms: N3_25  and  C19_26 
REMARK    6  A    between atoms: C19_26  and  C20_27 
REMARK    7  A    between atoms: C23_30  and  C24_31 
REMARK    8  A    between atoms: C24_31  and  C25_32 
REMARK    9  A    between atoms: C25_32  and  N4_33 
REMARK       I    between atoms: N4_33  and  C26_35 
ROOT
HETATM    1  C16 UNL     1      -0.701   0.088  -1.578  1.00  0.00     0.037 A 
HETATM    2  C17 UNL     1       0.022  -0.731  -2.401  1.00  0.00     0.046 A 
HETATM    3  C18 UNL     1       1.244  -0.303  -2.950  1.00  0.00     0.093 A 
HETATM    4  N3  UNL     1       1.773   0.895  -2.716  1.00  0.00    -0.361 N 
HETATM    5  C30 UNL     1       1.063   1.729  -1.894  1.00  0.00     0.093 A 
HETATM    6  C31 UNL     1      -0.133   1.348  -1.339  1.00  0.00     0.046 A 
ENDROOT
BRANCH   1   7
HETATM    7  N2  UNL     1      -1.954  -0.217  -0.992  1.00  0.00    -0.323 N 
HETATM    8  C15 UNL     1      -2.920  -1.070  -1.527  1.00  0.00     0.259 C 
HETATM    9  O1  UNL     1      -2.625  -1.618  -2.653  1.00  0.00    -0.267 OA
ATOM     10  H2  UNL     1      -2.169   0.227  -0.099  1.00  0.00     0.169 HD
BRANCH   8  11
HETATM   11  C14 UNL     1      -4.179  -1.351  -0.883  1.00  0.00     0.066 A 
HETATM   12  C2  UNL     1      -4.872  -2.553  -0.986  1.00  0.00     0.039 A 
HETATM   13  C1  UNL     1      -4.459  -3.627  -1.652  1.00  0.00     0.044 C 
HETATM   14  N1  UNL     1      -5.982  -2.407  -0.297  1.00  0.00    -0.355 N 
HETATM   15  C3  UNL     1      -6.105  -1.176   0.280  1.00  0.00     0.046 A 
ATOM     16  H1  UNL     1      -6.683  -3.142  -0.203  1.00  0.00     0.166 HD
HETATM   17  C12 UNL     1      -4.966  -0.504  -0.093  1.00  0.00    -0.017 A 
HETATM   18  C13 UNL     1      -4.621   0.920   0.206  1.00  0.00     0.052 C 
BRANCH  15  19
HETATM   19  C4  UNL     1      -7.125  -0.830   1.018  1.00  0.00    -0.025 C 
HETATM   20  C5  UNL     1      -8.232  -1.845   1.240  1.00  0.00     0.051 C 
BRANCH  19  21
HETATM   21  C6  UNL     1      -7.307   0.409   1.689  1.00  0.00    -0.028 A 
HETATM   22  C7  UNL     1      -6.598   0.745   2.828  1.00  0.00     0.015 A 
HETATM   23  C8  UNL     1      -6.825   1.922   3.486  1.00  0.00     0.043 A 
HETATM   24  C9  UNL     1      -7.784   2.775   2.988  1.00  0.00     0.116 A 
HETATM   25  F1  UNL     1      -8.013   3.938   3.632  1.00  0.00    -0.206 F 
HETATM   26  C10 UNL     1      -8.519   2.493   1.860  1.00  0.00     0.043 A 
HETATM   27  C11 UNL     1      -8.262   1.301   1.226  1.00  0.00     0.015 A 
ENDBRANCH  19  21
ENDBRANCH  15  19
ENDBRANCH   8  11
ENDBRANCH   1   7
BRANCH   4  28
HETATM   28  C19 UNL     1       3.044   1.349  -3.262  1.00  0.00     0.184 C 
BRANCH  28  29
HETATM   29  C20 UNL     1       4.200   1.095  -2.415  1.00  0.00     0.029 A 
HETATM   30  C21 UNL     1       4.451   1.994  -1.394  1.00  0.00     0.027 A 
HETATM   31  C22 UNL     1       5.531   1.826  -0.552  1.00  0.00     0.010 A 
HETATM   32  C23 UNL     1       6.377   0.745  -0.727  1.00  0.00    -0.041 A 
HETATM   33  C28 UNL     1       6.087  -0.114  -1.748  1.00  0.00     0.097 A 
HETATM   34  N5  UNL     1       5.013   0.059  -2.580  1.00  0.00    -0.362 N 
HETATM   35  C29 UNL     1       4.837  -0.928  -3.633  1.00  0.00     0.155 C 
BRANCH  32  36
HETATM   36  C24 UNL     1       7.507   0.602   0.187  1.00  0.00     0.059 C 
BRANCH  36  37
HETATM   37  C25 UNL     1       7.198  -0.184   1.426  1.00  0.00     0.127 C 
BRANCH  37  38
HETATM   38  N4  UNL     1       8.353  -0.276   2.276  1.00  0.00    -0.361 N 
HETATM   39  C26 UNL     1       8.328  -0.974   3.524  1.00  0.00     0.213 C 
HETATM   40  C27 UNL     1       9.502  -1.076   4.402  1.00  0.00     0.117 C 
HETATM   41  O2  UNL     1       7.251  -1.520   3.873  1.00  0.00    -0.274 OA
ATOM     42  H4  UNL     1       9.220   0.172   1.979  1.00  0.00     0.162 HD
ENDBRANCH  37  38
ENDBRANCH  36  37
ENDBRANCH  32  36
ENDBRANCH  28  29
ENDBRANCH   4  28
TORSDOF 9
