REMARK  11 active torsions:
REMARK  status: ('A' for Active; 'I' for Inactive)
REMARK    1  A    between atoms: C2_2  and  C12_20 
REMARK    2  A    between atoms: C3_3  and  C4_4 
REMARK    3  A    between atoms: C4_4  and  C5_5 
REMARK    4  A    between atoms: C5_5  and  C6_6 
REMARK    5  A    between atoms: C6_6  and  C7_7 
REMARK    6  A    between atoms: C7_7  and  C8_8 
REMARK    7  A    between atoms: C8_8  and  C9_9 
REMARK       I    between atoms: C9_9  and  N1_11 
REMARK    8  A    between atoms: C15_23  and  C16_24 
REMARK    9  A    between atoms: C16_24  and  C17_25 
REMARK   10  A    between atoms: C17_25  and  C18_26 
REMARK   11  A    between atoms: C18_26  and  C19_27 
ROOT
HETATM    1  C1  UNL     1      -0.252  -1.023   2.788  1.00  0.00     0.050 C 
HETATM    2  C2  UNL     1       0.336  -0.298   1.655  1.00  0.00    -0.035 C 
HETATM    3  C3  UNL     1      -0.366   0.084   0.479  1.00  0.00     0.009 C 
ENDROOT
BRANCH   2   4
HETATM    4  C12 UNL     1       1.652   0.035   1.743  1.00  0.00     0.038 A 
HETATM    5  C13 UNL     1       2.490  -0.242   2.790  1.00  0.00     0.032 A 
HETATM    6  C14 UNL     1       3.728   0.279   2.455  1.00  0.00     0.031 A 
HETATM    7  C15 UNL     1       3.660   0.866   1.227  1.00  0.00     0.028 A 
HETATM    8  N4  UNL     1       2.365   0.694   0.822  1.00  0.00    -0.356 N 
ATOM      9  H4  UNL     1       1.991   1.025  -0.067  1.00  0.00     0.166 HD
BRANCH   7  10
HETATM   10  C16 UNL     1       4.637   1.479   0.555  1.00  0.00     0.003 C 
BRANCH  10  11
HETATM   11  C17 UNL     1       5.984   1.591   1.113  1.00  0.00     0.034 C 
BRANCH  11  12
HETATM   12  C18 UNL     1       6.820   0.347   0.904  1.00  0.00     0.042 C 
BRANCH  12  13
HETATM   13  C19 UNL     1       6.994   0.029  -0.531  1.00  0.00    -0.058 A 
HETATM   14  C20 UNL     1       6.086  -0.789  -1.170  1.00  0.00     0.008 A 
HETATM   15  C21 UNL     1       6.191  -1.124  -2.504  1.00  0.00     0.019 A 
HETATM   16  C22 UNL     1       7.234  -0.637  -3.257  1.00  0.00     0.011 A 
HETATM   17 BR1  UNL     1       7.340  -1.125  -5.095  1.00  0.00    -0.051 Br
HETATM   18  C23 UNL     1       8.153   0.179  -2.646  1.00  0.00     0.019 A 
HETATM   19  C24 UNL     1       8.038   0.510  -1.302  1.00  0.00     0.008 A 
ENDBRANCH  12  13
ENDBRANCH  11  12
ENDBRANCH  10  11
ENDBRANCH   7  10
ENDBRANCH   2   4
BRANCH   3  20
HETATM   20  C4  UNL     1      -1.594  -0.106   0.139  1.00  0.00     0.000 C 
BRANCH  20  21
HETATM   21  C5  UNL     1      -2.686  -0.740   0.761  1.00  0.00    -0.004 C 
BRANCH  21  22
HETATM   22  C6  UNL     1      -3.898  -0.824   0.216  1.00  0.00    -0.024 C 
BRANCH  22  23
HETATM   23  C7  UNL     1      -4.252  -0.285  -1.074  1.00  0.00     0.063 C 
BRANCH  23  24
HETATM   24  C8  UNL     1      -5.352   0.780  -1.003  1.00  0.00     0.160 A 
HETATM   25  C11 UNL     1      -5.477   1.579  -2.338  1.00  0.00     0.177 A 
HETATM   26  S1  UNL     1      -4.985   2.430  -0.880  1.00  0.00     0.165 S 
HETATM   27  O2  UNL     1      -3.605   2.997  -0.915  1.00  0.00    -0.226 OA
HETATM   28  O3  UNL     1      -5.989   3.330  -0.189  1.00  0.00    -0.226 OA
BRANCH  24  29
HETATM   29  C9  UNL     1      -6.643   0.304  -0.466  1.00  0.00     0.248 C 
HETATM   30  O1  UNL     1      -7.570   1.196  -0.352  1.00  0.00    -0.271 OA
HETATM   31  N1  UNL     1      -6.944  -1.022  -0.076  1.00  0.00    -0.302 N 
HETATM   32  C10 UNL     1      -8.075  -1.525  -0.408  1.00  0.00     0.203 C 
ATOM     33  H1  UNL     1      -6.271  -1.569   0.461  1.00  0.00     0.171 HD
HETATM   34  N2  UNL     1      -8.440  -2.860  -0.045  1.00  0.00    -0.066 NA
HETATM   35  N3  UNL     1      -8.991  -0.755  -1.149  1.00  0.00    -0.066 NA
ENDBRANCH  24  29
ENDBRANCH  23  24
ENDBRANCH  22  23
ENDBRANCH  21  22
ENDBRANCH  20  21
ENDBRANCH   3  20
TORSDOF 11
