REMARK  9 active torsions:
REMARK  status: ('A' for Active; 'I' for Inactive)
REMARK    1  A    between atoms: C2_2  and  C3_3 
REMARK    2  A    between atoms: C3_3  and  C4_4 
REMARK    3  A    between atoms: C6_6  and  C7_7 
REMARK    4  A    between atoms: C7_7  and  C8_8 
REMARK    5  A    between atoms: C8_8  and  N5_27 
REMARK       I    between atoms: N1_9  and  C9_11 
REMARK    6  A    between atoms: C9_11  and  C10_13 
REMARK    7  A    between atoms: C10_13  and  C11_14 
REMARK    8  A    between atoms: C10_13  and  N2_17 
REMARK    9  A    between atoms: N5_27  and  C17_28 
ROOT
HETATM    1  C8  UNL     1       0.138  -0.462  -0.727  1.00  0.00     0.164 C 
HETATM    2  N1  UNL     1       1.013  -1.058   0.024  1.00  0.00    -0.303 N 
ATOM      3  H1  UNL     1       0.984  -2.078   0.030  1.00  0.00     0.171 HD
HETATM    4  C9  UNL     1       1.988  -0.462   0.823  1.00  0.00     0.248 C 
HETATM    5  O1  UNL     1       1.513   0.063   1.899  1.00  0.00    -0.271 OA
ENDROOT
BRANCH   1   6
HETATM    6  C7  UNL     1      -0.760  -1.451  -1.449  1.00  0.00     0.149 C 
BRANCH   6   7
HETATM    7  C6  UNL     1      -2.159  -1.342  -1.021  1.00  0.00     0.018 A 
HETATM    8  C5  UNL     1      -2.725  -2.066   0.014  1.00  0.00     0.034 A 
HETATM    9  C4  UNL     1      -4.053  -1.706   0.130  1.00  0.00    -0.031 A 
HETATM   10  C23 UNL     1      -4.252  -0.761  -0.853  1.00  0.00     0.012 A 
HETATM   11  N7  UNL     1      -3.104  -0.549  -1.541  1.00  0.00    -0.362 N 
HETATM   12  C24 UNL     1      -5.563  -0.074  -1.112  1.00  0.00     0.068 C 
ATOM     13  H7  UNL     1      -2.981   0.100  -2.318  1.00  0.00     0.165 HD
BRANCH   9  14
HETATM   14  C3  UNL     1      -5.059  -2.216   1.093  1.00  0.00     0.067 C 
BRANCH  14  15
HETATM   15  C2  UNL     1      -5.995  -3.173   0.454  1.00  0.00    -0.032 C 
HETATM   16  C1  UNL     1      -6.107  -4.426   0.876  1.00  0.00     0.007 C 
ENDBRANCH  14  15
ENDBRANCH   9  14
ENDBRANCH   6   7
ENDBRANCH   1   6
BRANCH   1  17
HETATM   17  N5  UNL     1       0.015   0.824  -0.869  1.00  0.00    -0.392 NA
BRANCH  17  18
HETATM   18  C17 UNL     1      -0.086   2.008  -0.982  1.00  0.00     0.113 A 
HETATM   19  C18 UNL     1       0.427   2.983  -0.108  1.00  0.00     0.069 A 
HETATM   20  C19 UNL     1       0.256   4.332  -0.334  1.00  0.00     0.009 A 
HETATM   21  C20 UNL     1       0.796   5.365   0.586  1.00  0.00     0.068 C 
HETATM   22  N6  UNL     1      -0.418   4.754  -1.416  1.00  0.00    -0.354 N 
HETATM   23  C21 UNL     1      -0.934   3.884  -2.292  1.00  0.00     0.083 A 
ATOM     24  H6  UNL     1      -0.539   5.755  -1.573  1.00  0.00     0.166 HD
HETATM   25 BR1  UNL     1      -1.883   4.550  -3.810  1.00  0.00    -0.031 Br
HETATM   26  C22 UNL     1      -0.780   2.531  -2.093  1.00  0.00     0.082 A 
ENDBRANCH  17  18
ENDBRANCH   1  17
BRANCH   4  27
HETATM   27  C10 UNL     1       3.435  -0.402   0.529  1.00  0.00     0.207 C 
BRANCH  27  28
HETATM   28  C11 UNL     1       4.042  -1.698   0.085  1.00  0.00     0.010 C 
HETATM   29  C12 UNL     1       3.332  -2.129  -1.201  1.00  0.00     0.012 C 
HETATM   30  C13 UNL     1       3.994  -2.837   1.019  1.00  0.00     0.012 C 
ENDBRANCH  27  28
BRANCH  27  31
HETATM   31  N2  UNL     1       4.194   0.326   1.502  1.00  0.00    -0.132 N 
HETATM   32  C14 UNL     1       4.934   1.561   1.318  1.00  0.00     0.681 A 
HETATM   33  N3  UNL     1       5.028   2.237   0.208  1.00  0.00    -0.234 N 
HETATM   34  N4  UNL     1       5.549   1.934   2.540  1.00  0.00    -0.197 N 
ATOM     35  H32 UNL     1       4.586   1.969  -0.671  1.00  0.00     0.174 HD
ATOM     36  H31 UNL     1       5.548   3.105   0.079  1.00  0.00     0.174 HD
HETATM   37  C15 UNL     1       5.254   1.052   3.430  1.00  0.00     0.181 A 
ATOM     38  H4  UNL     1       6.127   2.761   2.689  1.00  0.00     0.183 HD
HETATM   39  C16 UNL     1       4.412   0.011   2.875  1.00  0.00     0.278 A 
HETATM   40  O2  UNL     1       3.964  -0.981   3.502  1.00  0.00    -0.266 OA
ENDBRANCH  27  31
ENDBRANCH   4  27
TORSDOF 9
