REMARK  8 active torsions:
REMARK  status: ('A' for Active; 'I' for Inactive)
REMARK    1  A    between atoms: C2_2  and  C3_3 
REMARK    2  A    between atoms: C2_2  and  N6_37 
REMARK    3  A    between atoms: C3_3  and  C4_4 
REMARK       I    between atoms: C4_4  and  N1_6 
REMARK    4  A    between atoms: N1_6  and  C5_8 
REMARK    5  A    between atoms: C13_17  and  C14_18 
REMARK    6  A    between atoms: C14_18  and  C15_19 
REMARK    7  A    between atoms: C15_19  and  C16_20 
REMARK    8  A    between atoms: C16_20  and  N3_21 
REMARK       I    between atoms: N3_21  and  C17_23 
ROOT
HETATM    1  C3  UNL     1      -0.488   0.698  -0.791  1.00  0.00     0.102 C 
HETATM    2  C11 UNL     1       0.620  -0.412  -0.755  1.00  0.00     0.068 C 
HETATM    3  C12 UNL     1       1.853   0.355  -0.655  1.00  0.00    -0.022 A 
HETATM    4  C13 UNL     1       3.189   0.422  -0.977  1.00  0.00    -0.034 A 
HETATM    5  C18 UNL     1       3.683   1.587  -0.478  1.00  0.00     0.096 A 
HETATM    6  N5  UNL     1       2.666   2.218   0.138  1.00  0.00    -0.364 N 
ATOM      7  H5  UNL     1       2.751   3.121   0.605  1.00  0.00     0.165 HD
HETATM    8  C19 UNL     1       1.520   1.510   0.062  1.00  0.00     0.046 A 
HETATM    9  C20 UNL     1       0.072   1.444   0.403  1.00  0.00    -0.008 C 
HETATM   10  C21 UNL     1      -0.428   1.965   1.460  1.00  0.00    -0.070 C 
HETATM   11  C22 UNL     1       0.431   2.652   2.485  1.00  0.00     0.035 C 
HETATM   12  C23 UNL     1       0.203   4.122   2.511  1.00  0.00     0.004 C 
HETATM   13  C24 UNL     1      -1.216   4.471   2.223  1.00  0.00     0.001 C 
HETATM   14  C25 UNL     1      -2.103   3.346   2.657  1.00  0.00     0.004 C 
HETATM   15  C26 UNL     1      -1.854   2.046   1.873  1.00  0.00     0.035 C 
ENDROOT
BRANCH   1  16
HETATM   16  C2  UNL     1      -0.287   1.352  -2.086  1.00  0.00     0.207 C 
HETATM   17  C1  UNL     1      -0.244   0.348  -3.257  1.00  0.00     0.042 C 
BRANCH  16  18
HETATM   18  N6  UNL     1      -0.969   2.472  -2.557  1.00  0.00    -0.073 N 
HETATM   19  C27 UNL     1      -1.297   3.520  -1.642  1.00  0.00     0.272 C 
HETATM   20  C28 UNL     1      -2.183   2.254  -3.330  1.00  0.00     0.272 C 
HETATM   21  C29 UNL     1      -0.069   3.137  -3.541  1.00  0.00     0.272 C 
ENDBRANCH  16  18
ENDBRANCH   1  16
BRANCH   1  22
HETATM   22  C4  UNL     1      -1.674  -0.079  -0.549  1.00  0.00     0.235 C 
HETATM   23  O1  UNL     1      -2.654  -0.086  -1.351  1.00  0.00    -0.272 OA
HETATM   24  N1  UNL     1      -1.877  -0.902   0.583  1.00  0.00    -0.332 N 
ATOM     25  H1  UNL     1      -1.127  -0.942   1.273  1.00  0.00     0.164 HD
BRANCH  24  26
HETATM   26  C5  UNL     1      -3.058  -1.689   0.841  1.00  0.00     0.290 C 
HETATM   27  C6  UNL     1      -3.692  -1.385   2.180  1.00  0.00     0.057 C 
HETATM   28  C7  UNL     1      -4.398  -2.625   2.632  1.00  0.00     0.032 C 
HETATM   29  C8  UNL     1      -3.967  -3.643   1.608  1.00  0.00     0.239 C 
HETATM   30  N2  UNL     1      -2.787  -3.103   0.955  1.00  0.00    -0.054 N 
HETATM   31  C9  UNL     1      -2.661  -3.770  -0.307  1.00  0.00     0.274 C 
HETATM   32  C10 UNL     1      -1.638  -3.347   1.822  1.00  0.00     0.274 C 
ENDBRANCH  24  26
ENDBRANCH   1  22
BRANCH   4  33
HETATM   33  C14 UNL     1       3.944  -0.609  -1.739  1.00  0.00     0.042 C 
BRANCH  33  34
HETATM   34  C15 UNL     1       4.192  -1.762  -0.753  1.00  0.00     0.024 C 
BRANCH  34  35
HETATM   35  C16 UNL     1       4.947  -2.874  -1.395  1.00  0.00     0.124 C 
BRANCH  35  36
HETATM   36  N3  UNL     1       5.153  -3.933  -0.441  1.00  0.00    -0.345 N 
HETATM   37  C17 UNL     1       5.870  -3.756   0.755  1.00  0.00     0.328 C 
HETATM   38  N4  UNL     1       6.037  -4.859   1.669  1.00  0.00    -0.040 NA
HETATM   39  O2  UNL     1       6.405  -2.685   1.123  1.00  0.00    -0.251 OA
ATOM     40  H3  UNL     1       4.761  -4.853  -0.642  1.00  0.00     0.163 HD
ENDBRANCH  35  36
ENDBRANCH  34  35
ENDBRANCH  33  34
ENDBRANCH   4  33
TORSDOF 8
