REMARK  4 active torsions:
REMARK  status: ('A' for Active; 'I' for Inactive)
REMARK    1  A    between atoms: C3_3  and  C5_5 
REMARK    2  A    between atoms: C5_5  and  C6_6 
REMARK    3  A    between atoms: N1_7  and  N2_9 
REMARK    4  A    between atoms: C9_12  and  O1_13 
ROOT
HETATM    1  C1  UNL     1       6.011   1.037  -0.389  1.00  0.00     0.012 C 
HETATM    2  C2  UNL     1       4.914   0.727   0.008  1.00  0.00    -0.113 C 
HETATM    3  C3  UNL     1       3.586   0.336   0.512  1.00  0.00     0.065 C 
HETATM    4  C4  UNL     1       3.439  -1.139   0.681  1.00  0.00     0.023 C 
ENDROOT
BRANCH   3   5
HETATM    5  C5  UNL     1       2.544   0.829  -0.475  1.00  0.00     0.062 C 
BRANCH   5   6
HETATM    6  C6  UNL     1       1.199   0.448   0.010  1.00  0.00     0.081 C 
HETATM    7  N1  UNL     1       0.211   0.467  -0.776  1.00  0.00    -0.318 N 
ATOM      8  H1  UNL     1       0.397   0.754  -1.737  1.00  0.00     0.185 HD
BRANCH   7   9
HETATM    9  N2  UNL     1      -1.093   0.140  -0.471  1.00  0.00    -0.328 N 
HETATM   10  C7  UNL     1      -2.042  -0.087  -1.523  1.00  0.00     0.145 C 
HETATM   11  C8  UNL     1      -3.340   0.603  -1.078  1.00  0.00     0.053 C 
HETATM   12  C9  UNL     1      -3.895  -0.214   0.064  1.00  0.00     0.121 C 
HETATM   13  C10 UNL     1      -2.853  -0.716   1.001  1.00  0.00     0.053 C 
HETATM   14  C11 UNL     1      -1.529   0.021   0.889  1.00  0.00     0.145 C 
BRANCH  12  15
HETATM   15  O1  UNL     1      -4.572  -1.310  -0.516  1.00  0.00    -0.395 OA
ATOM     16  H1  UNL     1      -4.921  -1.824   0.203  1.00  0.00     0.210 HD
ENDBRANCH  12  15
ENDBRANCH   7   9
ENDBRANCH   5   6
ENDBRANCH   3   5
TORSDOF 4
