REMARK  3 active torsions:
REMARK  status: ('A' for Active; 'I' for Inactive)
REMARK    1  A    between atoms: C2_2  and  O1_3 
REMARK    2  A    between atoms: O1_3  and  N1_4 
REMARK    3  A    between atoms: C4_9  and  C5_10 
ROOT
HETATM    1  N1  UNL     1       0.175  -0.211  -0.353  1.00  0.00    -0.221 N 
HETATM    2  C3  UNL     1      -0.030   0.516  -1.555  1.00  0.00     0.195 C 
HETATM    3  S1  UNL     1       0.872   0.561  -2.900  1.00  0.00    -0.039 SA
HETATM    4  N2  UNL     1      -1.223   1.244  -1.266  1.00  0.00    -0.352 N 
ATOM      5  H2  UNL     1      -1.611   1.964  -1.876  1.00  0.00     0.162 HD
HETATM    6  C4  UNL     1      -1.822   0.845  -0.007  1.00  0.00     0.175 C 
HETATM    7  C6  UNL     1      -1.195  -0.564   0.106  1.00  0.00     0.082 C 
HETATM    8  C7  UNL     1      -1.920  -1.388  -0.906  1.00  0.00     0.043 C 
HETATM    9  C8  UNL     1      -1.126  -1.123   1.475  1.00  0.00     0.043 C 
ENDROOT
BRANCH   1  10
HETATM   10  O1  UNL     1       1.291  -0.449   0.300  1.00  0.00    -0.275 OA
BRANCH  10  11
HETATM   11  C2  UNL     1       2.385   0.154  -0.305  1.00  0.00     0.197 C 
HETATM   12  C1  UNL     1       3.640  -0.017   0.530  1.00  0.00     0.036 C 
ENDBRANCH  10  11
ENDBRANCH   1  10
BRANCH   6  13
HETATM   13  C5  UNL     1      -1.241   1.649   1.092  1.00  0.00     0.258 C 
HETATM   14  O2  UNL     1      -1.182   1.263   2.238  1.00  0.00    -0.305 OA
ENDBRANCH   6  13
TORSDOF 3
