REMARK  3 active torsions:
REMARK  status: ('A' for Active; 'I' for Inactive)
REMARK    1  A    between atoms: C5_5  and  O1_6 
REMARK    2  A    between atoms: O1_6  and  C6_7 
REMARK    3  A    between atoms: C6_7  and  C7_8 
ROOT
HETATM    1  O1  UNL     1       0.569  -0.326  -0.285  1.00  0.00    -0.379 OA
ENDROOT
BRANCH   1   2
HETATM    2  C5  UNL     1      -0.794  -0.091  -0.008  1.00  0.00     0.122 C 
HETATM    3  C4  UNL     1      -1.392   0.512  -1.235  1.00  0.00     0.032 C 
HETATM    4  C3  UNL     1      -2.697   1.188  -1.040  1.00  0.00     0.002 C 
HETATM    5  C2  UNL     1      -3.365   0.896   0.273  1.00  0.00     0.000 C 
HETATM    6  C1  UNL     1      -3.736  -0.523   0.479  1.00  0.00     0.000 C 
HETATM    7  C11 UNL     1      -2.845  -1.513  -0.210  1.00  0.00     0.002 C 
HETATM    8  C10 UNL     1      -1.414  -1.436   0.250  1.00  0.00     0.032 C 
ENDBRANCH   1   2
BRANCH   1   9
HETATM    9  C6  UNL     1       1.349   0.383   0.616  1.00  0.00     0.243 C 
BRANCH   9  10
HETATM   10  C7  UNL     1       2.780   0.123   0.309  1.00  0.00     0.097 C 
HETATM   11  N1  UNL     1       3.265  -0.623  -0.623  1.00  0.00    -0.377 N 
HETATM   12  C8  UNL     1       4.705  -0.624  -0.605  1.00  0.00     0.140 C 
ATOM     13  H1  UNL     1       2.699  -1.148  -1.290  1.00  0.00     0.160 HD
HETATM   14  C9  UNL     1       5.065   0.525   0.299  1.00  0.00     0.140 C 
HETATM   15  N2  UNL     1       3.841   0.707   1.057  1.00  0.00    -0.377 N 
ATOM     16  H2  UNL     1       3.756   1.170   1.962  1.00  0.00     0.160 HD
ENDBRANCH   9  10
ENDBRANCH   1   9
TORSDOF 3
