REMARK  1 active torsions:
REMARK  status: ('A' for Active; 'I' for Inactive)
REMARK    1  A    between atoms: N1_1  and  C1_5 
ROOT
HETATM    1  C1  UNL     1      -2.062   0.226  -0.680  1.00  0.00     0.194 C 
HETATM    2  C2  UNL     1      -2.327  -1.077   0.089  1.00  0.00     0.107 C 
HETATM    3  S1  UNL     1      -0.799  -1.054   1.114  1.00  0.00    -0.157 SA
HETATM    4  C3  UNL     1       0.261  -0.174  -0.098  1.00  0.00     0.010 C 
HETATM    5  C4  UNL     1       1.427  -1.055  -0.386  1.00  0.00     0.020 C 
HETATM    6  C5  UNL     1       2.652  -0.398   0.180  1.00  0.00     0.002 C 
HETATM    7  C6  UNL     1       2.079   0.557   1.192  1.00  0.00     0.002 C 
HETATM    8  C7  UNL     1       0.840   1.069   0.447  1.00  0.00     0.020 C 
HETATM    9  C8  UNL     1      -0.683   0.000  -1.244  1.00  0.00     0.054 C 
ENDROOT
BRANCH   1  10
HETATM   10  N1  UNL     1      -2.152   1.303   0.242  1.00  0.00    -0.074 N 
ATOM     11  H13 UNL     1      -3.037   1.316   0.749  1.00  0.00     0.274 HD
ATOM     12  H12 UNL     1      -1.536   1.187   1.047  1.00  0.00     0.274 HD
ATOM     13  H11 UNL     1      -1.976   2.168  -0.269  1.00  0.00     0.274 HD
ENDBRANCH   1  10
TORSDOF 1
