REMARK  1 active torsions:
REMARK  status: ('A' for Active; 'I' for Inactive)
REMARK    1  A    between atoms: C2_2  and  C4_4 
ROOT
HETATM    1  C4  UNL     1      -0.731  -0.434   0.236  1.00  0.00     0.009 C 
HETATM    2  C5  UNL     1      -1.701  -0.433  -0.887  1.00  0.00     0.091 C 
HETATM    3  S1  UNL     1      -1.815   1.289  -1.513  1.00  0.00    -0.097 SA
HETATM    4  S2  UNL     1      -1.260   2.197   0.372  1.00  0.00    -0.097 SA
HETATM    5  C6  UNL     1      -1.076   0.592   1.247  1.00  0.00     0.091 C 
ENDROOT
BRANCH   1   6
HETATM    6  C2  UNL     1       0.691  -0.491  -0.194  1.00  0.00    -0.017 C 
HETATM    7  C1  UNL     1       1.633  -0.488   0.995  1.00  0.00     0.010 C 
HETATM    8  C3  UNL     1       1.141   0.539  -1.159  1.00  0.00     0.010 C 
ENDBRANCH   1   6
TORSDOF 1
