REMARK  2 active torsions:
REMARK  status: ('A' for Active; 'I' for Inactive)
REMARK    1  A    between atoms: C2_2  and  C4_4 
REMARK    2  A    between atoms: C8_9  and  N1_10 
ROOT
HETATM    1  C4  UNL     1       0.008   0.463  -0.073  1.00  0.00     0.035 C 
HETATM    2  C5  UNL     1       0.555   1.665  -0.766  1.00  0.00     0.030 C 
HETATM    3  S1  UNL     1       0.102   0.652   1.756  1.00  0.00    -0.157 SA
HETATM    4  C6  UNL     1       1.567  -0.429   2.026  1.00  0.00     0.077 C 
HETATM    5  C7  UNL     1       2.148  -0.387   0.605  1.00  0.00     0.044 C 
HETATM    6  C8  UNL     1       0.933  -0.744  -0.239  1.00  0.00     0.202 C 
ENDROOT
BRANCH   1   7
HETATM    7  C2  UNL     1      -1.381   0.088  -0.484  1.00  0.00    -0.002 C 
HETATM    8  C1  UNL     1      -2.336   1.216  -0.196  1.00  0.00     0.011 C 
HETATM    9  C3  UNL     1      -1.764  -1.168   0.287  1.00  0.00     0.011 C 
ENDBRANCH   1   7
BRANCH   6  10
HETATM   10  N1  UNL     1       1.284  -0.940  -1.622  1.00  0.00    -0.073 N 
ATOM     11  H13 UNL     1       0.456  -1.017  -2.213  1.00  0.00     0.274 HD
ATOM     12  H12 UNL     1       1.688  -0.097  -2.030  1.00  0.00     0.274 HD
ATOM     13  H11 UNL     1       1.901  -1.745  -1.733  1.00  0.00     0.274 HD
ENDBRANCH   6  10
TORSDOF 2
