REMARK  2 active torsions:
REMARK  status: ('A' for Active; 'I' for Inactive)
REMARK    1  A    between atoms: C4_4  and  N1_5 
REMARK    2  A    between atoms: N1_5  and  C5_7 
ROOT
HETATM    1  C1  UNL     1      -3.619  -0.257  -0.684  1.00  0.00     0.020 C 
HETATM    2  C2  UNL     1      -3.439   0.696   0.449  1.00  0.00     0.009 C 
HETATM    3  C3  UNL     1      -2.058   1.309   0.393  1.00  0.00     0.076 C 
HETATM    4  C4  UNL     1      -1.012   0.252   0.346  1.00  0.00     0.073 C 
HETATM    5  N2  UNL     1      -1.296  -0.881  -0.155  1.00  0.00    -0.380 N 
ATOM      6  H2  UNL     1      -0.547  -1.573  -0.166  1.00  0.00     0.160 HD
HETATM    7  C10 UNL     1      -2.548  -1.292  -0.704  1.00  0.00     0.121 C 
ENDROOT
BRANCH   4   8
HETATM    8  N1  UNL     1       0.275   0.551   0.865  1.00  0.00    -0.375 N 
ATOM      9  H1  UNL     1       0.388   1.369   1.464  1.00  0.00     0.161 HD
BRANCH   8  10
HETATM   10  C5  UNL     1       1.437  -0.272   0.569  1.00  0.00     0.082 C 
HETATM   11  C6  UNL     1       2.667   0.248   1.230  1.00  0.00     0.025 C 
HETATM   12  C7  UNL     1       3.807   0.118   0.263  1.00  0.00     0.002 C 
HETATM   13  C8  UNL     1       3.246  -0.745  -0.848  1.00  0.00     0.002 C 
HETATM   14  C9  UNL     1       1.801  -0.232  -0.900  1.00  0.00     0.025 C 
ENDBRANCH   8  10
ENDBRANCH   4   8
TORSDOF 2
