REMARK  3 active torsions:
REMARK  status: ('A' for Active; 'I' for Inactive)
REMARK    1  A    between atoms: C1_4  and  C2_5 
REMARK    2  A    between atoms: C2_5  and  C3_6 
REMARK    3  A    between atoms: C10_13  and  N2_14 
ROOT
HETATM    1  C3  UNL     1      -0.982   0.585   0.216  1.00  0.00    -0.005 C 
HETATM    2  C4  UNL     1       0.061   1.681   0.223  1.00  0.00     0.012 C 
HETATM    3  C5  UNL     1       1.398   1.015   0.493  1.00  0.00     0.016 C 
HETATM    4  C6  UNL     1       1.246   0.232   1.776  1.00  0.00     0.007 C 
HETATM    5  C7  UNL     1       0.343  -0.957   1.603  1.00  0.00     0.005 C 
HETATM    6  C8  UNL     1      -0.372  -0.784   0.266  1.00  0.00    -0.008 C 
HETATM    7  C9  UNL     1       0.704  -0.972  -0.794  1.00  0.00     0.038 C 
HETATM    8  C10 UNL     1       1.714   0.155  -0.691  1.00  0.00     0.188 C 
ENDROOT
BRANCH   1   9
HETATM    9  C2  UNL     1      -1.880   0.694  -1.015  1.00  0.00     0.049 C 
BRANCH   9  10
HETATM   10  C1  UNL     1      -2.871  -0.413  -0.945  1.00  0.00     0.053 C 
HETATM   11  N1  UNL     1      -4.028  -0.193  -0.453  1.00  0.00    -0.411 N 
ATOM     12  H12 UNL     1      -4.256   0.742  -0.114  1.00  0.00     0.155 HD
ATOM     13  H11 UNL     1      -4.708  -0.952  -0.405  1.00  0.00     0.155 HD
ENDBRANCH   9  10
ENDBRANCH   1   9
BRANCH   8  14
HETATM   14  N2  UNL     1       3.069  -0.337  -0.691  1.00  0.00    -0.075 N 
ATOM     15  H23 UNL     1       3.734   0.432  -0.614  1.00  0.00     0.274 HD
ATOM     16  H22 UNL     1       3.277  -0.827   0.179  1.00  0.00     0.274 HD
ATOM     17  H21 UNL     1       3.284  -0.923  -1.498  1.00  0.00     0.274 HD
ENDBRANCH   8  14
TORSDOF 3
