REMARK  1 active torsions:
REMARK  status: ('A' for Active; 'I' for Inactive)
REMARK    1  A    between atoms: N1_2  and  C2_4 
ROOT
HETATM    1  C2  UNL     1       0.897  -0.239  -0.036  1.00  0.00     0.025 C 
HETATM    2  C3  UNL     1       0.425  -1.223   1.003  1.00  0.00     0.031 C 
HETATM    3  C4  UNL     1      -1.040  -1.552   0.857  1.00  0.00     0.007 C 
HETATM    4  C5  UNL     1      -1.647  -0.598  -0.162  1.00  0.00    -0.011 C 
HETATM    5  C6  UNL     1      -1.033  -0.911  -1.495  1.00  0.00     0.007 C 
HETATM    6  C7  UNL     1       0.437  -0.714  -1.406  1.00  0.00     0.031 C 
HETATM    7  C8  UNL     1      -1.311   0.793   0.317  1.00  0.00    -0.012 C 
HETATM    8  C9  UNL     1      -2.083   1.864  -0.453  1.00  0.00     0.010 C 
HETATM    9  C10 UNL     1       0.173   1.061   0.277  1.00  0.00     0.035 C 
ENDROOT
BRANCH   1  10
HETATM   10  N1  UNL     1       2.300  -0.103  -0.104  1.00  0.00    -0.417 N 
HETATM   11  C1  UNL     1       3.001   0.500   0.957  1.00  0.00     0.140 C 
ATOM     12  H1  UNL     1       2.806  -0.442  -0.922  1.00  0.00     0.153 HD
ENDBRANCH   1  10
TORSDOF 1
