REMARK  2 active torsions:
REMARK  status: ('A' for Active; 'I' for Inactive)
REMARK    1  A    between atoms: C2_2  and  N1_3 
REMARK    2  A    between atoms: C2_2  and  C3_7 
ROOT
HETATM    1  C3  UNL     1       0.298  -0.174   0.071  1.00  0.00    -0.008 C 
HETATM    2  C4  UNL     1      -0.336   0.025  -1.261  1.00  0.00     0.016 C 
HETATM    3  C5  UNL     1      -1.769   0.393  -0.864  1.00  0.00    -0.013 C 
HETATM    4  C6  UNL     1      -2.320  -0.756  -0.088  1.00  0.00     0.010 C 
HETATM    5  C7  UNL     1      -1.396  -0.801   1.114  1.00  0.00    -0.009 C 
HETATM    6  C8  UNL     1      -0.105  -1.514   0.696  1.00  0.00     0.017 C 
HETATM    7  C9  UNL     1      -0.582   0.473   1.086  1.00  0.00     0.001 C 
HETATM    8  C10 UNL     1      -1.464   1.389   0.266  1.00  0.00     0.010 C 
ENDROOT
BRANCH   1   9
HETATM    9  C2  UNL     1       1.761   0.024   0.197  1.00  0.00     0.188 C 
HETATM   10  C1  UNL     1       2.245   1.401  -0.160  1.00  0.00     0.040 C 
BRANCH   9  11
HETATM   11  N1  UNL     1       2.553  -0.931  -0.519  1.00  0.00    -0.075 N 
ATOM     12  H13 UNL     1       2.555  -0.764  -1.525  1.00  0.00     0.274 HD
ATOM     13  H12 UNL     1       3.553  -0.812  -0.357  1.00  0.00     0.274 HD
ATOM     14  H11 UNL     1       2.224  -1.866  -0.277  1.00  0.00     0.274 HD
ENDBRANCH   9  11
ENDBRANCH   1   9
TORSDOF 2
