REMARK  1 active torsions:
REMARK  status: ('A' for Active; 'I' for Inactive)
REMARK    1  A    between atoms: C4_7  and  O3_9 
ROOT
HETATM    1  C1  UNL     1       0.551  -1.758   0.281  1.00  0.00     0.045 C 
HETATM    2  C2  UNL     1       0.575  -0.250   0.192  1.00  0.00     0.181 C 
HETATM    3  O1  UNL     1       1.524   0.126  -0.772  1.00  0.00    -0.369 OA
HETATM    4  C3  UNL     1       1.998   1.397  -0.368  1.00  0.00     0.273 C 
HETATM    5  S1  UNL     1       0.560   2.516  -0.598  1.00  0.00     0.018 SA
HETATM    6  O2  UNL     1      -0.760   1.433  -0.915  1.00  0.00    -0.277 OA
HETATM    7  C4  UNL     1      -0.746   0.377   0.016  1.00  0.00     0.197 C 
HETATM    8  C5  UNL     1      -1.846  -0.562  -0.406  1.00  0.00     0.082 C 
ENDROOT
BRANCH   7   9
HETATM    9  O3  UNL     1      -1.173   0.961   1.232  1.00  0.00    -0.363 OA
ATOM     10  H3  UNL     1      -2.025   1.365   1.118  1.00  0.00     0.213 HD
ENDBRANCH   7   9
TORSDOF 1
