REMARK  0 active torsions:
REMARK  status: ('A' for Active; 'I' for Inactive)
ROOT
HETATM    1  O1  UNL     1       0.820   0.171   2.558  1.00  0.00    -0.260 OA
HETATM    2  C1  UNL     1       1.091   0.096   1.339  1.00  0.00     0.323 C 
HETATM    3  O2  UNL     1       2.372   0.098   0.817  1.00  0.00    -0.317 OA
HETATM    4  C2  UNL     1       2.394  -0.420  -0.496  1.00  0.00     0.184 C 
HETATM    5  C3  UNL     1       1.017  -0.100  -1.007  1.00  0.00     0.107 C 
HETATM    6  C4  UNL     1       0.142  -0.008   0.226  1.00  0.00     0.316 C 
HETATM    7  N1  UNL     1      -0.694   1.160   0.225  1.00  0.00    -0.031 N 
ATOM      8  H11 UNL     1      -0.557   1.767  -0.583  1.00  0.00     0.281 HD
ATOM      9  H12 UNL     1      -0.443   1.851   0.932  1.00  0.00     0.281 HD
HETATM   10  C5  UNL     1      -2.054   0.644   0.356  1.00  0.00     0.262 C 
HETATM   11  C6  UNL     1      -1.868  -0.726  -0.310  1.00  0.00     0.199 C 
HETATM   12  O3  UNL     1      -0.666  -1.119   0.273  1.00  0.00    -0.345 OA
ENDROOT
TORSDOF 0
