REMARK  1 active torsions:
REMARK  status: ('A' for Active; 'I' for Inactive)
REMARK       I    between atoms: C2_3  and  N2_5 
REMARK    1  A    between atoms: N2_5  and  C3_7 
ROOT
HETATM    1  N1  UNL     1       5.257   0.183   0.101  1.00  0.00    -0.186 NA
HETATM    2  C1  UNL     1       4.125  -0.107   0.124  1.00  0.00     0.162 C 
HETATM    3  C2  UNL     1       2.736  -0.453   0.177  1.00  0.00     0.340 C 
HETATM    4  O1  UNL     1       2.354  -1.625  -0.035  1.00  0.00    -0.255 OA
HETATM    5  N2  UNL     1       1.773   0.530   0.470  1.00  0.00    -0.147 N 
ATOM      6  H2  UNL     1       2.117   1.476   0.635  1.00  0.00     0.188 HD
ENDROOT
BRANCH   5   7
HETATM    7  C3  UNL     1       0.374   0.336   0.558  1.00  0.00     0.677 C 
HETATM    8  N3  UNL     1      -0.387   1.375   0.833  1.00  0.00    -0.226 N 
HETATM    9  C4  UNL     1      -1.817   1.034   0.895  1.00  0.00     0.139 C 
ATOM     10  H3  UNL     1      -0.024   2.316   0.987  1.00  0.00     0.177 HD
HETATM   11  C5  UNL     1      -2.144   0.349  -0.420  1.00  0.00     0.040 C 
HETATM   12  C6  UNL     1      -1.502  -1.033  -0.422  1.00  0.00     0.139 C 
HETATM   13  N4  UNL     1      -0.290  -0.903   0.380  1.00  0.00    -0.226 N 
ATOM     14  H4  UNL     1       0.093  -1.735   0.829  1.00  0.00     0.177 HD
ENDBRANCH   5   7
TORSDOF 1
