REMARK  0 active torsions:
REMARK  status: ('A' for Active; 'I' for Inactive)
ROOT
HETATM    1  C1  UNL     1      -2.125  -0.541   0.526  1.00  0.00     0.042 C 
HETATM    2  C2  UNL     1      -0.719  -0.390   0.077  1.00  0.00     0.147 C 
HETATM    3  C3  UNL     1      -0.494   0.886  -0.746  1.00  0.00     0.205 C 
HETATM    4  O1  UNL     1       0.898   0.964  -0.683  1.00  0.00    -0.332 OA
HETATM    5  C4  UNL     1       1.312   0.251   0.410  1.00  0.00     0.322 C 
HETATM    6  S1  UNL     1       2.448   1.264   1.372  1.00  0.00    -0.007 SA
HETATM    7  C5  UNL     1       1.965  -1.027   0.045  1.00  0.00     0.141 C 
HETATM    8  N1  UNL     1       2.462  -2.031  -0.248  1.00  0.00    -0.190 NA
HETATM    9  O2  UNL     1       0.171  -0.109   1.140  1.00  0.00    -0.327 OA
ENDROOT
TORSDOF 0
