REMARK  4 active torsions:
REMARK  status: ('A' for Active; 'I' for Inactive)
REMARK    1  A    between atoms: O1_2  and  C2_3 
REMARK    2  A    between atoms: C2_3  and  C3_5 
REMARK    3  A    between atoms: C3_5  and  O3_10 
REMARK    4  A    between atoms: N1_6  and  O2_8 
ROOT
HETATM    1  C3  UNL     1      -0.585   0.182   0.483  1.00  0.00     0.207 C 
HETATM    2  N1  UNL     1      -0.877   0.864  -0.582  1.00  0.00    -0.244 N 
ATOM      3  H1  UNL     1      -1.851   1.007  -0.849  1.00  0.00     0.196 HD
ENDROOT
BRANCH   1   4
HETATM    4  C2  UNL     1       0.806  -0.025   0.870  1.00  0.00     0.189 C 
HETATM    5  S1  UNL     1       1.097  -0.892   2.222  1.00  0.00    -0.048 SA
BRANCH   4   6
HETATM    6  O1  UNL     1       1.854   0.473   0.154  1.00  0.00    -0.342 OA
HETATM    7  C1  UNL     1       2.719  -0.263  -0.671  1.00  0.00     0.211 C 
ENDBRANCH   4   6
ENDBRANCH   1   4
BRANCH   1   8
HETATM    8  O3  UNL     1      -1.638  -0.322   1.209  1.00  0.00    -0.337 OA
HETATM    9  C4  UNL     1      -2.901  -0.569   0.592  1.00  0.00     0.212 C 
ENDBRANCH   1   8
BRANCH   2  10
HETATM   10  O2  UNL     1       0.123   1.385  -1.337  1.00  0.00    -0.288 OA
ATOM     11  H2  UNL     1      -0.091   1.884  -2.117  1.00  0.00     0.244 HD
ENDBRANCH   2  10
TORSDOF 4
