REMARK  0 active torsions:
REMARK  status: ('A' for Active; 'I' for Inactive)
ROOT
HETATM    1  C1  UNL     1      -0.974  -0.007   1.339  1.00  0.00     0.067 C 
HETATM    2  C2  UNL     1      -0.528   0.031  -0.098  1.00  0.00     0.153 C 
HETATM    3  C3  UNL     1      -1.810  -0.216  -0.915  1.00  0.00     0.067 C 
HETATM    4  N1  UNL     1      -0.099   1.366  -0.425  1.00  0.00    -0.051 NA
HETATM    5  O1  UNL     1       1.021   1.768   0.220  1.00  0.00    -0.180 OA
HETATM    6  C4  UNL     1       2.181   1.057   0.472  1.00  0.00     0.427 C 
HETATM    7  O2  UNL     1       3.218   1.696   0.797  1.00  0.00    -0.228 OA
HETATM    8  O3  UNL     1       2.362  -0.316   0.413  1.00  0.00    -0.271 OA
HETATM    9  C5  UNL     1       1.304  -1.287   0.448  1.00  0.00     0.353 C 
HETATM   10  O4  UNL     1       0.340  -0.956  -0.454  1.00  0.00    -0.338 OA
ENDROOT
TORSDOF 0
