REMARK  8 active torsions:
REMARK  status: ('A' for Active; 'I' for Inactive)
REMARK    1  A    between atoms: C5_7  and  C6_8 
REMARK    2  A    between atoms: C6_8  and  N2_9 
REMARK    3  A    between atoms: N2_9  and  C7_12 
REMARK    4  A    between atoms: C7_12  and  C8_13 
REMARK    5  A    between atoms: C8_13  and  C9_14 
REMARK    6  A    between atoms: C9_14  and  C10_15 
REMARK    7  A    between atoms: C10_15  and  C11_16 
REMARK    8  A    between atoms: C11_16  and  C12_17 
ROOT
HETATM    1  C8  UNL     1       0.821  -0.218  -0.413  1.00  0.00     0.027 C 
ENDROOT
BRANCH   1   2
HETATM    2  C7  UNL     1       1.842   0.888  -0.192  1.00  0.00     0.232 C 
BRANCH   2   3
HETATM    3  N2  UNL     1       3.003   0.517   0.562  1.00  0.00    -0.071 N 
ATOM      4  H22 UNL     1       2.762  -0.089   1.346  1.00  0.00     0.277 HD
ATOM      5  H21 UNL     1       3.378   1.308   1.085  1.00  0.00     0.277 HD
BRANCH   3   6
HETATM    6  C6  UNL     1       4.008  -0.084  -0.284  1.00  0.00     0.272 C 
BRANCH   6   7
HETATM    7  C5  UNL     1       5.255  -0.286   0.496  1.00  0.00    -0.009 A 
HETATM    8  C2  UNL     1       6.486   0.266   0.024  1.00  0.00     0.013 A 
HETATM    9  C1  UNL     1       6.411   1.299  -1.070  1.00  0.00     0.068 C 
HETATM   10  N1  UNL     1       7.472  -0.202   0.746  1.00  0.00    -0.369 N 
HETATM   11  C3  UNL     1       7.011  -1.042   1.675  1.00  0.00     0.089 A 
ATOM     12  H1  UNL     1       8.454   0.041   0.617  1.00  0.00     0.165 HD
HETATM   13  C4  UNL     1       5.596  -1.084   1.515  1.00  0.00     0.027 A 
ENDBRANCH   6   7
ENDBRANCH   3   6
ENDBRANCH   2   3
ENDBRANCH   1   2
BRANCH   1  14
HETATM   14  C9  UNL     1       0.360  -0.722   0.896  1.00  0.00     0.002 C 
BRANCH  14  15
HETATM   15  C10 UNL     1      -1.122  -1.176   0.815  1.00  0.00     0.003 C 
BRANCH  15  16
HETATM   16  C11 UNL     1      -1.884   0.140   0.607  1.00  0.00     0.035 C 
BRANCH  16  17
HETATM   17  C12 UNL     1      -3.336  -0.105   0.461  1.00  0.00     0.160 C 
HETATM   18  C13 UNL     1      -3.624  -0.958  -0.767  1.00  0.00     0.035 C 
HETATM   19  C14 UNL     1      -4.747  -0.274  -1.576  1.00  0.00     0.003 C 
HETATM   20  C15 UNL     1      -6.038  -0.320  -0.755  1.00  0.00     0.008 C 
HETATM   21  C16 UNL     1      -6.293   0.980  -0.051  1.00  0.00     0.110 C 
HETATM   22  C17 UNL     1      -5.899   0.909   1.408  1.00  0.00     0.364 A 
HETATM   23  O1  UNL     1      -4.592   1.436   1.481  1.00  0.00    -0.166 OA
HETATM   24  O3  UNL     1      -6.813   1.145   2.363  1.00  0.00    -0.161 OA
HETATM   25  O4  UNL     1      -6.243  -0.058   2.217  1.00  0.00    -0.161 OA
HETATM   26  O2  UNL     1      -4.003   1.108   0.363  1.00  0.00    -0.230 OA
ENDBRANCH  16  17
ENDBRANCH  15  16
ENDBRANCH  14  15
ENDBRANCH   1  14
TORSDOF 8
