REMARK  9 active torsions:
REMARK  status: ('A' for Active; 'I' for Inactive)
REMARK    1  A    between atoms: C6_6  and  C7_7 
REMARK    2  A    between atoms: C7_7  and  C8_8 
REMARK    3  A    between atoms: C8_8  and  C9_9 
REMARK    4  A    between atoms: C9_9  and  C10_10 
REMARK    5  A    between atoms: C10_10  and  S1_11 
REMARK    6  A    between atoms: S1_11  and  C11_12 
REMARK    7  A    between atoms: C11_12  and  N1_14 
REMARK    8  A    between atoms: N1_14  and  C12_16 
REMARK    9  A    between atoms: C12_16  and  C13_17 
ROOT
HETATM    1  S1  UNL     1       1.799  -1.582   0.009  1.00  0.00    -0.101 SA
ENDROOT
BRANCH   1   2
HETATM    2  C10 UNL     1       1.854   0.208  -0.256  1.00  0.00     0.082 C 
BRANCH   2   3
HETATM    3  C9  UNL     1       0.504   0.803  -0.457  1.00  0.00     0.010 C 
BRANCH   3   4
HETATM    4  C8  UNL     1      -0.421   0.594   0.715  1.00  0.00     0.001 C 
BRANCH   4   5
HETATM    5  C7  UNL     1      -1.775   1.199   0.498  1.00  0.00     0.005 C 
BRANCH   5   6
HETATM    6  C6  UNL     1      -2.481   0.618  -0.704  1.00  0.00    -0.014 C 
HETATM    7  C5  UNL     1      -2.698  -0.856  -0.592  1.00  0.00     0.005 C 
HETATM    8  C4  UNL     1      -3.672  -1.252   0.480  1.00  0.00     0.001 C 
HETATM    9  C3  UNL     1      -5.010  -0.596   0.115  1.00  0.00     0.004 C 
HETATM   10  C2  UNL     1      -4.785   0.894   0.214  1.00  0.00    -0.018 C 
HETATM   11  C1  UNL     1      -6.070   1.671   0.059  1.00  0.00     0.010 C 
HETATM   12  C14 UNL     1      -3.803   1.335  -0.849  1.00  0.00     0.008 C 
ENDBRANCH   5   6
ENDBRANCH   4   5
ENDBRANCH   3   4
ENDBRANCH   2   3
ENDBRANCH   1   2
BRANCH   1  13
HETATM   13  C11 UNL     1       3.434  -2.252   0.245  1.00  0.00     0.134 C 
HETATM   14  S2  UNL     1       3.681  -3.840   0.505  1.00  0.00    -0.053 SA
BRANCH  13  15
HETATM   15  N1  UNL     1       4.564  -1.399   0.210  1.00  0.00    -0.368 N 
ATOM     16  H1  UNL     1       4.425  -0.402   0.048  1.00  0.00     0.161 HD
BRANCH  15  17
HETATM   17  C12 UNL     1       5.911  -1.899   0.397  1.00  0.00     0.199 C 
BRANCH  17  18
HETATM   18  C13 UNL     1       6.914  -0.815   0.317  1.00  0.00     0.124 A 
HETATM   19  N2  UNL     1       6.603   0.475   0.096  1.00  0.00    -0.272 N 
HETATM   20  N3  UNL     1       7.705   1.203   0.078  1.00  0.00    -0.007 NA
ATOM     21  H2  UNL     1       5.659   0.836  -0.038  1.00  0.00     0.185 HD
HETATM   22  N4  UNL     1       8.713   0.368   0.287  1.00  0.00    -0.007 NA
HETATM   23  N5  UNL     1       8.239  -0.865   0.434  1.00  0.00    -0.272 N 
ATOM     24  H5  UNL     1       8.794  -1.703   0.606  1.00  0.00     0.185 HD
ENDBRANCH  17  18
ENDBRANCH  15  17
ENDBRANCH  13  15
ENDBRANCH   1  13
TORSDOF 9
