REMARK  10 active torsions:
REMARK  status: ('A' for Active; 'I' for Inactive)
REMARK    1  A    between atoms: C2_2  and  C3_3 
REMARK    2  A    between atoms: C3_3  and  C4_4 
REMARK    3  A    between atoms: C4_4  and  N1_5 
REMARK    4  A    between atoms: C5_6  and  N2_7 
REMARK    5  A    between atoms: N2_7  and  N3_9 
REMARK    6  A    between atoms: N3_9  and  N4_10 
REMARK    7  A    between atoms: C9_16  and  N5_17 
REMARK    8  A    between atoms: N5_17  and  N6_19 
REMARK    9  A    between atoms: N6_19  and  C10_21 
REMARK   10  A    between atoms: C10_21  and  C12_23 
ROOT
HETATM    1  N1  UNL     1       2.062   0.702  -0.059  1.00  0.00    -0.316 N 
HETATM    2  C5  UNL     1       1.674   0.797   1.225  1.00  0.00     0.143 A 
HETATM    3  C6  UNL     1       0.432   0.212   1.289  1.00  0.00     0.002 A 
HETATM    4  C7  UNL     1      -0.418   0.067   2.496  1.00  0.00     0.053 C 
HETATM    5  C8  UNL     1       0.051  -0.250   0.034  1.00  0.00     0.063 A 
HETATM    6  C9  UNL     1      -1.068  -0.899  -0.447  1.00  0.00     0.135 A 
HETATM    7  N7  UNL     1      -1.119  -1.215  -1.745  1.00  0.00    -0.337 N 
ATOM      8  H7  UNL     1      -1.934  -1.696  -2.125  1.00  0.00     0.168 HD
HETATM    9  C14 UNL     1      -0.078  -0.890  -2.552  1.00  0.00     0.183 A 
HETATM   10  N8  UNL     1       1.008  -0.259  -2.091  1.00  0.00    -0.338 N 
ATOM     11  H8  UNL     1       1.771  -0.030  -2.728  1.00  0.00     0.168 HD
HETATM   12  C15 UNL     1       1.098   0.072  -0.800  1.00  0.00     0.124 A 
ENDROOT
BRANCH   6  13
HETATM   13  N5  UNL     1      -2.039  -1.190   0.329  1.00  0.00    -0.289 N 
ATOM     14  H5  UNL     1      -1.926  -0.913   1.304  1.00  0.00     0.188 HD
BRANCH  13  15
HETATM   15  N6  UNL     1      -3.212  -1.826   0.022  1.00  0.00    -0.330 N 
ATOM     16  H6  UNL     1      -3.207  -2.824  -0.189  1.00  0.00     0.180 HD
BRANCH  15  17
HETATM   17  C10 UNL     1      -4.479  -1.079  -0.005  1.00  0.00     0.095 C 
HETATM   18  C11 UNL     1      -4.328  -0.047  -1.093  1.00  0.00     0.033 C 
BRANCH  17  19
HETATM   19  C12 UNL     1      -4.731  -0.443   1.344  1.00  0.00     0.022 C 
HETATM   20  C13 UNL     1      -6.008   0.330   1.363  1.00  0.00     0.007 C 
ENDBRANCH  17  19
ENDBRANCH  15  17
ENDBRANCH  13  15
ENDBRANCH   6  13
BRANCH   2  21
HETATM   21  N2  UNL     1       2.388   1.379   2.300  1.00  0.00    -0.199 N 
ATOM     22  H2  UNL     1       3.232   0.903   2.618  1.00  0.00     0.205 HD
BRANCH  21  23
HETATM   23  N3  UNL     1       2.069   2.409   2.875  1.00  0.00    -0.242 NA
BRANCH  23  24
HETATM   24  N4  UNL     1       1.532   3.430   3.281  1.00  0.00    -0.260 N 
ATOM     25  H42 UNL     1       0.762   3.319   2.622  1.00  0.00     0.193 HD
ATOM     26  H41 UNL     1       1.266   4.290   3.761  1.00  0.00     0.193 HD
ENDBRANCH  23  24
ENDBRANCH  21  23
ENDBRANCH   2  21
BRANCH   1  27
HETATM   27  C4  UNL     1       3.289   1.167  -0.621  1.00  0.00     0.132 C 
BRANCH  27  28
HETATM   28  C3  UNL     1       4.391   0.139  -0.607  1.00  0.00     0.020 C 
BRANCH  28  29
HETATM   29  C2  UNL     1       5.651   0.721  -1.220  1.00  0.00    -0.003 C 
HETATM   30  C1  UNL     1       6.721  -0.338  -1.186  1.00  0.00     0.005 C 
ENDBRANCH  28  29
ENDBRANCH  27  28
ENDBRANCH   1  27
TORSDOF 10
