REMARK  7 active torsions:
REMARK  status: ('A' for Active; 'I' for Inactive)
REMARK    1  A    between atoms: O1_2  and  C2_3 
REMARK    2  A    between atoms: C4_5  and  N1_6 
REMARK    3  A    between atoms: N1_6  and  C5_8 
REMARK    4  A    between atoms: C12_15  and  O2_16 
REMARK    5  A    between atoms: O2_16  and  C13_17 
REMARK    6  A    between atoms: C13_17  and  C14_18 
REMARK    7  A    between atoms: C17_24  and  O3_25 
ROOT
HETATM    1  C2  UNL     1       0.290   1.896   1.550  1.00  0.00     0.106 A 
HETATM    2  C3  UNL     1      -0.726   1.578   0.640  1.00  0.00     0.069 A 
HETATM    3  C4  UNL     1      -0.623   0.491  -0.190  1.00  0.00     0.033 A 
HETATM    4  C11 UNL     1       0.509  -0.287  -0.111  1.00  0.00     0.069 A 
HETATM    5  C12 UNL     1       1.528  -0.004   0.773  1.00  0.00     0.107 A 
HETATM    6  C17 UNL     1       1.405   1.093   1.599  1.00  0.00     0.135 A 
ENDROOT
BRANCH   3   7
HETATM    7  N1  UNL     1      -1.647   0.165  -1.098  1.00  0.00    -0.385 N 
ATOM      8  H1  UNL     1      -1.506  -0.567  -1.794  1.00  0.00     0.160 HD
BRANCH   7   9
HETATM    9  C5  UNL     1      -2.902   0.880  -1.034  1.00  0.00     0.081 C 
HETATM   10  C6  UNL     1      -3.551   0.566   0.293  1.00  0.00     0.025 C 
HETATM   11  C7  UNL     1      -4.844  -0.180   0.030  1.00  0.00     0.002 C 
HETATM   12  C8  UNL     1      -4.572  -1.352  -0.868  1.00  0.00     0.000 C 
HETATM   13  C9  UNL     1      -4.092  -0.910  -2.215  1.00  0.00     0.002 C 
HETATM   14  C10 UNL     1      -3.783   0.546  -2.207  1.00  0.00     0.025 C 
ENDBRANCH   7   9
ENDBRANCH   3   7
BRANCH   1  15
HETATM   15  O1  UNL     1       0.152   3.001   2.373  1.00  0.00    -0.353 OA
HETATM   16  C1  UNL     1      -1.001   3.805   2.300  1.00  0.00     0.210 C 
ENDBRANCH   1  15
BRANCH   5  17
HETATM   17  O2  UNL     1       2.649  -0.781   0.847  1.00  0.00    -0.346 OA
BRANCH  17  18
HETATM   18  C13 UNL     1       2.765  -1.903  -0.007  1.00  0.00     0.208 C 
BRANCH  18  19
HETATM   19  C14 UNL     1       4.073  -2.643   0.220  1.00  0.00     0.211 C 
HETATM   20  C15 UNL     1       4.456  -3.414  -1.033  1.00  0.00     0.062 C 
HETATM   21  C16 UNL     1       5.105  -2.124  -1.444  1.00  0.00     0.235 C 
HETATM   22  N2  UNL     1       5.178  -1.750  -0.042  1.00  0.00    -0.069 N 
ATOM     23  H22 UNL     1       5.130  -0.770   0.237  1.00  0.00     0.277 HD
ATOM     24  H21 UNL     1       6.053  -1.842   0.474  1.00  0.00     0.277 HD
ENDBRANCH  18  19
ENDBRANCH  17  18
ENDBRANCH   5  17
BRANCH   6  25
HETATM   25  O3  UNL     1       2.409   1.415   2.506  1.00  0.00    -0.351 OA
HETATM   26  C18 UNL     1       3.485   2.259   2.210  1.00  0.00     0.210 C 
ENDBRANCH   6  25
TORSDOF 7
