REMARK  9 active torsions:
REMARK  status: ('A' for Active; 'I' for Inactive)
REMARK    1  A    between atoms: C2_2  and  C4_4 
REMARK    2  A    between atoms: C8_8  and  O1_9 
REMARK    3  A    between atoms: C9_11  and  O2_12 
REMARK    4  A    between atoms: N1_15  and  C11_16 
REMARK    5  A    between atoms: C11_16  and  C12_17 
REMARK    6  A    between atoms: C12_17  and  C13_18 
REMARK    7  A    between atoms: C13_18  and  C14_19 
REMARK    8  A    between atoms: C14_19  and  C15_20 
REMARK    9  A    between atoms: C15_20  and  C16_21 
ROOT
HETATM    1  C16 UNL     1       6.368  -0.492   0.242  1.00  0.00     0.124 C 
HETATM    2  C17 UNL     1       6.930  -0.243   1.584  1.00  0.00     0.059 C 
HETATM    3  N2  UNL     1       7.360  -0.066   2.637  1.00  0.00    -0.197 NA
ENDROOT
BRANCH   1   4
HETATM    4  C15 UNL     1       5.390   0.583  -0.105  1.00  0.00     0.014 C 
BRANCH   4   5
HETATM    5  C14 UNL     1       4.817   0.339  -1.478  1.00  0.00     0.001 C 
BRANCH   5   6
HETATM    6  C13 UNL     1       4.112  -0.980  -1.554  1.00  0.00     0.002 C 
BRANCH   6   7
HETATM    7  C12 UNL     1       2.983  -1.060  -0.531  1.00  0.00     0.030 C 
BRANCH   7   8
HETATM    8  C11 UNL     1       1.959  -0.012  -0.726  1.00  0.00     0.275 C 
BRANCH   8   9
HETATM    9  N1  UNL     1       0.917  -0.033   0.252  1.00  0.00     0.116 N 
HETATM   10  C10 UNL     1      -0.003   1.053   0.119  1.00  0.00     0.319 C 
HETATM   11  C7  UNL     1      -1.423   0.747   0.196  1.00  0.00     0.039 A 
HETATM   12  C6  UNL     1      -1.868  -0.538   0.040  1.00  0.00     0.082 A 
HETATM   13  C8  UNL     1      -2.382   1.742   0.431  1.00  0.00     0.110 A 
HETATM   14  C5  UNL     1      -3.216  -0.817   0.118  1.00  0.00     0.048 A 
HETATM   15  O3  UNL     1      -0.894  -1.496  -0.192  1.00  0.00    -0.321 OA
HETATM   16  C4  UNL     1      -4.176   0.143   0.348  1.00  0.00    -0.016 A 
HETATM   17  C9  UNL     1      -3.727   1.434   0.504  1.00  0.00     0.106 A 
HETATM   18  C18 UNL     1       0.372  -1.300   0.475  1.00  0.00     0.447 C 
BRANCH  16  19
HETATM   19  C2  UNL     1      -5.617  -0.182   0.424  1.00  0.00     0.013 C 
HETATM   20  C1  UNL     1      -5.846  -1.670   0.274  1.00  0.00     0.015 C 
HETATM   21  C3  UNL     1      -6.408   0.482  -0.681  1.00  0.00     0.015 C 
ENDBRANCH  16  19
BRANCH  17  22
HETATM   22  O2  UNL     1      -4.623   2.469   0.740  1.00  0.00    -0.357 OA
ATOM     23  H2  UNL     1      -4.313   3.360   0.848  1.00  0.00     0.217 HD
ENDBRANCH  17  22
BRANCH  13  24
HETATM   24  O1  UNL     1      -1.958   3.053   0.590  1.00  0.00    -0.357 OA
ATOM     25  H1  UNL     1      -2.608   3.727   0.749  1.00  0.00     0.217 HD
ENDBRANCH  13  24
ENDBRANCH   8   9
ENDBRANCH   7   8
ENDBRANCH   6   7
ENDBRANCH   5   6
ENDBRANCH   4   5
ENDBRANCH   1   4
TORSDOF 9
