REMARK  9 active torsions:
REMARK  status: ('A' for Active; 'I' for Inactive)
REMARK    1  A    between atoms: C2_2  and  O1_3 
REMARK    2  A    between atoms: O1_3  and  C3_4 
REMARK    3  A    between atoms: C4_5  and  O2_6 
REMARK    4  A    between atoms: C7_9  and  O3_10 
REMARK    5  A    between atoms: C8_12  and  C9_13 
REMARK    6  A    between atoms: C9_13  and  N1_14 
REMARK    7  A    between atoms: N1_14  and  C11_16 
REMARK    8  A    between atoms: C11_16  and  C12_17 
REMARK    9  A    between atoms: C18_23  and  O4_24 
ROOT
HETATM    1  C3  UNL     1       2.886   0.587   0.643  1.00  0.00     0.136 A 
HETATM    2  C4  UNL     1       3.743  -0.494   0.791  1.00  0.00     0.107 A 
HETATM    3  C6  UNL     1       3.201  -1.734   1.062  1.00  0.00     0.077 A 
HETATM    4  C7  UNL     1       1.846  -1.920   1.188  1.00  0.00     0.082 A 
HETATM    5  C8  UNL     1       1.001  -0.800   1.033  1.00  0.00     0.043 A 
HETATM    6  C18 UNL     1       1.503   0.448   0.762  1.00  0.00     0.116 A 
ENDROOT
BRANCH   5   7
HETATM    7  C9  UNL     1      -0.430  -1.123   1.166  1.00  0.00     0.076 C 
BRANCH   7   8
HETATM    8  N1  UNL     1      -1.393  -0.116   1.118  1.00  0.00    -0.295 NA
HETATM    9  C10 UNL     1      -1.507   0.724   2.313  1.00  0.00     0.116 C 
BRANCH   8  10
HETATM   10  C11 UNL     1      -2.708  -0.433   0.687  1.00  0.00     0.099 C 
BRANCH  10  11
HETATM   11  C12 UNL     1      -2.848  -0.783  -0.778  1.00  0.00    -0.001 C 
HETATM   12  C13 UNL     1      -2.387   0.398  -1.571  1.00  0.00     0.006 C 
HETATM   13  C14 UNL     1      -3.400   1.499  -1.562  1.00  0.00     0.000 C 
HETATM   14  C15 UNL     1      -4.614   0.956  -2.273  1.00  0.00     0.000 C 
HETATM   15  C16 UNL     1      -5.186  -0.216  -1.566  1.00  0.00     0.000 C 
HETATM   16  C17 UNL     1      -4.241  -1.225  -1.066  1.00  0.00     0.006 C 
ENDBRANCH  10  11
ENDBRANCH   8  10
ENDBRANCH   7   8
ENDBRANCH   5   7
BRANCH   4  17
HETATM   17  O3  UNL     1       1.325  -3.192   1.460  1.00  0.00    -0.360 OA
ATOM     18  H3  UNL     1       0.388  -3.321   1.547  1.00  0.00     0.217 HD
ENDBRANCH   4  17
BRANCH   6  19
HETATM   19  O4  UNL     1       0.679   1.552   0.600  1.00  0.00    -0.357 OA
ATOM     20  H4  UNL     1      -0.263   1.457   0.681  1.00  0.00     0.217 HD
ENDBRANCH   6  19
BRANCH   1  21
HETATM   21  O1  UNL     1       3.375   1.840   0.372  1.00  0.00    -0.346 OA
BRANCH  21  22
HETATM   22  C2  UNL     1       3.554   2.342  -0.916  1.00  0.00     0.171 C 
HETATM   23  C1  UNL     1       4.493   1.561  -1.779  1.00  0.00     0.034 C 
ENDBRANCH  21  22
ENDBRANCH   1  21
BRANCH   2  24
HETATM   24  O2  UNL     1       5.108  -0.305   0.666  1.00  0.00    -0.353 OA
HETATM   25  C5  UNL     1       6.101  -1.271   0.785  1.00  0.00     0.210 C 
ENDBRANCH   2  24
TORSDOF 9
