REMARK  5 active torsions:
REMARK  status: ('A' for Active; 'I' for Inactive)
REMARK       I    between atoms: C2_2  and  N1_4 
REMARK    1  A    between atoms: N1_4  and  C3_6 
REMARK    2  A    between atoms: C3_6  and  C4_7 
REMARK    3  A    between atoms: C6_9  and  N2_10 
REMARK    4  A    between atoms: N3_15  and  C8_16 
REMARK    5  A    between atoms: C8_16  and  C9_17 
ROOT
HETATM    1  C4  UNL     1       1.328  -1.352  -0.526  1.00  0.00     0.242 C 
HETATM    2  C5  UNL     1       1.472  -2.889  -0.357  1.00  0.00     0.072 C 
HETATM    3  C6  UNL     1       0.702  -3.163   0.882  1.00  0.00     0.213 C 
HETATM    4  C7  UNL     1      -0.071  -1.892   1.137  1.00  0.00     0.305 C 
HETATM    5  N3  UNL     1      -0.001  -1.124  -0.097  1.00  0.00     0.097 N 
ENDROOT
BRANCH   5   6
HETATM    6  C8  UNL     1      -0.384   0.215   0.237  1.00  0.00     0.280 C 
BRANCH   6   7
HETATM    7  C9  UNL     1      -1.846   0.236   0.652  1.00  0.00     0.048 C 
HETATM    8  C10 UNL     1      -2.761  -0.246  -0.431  1.00  0.00     0.009 C 
HETATM    9  C11 UNL     1      -2.580   0.532  -1.703  1.00  0.00     0.001 C 
HETATM   10  C12 UNL     1      -2.976   1.962  -1.426  1.00  0.00     0.003 C 
HETATM   11  C13 UNL     1      -2.250   2.548  -0.244  1.00  0.00     0.037 C 
HETATM   12  C14 UNL     1      -2.253   1.673   0.965  1.00  0.00     0.175 C 
HETATM   13  F1  UNL     1      -3.418   1.729   1.681  1.00  0.00    -0.249 F 
ENDBRANCH   6   7
ENDBRANCH   5   6
BRANCH   1  14
HETATM   14  C3  UNL     1       2.434  -0.780   0.278  1.00  0.00     0.158 C 
BRANCH  14  15
HETATM   15  N1  UNL     1       2.580   0.633   0.301  1.00  0.00    -0.359 N 
HETATM   16  C2  UNL     1       2.823   1.421  -0.853  1.00  0.00     0.213 C 
HETATM   17  C1  UNL     1       2.958   2.888  -0.706  1.00  0.00     0.117 C 
HETATM   18  O1  UNL     1       2.917   0.854  -1.970  1.00  0.00    -0.274 OA
ATOM     19  H1  UNL     1       2.506   1.109   1.200  1.00  0.00     0.162 HD
ENDBRANCH  14  15
ENDBRANCH   1  14
BRANCH   3  20
HETATM   20  N2  UNL     1       1.484  -3.484   2.037  1.00  0.00    -0.073 N 
ATOM     21  H23 UNL     1       2.104  -4.267   1.832  1.00  0.00     0.274 HD
ATOM     22  H22 UNL     1       2.171  -2.749   2.208  1.00  0.00     0.274 HD
ATOM     23  H21 UNL     1       0.955  -3.672   2.888  1.00  0.00     0.274 HD
ENDBRANCH   3  20
TORSDOF 5
