REMARK  5 active torsions:
REMARK  status: ('A' for Active; 'I' for Inactive)
REMARK    1  A    between atoms: C2_3  and  N2_4 
REMARK    2  A    between atoms: C3_6  and  N3_7 
REMARK    3  A    between atoms: C3_6  and  C11_16 
REMARK    4  A    between atoms: N3_7  and  C4_9 
REMARK    5  A    between atoms: C4_9  and  C5_10 
ROOT
HETATM    1  N1  UNL     1       1.950  -2.212   4.734  1.00  0.00    -0.196 NA
HETATM    2  C1  UNL     1       1.686  -2.172   3.596  1.00  0.00     0.078 C 
HETATM    3  C2  UNL     1       1.360  -2.106   2.170  1.00  0.00     0.245 C 
ENDROOT
BRANCH   3   4
HETATM    4  N2  UNL     1       2.011  -1.024   1.503  1.00  0.00    -0.367 N 
HETATM    5  C3  UNL     1       1.413  -0.065   0.881  1.00  0.00     0.079 C 
ATOM      6  H2  UNL     1       3.031  -1.008   1.520  1.00  0.00     0.161 HD
BRANCH   5   7
HETATM    7  N3  UNL     1      -0.003   0.017   0.791  1.00  0.00    -0.379 N 
ATOM      8  H3  UNL     1      -0.495   0.635   1.436  1.00  0.00     0.160 HD
BRANCH   7   9
HETATM    9  C4  UNL     1      -0.777  -0.731  -0.167  1.00  0.00     0.125 C 
BRANCH   9  10
HETATM   10  C5  UNL     1      -2.250  -0.442  -0.025  1.00  0.00     0.003 C 
HETATM   11  C6  UNL     1      -2.535   1.017  -0.244  1.00  0.00     0.006 C 
HETATM   12  C7  UNL     1      -3.954   1.343  -0.496  1.00  0.00     0.000 C 
HETATM   13  C8  UNL     1      -4.953   0.270  -0.272  1.00  0.00     0.000 C 
HETATM   14  C9  UNL     1      -4.500  -1.121  -0.489  1.00  0.00     0.000 C 
HETATM   15  C10 UNL     1      -3.074  -1.191  -1.051  1.00  0.00     0.006 C 
ENDBRANCH   9  10
ENDBRANCH   7   9
ENDBRANCH   5   7
BRANCH   5  16
HETATM   16  C11 UNL     1       2.265   0.973   0.247  1.00  0.00     0.081 C 
HETATM   17  C12 UNL     1       1.963   0.961  -1.232  1.00  0.00     0.244 C 
HETATM   18  N4  UNL     1       2.983   1.637  -2.002  1.00  0.00    -0.072 N 
HETATM   19  C13 UNL     1       4.282   1.044  -1.858  1.00  0.00     0.269 C 
ATOM     20  H42 UNL     1       2.717   1.696  -2.985  1.00  0.00     0.277 HD
ATOM     21  H41 UNL     1       3.010   2.631  -1.776  1.00  0.00     0.277 HD
HETATM   22  C14 UNL     1       4.420   0.123  -0.698  1.00  0.00     0.196 C 
HETATM   23  F1  UNL     1       4.014  -1.164  -0.945  1.00  0.00    -0.248 F 
HETATM   24  C15 UNL     1       3.714   0.723   0.505  1.00  0.00     0.052 C 
ENDBRANCH   5  16
ENDBRANCH   3   4
TORSDOF 5
