REMARK  6 active torsions:
REMARK  status: ('A' for Active; 'I' for Inactive)
REMARK    1  A    between atoms: S1_3  and  C2_4 
REMARK    2  A    between atoms: C2_4  and  C3_5 
REMARK    3  A    between atoms: C3_5  and  N2_6 
REMARK    4  A    between atoms: N2_6  and  S2_8 
REMARK    5  A    between atoms: S2_8  and  N3_11 
REMARK    6  A    between atoms: N3_11  and  C4_13 
ROOT
HETATM    1  N1  UNL     1       6.200   0.749   1.480  1.00  0.00    -0.184 NA
HETATM    2  C1  UNL     1       5.482  -0.086   1.109  1.00  0.00     0.133 C 
HETATM    3  S1  UNL     1       4.440  -1.324   0.393  1.00  0.00    -0.049 SA
ENDROOT
BRANCH   3   4
HETATM    4  C2  UNL     1       3.834  -0.680  -1.202  1.00  0.00     0.110 C 
BRANCH   4   5
HETATM    5  C3  UNL     1       2.921   0.487  -0.952  1.00  0.00     0.144 C 
BRANCH   5   6
HETATM    6  N2  UNL     1       2.268   0.447   0.330  1.00  0.00    -0.302 N 
ATOM      7  H2  UNL     1       2.602   0.959   1.147  1.00  0.00     0.173 HD
BRANCH   6   8
HETATM    8  S2  UNL     1       0.868  -0.551   0.346  1.00  0.00     0.315 S 
HETATM    9  O1  UNL     1       0.558  -0.954   1.771  1.00  0.00    -0.183 OA
HETATM   10  O2  UNL     1       1.168  -1.822  -0.409  1.00  0.00    -0.183 OA
BRANCH   8  11
HETATM   11  N3  UNL     1      -0.525   0.240  -0.269  1.00  0.00    -0.298 N 
ATOM     12  H3  UNL     1      -0.542   0.773  -1.139  1.00  0.00     0.174 HD
BRANCH  11  13
HETATM   13  C4  UNL     1      -1.683   0.059   0.602  1.00  0.00     0.094 C 
HETATM   14  C5  UNL     1      -2.600   1.261   0.538  1.00  0.00     0.026 C 
HETATM   15  C6  UNL     1      -3.994   0.681   0.345  1.00  0.00     0.002 C 
HETATM   16  C7  UNL     1      -3.705  -0.496  -0.543  1.00  0.00     0.002 C 
HETATM   17  C8  UNL     1      -2.523  -1.130   0.171  1.00  0.00     0.026 C 
ENDBRANCH  11  13
ENDBRANCH   8  11
ENDBRANCH   6   8
ENDBRANCH   5   6
ENDBRANCH   4   5
ENDBRANCH   3   4
TORSDOF 6
