REMARK  8 active torsions:
REMARK  status: ('A' for Active; 'I' for Inactive)
REMARK    1  A    between atoms: N1_4  and  C4_5 
REMARK    2  A    between atoms: C4_5  and  C5_6 
REMARK    3  A    between atoms: C5_6  and  C6_7 
REMARK    4  A    between atoms: C6_7  and  O1_8 
REMARK    5  A    between atoms: C8_11  and  N2_12 
REMARK    6  A    between atoms: N2_12  and  C9_13 
REMARK    7  A    between atoms: N2_12  and  C12_17 
REMARK    8  A    between atoms: C9_13  and  C10_14 
ROOT
HETATM    1  C10 UNL     1      -3.185   1.649   0.390  1.00  0.00     0.168 C 
HETATM    2  C11 UNL     1      -3.993   2.845   0.152  1.00  0.00     0.064 C 
HETATM    3  N3  UNL     1      -4.658   3.787  -0.041  1.00  0.00    -0.197 NA
ENDROOT
BRANCH   1   4
HETATM    4  C9  UNL     1      -2.347   1.419  -0.844  1.00  0.00     0.073 C 
BRANCH   4   5
HETATM    5  N2  UNL     1      -1.535   0.304  -0.770  1.00  0.00    -0.381 N 
BRANCH   5   6
HETATM    6  C8  UNL     1      -0.449   0.081  -0.013  1.00  0.00     0.107 C 
HETATM    7  C2  UNL     1      -0.401   0.041   1.462  1.00  0.00     0.024 C 
HETATM    8  C1  UNL     1      -1.208  -0.975   2.170  1.00  0.00     0.014 C 
HETATM    9  C3  UNL     1       1.117  -0.298   1.603  1.00  0.00     0.128 C 
HETATM   10  N1  UNL     1       1.668   0.522   0.637  1.00  0.00    -0.391 N 
HETATM   11  C7  UNL     1       0.727   1.087  -0.228  1.00  0.00     0.147 C 
BRANCH  10  12
HETATM   12  C4  UNL     1       3.020   0.546   0.347  1.00  0.00     0.060 C 
BRANCH  12  13
HETATM   13  C5  UNL     1       3.589  -0.695  -0.312  1.00  0.00     0.070 C 
BRANCH  13  14
HETATM   14  C6  UNL     1       5.081  -0.533  -0.567  1.00  0.00     0.169 C 
BRANCH  14  15
HETATM   15  O1  UNL     1       5.769  -0.324   0.635  1.00  0.00    -0.401 OA
ATOM     16  H1  UNL     1       6.700  -0.223   0.476  1.00  0.00     0.209 HD
ENDBRANCH  14  15
ENDBRANCH  13  14
ENDBRANCH  12  13
ENDBRANCH  10  12
ENDBRANCH   5   6
BRANCH   5  17
HETATM   17  C12 UNL     1      -1.971  -0.775  -1.614  1.00  0.00     0.084 A 
HETATM   18  C13 UNL     1      -2.486  -2.051  -1.116  1.00  0.00     0.027 A 
HETATM   19  C14 UNL     1      -3.354  -1.076  -1.967  1.00  0.00     0.027 A 
ENDBRANCH   5  17
ENDBRANCH   4   5
ENDBRANCH   1   4
TORSDOF 8
