REMARK  7 active torsions:
REMARK  status: ('A' for Active; 'I' for Inactive)
REMARK    1  A    between atoms: N1_1  and  C1_4 
REMARK    2  A    between atoms: N2_7  and  C4_8 
REMARK    3  A    between atoms: C4_8  and  C5_9 
REMARK    4  A    between atoms: C5_9  and  C6_10 
REMARK    5  A    between atoms: C6_10  and  C7_11 
REMARK    6  A    between atoms: C7_11  and  C8_12 
REMARK    7  A    between atoms: C8_12  and  N3_13 
ROOT
HETATM    1  C5  UNL     1       1.013  -0.682   0.526  1.00  0.00     0.030 C 
ENDROOT
BRANCH   1   2
HETATM    2  C4  UNL     1       2.029   0.398   0.773  1.00  0.00     0.272 C 
BRANCH   2   3
HETATM    3  N2  UNL     1       3.319  -0.348   0.889  1.00  0.00     0.089 N 
HETATM    4  C3  UNL     1       3.569  -0.967  -0.406  1.00  0.00     0.278 C 
HETATM    5  C2  UNL     1       4.728  -0.428  -1.172  1.00  0.00     0.082 C 
HETATM    6  C1  UNL     1       5.026   0.957  -0.941  1.00  0.00    -0.017 C 
HETATM    7  C14 UNL     1       5.675   0.513   0.730  1.00  0.00     0.082 C 
HETATM    8  C13 UNL     1       4.340   0.551   1.327  1.00  0.00     0.278 C 
BRANCH   6   9
HETATM    9  N1  UNL     1       5.263   2.038  -0.751  1.00  0.00    -0.405 N 
ATOM     10  H12 UNL     1       4.905   2.283  -1.674  1.00  0.00     0.155 HD
ATOM     11  H11 UNL     1       5.475   3.022  -0.587  1.00  0.00     0.155 HD
ENDBRANCH   6   9
ENDBRANCH   2   3
ENDBRANCH   1   2
BRANCH   1  12
HETATM   12  C6  UNL     1      -0.360  -0.082   0.182  1.00  0.00     0.003 C 
BRANCH  12  13
HETATM   13  C7  UNL     1      -1.193  -1.288  -0.163  1.00  0.00     0.030 C 
BRANCH  13  14
HETATM   14  C8  UNL     1      -2.589  -1.068  -0.554  1.00  0.00     0.272 C 
BRANCH  14  15
HETATM   15  N3  UNL     1      -3.357  -0.370   0.478  1.00  0.00     0.091 N 
HETATM   16  C9  UNL     1      -4.658  -1.037   0.448  1.00  0.00     0.300 C 
HETATM   17  C10 UNL     1      -5.833  -0.159   0.669  1.00  0.00     0.262 C 
HETATM   18  N4  UNL     1      -5.829   0.985  -0.218  1.00  0.00    -0.072 N 
HETATM   19  C11 UNL     1      -4.593   1.116  -0.945  1.00  0.00     0.262 C 
ATOM     20  H42 UNL     1      -6.627   0.960  -0.853  1.00  0.00     0.277 HD
ATOM     21  H41 UNL     1      -6.049   1.843   0.288  1.00  0.00     0.277 HD
HETATM   22  C12 UNL     1      -3.472   1.016   0.066  1.00  0.00     0.300 C 
ENDBRANCH  14  15
ENDBRANCH  13  14
ENDBRANCH  12  13
ENDBRANCH   1  12
TORSDOF 7
