REMARK  7 active torsions:
REMARK  status: ('A' for Active; 'I' for Inactive)
REMARK    1  A    between atoms: N1_1  and  C1_5 
REMARK    2  A    between atoms: C1_5  and  C2_6 
REMARK    3  A    between atoms: C2_6  and  C3_7 
REMARK    4  A    between atoms: C2_6  and  N3_18 
REMARK    5  A    between atoms: C3_7  and  C4_8 
REMARK    6  A    between atoms: C4_8  and  N2_9 
REMARK    7  A    between atoms: N2_9  and  C5_12 
ROOT
HETATM    1  C2  UNL     1      -1.833  -0.266   0.053  1.00  0.00     0.015 C 
ENDROOT
BRANCH   1   2
HETATM    2  C1  UNL     1      -1.811  -1.689   0.559  1.00  0.00     0.282 C 
BRANCH   2   3
HETATM    3  N1  UNL     1      -2.828  -1.951   1.561  1.00  0.00    -0.074 N 
ATOM      4  H13 UNL     1      -2.757  -1.289   2.334  1.00  0.00     0.274 HD
ATOM      5  H12 UNL     1      -3.754  -1.703   1.213  1.00  0.00     0.274 HD
ATOM      6  H11 UNL     1      -2.813  -2.912   1.903  1.00  0.00     0.274 HD
ENDBRANCH   2   3
ENDBRANCH   1   2
BRANCH   1   7
HETATM    7  C3  UNL     1      -0.750  -0.087  -0.988  1.00  0.00     0.082 C 
BRANCH   7   8
HETATM    8  C4  UNL     1       0.607  -0.363  -0.328  1.00  0.00     0.238 C 
BRANCH   8   9
HETATM    9  N2  UNL     1       1.726  -0.177  -1.188  1.00  0.00    -0.071 N 
ATOM     10  H22 UNL     1       1.709  -0.796  -1.998  1.00  0.00     0.277 HD
ATOM     11  H21 UNL     1       1.694   0.708  -1.693  1.00  0.00     0.277 HD
BRANCH   9  12
HETATM   12  C5  UNL     1       2.943  -0.328  -0.381  1.00  0.00     0.185 C 
HETATM   13  C6  UNL     1       3.055   0.760   0.637  1.00  0.00     0.033 C 
HETATM   14  C7  UNL     1       4.359   0.588   1.406  1.00  0.00     0.002 C 
HETATM   15  C8  UNL     1       5.488   0.739   0.415  1.00  0.00     0.000 C 
HETATM   16  C9  UNL     1       5.413  -0.453  -0.518  1.00  0.00     0.002 C 
HETATM   17  C10 UNL     1       4.125  -0.433  -1.311  1.00  0.00     0.033 C 
ENDBRANCH   9  12
ENDBRANCH   8   9
ENDBRANCH   7   8
ENDBRANCH   1   7
BRANCH   1  18
HETATM   18  N3  UNL     1      -3.052   0.335  -0.149  1.00  0.00    -0.362 N 
HETATM   19  C11 UNL     1      -3.867   0.554   0.983  1.00  0.00     0.154 C 
HETATM   20  C12 UNL     1      -4.586   1.873   0.783  1.00  0.00     0.188 C 
HETATM   21  O1  UNL     1      -5.373   1.805  -0.312  1.00  0.00    -0.385 OA
HETATM   22  C13 UNL     1      -5.087   0.955  -1.314  1.00  0.00     0.212 C 
HETATM   23  C14 UNL     1      -3.673   0.425  -1.404  1.00  0.00     0.089 C 
ENDBRANCH   1  18
TORSDOF 7
