REMARK  7 active torsions:
REMARK  status: ('A' for Active; 'I' for Inactive)
REMARK    1  A    between atoms: O1_1  and  C1_3 
REMARK    2  A    between atoms: C1_3  and  C2_4 
REMARK    3  A    between atoms: C2_4  and  N1_5 
REMARK    4  A    between atoms: N1_5  and  C3_8 
REMARK    5  A    between atoms: C3_8  and  C4_9 
REMARK    6  A    between atoms: C4_9  and  N2_10 
REMARK    7  A    between atoms: C8_14  and  O2_15 
ROOT
HETATM    1  N2  UNL     1       1.631  -2.001  -0.798  1.00  0.00     0.107 N 
HETATM    2  C5  UNL     1       0.553  -1.364  -1.505  1.00  0.00     0.279 A 
HETATM    3  C6  UNL     1       0.725   0.010  -2.017  1.00  0.00     0.009 C 
HETATM    4  C7  UNL     1       0.295   1.145  -1.552  1.00  0.00     0.003 C 
HETATM    5  C8  UNL     1      -0.506   1.484  -0.367  1.00  0.00     0.140 C 
HETATM    6  C9  UNL     1      -1.522   2.577  -0.620  1.00  0.00     0.036 C 
HETATM    7  C10 UNL     1      -2.695   2.472   0.336  1.00  0.00     0.003 C 
HETATM    8  C11 UNL     1      -3.855   1.718  -0.260  1.00  0.00     0.000 C 
HETATM    9  C12 UNL     1      -4.655   0.969   0.790  1.00  0.00     0.000 C 
HETATM   10  C13 UNL     1      -3.899  -0.238   1.309  1.00  0.00     0.000 C 
HETATM   11  C14 UNL     1      -4.105  -1.468   0.501  1.00  0.00     0.000 C 
HETATM   12  C15 UNL     1      -2.865  -1.983  -0.171  1.00  0.00     0.000 C 
HETATM   13  C16 UNL     1      -1.777  -2.338   0.806  1.00  0.00     0.002 C 
HETATM   14  C17 UNL     1      -0.583  -2.858   0.068  1.00  0.00     0.038 C 
HETATM   15  C18 UNL     1       0.369  -1.668  -0.158  1.00  0.00     0.261 A 
ENDROOT
BRANCH   1  16
HETATM   16  C4  UNL     1       2.754  -1.404  -0.204  1.00  0.00     0.301 C 
BRANCH  16  17
HETATM   17  C3  UNL     1       3.752  -0.840  -1.147  1.00  0.00     0.262 C 
BRANCH  17  18
HETATM   18  N1  UNL     1       4.898  -0.249  -0.488  1.00  0.00    -0.071 N 
ATOM     19  H12 UNL     1       5.648  -0.076  -1.158  1.00  0.00     0.277 HD
ATOM     20  H11 UNL     1       5.359  -0.933   0.113  1.00  0.00     0.277 HD
BRANCH  18  21
HETATM   21  C2  UNL     1       4.595   0.939   0.244  1.00  0.00     0.258 C 
BRANCH  21  22
HETATM   22  C1  UNL     1       5.888   1.435   0.873  1.00  0.00     0.191 C 
BRANCH  22  23
HETATM   23  O1  UNL     1       6.362   0.423   1.720  1.00  0.00    -0.399 OA
ATOM     24  H1  UNL     1       7.170   0.733   2.113  1.00  0.00     0.209 HD
ENDBRANCH  22  23
ENDBRANCH  21  22
ENDBRANCH  18  21
ENDBRANCH  17  18
ENDBRANCH  16  17
ENDBRANCH   1  16
BRANCH   5  25
HETATM   25  O2  UNL     1       0.316   1.832   0.733  1.00  0.00    -0.392 OA
ATOM     26  H2  UNL     1      -0.202   2.051   1.499  1.00  0.00     0.210 HD
ENDBRANCH   5  25
TORSDOF 7
