REMARK  7 active torsions:
REMARK  status: ('A' for Active; 'I' for Inactive)
REMARK    1  A    between atoms: N1_2  and  C2_3 
REMARK    2  A    between atoms: N1_2  and  C10_13 
REMARK    3  A    between atoms: C5_6  and  C6_7 
REMARK    4  A    between atoms: C6_7  and  C7_8 
REMARK    5  A    between atoms: C7_8  and  O1_9 
REMARK    6  A    between atoms: C13_17  and  C14_18 
REMARK    7  A    between atoms: C16_22  and  O3_23 
ROOT
HETATM    1  C10 UNL     1      -1.511  -1.460  -0.153  1.00  0.00     0.257 C 
HETATM    2  C11 UNL     1      -2.326  -2.709   0.239  1.00  0.00     0.204 C 
HETATM    3  O2  UNL     1      -2.576  -2.539   1.587  1.00  0.00    -0.388 OA
HETATM    4  C12 UNL     1      -3.212  -1.275   1.545  1.00  0.00     0.179 C 
HETATM    5  C13 UNL     1      -2.261  -0.442   0.658  1.00  0.00     0.079 C 
ENDROOT
BRANCH   1   6
HETATM    6  N1  UNL     1      -0.132  -1.660   0.255  1.00  0.00     0.096 N 
HETATM    7  C1  UNL     1       0.302  -2.893  -0.479  1.00  0.00     0.310 C 
BRANCH   6   8
HETATM    8  C2  UNL     1       0.803  -0.683  -0.180  1.00  0.00     0.223 C 
HETATM    9  C3  UNL     1       2.207  -1.064   0.239  1.00  0.00     0.036 C 
HETATM   10  C4  UNL     1       2.820  -0.058   1.210  1.00  0.00     0.007 C 
HETATM   11  C5  UNL     1       2.885   1.324   0.669  1.00  0.00    -0.012 C 
HETATM   12  C8  UNL     1       1.839   1.481  -0.402  1.00  0.00     0.007 C 
HETATM   13  C9  UNL     1       0.596   0.735   0.154  1.00  0.00     0.036 C 
BRANCH  11  14
HETATM   14  C6  UNL     1       4.221   1.823   0.300  1.00  0.00     0.030 C 
BRANCH  14  15
HETATM   15  C7  UNL     1       5.005   1.107  -0.720  1.00  0.00     0.164 C 
BRANCH  15  16
HETATM   16  O1  UNL     1       4.389   1.055  -1.955  1.00  0.00    -0.401 OA
ATOM     17  H1  UNL     1       4.895   0.593  -2.613  1.00  0.00     0.209 HD
ENDBRANCH  15  16
ENDBRANCH  14  15
ENDBRANCH  11  14
ENDBRANCH   6   8
ENDBRANCH   1   6
BRANCH   5  18
HETATM   18  C14 UNL     1      -3.174   0.423  -0.135  1.00  0.00    -0.030 A 
HETATM   19  C15 UNL     1      -4.006   0.066  -1.155  1.00  0.00     0.098 A 
HETATM   20  N2  UNL     1      -4.683   1.144  -1.625  1.00  0.00    -0.346 N 
HETATM   21  C16 UNL     1      -4.272   2.190  -0.894  1.00  0.00     0.140 A 
ATOM     22  H2  UNL     1      -5.367   1.156  -2.382  1.00  0.00     0.167 HD
HETATM   23  C17 UNL     1      -3.345   1.802   0.035  1.00  0.00     0.065 A 
BRANCH  21  24
HETATM   24  O3  UNL     1      -4.685   3.526  -1.004  1.00  0.00    -0.346 OA
ATOM     25  H3  UNL     1      -4.394   4.267  -0.486  1.00  0.00     0.219 HD
ENDBRANCH  21  24
ENDBRANCH   5  18
TORSDOF 7
