REMARK  2 active torsions:
REMARK  status: ('A' for Active; 'I' for Inactive)
REMARK    1  A    between atoms: C7_7  and  S1_8 
REMARK    2  A    between atoms: S1_8  and  N1_11 
REMARK       I    between atoms: C8_13  and  N2_14 
REMARK       I    between atoms: C8_13  and  N4_18 
ROOT
HETATM    1  N1  UNL     1      -1.066  -0.715   1.560  1.00  0.00    -0.112 N 
ATOM      2  H1  UNL     1      -0.858  -1.505   2.171  1.00  0.00     0.197 HD
HETATM    3  C8  UNL     1      -2.137  -0.719   0.902  1.00  0.00     0.698 C 
HETATM    4  N2  UNL     1      -2.987  -1.875   1.084  1.00  0.00    -0.125 N 
ATOM      5  H2  UNL     1      -3.157  -2.503   0.298  1.00  0.00     0.197 HD
HETATM    6  C9  UNL     1      -3.576  -2.142   2.316  1.00  0.00     0.196 C 
HETATM    7  N3  UNL     1      -4.049  -2.362   3.339  1.00  0.00    -0.171 NA
HETATM    8  N4  UNL     1      -2.613   0.257   0.014  1.00  0.00    -0.225 N 
HETATM    9  C10 UNL     1      -2.138   0.368  -1.352  1.00  0.00     0.168 C 
HETATM   10  C11 UNL     1      -3.644   1.212   0.456  1.00  0.00     0.168 C 
ENDROOT
BRANCH   1  11
HETATM   11  S1  UNL     1       0.052   0.572   1.462  1.00  0.00     0.277 S 
HETATM   12  O1  UNL     1       0.561   0.968   2.833  1.00  0.00    -0.200 OA
HETATM   13  O2  UNL     1      -0.676   1.785   0.960  1.00  0.00    -0.200 OA
BRANCH  11  14
HETATM   14  C7  UNL     1       1.368   0.255   0.368  1.00  0.00     0.086 A 
HETATM   15  C5  UNL     1       2.192  -0.828   0.580  1.00  0.00    -0.039 A 
HETATM   16  C4  UNL     1       3.236  -1.060  -0.299  1.00  0.00     0.009 A 
HETATM   17  C6  UNL     1       1.976  -1.740   1.726  1.00  0.00     0.050 C 
HETATM   18  C3  UNL     1       3.481  -0.242  -1.382  1.00  0.00     0.007 A 
HETATM   19  C2  UNL     1       2.671   0.832  -1.601  1.00  0.00    -0.060 A 
HETATM   20  C1  UNL     1       2.870   1.758  -2.745  1.00  0.00     0.048 C 
HETATM   21  C12 UNL     1       1.629   1.062  -0.721  1.00  0.00     0.032 A 
ENDBRANCH  11  14
ENDBRANCH   1  11
TORSDOF 2
