REMARK  5 active torsions:
REMARK  status: ('A' for Active; 'I' for Inactive)
REMARK    1  A    between atoms: N1_1  and  S1_4 
REMARK    2  A    between atoms: S1_4  and  C1_7 
REMARK    3  A    between atoms: C3_9  and  C4_10 
REMARK    4  A    between atoms: C5_11  and  C6_12 
REMARK    5  A    between atoms: C6_12  and  C7_14 
ROOT
HETATM    1  C1  UNL     1      -2.065  -0.525  -0.171  1.00  0.00     0.081 A 
HETATM    2  C2  UNL     1      -0.837  -1.058  -0.495  1.00  0.00     0.046 A 
HETATM    3  C3  UNL     1       0.334  -0.333  -0.429  1.00  0.00     0.030 A 
HETATM    4  C8  UNL     1       0.244   0.981  -0.019  1.00  0.00    -0.007 A 
HETATM    5  C9  UNL     1       1.394   1.757   0.065  1.00  0.00     0.014 A 
HETATM    6  C10 UNL     1       1.331   3.075   0.473  1.00  0.00     0.001 A 
HETATM    7  C11 UNL     1       0.128   3.661   0.810  1.00  0.00     0.001 A 
HETATM    8  C12 UNL     1      -1.014   2.893   0.727  1.00  0.00     0.012 A 
HETATM    9  C13 UNL     1      -0.968   1.575   0.322  1.00  0.00    -0.023 A 
HETATM   10  C14 UNL     1      -2.102   0.783   0.231  1.00  0.00     0.037 A 
ENDROOT
BRANCH   1  11
HETATM   11  S1  UNL     1      -3.511  -1.505  -0.277  1.00  0.00     0.256 S 
HETATM   12  O1  UNL     1      -4.706  -0.647  -0.587  1.00  0.00    -0.201 OA
HETATM   13  O2  UNL     1      -3.315  -2.562  -1.343  1.00  0.00    -0.201 OA
BRANCH  11  14
HETATM   14  N1  UNL     1      -3.806  -2.305   1.217  1.00  0.00    -0.324 N 
ATOM     15  H12 UNL     1      -4.649  -2.205   1.782  1.00  0.00     0.169 HD
ATOM     16  H11 UNL     1      -2.995  -2.887   1.427  1.00  0.00     0.169 HD
ENDBRANCH  11  14
ENDBRANCH   1  11
BRANCH   3  17
HETATM   17  C4  UNL     1       1.599  -0.932  -0.778  1.00  0.00    -0.057 C 
HETATM   18  C5  UNL     1       2.661  -1.441  -1.052  1.00  0.00    -0.016 C 
BRANCH  18  19
HETATM   19  C6  UNL     1       3.924  -2.060  -1.392  1.00  0.00     0.263 C 
HETATM   20  O3  UNL     1       4.006  -2.827  -2.405  1.00  0.00    -0.275 OA
BRANCH  19  21
HETATM   21  C7  UNL     1       5.085  -1.801  -0.575  1.00  0.00     0.323 C 
HETATM   22  O4  UNL     1       5.005  -1.053   0.415  1.00  0.00    -0.297 OA
ENDBRANCH  19  21
ENDBRANCH  18  19
ENDBRANCH   3  17
TORSDOF 5
