REMARK  1 active torsions:
REMARK  status: ('A' for Active; 'I' for Inactive)
REMARK       I    between atoms: C1_2  and  N1_3 
REMARK       I    between atoms: C1_2  and  N4_13 
REMARK    1  A    between atoms: N1_3  and  C2_5 
ROOT
HETATM    1  O1  UNL     1      -1.190   0.762   1.754  1.00  0.00    -0.245 OA
HETATM    2  C1  UNL     1      -0.827   0.431   0.599  1.00  0.00     0.350 C 
HETATM    3  N1  UNL     1      -1.722   0.710  -0.465  1.00  0.00    -0.140 N 
ATOM      4  H1  UNL     1      -1.347   0.993  -1.370  1.00  0.00     0.189 HD
HETATM    5  N4  UNL     1       0.417  -0.193   0.371  1.00  0.00    -0.218 N 
HETATM    6  C6  UNL     1       1.442  -0.552   1.315  1.00  0.00     0.186 C 
HETATM    7  C7  UNL     1       2.773  -0.395   0.697  1.00  0.00    -0.016 A 
HETATM    8  C8  UNL     1       4.006  -0.177   1.359  1.00  0.00     0.010 A 
HETATM    9  C9  UNL     1       5.144  -0.067   0.635  1.00  0.00     0.001 A 
HETATM   10  C10 UNL     1       5.130  -0.163  -0.754  1.00  0.00     0.002 A 
HETATM   11  C11 UNL     1       3.956  -0.373  -1.434  1.00  0.00     0.026 A 
HETATM   12  C12 UNL     1       2.795  -0.483  -0.667  1.00  0.00     0.088 A 
HETATM   13  S1  UNL     1       1.112  -0.732  -1.141  1.00  0.00     0.269 S 
HETATM   14  O2  UNL     1       0.686   0.216  -2.193  1.00  0.00    -0.200 OA
HETATM   15  O3  UNL     1       0.808  -2.150  -1.414  1.00  0.00    -0.200 OA
ENDROOT
BRANCH   3  16
HETATM   16  C2  UNL     1      -2.997   0.614  -0.314  1.00  0.00     0.685 A 
HETATM   17  N2  UNL     1      -3.465   0.237   0.889  1.00  0.00    -0.202 N 
HETATM   18  C3  UNL     1      -4.768   0.108   1.146  1.00  0.00     0.107 A 
ATOM     19  H2  UNL     1      -2.797   0.042   1.635  1.00  0.00     0.183 HD
HETATM   20  C4  UNL     1      -5.671   0.370   0.139  1.00  0.00     0.035 A 
HETATM   21  C5  UNL     1      -5.211   0.759  -1.105  1.00  0.00     0.107 A 
HETATM   22  N3  UNL     1      -3.869   0.873  -1.306  1.00  0.00    -0.202 N 
ATOM     23  H3  UNL     1      -3.520   1.159  -2.221  1.00  0.00     0.183 HD
ENDBRANCH   3  16
TORSDOF 1
