REMARK  1 active torsions:
REMARK  status: ('A' for Active; 'I' for Inactive)
REMARK       I    between atoms: N2_7  and  C6_9 
REMARK    1  A    between atoms: C6_9  and  C7_11 
ROOT
HETATM    1  C1  UNL     1      -3.806  -0.057   0.786  1.00  0.00     0.132 C 
HETATM    2  N1  UNL     1      -3.078  -0.109  -0.482  1.00  0.00    -0.181 NA
HETATM    3  C2  UNL     1      -1.939   0.727  -0.431  1.00  0.00     0.081 C 
HETATM    4  C3  UNL     1      -2.295   2.033   0.283  1.00  0.00     0.041 C 
HETATM    5  C4  UNL     1      -1.480   1.158  -1.827  1.00  0.00     0.041 C 
HETATM    6  C5  UNL     1      -0.809   0.052   0.216  1.00  0.00     0.118 C 
HETATM    7  N2  UNL     1       0.122   0.713   0.814  1.00  0.00    -0.310 N 
ATOM      8  H2  UNL     1       0.057   1.731   0.829  1.00  0.00     0.170 HD
HETATM    9  C6  UNL     1       1.230   0.104   1.451  1.00  0.00     0.257 C 
HETATM   10  O1  UNL     1       1.097  -0.218   2.657  1.00  0.00    -0.267 OA
HETATM   11  N3  UNL     1      -0.856  -1.340   0.114  1.00  0.00    -0.259 N 
ATOM     12  H3  UNL     1      -0.124  -1.999   0.380  1.00  0.00     0.181 HD
HETATM   13  S1  UNL     1      -2.395  -1.720  -0.550  1.00  0.00     0.304 S 
HETATM   14  O2  UNL     1      -3.170  -2.667   0.289  1.00  0.00    -0.188 OA
HETATM   15  O3  UNL     1      -2.270  -2.189  -1.963  1.00  0.00    -0.188 OA
ENDROOT
BRANCH   9  16
HETATM   16  C7  UNL     1       2.496  -0.165   0.789  1.00  0.00     0.032 A 
HETATM   17  C8  UNL     1       2.685   0.173  -0.541  1.00  0.00     0.017 A 
HETATM   18  C9  UNL     1       3.887  -0.084  -1.163  1.00  0.00     0.001 A 
HETATM   19  C10 UNL     1       4.951  -0.679  -0.517  1.00  0.00     0.000 A 
HETATM   20  C11 UNL     1       4.762  -1.016   0.806  1.00  0.00     0.001 A 
HETATM   21  C12 UNL     1       3.560  -0.760   1.431  1.00  0.00     0.017 A 
ENDBRANCH   9  16
TORSDOF 1
