REMARK  5 active torsions:
REMARK  status: ('A' for Active; 'I' for Inactive)
REMARK    1  A    between atoms: C3_3  and  O1_4 
REMARK    2  A    between atoms: C6_9  and  O3_10 
REMARK    3  A    between atoms: O3_10  and  C7_11 
REMARK    4  A    between atoms: C7_11  and  C8_13 
REMARK    5  A    between atoms: C14_21  and  C15_22 
ROOT
HETATM    1  C1  UNL     1      -2.741   1.724   1.005  1.00  0.00     0.020 C 
HETATM    2  C2  UNL     1      -2.220   1.174  -0.072  1.00  0.00    -0.029 C 
HETATM    3  C3  UNL     1      -2.144   2.025  -1.291  1.00  0.00     0.151 C 
HETATM    4  C4  UNL     1      -0.761   2.516  -1.439  1.00  0.00     0.071 C 
HETATM    5  C5  UNL     1       0.341   1.697  -0.947  1.00  0.00     0.166 C 
HETATM    6  O2  UNL     1       0.441   1.727   0.466  1.00  0.00    -0.349 OA
HETATM    7  C6  UNL     1       0.967   0.442   0.472  1.00  0.00     0.307 C 
HETATM    8  C12 UNL     1       0.329   0.270  -0.914  1.00  0.00     0.134 C 
HETATM    9  C13 UNL     1       1.396  -0.356  -1.831  1.00  0.00     0.054 C 
HETATM   10  O5  UNL     1      -0.766  -0.480  -0.929  1.00  0.00    -0.359 OA
HETATM   11  C14 UNL     1      -1.750  -0.237  -0.002  1.00  0.00     0.176 C 
ENDROOT
BRANCH   7  12
HETATM   12  O3  UNL     1       2.365   0.354   0.486  1.00  0.00    -0.282 OA
BRANCH  12  13
HETATM   13  C7  UNL     1       3.106  -0.382   1.360  1.00  0.00     0.302 C 
HETATM   14  O4  UNL     1       2.513  -1.052   2.240  1.00  0.00    -0.259 OA
BRANCH  13  15
HETATM   15  C8  UNL     1       4.581  -0.406   1.288  1.00  0.00     0.080 A 
HETATM   16  C9  UNL     1       5.385   0.256   0.403  1.00  0.00     0.025 A 
HETATM   17  C10 UNL     1       6.705   0.089   0.522  1.00  0.00     0.009 A 
HETATM   18  C11 UNL     1       7.149  -0.735   1.525  1.00  0.00     0.050 A 
HETATM   19  S1  UNL     1       5.697  -1.245   2.264  1.00  0.00    -0.096 SA
ENDBRANCH  13  15
ENDBRANCH  12  13
ENDBRANCH   7  12
BRANCH  11  20
HETATM   20  C15 UNL     1      -2.919  -1.093  -0.355  1.00  0.00     0.011 C 
HETATM   21  C16 UNL     1      -3.492  -1.909   0.512  1.00  0.00    -0.089 C 
HETATM   22  C17 UNL     1      -4.656  -2.732   0.089  1.00  0.00     0.042 C 
HETATM   23  C18 UNL     1      -3.013  -2.031   1.899  1.00  0.00     0.042 C 
ENDBRANCH  11  20
BRANCH   3  24
HETATM   24  O1  UNL     1      -2.448   1.247  -2.433  1.00  0.00    -0.391 OA
ATOM     25  H1  UNL     1      -2.399   1.790  -3.211  1.00  0.00     0.210 HD
ENDBRANCH   3  24
TORSDOF 5
