REMARK  3 active torsions:
REMARK  status: ('A' for Active; 'I' for Inactive)
REMARK    1  A    between atoms: S1_2  and  C2_3 
REMARK    2  A    between atoms: C2_3  and  C3_4 
REMARK    3  A    between atoms: C4_5  and  C5_6 
ROOT
HETATM    1  C3  UNL     1       1.742   0.834  -0.462  1.00  0.00    -0.016 A 
HETATM    2  C4  UNL     1       1.639   1.855  -1.384  1.00  0.00     0.090 A 
HETATM    3  S2  UNL     1       0.060   1.649  -2.009  1.00  0.00    -0.075 SA
HETATM    4  C6  UNL     1      -0.442   0.292  -1.092  1.00  0.00     0.050 A 
HETATM    5  C7  UNL     1       0.660   0.049  -0.316  1.00  0.00    -0.010 A 
HETATM    6  C8  UNL     1       0.606  -0.887   0.911  1.00  0.00     0.211 C 
HETATM    7  S3  UNL     1      -0.887  -0.478   1.852  1.00  0.00     0.269 S 
HETATM    8  O3  UNL     1      -0.594  -0.500   3.309  1.00  0.00    -0.198 OA
HETATM    9  O4  UNL     1      -1.241   0.977   1.532  1.00  0.00    -0.198 OA
HETATM   10  O5  UNL     1      -2.068  -1.510   1.352  1.00  0.00    -0.274 OA
HETATM   11  C9  UNL     1      -3.258  -0.903   1.052  1.00  0.00     0.205 C 
HETATM   12  C10 UNL     1      -3.264  -0.150  -0.230  1.00  0.00     0.074 C 
HETATM   13  C11 UNL     1      -4.609  -0.529  -0.946  1.00  0.00     0.024 C 
HETATM   14  S4  UNL     1      -2.005  -0.492  -1.421  1.00  0.00    -0.115 SA
ENDROOT
BRANCH   1  15
HETATM   15  C2  UNL     1       3.061   0.682   0.335  1.00  0.00     0.114 C 
BRANCH  15  16
HETATM   16  S1  UNL     1       3.850  -0.827   0.194  1.00  0.00    -0.169 SA
HETATM   17  C1  UNL     1       3.507  -2.446   0.483  1.00  0.00     0.090 C 
ENDBRANCH  15  16
ENDBRANCH   1  15
BRANCH   2  18
HETATM   18  C5  UNL     1       2.596   2.899  -1.795  1.00  0.00     0.217 C 
HETATM   19  O1  UNL     1       3.730   3.136  -1.389  1.00  0.00    -0.643 OA
HETATM   20  O2  UNL     1       2.151   3.777  -2.828  1.00  0.00    -0.643 OA
ENDBRANCH   2  18
TORSDOF 3
