REMARK  5 active torsions:
REMARK  status: ('A' for Active; 'I' for Inactive)
REMARK    1  A    between atoms: C2_2  and  O1_3 
REMARK    2  A    between atoms: O1_3  and  C3_4 
REMARK    3  A    between atoms: C3_4  and  C4_6 
REMARK    4  A    between atoms: C4_6  and  S1_7 
REMARK    5  A    between atoms: S1_7  and  C5_8 
ROOT
HETATM    1  C5  UNL     1       0.958  -1.046   0.248  1.00  0.00     0.115 A 
HETATM    2  N1  UNL     1      -0.252  -0.573   0.406  1.00  0.00    -0.344 N 
ATOM      3  H1  UNL     1      -0.419   0.152   1.103  1.00  0.00     0.167 HD
HETATM    4  C6  UNL     1      -1.253  -1.014  -0.315  1.00  0.00     0.080 A 
HETATM    5  C7  UNL     1      -0.981  -1.983  -1.232  1.00  0.00     0.138 A 
HETATM    6  S2  UNL     1       0.715  -2.200  -1.007  1.00  0.00    -0.038 SA
HETATM    7  O3  UNL     1      -1.777  -2.690  -2.157  1.00  0.00    -0.333 OA
HETATM    8  C8  UNL     1      -2.942  -2.233  -2.813  1.00  0.00     0.279 C 
HETATM    9  C9  UNL     1      -3.934  -1.862  -1.776  1.00  0.00     0.242 C 
HETATM   10  O4  UNL     1      -5.115  -2.170  -2.070  1.00  0.00    -0.271 OA
HETATM   11  N2  UNL     1      -3.686  -1.220  -0.535  1.00  0.00    -0.344 N 
ATOM     12  H2  UNL     1      -4.417  -1.379   0.158  1.00  0.00     0.163 HD
HETATM   13  C10 UNL     1      -2.618  -0.395  -0.059  1.00  0.00     0.079 C 
HETATM   14  C11 UNL     1      -2.836  -0.185   1.433  1.00  0.00     0.038 C 
HETATM   15  C12 UNL     1      -3.793   0.928   1.747  1.00  0.00     0.003 C 
HETATM   16  C13 UNL     1      -3.498   2.214   1.033  1.00  0.00     0.000 C 
HETATM   17  C14 UNL     1      -2.273   2.047   0.139  1.00  0.00     0.003 C 
HETATM   18  C15 UNL     1      -2.610   0.924  -0.808  1.00  0.00     0.038 C 
ENDROOT
BRANCH   1  19
HETATM   19  S1  UNL     1       2.417  -0.647   1.208  1.00  0.00    -0.095 SA
BRANCH  19  20
HETATM   20  C4  UNL     1       3.836  -1.483   0.533  1.00  0.00     0.192 C 
BRANCH  20  21
HETATM   21  C3  UNL     1       4.890  -0.547   0.038  1.00  0.00     0.268 C 
HETATM   22  O2  UNL     1       5.903  -1.090  -0.480  1.00  0.00    -0.264 OA
BRANCH  21  23
HETATM   23  O1  UNL     1       4.853   0.814   0.106  1.00  0.00    -0.321 OA
BRANCH  23  24
HETATM   24  C2  UNL     1       5.877   1.689  -0.340  1.00  0.00     0.174 C 
HETATM   25  C1  UNL     1       7.163   1.437   0.454  1.00  0.00     0.034 C 
ENDBRANCH  23  24
ENDBRANCH  21  23
ENDBRANCH  20  21
ENDBRANCH  19  20
ENDBRANCH   1  19
TORSDOF 5
