REMARK  4 active torsions:
REMARK  status: ('A' for Active; 'I' for Inactive)
REMARK    1  A    between atoms: O1_2  and  C2_3 
REMARK    2  A    between atoms: C3_4  and  O2_5 
REMARK    3  A    between atoms: C4_7  and  O3_8 
REMARK    4  A    between atoms: C8_12  and  N1_13 
ROOT
HETATM    1  C2  UNL     1       2.887  -0.229  -0.078  1.00  0.00     0.138 A 
HETATM    2  C3  UNL     1       2.177   0.362  -1.086  1.00  0.00     0.136 A 
HETATM    3  C4  UNL     1       0.806   0.641  -0.915  1.00  0.00     0.112 A 
HETATM    4  C6  UNL     1       0.185   0.317   0.254  1.00  0.00     0.008 A 
HETATM    5  C7  UNL     1       0.917  -0.285   1.292  1.00  0.00     0.012 A 
HETATM    6  C8  UNL     1       2.259  -0.551   1.107  1.00  0.00     0.148 A 
HETATM    7  C9  UNL     1       0.342  -0.570   2.644  1.00  0.00     0.220 C 
HETATM    8  O6  UNL     1      -0.811   0.255   2.901  1.00  0.00    -0.316 OA
HETATM    9  C10 UNL     1      -1.247   1.144   1.881  1.00  0.00     0.273 C 
HETATM   10  O7  UNL     1      -1.589   2.320   2.100  1.00  0.00    -0.264 OA
HETATM   11  C11 UNL     1      -1.233   0.480   0.538  1.00  0.00     0.082 C 
HETATM   12  C12 UNL     1      -1.851  -0.914   0.818  1.00  0.00     0.030 C 
HETATM   13  C13 UNL     1      -3.325  -0.795   0.434  1.00  0.00    -0.013 C 
HETATM   14  C14 UNL     1      -3.467  -1.060  -1.051  1.00  0.00     0.005 C 
HETATM   15  C15 UNL     1      -2.404  -0.058  -1.548  1.00  0.00     0.006 C 
HETATM   16  C16 UNL     1      -2.187   0.957  -0.450  1.00  0.00     0.009 C 
HETATM   17  C17 UNL     1      -3.498   0.709   0.366  1.00  0.00     0.011 C 
ENDROOT
BRANCH   3  18
HETATM   18  O3  UNL     1       0.242   1.253  -2.029  1.00  0.00    -0.352 OA
HETATM   19  C5  UNL     1       0.416   2.678  -2.078  1.00  0.00     0.210 C 
ENDBRANCH   3  18
BRANCH   2  20
HETATM   20  O2  UNL     1       2.823   0.681  -2.273  1.00  0.00    -0.356 OA
ATOM     21  H2  UNL     1       2.330   1.092  -2.973  1.00  0.00     0.218 HD
ENDBRANCH   2  20
BRANCH   6  22
HETATM   22  N1  UNL     1       2.965  -1.166   2.180  1.00  0.00    -0.112 N 
HETATM   23  O4  UNL     1       3.751  -0.498   2.836  1.00  0.00    -0.532 OA
HETATM   24  O5  UNL     1       2.741  -2.483   2.438  1.00  0.00    -0.532 OA
ENDBRANCH   6  22
BRANCH   1  25
HETATM   25  O1  UNL     1       4.234  -0.513  -0.230  1.00  0.00    -0.351 OA
HETATM   26  C1  UNL     1       4.664  -1.776  -0.761  1.00  0.00     0.210 C 
ENDBRANCH   1  25
TORSDOF 4
