REMARK  4 active torsions:
REMARK  status: ('A' for Active; 'I' for Inactive)
REMARK    1  A    between atoms: C2_2  and  N1_3 
REMARK    2  A    between atoms: C4_12  and  N3_13 
REMARK    3  A    between atoms: N3_13  and  C5_15 
REMARK    4  A    between atoms: C5_15  and  C6_16 
ROOT
HETATM    1  N1  UNL     1       5.571  -0.140  -0.699  1.00  0.00    -0.364 N 
ATOM      2  H1  UNL     1       5.457   0.206  -1.652  1.00  0.00     0.162 HD
HETATM    3  C3  UNL     1       4.607  -0.797  -0.167  1.00  0.00     0.204 C 
HETATM    4  O1  UNL     1       4.633  -1.324   1.124  1.00  0.00    -0.191 OA
HETATM    5  S1  UNL     1       3.234  -2.022   1.808  1.00  0.00     0.370 S 
HETATM    6  O2  UNL     1       3.278  -1.784   3.291  1.00  0.00    -0.175 OA
HETATM    7  O3  UNL     1       3.230  -3.497   1.478  1.00  0.00    -0.175 OA
HETATM    8  N2  UNL     1       1.806  -1.337   1.190  1.00  0.00    -0.241 N 
ATOM      9  H2  UNL     1       0.996  -1.249   1.804  1.00  0.00     0.183 HD
HETATM   10  C4  UNL     1       1.712  -0.927  -0.020  1.00  0.00     0.159 C 
HETATM   11  S3  UNL     1       3.124  -1.079  -1.093  1.00  0.00    -0.009 SA
ENDROOT
BRANCH  10  12
HETATM   12  N3  UNL     1       0.502  -0.357  -0.508  1.00  0.00    -0.365 N 
ATOM     13  H3  UNL     1       0.554   0.343  -1.248  1.00  0.00     0.162 HD
BRANCH  12  14
HETATM   14  C5  UNL     1      -0.797  -0.732   0.004  1.00  0.00     0.168 C 
BRANCH  14  15
HETATM   15  C6  UNL     1      -1.821   0.078  -0.751  1.00  0.00     0.007 A 
HETATM   16  S2  UNL     1      -1.574   1.229  -1.982  1.00  0.00    -0.104 SA
HETATM   17  C7  UNL     1      -3.196   1.656  -2.279  1.00  0.00     0.057 A 
HETATM   18  C8  UNL     1      -3.888   0.876  -1.397  1.00  0.00    -0.044 A 
HETATM   19  C9  UNL     1      -3.187   0.056  -0.602  1.00  0.00    -0.037 A 
HETATM   20  C13 UNL     1      -5.400   0.859  -1.238  1.00  0.00     0.040 C 
HETATM   21  C10 UNL     1      -3.969  -0.813   0.380  1.00  0.00     0.040 C 
HETATM   22  C11 UNL     1      -5.038  -0.027   1.075  1.00  0.00     0.005 C 
HETATM   23  C12 UNL     1      -5.691   1.011   0.238  1.00  0.00     0.005 C 
ENDBRANCH  14  15
ENDBRANCH  12  14
ENDBRANCH  10  12
BRANCH   1  24
HETATM   24  C2  UNL     1       6.815   0.133  -0.008  1.00  0.00     0.118 C 
HETATM   25  C1  UNL     1       7.044   1.597   0.206  1.00  0.00     0.026 C 
ENDBRANCH   1  24
TORSDOF 4
