REMARK  5 active torsions:
REMARK  status: ('A' for Active; 'I' for Inactive)
REMARK    1  A    between atoms: C2_2  and  O1_3 
REMARK    2  A    between atoms: O1_3  and  C3_4 
REMARK       I    between atoms: C3_4  and  N1_6 
REMARK    3  A    between atoms: N2_9  and  C6_10 
REMARK    4  A    between atoms: C8_13  and  O4_14 
REMARK    5  A    between atoms: C11_19  and  O6_20 
ROOT
HETATM    1  C3  UNL     1       2.938  -1.049   0.407  1.00  0.00     0.362 C 
HETATM    2  O2  UNL     1       3.768  -0.567   1.234  1.00  0.00    -0.238 OA
HETATM    3  N1  UNL     1       1.696  -0.382   0.188  1.00  0.00    -0.326 N 
HETATM    4  C4  UNL     1       1.544   0.805   0.972  1.00  0.00     0.148 C 
HETATM    5  C5  UNL     1       0.920   1.961   0.252  1.00  0.00     0.145 C 
HETATM    6  N2  UNL     1      -0.478   1.674   0.006  1.00  0.00    -0.350 N 
HETATM    7  C10 UNL     1      -1.069   0.377  -0.117  1.00  0.00     0.236 C 
HETATM    8  O5  UNL     1      -1.113  -0.340   1.073  1.00  0.00    -0.336 OA
HETATM    9  C11 UNL     1      -2.011  -1.383   1.011  1.00  0.00     0.261 C 
HETATM   10  C13 UNL     1      -2.434  -1.772  -0.365  1.00  0.00     0.062 C 
HETATM   11  C14 UNL     1      -1.379  -1.639  -1.415  1.00  0.00     0.020 C 
HETATM   12  C15 UNL     1      -0.406  -0.506  -1.138  1.00  0.00     0.017 C 
HETATM   13  C16 UNL     1      -0.251   0.306  -2.419  1.00  0.00     0.021 C 
HETATM   14  C17 UNL     1       0.894  -1.076  -0.777  1.00  0.00     0.141 C 
ENDROOT
BRANCH   6  15
HETATM   15  C6  UNL     1      -1.281   2.839  -0.118  1.00  0.00     0.059 A 
HETATM   16  C7  UNL     1      -0.864   4.152  -0.090  1.00  0.00     0.174 A 
HETATM   17  O3  UNL     1      -1.896   4.939  -0.232  1.00  0.00    -0.298 OA
HETATM   18  C8  UNL     1      -2.995   4.250  -0.356  1.00  0.00     0.184 A 
HETATM   19  C9  UNL     1      -2.644   2.910  -0.288  1.00  0.00     0.095 A 
BRANCH  18  20
HETATM   20  O4  UNL     1      -4.300   4.753  -0.528  1.00  0.00    -0.341 OA
ATOM     21  H4  UNL     1      -5.101   4.251  -0.618  1.00  0.00     0.220 HD
ENDBRANCH  18  20
ENDBRANCH   6  15
BRANCH   9  22
HETATM   22  O6  UNL     1      -3.136  -1.006   1.741  1.00  0.00    -0.366 OA
HETATM   23  C12 UNL     1      -3.300  -1.819   2.873  1.00  0.00     0.204 C 
ENDBRANCH   9  22
BRANCH   1  24
HETATM   24  O1  UNL     1       3.299  -2.216  -0.243  1.00  0.00    -0.304 OA
BRANCH  24  25
HETATM   25  C2  UNL     1       4.557  -2.786   0.056  1.00  0.00     0.176 C 
HETATM   26  C1  UNL     1       5.662  -1.796  -0.281  1.00  0.00     0.034 C 
ENDBRANCH  24  25
ENDBRANCH   1  24
TORSDOF 5
