REMARK  3 active torsions:
REMARK  status: ('A' for Active; 'I' for Inactive)
REMARK    1  A    between atoms: C2_2  and  C3_4 
REMARK    2  A    between atoms: C6_9  and  N2_10 
REMARK    3  A    between atoms: C13_18  and  C14_19 
ROOT
HETATM    1  C3  UNL     1       6.384   0.413  -0.029  1.00  0.00     0.119 A 
HETATM    2  C4  UNL     1       5.209   0.757  -0.642  1.00  0.00     0.073 A 
HETATM    3  C5  UNL     1       4.026   0.034  -0.425  1.00  0.00     0.078 A 
HETATM    4  N1  UNL     1       2.763   0.133  -0.873  1.00  0.00    -0.319 N 
ATOM      5  H1  UNL     1       2.396   0.828  -1.523  1.00  0.00     0.169 HD
HETATM    6  C6  UNL     1       2.081  -0.869  -0.291  1.00  0.00     0.227 A 
HETATM    7  O3  UNL     1       2.894  -1.549   0.478  1.00  0.00    -0.271 OA
HETATM    8  C17 UNL     1       4.114  -1.038   0.437  1.00  0.00     0.181 A 
HETATM    9  C18 UNL     1       5.317  -1.358   1.040  1.00  0.00     0.325 A 
HETATM   10  O4  UNL     1       5.373  -2.350   1.830  1.00  0.00    -0.257 OA
HETATM   11  O5  UNL     1       6.372  -0.632   0.783  1.00  0.00    -0.270 OA
ENDROOT
BRANCH   6  12
HETATM   12  N2  UNL     1       0.696  -1.139  -0.487  1.00  0.00    -0.347 N 
HETATM   13  C7  UNL     1      -0.102  -0.313  -1.366  1.00  0.00     0.131 C 
HETATM   14  C8  UNL     1      -1.541  -0.830  -1.313  1.00  0.00     0.088 C 
HETATM   15  C9  UNL     1      -1.969  -0.771   0.145  1.00  0.00     0.167 C 
HETATM   16  C10 UNL     1      -1.194  -1.804   0.927  1.00  0.00     0.088 C 
HETATM   17  O1  UNL     1      -1.631   0.476   0.625  1.00  0.00    -0.352 OA
HETATM   18  O2  UNL     1      -3.329  -0.932   0.307  1.00  0.00    -0.347 OA
HETATM   19  C11 UNL     1       0.047  -2.250   0.189  1.00  0.00     0.131 C 
HETATM   20  C12 UNL     1      -2.781   1.222   0.724  1.00  0.00     0.203 C 
HETATM   21  C13 UNL     1      -3.820   0.337   0.070  1.00  0.00     0.152 C 
BRANCH  21  22
HETATM   22  C14 UNL     1      -5.126   0.577   0.816  1.00  0.00     0.009 C 
HETATM   23  C15 UNL     1      -6.254  -0.240   0.272  1.00  0.00     0.012 C 
HETATM   24  C16 UNL     1      -5.426   2.068   0.680  1.00  0.00     0.012 C 
ENDBRANCH  21  22
ENDBRANCH   6  12
BRANCH   1  25
HETATM   25  C2  UNL     1       7.602   1.162  -0.256  1.00  0.00     0.141 C 
HETATM   26  C1  UNL     1       7.613   2.197  -1.060  1.00  0.00     0.059 C 
HETATM   27  F1  UNL     1       8.777   0.827   0.350  1.00  0.00    -0.204 F 
ENDBRANCH   1  25
TORSDOF 3
