REMARK  6 active torsions:
REMARK  status: ('A' for Active; 'I' for Inactive)
REMARK    1  A    between atoms: C2_2  and  O1_3 
REMARK    2  A    between atoms: O1_3  and  C3_4 
REMARK    3  A    between atoms: C3_4  and  C4_6 
REMARK    4  A    between atoms: C11_14  and  N1_15 
REMARK       I    between atoms: N1_15  and  C12_17 
REMARK    5  A    between atoms: C12_17  and  O4_19 
REMARK    6  A    between atoms: O4_19  and  N2_20 
ROOT
HETATM    1  C4  UNL     1       0.601  -0.830  -0.020  1.00  0.00     0.068 A 
HETATM    2  C5  UNL     1       0.610  -2.072  -0.623  1.00  0.00     0.039 A 
HETATM    3  C6  UNL     1      -0.558  -2.784  -0.723  1.00  0.00     0.018 A 
HETATM    4 BR1  UNL     1      -0.571  -4.518  -1.559  1.00  0.00    -0.051 Br
HETATM    5  C7  UNL     1      -1.728  -2.246  -0.219  1.00  0.00    -0.036 A 
HETATM    6  C8  UNL     1      -2.969  -3.071  -0.358  1.00  0.00     0.050 C 
HETATM    7  C9  UNL     1      -1.764  -1.011   0.386  1.00  0.00    -0.027 A 
HETATM    8  C10 UNL     1      -3.021  -0.494   0.898  1.00  0.00     0.051 C 
HETATM    9  C11 UNL     1      -0.583  -0.299   0.484  1.00  0.00     0.059 A 
ENDROOT
BRANCH   9  10
HETATM   10  N1  UNL     1      -0.680   0.967   1.108  1.00  0.00    -0.300 N 
HETATM   11  C12 UNL     1      -0.976   2.166   0.419  1.00  0.00     0.386 C 
HETATM   12  O3  UNL     1      -1.180   2.217  -0.817  1.00  0.00    -0.236 OA
ATOM     13  H1  UNL     1      -0.527   1.018   2.115  1.00  0.00     0.171 HD
BRANCH  11  14
HETATM   14  O4  UNL     1      -1.049   3.356   1.123  1.00  0.00    -0.188 OA
BRANCH  14  15
HETATM   15  N2  UNL     1      -1.334   4.529   0.471  1.00  0.00    -0.301 N 
ATOM     16  H22 UNL     1      -1.490   4.507  -0.537  1.00  0.00     0.184 HD
ATOM     17  H21 UNL     1      -1.388   5.406   0.990  1.00  0.00     0.184 HD
ENDBRANCH  14  15
ENDBRANCH  11  14
ENDBRANCH   9  10
BRANCH   1  18
HETATM   18  C3  UNL     1       1.829  -0.046   0.109  1.00  0.00     0.295 C 
HETATM   19  O2  UNL     1       1.893   1.073   0.644  1.00  0.00    -0.259 OA
BRANCH  18  20
HETATM   20  O1  UNL     1       3.013  -0.577  -0.396  1.00  0.00    -0.318 OA
BRANCH  20  21
HETATM   21  C2  UNL     1       4.254   0.078  -0.332  1.00  0.00     0.174 C 
HETATM   22  C1  UNL     1       4.268   1.405  -1.037  1.00  0.00     0.034 C 
ENDBRANCH  20  21
ENDBRANCH  18  20
ENDBRANCH   1  18
TORSDOF 6
