REMARK  4 active torsions:
REMARK  status: ('A' for Active; 'I' for Inactive)
REMARK    1  A    between atoms: O1_2  and  C2_3 
REMARK    2  A    between atoms: C2_3  and  C3_5 
REMARK    3  A    between atoms: C4_6  and  N1_7 
REMARK       I    between atoms: N1_7  and  C5_9 
REMARK    4  A    between atoms: C5_9  and  C6_11 
ROOT
HETATM    1  C3  UNL     1      -0.873  -0.178   0.042  1.00  0.00     0.080 A 
HETATM    2  C4  UNL     1       0.425   0.221   0.169  1.00  0.00     0.094 A 
HETATM    3  S1  UNL     1       0.289   1.758   0.923  1.00  0.00    -0.075 SA
HETATM    4  C9  UNL     1      -1.400   1.854   1.057  1.00  0.00    -0.008 A 
HETATM    5  C10 UNL     1      -1.821   0.682   0.509  1.00  0.00    -0.026 A 
HETATM    6  C11 UNL     1      -3.338   0.735   0.621  1.00  0.00     0.041 C 
HETATM    7  C12 UNL     1      -3.581   2.221   0.472  1.00  0.00     0.010 C 
HETATM    8  C13 UNL     1      -2.569   2.701   1.525  1.00  0.00     0.047 C 
ENDROOT
BRANCH   2   9
HETATM    9  N1  UNL     1       1.667  -0.378  -0.187  1.00  0.00    -0.315 N 
HETATM   10  C5  UNL     1       2.884   0.329   0.094  1.00  0.00     0.275 C 
HETATM   11  O3  UNL     1       2.863   1.456   0.642  1.00  0.00    -0.266 OA
ATOM     12  H1  UNL     1       1.691  -1.294  -0.634  1.00  0.00     0.170 HD
BRANCH  10  13
HETATM   13  C6  UNL     1       4.140  -0.284  -0.269  1.00  0.00     0.126 A 
HETATM   14  C7  UNL     1       5.404   0.268  -0.067  1.00  0.00     0.089 A 
HETATM   15  C8  UNL     1       6.329  -0.627  -0.550  1.00  0.00     0.170 A 
HETATM   16 CL1  UNL     1       8.058  -0.406  -0.532  1.00  0.00    -0.054 Cl
HETATM   17  O4  UNL     1       5.665  -1.646  -1.010  1.00  0.00    -0.225 OA
HETATM   18  N2  UNL     1       4.381  -1.468  -0.857  1.00  0.00    -0.254 N 
ATOM     19  H2  UNL     1       3.663  -2.133  -1.143  1.00  0.00     0.195 HD
ENDBRANCH  10  13
ENDBRANCH   2   9
BRANCH   1  20
HETATM   20  C2  UNL     1      -1.205  -1.487  -0.577  1.00  0.00     0.296 C 
HETATM   21  O2  UNL     1      -0.282  -2.216  -0.980  1.00  0.00    -0.259 OA
BRANCH  20  22
HETATM   22  O1  UNL     1      -2.522  -1.881  -0.700  1.00  0.00    -0.322 OA
HETATM   23  C1  UNL     1      -2.773  -3.146  -1.303  1.00  0.00     0.213 C 
ENDBRANCH  20  22
ENDBRANCH   1  20
TORSDOF 4
