REMARK  7 active torsions:
REMARK  status: ('A' for Active; 'I' for Inactive)
REMARK    1  A    between atoms: C3_3  and  N1_4 
REMARK       I    between atoms: N1_4  and  C4_6 
REMARK    2  A    between atoms: C4_6  and  C5_8 
REMARK    3  A    between atoms: C6_11  and  C7_12 
REMARK    4  A    between atoms: C7_12  and  C8_13 
REMARK    5  A    between atoms: C12_20  and  C13_21 
REMARK    6  A    between atoms: C13_21  and  C14_22 
REMARK    7  A    between atoms: C17_25  and  O3_26 
ROOT
HETATM    1  C5  UNL     1       0.021  -0.574   0.426  1.00  0.00     0.213 C 
HETATM    2  N2  UNL     1       0.788  -1.402  -0.398  1.00  0.00    -0.393 N 
ATOM      3  H2  UNL     1       0.418  -1.678  -1.307  1.00  0.00     0.155 HD
HETATM    4  C6  UNL     1       2.071  -1.869  -0.001  1.00  0.00     0.170 C 
HETATM    5  C11 UNL     1       2.652  -1.120   1.126  1.00  0.00     0.240 C 
HETATM    6  O2  UNL     1       2.137  -1.388   2.286  1.00  0.00    -0.271 OA
HETATM    7  N3  UNL     1       3.674  -0.167   1.118  1.00  0.00    -0.347 N 
ATOM      8  H3  UNL     1       4.383  -0.309   1.838  1.00  0.00     0.163 HD
HETATM    9  C12 UNL     1       3.906   0.969   0.285  1.00  0.00     0.159 C 
HETATM   10  C17 UNL     1       3.296   0.987  -1.041  1.00  0.00     0.137 C 
HETATM   11  N4  UNL     1       2.081   1.499  -1.515  1.00  0.00    -0.354 N 
HETATM   12  C18 UNL     1       2.138   2.376  -2.743  1.00  0.00     0.125 C 
HETATM   13  C19 UNL     1       2.018   3.824  -2.325  1.00  0.00     0.020 C 
HETATM   14  C20 UNL     1       1.117   3.842  -1.091  1.00  0.00     0.004 C 
HETATM   15  C21 UNL     1       0.088   2.743  -1.334  1.00  0.00     0.031 C 
HETATM   16  C22 UNL     1       0.732   1.351  -1.084  1.00  0.00     0.129 C 
HETATM   17  C23 UNL     1       0.409   0.856   0.225  1.00  0.00     0.041 C 
HETATM   18  S1  UNL     1       0.409   1.710   1.364  1.00  0.00    -0.085 SA
ENDROOT
BRANCH   1  19
HETATM   19  C4  UNL     1      -1.463  -0.653   0.021  1.00  0.00     0.249 C 
HETATM   20  N1  UNL     1      -2.410   0.082   0.739  1.00  0.00    -0.329 N 
ATOM     21  H1  UNL     1      -2.069   0.652   1.513  1.00  0.00     0.168 HD
HETATM   22  O1  UNL     1      -1.701  -1.392  -0.948  1.00  0.00    -0.270 OA
BRANCH  20  23
HETATM   23  C3  UNL     1      -3.796   0.102   0.484  1.00  0.00     0.015 C 
HETATM   24  C2  UNL     1      -4.529   0.883   1.294  1.00  0.00    -0.057 C 
HETATM   25  C1  UNL     1      -3.756   1.620   2.357  1.00  0.00     0.046 C 
HETATM   26  C31 UNL     1      -5.970   1.178   1.336  1.00  0.00     0.020 C 
HETATM   27  C29 UNL     1      -6.887   0.012   1.289  1.00  0.00    -0.005 C 
HETATM   28  C32 UNL     1      -6.365   2.156   0.248  1.00  0.00     0.014 C 
HETATM   29  C28 UNL     1      -8.030   0.535   0.401  1.00  0.00     0.010 C 
HETATM   30  C30 UNL     1      -6.348  -1.178   0.531  1.00  0.00     0.010 C 
HETATM   31  C27 UNL     1      -7.216   1.260  -0.657  1.00  0.00    -0.013 C 
HETATM   32  C26 UNL     1      -6.358   0.361  -1.483  1.00  0.00     0.009 C 
HETATM   33  C25 UNL     1      -5.762  -0.792  -0.793  1.00  0.00    -0.008 C 
HETATM   34  C24 UNL     1      -4.251  -0.748  -0.631  1.00  0.00     0.062 C 
ENDBRANCH  20  23
ENDBRANCH   1  19
BRANCH   4  35
HETATM   35  C7  UNL     1       1.938  -3.355   0.207  1.00  0.00     0.038 C 
BRANCH  35  36
HETATM   36  C8  UNL     1       3.125  -4.133   0.565  1.00  0.00    -0.020 C 
HETATM   37  C9  UNL     1       2.650  -5.613   0.680  1.00  0.00     0.009 C 
HETATM   38  C10 UNL     1       3.813  -3.875   1.860  1.00  0.00     0.009 C 
ENDBRANCH  35  36
ENDBRANCH   4  35
BRANCH  10  39
HETATM   39  O3  UNL     1       4.007   0.425  -1.977  1.00  0.00    -0.348 OA
ATOM     40  H3  UNL     1       3.610   0.437  -2.840  1.00  0.00     0.219 HD
ENDBRANCH  10  39
BRANCH   9  41
HETATM   41  C13 UNL     1       5.386   1.349   0.226  1.00  0.00     0.037 C 
BRANCH  41  42
HETATM   42  C14 UNL     1       6.347   0.384  -0.300  1.00  0.00    -0.020 C 
HETATM   43  C15 UNL     1       7.735   1.103  -0.219  1.00  0.00     0.009 C 
HETATM   44  C16 UNL     1       6.549  -0.851   0.546  1.00  0.00     0.009 C 
ENDBRANCH  41  42
ENDBRANCH   9  41
TORSDOF 7
