REMARK  7 active torsions:
REMARK  status: ('A' for Active; 'I' for Inactive)
REMARK    1  A    between atoms: C4_4  and  C5_5 
REMARK    2  A    between atoms: C5_5  and  C7_7 
REMARK    3  A    between atoms: N1_12  and  C12_13 
REMARK    4  A    between atoms: C12_13  and  C13_14 
REMARK       I    between atoms: C13_14  and  N2_16 
REMARK    5  A    between atoms: N2_16  and  C14_18 
REMARK    6  A    between atoms: C14_18  and  C15_19 
REMARK    7  A    between atoms: C15_19  and  N3_20 
ROOT
HETATM    1  C5  UNL     1      -0.901  -0.482  -0.837  1.00  0.00    -0.001 C 
HETATM    2  C6  UNL     1      -1.810  -1.246  -1.845  1.00  0.00     0.011 C 
ENDROOT
BRANCH   1   3
HETATM    3  C4  UNL     1      -1.651   0.404   0.009  1.00  0.00     0.004 C 
HETATM    4  C3  UNL     1      -0.798   1.254   0.925  1.00  0.00     0.039 C 
HETATM    5  C2  UNL     1      -0.982   0.779   2.297  1.00  0.00    -0.084 C 
HETATM    6  C1  UNL     1      -0.232   1.023   3.353  1.00  0.00     0.015 C 
HETATM    7  C33 UNL     1      -2.197  -0.041   2.290  1.00  0.00     0.023 C 
HETATM    8  C20 UNL     1      -2.780   0.068   0.887  1.00  0.00    -0.024 C 
HETATM    9  C32 UNL     1      -3.148   0.642   3.243  1.00  0.00     0.010 C 
HETATM   10  C21 UNL     1      -3.770  -0.973   0.625  1.00  0.00     0.022 C 
HETATM   11  C30 UNL     1      -3.617   1.365   1.021  1.00  0.00     0.000 C 
HETATM   12  C22 UNL     1      -5.121  -0.369   0.267  1.00  0.00    -0.019 C 
HETATM   13  C23 UNL     1      -6.032  -0.627   1.455  1.00  0.00     0.018 C 
HETATM   14  C24 UNL     1      -5.798  -0.992  -0.923  1.00  0.00     0.089 C 
HETATM   15  C29 UNL     1      -4.744   1.053   0.091  1.00  0.00     0.008 C 
HETATM   16  C25 UNL     1      -5.442  -2.404  -1.221  1.00  0.00     0.033 C 
HETATM   17  N4  UNL     1      -5.727  -0.224  -2.147  1.00  0.00    -0.349 N 
HETATM   18  C26 UNL     1      -6.189   1.098  -2.381  1.00  0.00     0.287 C 
ATOM     19  H4  UNL     1      -5.290  -0.691  -2.942  1.00  0.00     0.163 HD
HETATM   20  O3  UNL     1      -6.463   1.457  -3.579  1.00  0.00    -0.264 OA
HETATM   21  C27 UNL     1      -6.382   2.111  -1.335  1.00  0.00     0.216 C 
HETATM   22  O4  UNL     1      -7.090   3.102  -1.631  1.00  0.00    -0.287 OA
HETATM   23  C28 UNL     1      -5.808   2.077   0.068  1.00  0.00     0.095 C 
HETATM   24  C31 UNL     1      -3.963   1.589   2.417  1.00  0.00     0.006 C 
ENDBRANCH   1   3
BRANCH   1  25
HETATM   25  C7  UNL     1       0.183  -1.407  -0.402  1.00  0.00     0.082 C 
HETATM   26  C8  UNL     1       0.647  -2.211  -1.681  1.00  0.00     0.014 C 
HETATM   27  C9  UNL     1       2.067  -2.649  -1.572  1.00  0.00     0.002 C 
HETATM   28  C10 UNL     1       2.974  -1.847  -2.524  1.00  0.00     0.020 C 
HETATM   29  C11 UNL     1       2.689  -0.377  -2.263  1.00  0.00     0.126 C 
HETATM   30  N1  UNL     1       2.446  -0.116  -0.835  1.00  0.00    -0.343 N 
HETATM   31  C19 UNL     1       1.490  -0.829  -0.011  1.00  0.00     0.224 C 
HETATM   32  O2  UNL     1       1.908  -0.929   1.179  1.00  0.00    -0.273 OA
BRANCH  30  33
HETATM   33  C12 UNL     1       3.221   0.916  -0.227  1.00  0.00     0.228 C 
BRANCH  33  34
HETATM   34  C13 UNL     1       4.500   0.401   0.339  1.00  0.00     0.235 C 
HETATM   35  O1  UNL     1       4.745  -0.820   0.225  1.00  0.00    -0.272 OA
HETATM   36  N2  UNL     1       5.426   1.248   0.991  1.00  0.00    -0.357 N 
ATOM     37  H2  UNL     1       5.150   2.227   1.067  1.00  0.00     0.162 HD
BRANCH  36  38
HETATM   38  C14 UNL     1       6.680   0.922   1.551  1.00  0.00     0.161 C 
BRANCH  38  39
HETATM   39  C15 UNL     1       7.795   0.527   0.694  1.00  0.00     0.139 C 
HETATM   40  C16 UNL     1       8.305   1.672  -0.238  1.00  0.00     0.040 C 
HETATM   41  C17 UNL     1       8.963   0.508  -1.019  1.00  0.00     0.005 C 
HETATM   42  C18 UNL     1       7.682  -0.278  -0.542  1.00  0.00     0.040 C 
BRANCH  39  43
HETATM   43  N3  UNL     1       8.987   0.173   1.490  1.00  0.00    -0.069 N 
ATOM     44  H33 UNL     1       9.251   0.928   2.123  1.00  0.00     0.275 HD
ATOM     45  H32 UNL     1       8.775  -0.546   2.182  1.00  0.00     0.275 HD
ATOM     46  H31 UNL     1       9.766  -0.103   0.892  1.00  0.00     0.275 HD
ENDBRANCH  39  43
ENDBRANCH  38  39
ENDBRANCH  36  38
ENDBRANCH  33  34
ENDBRANCH  30  33
ENDBRANCH   1  25
TORSDOF 7
