REMARK  6 active torsions:
REMARK  status: ('A' for Active; 'I' for Inactive)
REMARK    1  A    between atoms: C2_2  and  C4_4 
REMARK    2  A    between atoms: C4_4  and  N1_5 
REMARK       I    between atoms: N1_5  and  C5_7 
REMARK       I    between atoms: C5_7  and  N2_9 
REMARK    3  A    between atoms: N3_12  and  C8_13 
REMARK    4  A    between atoms: C8_13  and  C9_14 
REMARK       I    between atoms: C9_14  and  N4_16 
REMARK    5  A    between atoms: N4_16  and  C10_18 
REMARK    6  A    between atoms: C22_30  and  N5_31 
REMARK       I    between atoms: N5_31  and  C23_33 
REMARK       I    between atoms: C23_33  and  N6_35 
ROOT
HETATM    1  C8  UNL     1      -0.868   0.660   0.191  1.00  0.00     0.110 C 
HETATM    2  C20 UNL     1      -1.959  -0.178  -0.506  1.00  0.00     0.043 C 
HETATM    3  C21 UNL     1      -3.310   0.239   0.016  1.00  0.00     0.028 C 
HETATM    4  C22 UNL     1      -3.434  -0.424   1.408  1.00  0.00     0.086 C 
HETATM    5  C29 UNL     1      -2.130  -0.259   2.090  1.00  0.00     0.028 C 
HETATM    6  C30 UNL     1      -1.306   0.901   1.590  1.00  0.00     0.043 C 
ENDROOT
BRANCH   1   7
HETATM    7  N3  UNL     1       0.320  -0.146   0.137  1.00  0.00    -0.393 N 
HETATM    8  C7  UNL     1       1.529   0.400   0.605  1.00  0.00     0.138 C 
HETATM    9  C6  UNL     1       2.547  -0.732   0.827  1.00  0.00     0.147 C 
HETATM   10  N2  UNL     1       2.691  -1.480  -0.394  1.00  0.00    -0.331 N 
HETATM   11  C5  UNL     1       3.665  -2.538  -0.448  1.00  0.00     0.322 C 
HETATM   12  C32 UNL     1       1.853  -1.122  -1.506  1.00  0.00     0.147 C 
HETATM   13  N1  UNL     1       4.483  -2.800   0.630  1.00  0.00    -0.322 N 
HETATM   14  O1  UNL     1       3.682  -3.161  -1.528  1.00  0.00    -0.247 OA
ATOM     15  H1  UNL     1       4.326  -2.190   1.432  1.00  0.00     0.169 HD
HETATM   16  C31 UNL     1       0.399  -0.969  -1.033  1.00  0.00     0.138 C 
BRANCH  13  17
HETATM   17  C4  UNL     1       5.490  -3.753   0.821  1.00  0.00     0.069 C 
BRANCH  17  18
HETATM   18  C2  UNL     1       6.716  -3.733  -0.003  1.00  0.00     0.016 C 
HETATM   19  C1  UNL     1       6.622  -3.930  -1.476  1.00  0.00     0.015 C 
HETATM   20  C3  UNL     1       7.694  -4.800   0.527  1.00  0.00     0.015 C 
ENDBRANCH  17  18
ENDBRANCH  13  17
ENDBRANCH   1   7
BRANCH   1  21
HETATM   21  C9  UNL     1      -0.744   1.908  -0.608  1.00  0.00     0.246 C 
HETATM   22  O2  UNL     1      -1.507   2.035  -1.598  1.00  0.00    -0.271 OA
HETATM   23  N4  UNL     1       0.147   2.961  -0.361  1.00  0.00    -0.354 N 
ATOM     24  H4  UNL     1       0.768   2.889   0.445  1.00  0.00     0.163 HD
BRANCH  23  25
HETATM   25  C10 UNL     1       0.233   4.145  -1.189  1.00  0.00     0.092 C 
HETATM   26  C11 UNL     1       1.624   4.482  -1.589  1.00  0.00     0.009 C 
HETATM   27  C12 UNL     1       2.442   5.154  -0.510  1.00  0.00     0.011 C 
HETATM   28  C16 UNL     1       1.539   5.513  -2.720  1.00  0.00     0.011 C 
HETATM   29  C13 UNL     1       1.758   6.386   0.057  1.00  0.00    -0.013 C 
HETATM   30  C14 UNL     1       1.638   7.385  -1.049  1.00  0.00     0.009 C 
HETATM   31  C19 UNL     1       0.426   5.906   0.604  1.00  0.00     0.011 C 
HETATM   32  C15 UNL     1       0.845   6.736  -2.177  1.00  0.00    -0.013 C 
HETATM   33  C17 UNL     1      -0.517   6.431  -1.576  1.00  0.00     0.011 C 
HETATM   34  C18 UNL     1      -0.386   5.346  -0.514  1.00  0.00     0.009 C 
ENDBRANCH  23  25
ENDBRANCH   1  21
BRANCH   4  35
HETATM   35  N5  UNL     1      -3.753  -1.831   1.145  1.00  0.00    -0.338 N 
HETATM   36  C23 UNL     1      -5.087  -2.154   0.821  1.00  0.00     0.318 C 
HETATM   37  O3  UNL     1      -5.991  -1.256   0.733  1.00  0.00    -0.247 OA
HETATM   38  N6  UNL     1      -5.467  -3.484   0.578  1.00  0.00    -0.334 N 
HETATM   39  C24 UNL     1      -6.849  -3.777   0.155  1.00  0.00     0.127 C 
HETATM   40  C28 UNL     1      -4.551  -4.576   0.745  1.00  0.00     0.127 C 
HETATM   41  C25 UNL     1      -7.501  -4.556   1.267  1.00  0.00     0.020 C 
HETATM   42  C26 UNL     1      -6.542  -5.417   2.033  1.00  0.00     0.003 C 
HETATM   43  C27 UNL     1      -5.296  -5.794   1.291  1.00  0.00     0.020 C 
ATOM     44  H5  UNL     1      -3.034  -2.552   1.195  1.00  0.00     0.164 HD
ENDBRANCH   4  35
TORSDOF 6
