REMARK  3 active torsions:
REMARK  status: ('A' for Active; 'I' for Inactive)
REMARK    1  A    between atoms: C3_3  and  S1_5 
REMARK    2  A    between atoms: S1_5  and  C5_6 
REMARK    3  A    between atoms: C6_9  and  N2_10 
ROOT
HETATM    1  C1  UNL     1      -2.226   1.329   1.245  1.00  0.00     0.013 C 
HETATM    2  C2  UNL     1      -2.005   0.440   0.448  1.00  0.00    -0.102 C 
HETATM    3  C3  UNL     1      -1.735  -0.647  -0.502  1.00  0.00     0.129 C 
HETATM    4  C4  UNL     1      -2.869  -1.642  -0.446  1.00  0.00     0.035 C 
ENDROOT
BRANCH   3   5
HETATM    5  S1  UNL     1      -0.254  -1.515   0.134  1.00  0.00    -0.075 SA
BRANCH   5   6
HETATM    6  C5  UNL     1       1.155  -0.415   0.043  1.00  0.00     0.175 A 
HETATM    7  N1  UNL     1       1.607   0.450   0.963  1.00  0.00    -0.168 N 
HETATM    8  C6  UNL     1       2.700   1.103   0.518  1.00  0.00     0.692 A 
ATOM      9  H1  UNL     1       1.181   0.595   1.878  1.00  0.00     0.186 HD
HETATM   10  N3  UNL     1       2.926   0.622  -0.718  1.00  0.00    -0.130 N 
HETATM   11  N4  UNL     1       1.992  -0.295  -1.002  1.00  0.00    -0.265 N 
ATOM     12  H3  UNL     1       3.684   0.909  -1.337  1.00  0.00     0.205 HD
ATOM     13  H4  UNL     1       1.926  -0.820  -1.874  1.00  0.00     0.189 HD
BRANCH   8  14
HETATM   14  N2  UNL     1       3.395   2.014   1.155  1.00  0.00    -0.233 N 
ATOM     15  H22 UNL     1       3.224   2.379   2.092  1.00  0.00     0.174 HD
ATOM     16  H21 UNL     1       4.222   2.508   0.818  1.00  0.00     0.174 HD
ENDBRANCH   8  14
ENDBRANCH   5   6
ENDBRANCH   3   5
TORSDOF 3
