REMARK  3 active torsions:
REMARK  status: ('A' for Active; 'I' for Inactive)
REMARK    1  A    between atoms: C2_2  and  N1_3 
REMARK    2  A    between atoms: N1_3  and  C3_5 
REMARK    3  A    between atoms: C5_7  and  N2_8 
ROOT
HETATM    1  C3  UNL     1      -0.772   0.342  -0.407  1.00  0.00     0.281 C 
HETATM    2  C4  UNL     1      -0.291  -0.914   0.224  1.00  0.00     0.087 C 
HETATM    3  C5  UNL     1       1.214  -1.068   0.189  1.00  0.00     0.196 C 
HETATM    4  C6  UNL     1       1.952   0.238   0.323  1.00  0.00     0.004 C 
HETATM    5  C7  UNL     1       2.316   0.839  -1.012  1.00  0.00     0.018 C 
HETATM    6  C8  UNL     1       3.218   0.120   1.148  1.00  0.00     0.018 C 
HETATM    7  C9  UNL     1       0.990   1.232   0.991  1.00  0.00     0.245 C 
HETATM    8  N3  UNL     1      -0.021   1.502   0.018  1.00  0.00    -0.054 N 
ATOM      9  H31 UNL     1      -0.652   2.229   0.355  1.00  0.00     0.279 HD
ATOM     10  H32 UNL     1       0.382   1.979  -0.789  1.00  0.00     0.279 HD
ENDROOT
BRANCH   1  11
HETATM   11  N1  UNL     1      -2.142   0.567  -0.087  1.00  0.00    -0.396 N 
ATOM     12  H1  UNL     1      -2.438   1.386   0.445  1.00  0.00     0.155 HD
BRANCH  11  13
HETATM   13  C2  UNL     1      -3.079  -0.403  -0.543  1.00  0.00     0.111 C 
HETATM   14  C1  UNL     1      -4.475   0.100  -0.129  1.00  0.00     0.026 C 
ENDBRANCH  11  13
ENDBRANCH   1  11
BRANCH   3  15
HETATM   15  N2  UNL     1       1.629  -1.784  -1.029  1.00  0.00    -0.074 N 
ATOM     16  H23 UNL     1       1.153  -2.681  -1.123  1.00  0.00     0.274 HD
ATOM     17  H22 UNL     1       1.273  -1.335  -1.873  1.00  0.00     0.274 HD
ATOM     18  H21 UNL     1       2.643  -1.888  -1.053  1.00  0.00     0.274 HD
ENDBRANCH   3  15
TORSDOF 3
