REMARK  3 active torsions:
REMARK  status: ('A' for Active; 'I' for Inactive)
REMARK    1  A    between atoms: C2_2  and  C3_3 
REMARK    2  A    between atoms: C3_3  and  N1_4 
REMARK    3  A    between atoms: N1_4  and  C4_7 
ROOT
HETATM    1  C4  UNL     1       0.322  -0.276  -0.619  1.00  0.00     0.232 C 
HETATM    2  C5  UNL     1       0.750  -1.292   0.429  1.00  0.00     0.154 C 
HETATM    3  N2  UNL     1       2.109  -1.574   0.174  1.00  0.00    -0.400 N 
ATOM      4  H2  UNL     1       2.402  -2.506  -0.119  1.00  0.00     0.158 HD
HETATM    5  C6  UNL     1       3.043  -0.550   0.331  1.00  0.00     0.065 C 
HETATM    6  C7  UNL     1       2.626   0.715  -0.303  1.00  0.00     0.079 A 
HETATM    7  C8  UNL     1       2.302   1.879   0.585  1.00  0.00     0.180 A 
HETATM    8  O1  UNL     1       0.997   1.885   0.078  1.00  0.00    -0.382 OA
HETATM    9  C9  UNL     1       1.255   0.839  -0.806  1.00  0.00     0.164 A 
ENDROOT
BRANCH   1  10
HETATM   10  N1  UNL     1      -1.009   0.206  -0.432  1.00  0.00    -0.067 N 
ATOM     11  H12 UNL     1      -1.203   0.980  -1.067  1.00  0.00     0.277 HD
ATOM     12  H11 UNL     1      -1.093   0.691   0.461  1.00  0.00     0.277 HD
BRANCH  10  13
HETATM   13  C3  UNL     1      -2.018  -0.813  -0.552  1.00  0.00     0.232 C 
BRANCH  13  14
HETATM   14  C2  UNL     1      -3.378  -0.214  -0.330  1.00  0.00     0.023 C 
HETATM   15  C1  UNL     1      -3.576   0.417   1.005  1.00  0.00     0.007 C 
ENDBRANCH  13  14
ENDBRANCH  10  13
ENDBRANCH   1  10
TORSDOF 3
