REMARK  3 active torsions:
REMARK  status: ('A' for Active; 'I' for Inactive)
REMARK    1  A    between atoms: C2_2  and  N1_4 
REMARK    2  A    between atoms: N1_4  and  C4_6 
REMARK    3  A    between atoms: C6_10  and  O1_11 
ROOT
HETATM    1  C4  UNL     1       0.839   0.019   0.287  1.00  0.00     0.133 C 
HETATM    2  C5  UNL     1       1.389  -1.378   0.113  1.00  0.00     0.121 C 
HETATM    3  S1  UNL     1       3.059  -1.093   0.846  1.00  0.00    -0.061 SA
HETATM    4  N2  UNL     1       3.029   0.699   0.753  1.00  0.00    -0.145 NA
HETATM    5  C6  UNL     1       2.002   0.839  -0.298  1.00  0.00     0.243 C 
ENDROOT
BRANCH   1   6
HETATM    6  N1  UNL     1      -0.320   0.337  -0.415  1.00  0.00    -0.409 N 
ATOM      7  H1  UNL     1      -0.288   1.076  -1.117  1.00  0.00     0.154 HD
BRANCH   6   8
HETATM    8  C2  UNL     1      -1.528  -0.331  -0.183  1.00  0.00     0.069 C 
HETATM    9  C1  UNL     1      -2.121  -0.204   1.182  1.00  0.00     0.031 C 
HETATM   10  C3  UNL     1      -2.564   0.277  -1.143  1.00  0.00     0.031 C 
ENDBRANCH   6   8
ENDBRANCH   1   6
BRANCH   5  11
HETATM   11  O1  UNL     1       2.461   0.264  -1.485  1.00  0.00    -0.377 OA
ATOM     12  H1  UNL     1       3.179   0.770  -1.846  1.00  0.00     0.211 HD
ENDBRANCH   5  11
TORSDOF 3
