REMARK  3 active torsions:
REMARK  status: ('A' for Active; 'I' for Inactive)
REMARK    1  A    between atoms: C2_2  and  N2_6 
REMARK    2  A    between atoms: N3_8  and  N4_10 
REMARK    3  A    between atoms: N4_10  and  C3_12 
ROOT
HETATM    1  N4  UNL     1      -0.609  -0.455   0.868  1.00  0.00    -0.317 N 
ATOM      2  H4  UNL     1      -1.093  -1.140   0.287  1.00  0.00     0.182 HD
ENDROOT
BRANCH   1   3
HETATM    3  N3  UNL     1      -1.291   0.553   1.556  1.00  0.00    -0.245 N 
HETATM    4  N2  UNL     1      -2.376   1.054   1.207  1.00  0.00    -0.276 N 
ATOM      5  H2  UNL     1      -2.780   1.786   1.791  1.00  0.00     0.189 HD
ATOM      6  H3  UNL     1      -0.865   0.906   2.413  1.00  0.00     0.208 HD
BRANCH   4   7
HETATM    7  C2  UNL     1      -3.079   0.660   0.041  1.00  0.00     0.086 C 
HETATM    8  C1  UNL     1      -4.507   0.247   0.135  1.00  0.00     0.090 C 
HETATM    9  N1  UNL     1      -2.466   0.666  -1.086  1.00  0.00    -0.388 N 
ATOM     10  H12 UNL     1      -2.972   0.382  -1.925  1.00  0.00     0.157 HD
ATOM     11  H11 UNL     1      -1.488   0.949  -1.150  1.00  0.00     0.157 HD
ENDBRANCH   4   7
ENDBRANCH   1   3
BRANCH   1  12
HETATM   12  C3  UNL     1       0.850  -0.464   1.036  1.00  0.00     0.104 C 
HETATM   13  C4  UNL     1       1.496  -1.570   0.269  1.00  0.00     0.054 C 
HETATM   14  C5  UNL     1       2.050  -0.992  -1.025  1.00  0.00     0.234 C 
HETATM   15  N5  UNL     1       3.139  -0.129  -0.676  1.00  0.00    -0.075 N 
HETATM   16  C6  UNL     1       2.814   0.872   0.294  1.00  0.00     0.234 C 
ATOM     17  H52 UNL     1       3.942  -0.677  -0.366  1.00  0.00     0.277 HD
ATOM     18  H51 UNL     1       3.534   0.301  -1.512  1.00  0.00     0.277 HD
HETATM   19  C7  UNL     1       1.330   0.899   0.560  1.00  0.00     0.054 C 
ENDBRANCH   1  12
TORSDOF 3
