REMARK  9 active torsions:
REMARK  status: ('A' for Active; 'I' for Inactive)
REMARK    1  A    between atoms: N1_4  and  C3_5 
REMARK    2  A    between atoms: C3_5  and  C4_6 
REMARK    3  A    between atoms: C11_13  and  C12_14 
REMARK    4  A    between atoms: C12_14  and  C13_15 
REMARK    5  A    between atoms: C13_15  and  O2_16 
REMARK    6  A    between atoms: N2_18  and  C14_19 
REMARK    7  A    between atoms: N3_22  and  C17_23 
REMARK    8  A    between atoms: C17_23  and  C18_24 
REMARK    9  A    between atoms: C18_24  and  O3_25 
ROOT
HETATM    1  O1  UNL     1       0.286  -0.750   2.033  1.00  0.00    -0.267 OA
HETATM    2  C1  UNL     1      -0.134  -0.405   0.918  1.00  0.00     0.259 C 
HETATM    3  C2  UNL     1      -1.593  -0.500   0.654  1.00  0.00     0.160 C 
HETATM    4  N1  UNL     1      -2.032   0.003  -0.585  1.00  0.00    -0.379 N 
HETATM    5  C10 UNL     1      -1.057   0.393  -1.545  1.00  0.00     0.148 C 
HETATM    6  C11 UNL     1       0.153   1.095  -0.951  1.00  0.00     0.108 C 
HETATM    7  N2  UNL     1       0.769   0.069  -0.086  1.00  0.00    -0.335 N 
ENDROOT
BRANCH   7   8
HETATM    8  C14 UNL     1       2.093  -0.408  -0.258  1.00  0.00     0.107 C 
HETATM    9  C15 UNL     1       2.153  -1.876  -0.625  1.00  0.00     0.046 C 
HETATM   10  C16 UNL     1       3.287  -2.457   0.185  1.00  0.00     0.119 C 
HETATM   11  N3  UNL     1       3.863  -1.409   0.946  1.00  0.00    -0.408 N 
HETATM   12  C19 UNL     1       3.066  -0.236   0.845  1.00  0.00     0.142 C 
BRANCH  11  13
HETATM   13  C17 UNL     1       5.267  -1.261   0.903  1.00  0.00     0.143 C 
BRANCH  13  14
HETATM   14  C18 UNL     1       5.873  -0.831  -0.384  1.00  0.00     0.183 C 
BRANCH  14  15
HETATM   15  O3  UNL     1       5.472   0.380  -0.880  1.00  0.00    -0.399 OA
ATOM     16  H3  UNL     1       5.859   0.655  -1.703  1.00  0.00     0.209 HD
ENDBRANCH  14  15
ENDBRANCH  13  14
ENDBRANCH  11  13
ENDBRANCH   7   8
BRANCH   6  17
HETATM   17  C12 UNL     1      -0.219   2.330  -0.216  1.00  0.00     0.053 C 
BRANCH  17  18
HETATM   18  C13 UNL     1       0.969   3.048   0.373  1.00  0.00     0.166 C 
BRANCH  18  19
HETATM   19  O2  UNL     1       0.569   4.214   1.042  1.00  0.00    -0.401 OA
ATOM     20  H2  UNL     1       1.317   4.666   1.413  1.00  0.00     0.209 HD
ENDBRANCH  18  19
ENDBRANCH  17  18
ENDBRANCH   6  17
BRANCH   4  21
HETATM   21  C3  UNL     1      -3.243   0.744  -0.614  1.00  0.00     0.160 C 
BRANCH  21  22
HETATM   22  C4  UNL     1      -4.457   0.035  -0.194  1.00  0.00    -0.040 A 
HETATM   23  C5  UNL     1      -5.521   0.836   0.248  1.00  0.00     0.009 A 
HETATM   24  C6  UNL     1      -6.703   0.263   0.659  1.00  0.00     0.001 A 
HETATM   25  C7  UNL     1      -6.788  -1.116   0.616  1.00  0.00     0.000 A 
HETATM   26  C8  UNL     1      -5.756  -1.903   0.187  1.00  0.00     0.001 A 
HETATM   27  C9  UNL     1      -4.570  -1.327  -0.226  1.00  0.00     0.009 A 
ENDBRANCH  21  22
ENDBRANCH   4  21
TORSDOF 9
