REMARK  8 active torsions:
REMARK  status: ('A' for Active; 'I' for Inactive)
REMARK    1  A    between atoms: C1_2  and  O1_3 
REMARK    2  A    between atoms: N2_5  and  C2_7 
REMARK    3  A    between atoms: C2_7  and  C3_8 
REMARK    4  A    between atoms: C3_8  and  C4_9 
REMARK    5  A    between atoms: C3_8  and  N4_16 
REMARK    6  A    between atoms: N5_19  and  C11_20 
REMARK    7  A    between atoms: C11_20  and  C12_21 
REMARK    8  A    between atoms: C12_21  and  N6_22 
ROOT
HETATM    1  C3  UNL     1       2.620  -0.115   0.188  1.00  0.00     0.136 C 
ENDROOT
BRANCH   1   2
HETATM    2  C2  UNL     1       3.590   0.876  -0.443  1.00  0.00     0.152 C 
BRANCH   2   3
HETATM    3  N2  UNL     1       4.928   0.621   0.047  1.00  0.00    -0.357 N 
HETATM    4  C1  UNL     1       5.698   1.583   0.399  1.00  0.00     0.225 C 
HETATM    5  N1  UNL     1       6.997   1.295   0.872  1.00  0.00    -0.057 NA
ATOM      6  H2  UNL     1       5.263  -0.340   0.113  1.00  0.00     0.162 HD
BRANCH   4   7
HETATM    7  O1  UNL     1       5.236   2.881   0.307  1.00  0.00    -0.335 OA
ATOM      8  H1  UNL     1       4.362   3.075  -0.011  1.00  0.00     0.220 HD
ENDBRANCH   4   7
ENDBRANCH   2   3
ENDBRANCH   1   2
BRANCH   1   9
HETATM    9  C4  UNL     1       3.020  -1.495  -0.164  1.00  0.00    -0.018 A 
HETATM   10  C5  UNL     1       2.747  -2.040  -1.394  1.00  0.00     0.012 A 
HETATM   11  C6  UNL     1       3.148  -3.347  -1.650  1.00  0.00     0.018 A 
HETATM   12  C7  UNL     1       3.808  -4.100  -0.704  1.00  0.00     0.087 A 
HETATM   13  N3  UNL     1       4.075  -3.558   0.506  1.00  0.00    -0.375 N 
HETATM   14  C8  UNL     1       3.698  -2.302   0.773  1.00  0.00     0.096 A 
ATOM     15  H3  UNL     1       4.563  -4.106   1.214  1.00  0.00     0.164 HD
ENDBRANCH   1   9
BRANCH   1  16
HETATM   16  N4  UNL     1       1.278   0.218   0.054  1.00  0.00    -0.377 N 
HETATM   17  C9  UNL     1       0.611   0.354  -1.147  1.00  0.00     0.103 C 
HETATM   18  C10 UNL     1      -0.556   1.317  -1.152  1.00  0.00     0.102 C 
HETATM   19  N5  UNL     1      -1.234   1.498   0.058  1.00  0.00    -0.382 N 
HETATM   20  C17 UNL     1      -0.358   1.667   1.162  1.00  0.00     0.142 C 
HETATM   21  C18 UNL     1       0.550   0.477   1.258  1.00  0.00     0.143 C 
BRANCH  19  22
HETATM   22  C11 UNL     1      -2.440   0.762   0.281  1.00  0.00     0.167 C 
BRANCH  22  23
HETATM   23  C12 UNL     1      -3.573   1.218  -0.606  1.00  0.00     0.082 C 
BRANCH  23  24
HETATM   24  N6  UNL     1      -4.788   0.586  -0.477  1.00  0.00    -0.372 N 
HETATM   25  C13 UNL     1      -5.599   0.691   0.656  1.00  0.00     0.063 C 
HETATM   26  C14 UNL     1      -6.058  -0.720   0.959  1.00  0.00     0.046 C 
HETATM   27  C15 UNL     1      -6.209  -1.300  -0.451  1.00  0.00     0.025 C 
HETATM   28  C16 UNL     1      -5.140  -0.539  -1.247  1.00  0.00     0.127 C 
ENDBRANCH  23  24
ENDBRANCH  22  23
ENDBRANCH  19  22
ENDBRANCH   1  16
TORSDOF 8
