REMARK  9 active torsions:
REMARK  status: ('A' for Active; 'I' for Inactive)
REMARK    1  A    between atoms: C3_3  and  C4_4 
REMARK    2  A    between atoms: C5_5  and  N1_6 
REMARK    3  A    between atoms: N1_6  and  N2_8 
REMARK    4  A    between atoms: N2_8  and  N3_9 
REMARK    5  A    between atoms: C6_12  and  C7_13 
REMARK       I    between atoms: C7_13  and  N4_15 
REMARK    6  A    between atoms: C8_17  and  C9_18 
REMARK    7  A    between atoms: C9_18  and  C10_19 
REMARK    8  A    between atoms: C10_19  and  C11_20 
REMARK    9  A    between atoms: C11_20  and  N5_21 
REMARK       I    between atoms: N5_21  and  C12_23 
ROOT
HETATM    1  C1  UNL     1      -6.971   1.753   1.016  1.00  0.00     0.012 C 
HETATM    2  C2  UNL     1      -6.298   1.372   0.097  1.00  0.00    -0.116 C 
HETATM    3  C3  UNL     1      -5.459   0.918  -1.018  1.00  0.00     0.115 C 
ENDROOT
BRANCH   3   4
HETATM    4  C4  UNL     1      -4.072   1.464  -0.880  1.00  0.00     0.153 C 
HETATM    5  C5  UNL     1      -3.395   1.031   0.396  1.00  0.00     0.173 C 
HETATM    6  C6  UNL     1      -1.946   0.911   0.193  1.00  0.00     0.047 C 
HETATM    7  C13 UNL     1      -1.563   0.650  -1.047  1.00  0.00     0.124 C 
HETATM    8  S1  UNL     1      -3.008   0.544  -2.024  1.00  0.00     0.173 S 
HETATM    9  O3  UNL     1      -3.495  -0.857  -2.181  1.00  0.00    -0.223 OA
HETATM   10  O4  UNL     1      -2.878   1.282  -3.303  1.00  0.00    -0.223 OA
BRANCH   5  11
HETATM   11  N1  UNL     1      -3.992  -0.174   0.931  1.00  0.00    -0.242 N 
ATOM     12  H1  UNL     1      -4.975  -0.185   1.202  1.00  0.00     0.197 HD
BRANCH  11  13
HETATM   13  N2  UNL     1      -3.308  -1.175   1.055  1.00  0.00    -0.248 NA
BRANCH  13  14
HETATM   14  N3  UNL     1      -2.710  -2.133   1.522  1.00  0.00    -0.261 N 
ATOM     15  H32 UNL     1      -2.997  -1.947   2.483  1.00  0.00     0.193 HD
ATOM     16  H31 UNL     1      -2.138  -2.971   1.626  1.00  0.00     0.193 HD
ENDBRANCH  13  14
ENDBRANCH  11  13
ENDBRANCH   5  11
BRANCH   6  17
HETATM   17  C7  UNL     1      -0.967   1.075   1.307  1.00  0.00     0.254 C 
HETATM   18  O1  UNL     1      -1.416   1.318   2.435  1.00  0.00    -0.268 OA
HETATM   19  N4  UNL     1       0.428   0.964   1.120  1.00  0.00    -0.337 N 
HETATM   20  C8  UNL     1       1.031  -0.089   0.721  1.00  0.00     0.064 C 
ATOM     21  H4  UNL     1       0.997   1.787   1.318  1.00  0.00     0.168 HD
BRANCH  20  22
HETATM   22  C9  UNL     1       2.494  -0.082   0.564  1.00  0.00     0.046 C 
BRANCH  22  23
HETATM   23  C10 UNL     1       3.195  -0.872   1.650  1.00  0.00     0.025 C 
BRANCH  23  24
HETATM   24  C11 UNL     1       4.664  -0.809   1.413  1.00  0.00     0.124 C 
BRANCH  24  25
HETATM   25  N5  UNL     1       5.110  -1.350   0.157  1.00  0.00    -0.345 N 
HETATM   26  C12 UNL     1       6.487  -1.321  -0.138  1.00  0.00     0.328 C 
HETATM   27  N6  UNL     1       6.939  -1.849  -1.368  1.00  0.00    -0.040 NA
HETATM   28  O2  UNL     1       7.316  -0.842   0.658  1.00  0.00    -0.251 OA
ATOM     29  H5  UNL     1       4.443  -1.746  -0.506  1.00  0.00     0.163 HD
ENDBRANCH  24  25
ENDBRANCH  23  24
ENDBRANCH  22  23
ENDBRANCH  20  22
ENDBRANCH   6  17
ENDBRANCH   3   4
TORSDOF 9
