REMARK  9 active torsions:
REMARK  status: ('A' for Active; 'I' for Inactive)
REMARK    1  A    between atoms: C3_3  and  N1_4 
REMARK    2  A    between atoms: N1_4  and  C4_6 
REMARK    3  A    between atoms: C4_6  and  C5_7 
REMARK    4  A    between atoms: C5_7  and  N2_8 
REMARK    5  A    between atoms: C11_16  and  N4_17 
REMARK    6  A    between atoms: N4_17  and  C12_18 
REMARK    7  A    between atoms: C12_18  and  C13_19 
REMARK    8  A    between atoms: C13_19  and  C14_20 
REMARK    9  A    between atoms: C14_20  and  N5_21 
ROOT
HETATM    1  C1  UNL     1       0.462  -1.022  -2.120  1.00  0.00     0.096 A 
HETATM    2  C2  UNL     1      -0.838  -1.139  -1.655  1.00  0.00     0.065 A 
HETATM    3  C3  UNL     1      -1.052  -1.395  -0.341  1.00  0.00     0.105 A 
HETATM    4  N3  UNL     1       0.016  -1.532   0.497  1.00  0.00    -0.302 N 
ATOM      5  H3  UNL     1      -0.150  -1.724   1.485  1.00  0.00     0.171 HD
HETATM    6  C11 UNL     1       1.304  -1.419   0.047  1.00  0.00     0.259 A 
HETATM    7  N6  UNL     1       1.490  -1.161  -1.273  1.00  0.00    -0.326 N 
ATOM      8  H6  UNL     1       2.441  -1.070  -1.630  1.00  0.00     0.169 HD
ENDROOT
BRANCH   3   9
HETATM    9  N1  UNL     1      -2.231  -1.511   0.125  1.00  0.00    -0.375 N 
ATOM     10  H1  UNL     1      -2.355  -1.705   1.119  1.00  0.00     0.161 HD
BRANCH   9  11
HETATM   11  C4  UNL     1      -3.388  -1.377  -0.709  1.00  0.00     0.140 C 
BRANCH  11  12
HETATM   12  C5  UNL     1      -4.552  -1.080   0.227  1.00  0.00     0.136 C 
BRANCH  12  13
HETATM   13  N2  UNL     1      -4.372   0.116   0.966  1.00  0.00    -0.411 N 
HETATM   14  C6  UNL     1      -4.405   1.343   0.240  1.00  0.00     0.117 C 
HETATM   15  C7  UNL     1      -5.826   1.618  -0.189  1.00  0.00     0.019 C 
HETATM   16  C8  UNL     1      -6.768   1.648   0.978  1.00  0.00     0.003 C 
HETATM   17  C9  UNL     1      -6.546   0.533   1.957  1.00  0.00     0.019 C 
HETATM   18  C10 UNL     1      -5.088   0.237   2.188  1.00  0.00     0.117 C 
ENDBRANCH  12  13
ENDBRANCH  11  12
ENDBRANCH   9  11
ENDBRANCH   3   9
BRANCH   6  19
HETATM   19  N4  UNL     1       2.208  -1.552   0.794  1.00  0.00    -0.388 NA
BRANCH  19  20
HETATM   20  C12 UNL     1       3.319  -1.681   1.535  1.00  0.00     0.161 C 
BRANCH  20  21
HETATM   21  C13 UNL     1       4.647  -1.970   0.937  1.00  0.00     0.089 C 
BRANCH  21  22
HETATM   22  C14 UNL     1       5.253  -1.029  -0.011  1.00  0.00     0.279 C 
BRANCH  22  23
HETATM   23  N5  UNL     1       5.548   0.294   0.415  1.00  0.00     0.092 N 
HETATM   24  C15 UNL     1       6.318   0.924  -0.682  1.00  0.00     0.298 C 
HETATM   25  C16 UNL     1       5.345   1.538  -1.645  1.00  0.00     0.198 C 
HETATM   26  O1  UNL     1       4.838   2.762  -1.155  1.00  0.00    -0.388 OA
HETATM   27  C17 UNL     1       4.818   2.623   0.226  1.00  0.00     0.198 C 
HETATM   28  C18 UNL     1       4.418   1.175   0.603  1.00  0.00     0.298 C 
ENDBRANCH  22  23
ENDBRANCH  21  22
ENDBRANCH  20  21
ENDBRANCH  19  20
ENDBRANCH   6  19
TORSDOF 9
