REMARK  9 active torsions:
REMARK  status: ('A' for Active; 'I' for Inactive)
REMARK    1  A    between atoms: C1_2  and  N1_3 
REMARK    2  A    between atoms: N1_3  and  O2_4 
REMARK    3  A    between atoms: N1_3  and  C2_6 
REMARK    4  A    between atoms: C2_6  and  C3_7 
REMARK    5  A    between atoms: C3_7  and  C4_8 
REMARK    6  A    between atoms: C7_11  and  N2_12 
REMARK    7  A    between atoms: N2_12  and  C8_14 
REMARK    8  A    between atoms: C8_14  and  C9_15 
REMARK    9  A    between atoms: C9_15  and  N3_16 
ROOT
HETATM    1  N2  UNL     1       0.639   1.315  -0.347  1.00  0.00    -0.375 N 
ATOM      2  H2  UNL     1       1.155   1.233   0.529  1.00  0.00     0.161 HD
ENDROOT
BRANCH   1   3
HETATM    3  C7  UNL     1      -0.540   0.816  -0.359  1.00  0.00     0.100 A 
HETATM    4  C6  UNL     1      -1.386   0.831  -1.445  1.00  0.00     0.049 A 
HETATM    5  C5  UNL     1      -2.643   0.275  -1.386  1.00  0.00     0.012 A 
HETATM    6  C4  UNL     1      -3.025  -0.297  -0.200  1.00  0.00    -0.041 A 
HETATM    7  C18 UNL     1      -2.175  -0.310   0.886  1.00  0.00     0.096 A 
HETATM    8  N4  UNL     1      -0.962   0.243   0.781  1.00  0.00    -0.352 N 
ATOM      9  H4  UNL     1      -0.340   0.230   1.589  1.00  0.00     0.166 HD
BRANCH   6  10
HETATM   10  C3  UNL     1      -4.360  -0.923  -0.033  1.00  0.00     0.062 C 
BRANCH  10  11
HETATM   11  C2  UNL     1      -5.388   0.072   0.458  1.00  0.00     0.163 C 
BRANCH  11  12
HETATM   12  N1  UNL     1      -6.651  -0.626   0.590  1.00  0.00    -0.236 N 
BRANCH  12  13
HETATM   13  C1  UNL     1      -6.984  -1.251   1.823  1.00  0.00     0.376 C 
HETATM   14  O1  UNL     1      -6.195  -1.202   2.791  1.00  0.00    -0.281 OA
ENDBRANCH  12  13
BRANCH  12  15
HETATM   15  O2  UNL     1      -7.487  -0.665  -0.469  1.00  0.00    -0.285 OA
ATOM     16  H2  UNL     1      -7.265  -0.247  -1.293  1.00  0.00     0.245 HD
ENDBRANCH  12  15
ENDBRANCH  11  12
ENDBRANCH  10  11
ENDBRANCH   6  10
ENDBRANCH   1   3
BRANCH   1  17
HETATM   17  C8  UNL     1       1.313   1.972  -1.417  1.00  0.00     0.141 C 
BRANCH  17  18
HETATM   18  C9  UNL     1       2.325   1.028  -2.037  1.00  0.00     0.155 C 
BRANCH  18  19
HETATM   19  N3  UNL     1       3.324   0.584  -1.096  1.00  0.00    -0.278 N 
HETATM   20  C10 UNL     1       3.250  -0.569  -0.266  1.00  0.00     0.261 A 
HETATM   21  O3  UNL     1       2.334  -1.422  -0.171  1.00  0.00    -0.267 OA
HETATM   22  C11 UNL     1       4.473  -0.661   0.543  1.00  0.00     0.048 A 
HETATM   23  C12 UNL     1       4.918  -1.555   1.491  1.00  0.00     0.018 A 
HETATM   24  C16 UNL     1       5.282   0.404   0.223  1.00  0.00     0.048 A 
HETATM   25  C13 UNL     1       6.142  -1.390   2.105  1.00  0.00     0.001 A 
HETATM   26  C14 UNL     1       6.956  -0.322   1.786  1.00  0.00     0.001 A 
HETATM   27  C15 UNL     1       6.498   0.561   0.839  1.00  0.00     0.018 A 
HETATM   28  C17 UNL     1       4.592   1.187  -0.788  1.00  0.00     0.261 A 
HETATM   29  O4  UNL     1       4.995   2.230  -1.337  1.00  0.00    -0.267 OA
ENDBRANCH  18  19
ENDBRANCH  17  18
ENDBRANCH   1  17
TORSDOF 9
