REMARK  7 active torsions:
REMARK  status: ('A' for Active; 'I' for Inactive)
REMARK    1  A    between atoms: C5_5  and  S1_6 
REMARK    2  A    between atoms: S1_6  and  N1_9 
REMARK    3  A    between atoms: N1_9  and  C6_11 
REMARK    4  A    between atoms: C6_11  and  C7_12 
REMARK    5  A    between atoms: C7_12  and  N2_13 
REMARK    6  A    between atoms: N2_13  and  S2_15 
REMARK    7  A    between atoms: S2_15  and  C8_18 
ROOT
HETATM    1  C6  UNL     1       0.171  -1.234  -1.147  1.00  0.00     0.152 C 
ENDROOT
BRANCH   1   2
HETATM    2  N1  UNL     1       0.030  -1.560   0.255  1.00  0.00    -0.314 N 
ATOM      3  H1  UNL     1      -0.826  -1.409   0.789  1.00  0.00     0.172 HD
BRANCH   2   4
HETATM    4  S1  UNL     1       1.471  -2.233   0.924  1.00  0.00     0.258 S 
HETATM    5  O1  UNL     1       1.901  -3.466   0.215  1.00  0.00    -0.201 OA
HETATM    6  O2  UNL     1       1.202  -2.482   2.384  1.00  0.00    -0.201 OA
BRANCH   4   7
HETATM    7  C5  UNL     1       2.730  -1.033   0.782  1.00  0.00     0.079 A 
HETATM    8  C4  UNL     1       2.901  -0.142   1.815  1.00  0.00     0.026 A 
HETATM    9  C3  UNL     1       3.879   0.820   1.746  1.00  0.00     0.008 A 
HETATM   10  C2  UNL     1       4.668   0.853   0.613  1.00  0.00    -0.062 A 
HETATM   11  C1  UNL     1       5.730   1.888   0.524  1.00  0.00     0.048 C 
HETATM   12  C14 UNL     1       4.489  -0.046  -0.422  1.00  0.00     0.008 A 
HETATM   13  C13 UNL     1       3.502  -1.017  -0.350  1.00  0.00     0.026 A 
ENDBRANCH   4   7
ENDBRANCH   2   4
ENDBRANCH   1   2
BRANCH   1  14
HETATM   14  C7  UNL     1      -1.153  -0.659  -1.602  1.00  0.00     0.152 C 
BRANCH  14  15
HETATM   15  N2  UNL     1      -2.231  -1.616  -1.423  1.00  0.00    -0.314 N 
ATOM     16  H2  UNL     1      -2.101  -2.552  -1.039  1.00  0.00     0.172 HD
BRANCH  15  17
HETATM   17  S2  UNL     1      -3.739  -0.997  -1.927  1.00  0.00     0.260 S 
HETATM   18  O3  UNL     1      -3.767  -0.674  -3.398  1.00  0.00    -0.200 OA
HETATM   19  O4  UNL     1      -4.779  -2.061  -1.668  1.00  0.00    -0.200 OA
BRANCH  17  20
HETATM   20  C8  UNL     1      -4.179   0.402  -0.992  1.00  0.00     0.094 A 
HETATM   21  C9  UNL     1      -4.907   0.329   0.183  1.00  0.00     0.028 A 
HETATM   22  C10 UNL     1      -5.218   1.495   0.872  1.00  0.00     0.019 A 
HETATM   23  C11 UNL     1      -4.815   2.730   0.406  1.00  0.00     0.087 A 
HETATM   24  N3  UNL     1      -4.109   2.771  -0.738  1.00  0.00    -0.374 N 
HETATM   25  C12 UNL     1      -3.787   1.654  -1.436  1.00  0.00     0.112 A 
ATOM     26  H3  UNL     1      -3.804   3.677  -1.094  1.00  0.00     0.164 HD
ENDBRANCH  17  20
ENDBRANCH  15  17
ENDBRANCH  14  15
ENDBRANCH   1  14
TORSDOF 7
