REMARK  7 active torsions:
REMARK  status: ('A' for Active; 'I' for Inactive)
REMARK    1  A    between atoms: C7_8  and  S1_9 
REMARK    2  A    between atoms: S1_9  and  N2_12 
REMARK    3  A    between atoms: N2_12  and  C8_14 
REMARK    4  A    between atoms: C8_14  and  C9_15 
REMARK    5  A    between atoms: C9_15  and  N3_16 
REMARK    6  A    between atoms: N3_16  and  S2_18 
REMARK    7  A    between atoms: S2_18  and  C10_21 
ROOT
HETATM    1  N1  UNL     1      -5.064   3.730   0.078  1.00  0.00    -0.191 NA
HETATM    2  C1  UNL     1      -4.967   2.562  -0.009  1.00  0.00     0.101 C 
HETATM    3  C2  UNL     1      -4.875   1.139  -0.114  1.00  0.00     0.068 A 
HETATM    4  C3  UNL     1      -5.963   0.294  -0.103  1.00  0.00     0.024 A 
HETATM    5  C4  UNL     1      -5.806  -1.072  -0.208  1.00  0.00     0.002 A 
HETATM    6  C5  UNL     1      -4.560  -1.636  -0.329  1.00  0.00     0.002 A 
HETATM    7  C6  UNL     1      -3.462  -0.800  -0.342  1.00  0.00     0.027 A 
HETATM    8  C7  UNL     1      -3.606   0.564  -0.236  1.00  0.00     0.100 A 
ENDROOT
BRANCH   8   9
HETATM    9  S1  UNL     1      -2.254   1.609  -0.291  1.00  0.00     0.260 S 
HETATM   10  O1  UNL     1      -2.307   2.327  -1.641  1.00  0.00    -0.200 OA
HETATM   11  O2  UNL     1      -2.260   2.675   0.761  1.00  0.00    -0.200 OA
BRANCH   9  12
HETATM   12  N2  UNL     1      -0.728   0.841  -0.247  1.00  0.00    -0.314 N 
ATOM     13  H2  UNL     1      -0.066   0.910  -1.020  1.00  0.00     0.172 HD
BRANCH  12  14
HETATM   14  C8  UNL     1      -0.435   0.100   0.931  1.00  0.00     0.152 C 
BRANCH  14  15
HETATM   15  C9  UNL     1       0.932  -0.546   0.874  1.00  0.00     0.152 C 
BRANCH  15  16
HETATM   16  N3  UNL     1       1.075  -1.464  -0.223  1.00  0.00    -0.314 N 
ATOM     17  H3  UNL     1       0.369  -1.697  -0.921  1.00  0.00     0.172 HD
BRANCH  16  18
HETATM   18  S2  UNL     1       2.698  -2.101  -0.123  1.00  0.00     0.258 S 
HETATM   19  O3  UNL     1       2.837  -2.670   1.281  1.00  0.00    -0.201 OA
HETATM   20  O4  UNL     1       2.903  -3.206  -1.116  1.00  0.00    -0.201 OA
BRANCH  18  21
HETATM   21  C10 UNL     1       3.873  -0.829  -0.288  1.00  0.00     0.079 A 
HETATM   22  C11 UNL     1       4.362  -0.127   0.808  1.00  0.00     0.025 A 
HETATM   23  C12 UNL     1       5.291   0.880   0.688  1.00  0.00     0.002 A 
HETATM   24  C13 UNL     1       5.758   1.209  -0.566  1.00  0.00     0.000 A 
HETATM   25  C14 UNL     1       5.304   0.544  -1.677  1.00  0.00     0.002 A 
HETATM   26  C15 UNL     1       4.366  -0.469  -1.526  1.00  0.00     0.025 A 
ENDBRANCH  18  21
ENDBRANCH  16  18
ENDBRANCH  15  16
ENDBRANCH  14  15
ENDBRANCH  12  14
ENDBRANCH   9  12
ENDBRANCH   8   9
TORSDOF 7
