REMARK  7 active torsions:
REMARK  status: ('A' for Active; 'I' for Inactive)
REMARK    1  A    between atoms: C1_2  and  C2_3 
REMARK       I    between atoms: C1_2  and  N1_14 
REMARK    2  A    between atoms: C2_3  and  C3_4 
REMARK    3  A    between atoms: C3_4  and  S1_5 
REMARK    4  A    between atoms: S1_5  and  C4_8 
REMARK    5  A    between atoms: N1_14  and  N2_16 
REMARK    6  A    between atoms: N2_16  and  S2_18 
REMARK    7  A    between atoms: S2_18  and  C10_21 
ROOT
HETATM    1  O1  UNL     1      -0.199   0.615   0.339  1.00  0.00    -0.272 OA
HETATM    2  C1  UNL     1       0.034  -0.579   0.052  1.00  0.00     0.237 C 
HETATM    3  N1  UNL     1       1.321  -1.085   0.474  1.00  0.00    -0.260 N 
ATOM      4  H1  UNL     1       1.586  -2.048   0.266  1.00  0.00     0.190 HD
ENDROOT
BRANCH   2   5
HETATM    5  C2  UNL     1      -0.915  -1.439  -0.665  1.00  0.00     0.120 C 
BRANCH   5   6
HETATM    6  C3  UNL     1      -2.274  -0.848  -0.722  1.00  0.00     0.155 C 
BRANCH   6   7
HETATM    7  S1  UNL     1      -3.091  -0.649   0.827  1.00  0.00     0.176 S 
HETATM    8  O2  UNL     1      -2.389   0.203   1.815  1.00  0.00    -0.223 OA
HETATM    9  O3  UNL     1      -3.293  -2.041   1.433  1.00  0.00    -0.223 OA
BRANCH   7  10
HETATM   10  C4  UNL     1      -4.663   0.035   0.502  1.00  0.00     0.059 A 
HETATM   11  C5  UNL     1      -5.725  -0.774   0.189  1.00  0.00     0.023 A 
HETATM   12  C6  UNL     1      -7.001  -0.233  -0.044  1.00  0.00     0.002 A 
HETATM   13  C7  UNL     1      -7.151   1.130   0.051  1.00  0.00     0.000 A 
HETATM   14  C8  UNL     1      -6.108   1.955   0.363  1.00  0.00     0.002 A 
HETATM   15  C9  UNL     1      -4.846   1.387   0.590  1.00  0.00     0.023 A 
ENDBRANCH   7  10
ENDBRANCH   6   7
ENDBRANCH   5   6
ENDBRANCH   2   5
BRANCH   3  16
HETATM   16  N2  UNL     1       2.194  -0.256   1.162  1.00  0.00    -0.220 N 
ATOM     17  H2  UNL     1       2.338  -0.280   2.172  1.00  0.00     0.200 HD
BRANCH  16  18
HETATM   18  S2  UNL     1       2.995   0.807   0.100  1.00  0.00     0.276 S 
HETATM   19  O4  UNL     1       2.485   0.567  -1.318  1.00  0.00    -0.199 OA
HETATM   20  O5  UNL     1       2.725   2.248   0.390  1.00  0.00    -0.199 OA
BRANCH  18  21
HETATM   21  C10 UNL     1       4.727   0.521   0.090  1.00  0.00     0.081 A 
HETATM   22  C11 UNL     1       5.554   1.223   0.975  1.00  0.00     0.025 A 
HETATM   23  C12 UNL     1       6.922   1.036   0.999  1.00  0.00     0.002 A 
HETATM   24  C13 UNL     1       7.525   0.142   0.140  1.00  0.00     0.000 A 
HETATM   25  C14 UNL     1       6.725  -0.554  -0.733  1.00  0.00     0.002 A 
HETATM   26  C15 UNL     1       5.339  -0.367  -0.759  1.00  0.00     0.025 A 
ENDBRANCH  18  21
ENDBRANCH  16  18
ENDBRANCH   3  16
TORSDOF 7
