REMARK  8 active torsions:
REMARK  status: ('A' for Active; 'I' for Inactive)
REMARK    1  A    between atoms: C3_3  and  O1_4 
REMARK    2  A    between atoms: O1_4  and  C4_5 
REMARK    3  A    between atoms: C4_5  and  C5_6 
REMARK    4  A    between atoms: C5_6  and  O2_7 
REMARK    5  A    between atoms: C5_6  and  C6_9 
REMARK    6  A    between atoms: C6_9  and  N1_10 
REMARK    7  A    between atoms: N2_13  and  C9_14 
REMARK    8  A    between atoms: C18_23  and  C19_24 
ROOT
HETATM    1  C1  UNL     1       7.499  -1.178  -1.003  1.00  0.00     0.014 C 
HETATM    2  C2  UNL     1       6.597  -0.380  -1.055  1.00  0.00    -0.091 C 
HETATM    3  C3  UNL     1       5.488   0.573  -1.136  1.00  0.00     0.260 C 
ENDROOT
BRANCH   3   4
HETATM    4  O1  UNL     1       4.933   0.843   0.073  1.00  0.00    -0.377 OA
BRANCH   4   5
HETATM    5  C4  UNL     1       4.407  -0.158   0.812  1.00  0.00     0.202 C 
BRANCH   5   6
HETATM    6  C5  UNL     1       3.274  -0.937   0.209  1.00  0.00     0.170 C 
BRANCH   6   7
HETATM    7  O2  UNL     1       3.711  -1.538  -0.969  1.00  0.00    -0.392 OA
ATOM      8  H2  UNL     1       2.994  -2.031  -1.351  1.00  0.00     0.210 HD
ENDBRANCH   6   7
BRANCH   6   9
HETATM    9  C6  UNL     1       2.051  -0.132  -0.099  1.00  0.00     0.307 C 
BRANCH   9  10
HETATM   10  N1  UNL     1       1.483   0.549   1.050  1.00  0.00     0.109 N 
HETATM   11  C7  UNL     1       0.944  -0.410   2.000  1.00  0.00     0.293 C 
HETATM   12  C8  UNL     1      -0.551  -0.450   1.870  1.00  0.00     0.147 C 
HETATM   13  N2  UNL     1      -0.954  -0.356   0.516  1.00  0.00    -0.404 N 
HETATM   14  C17 UNL     1      -0.614   0.882  -0.114  1.00  0.00     0.164 C 
HETATM   15  C18 UNL     1       0.505   1.527   0.686  1.00  0.00     0.340 C 
BRANCH  13  16
HETATM   16  C9  UNL     1      -2.269  -0.845   0.239  1.00  0.00     0.080 C 
HETATM   17  C10 UNL     1      -3.365  -0.110   0.926  1.00  0.00     0.029 C 
HETATM   18  C11 UNL     1      -4.705  -0.371   0.316  1.00  0.00    -0.012 C 
HETATM   19  C12 UNL     1      -5.093   0.731  -0.648  1.00  0.00     0.005 C 
HETATM   20  C15 UNL     1      -4.697  -1.581  -0.599  1.00  0.00     0.009 C 
HETATM   21  C13 UNL     1      -4.290   0.411  -1.874  1.00  0.00     0.005 C 
HETATM   22  C14 UNL     1      -3.830  -1.042  -1.735  1.00  0.00    -0.012 C 
HETATM   23  C16 UNL     1      -2.419  -1.001  -1.242  1.00  0.00     0.029 C 
ENDBRANCH  13  16
BRANCH  15  24
HETATM   24  C19 UNL     1       1.038   2.751   0.097  1.00  0.00     0.209 C 
HETATM   25  O3  UNL     1       0.247   3.670  -0.302  1.00  0.00    -0.646 OA
HETATM   26  O4  UNL     1       2.381   3.020  -0.076  1.00  0.00    -0.646 OA
ENDBRANCH  15  24
ENDBRANCH   9  10
ENDBRANCH   6   9
ENDBRANCH   5   6
ENDBRANCH   4   5
ENDBRANCH   3   4
TORSDOF 8
