REMARK  8 active torsions:
REMARK  status: ('A' for Active; 'I' for Inactive)
REMARK    1  A    between atoms: C3_3  and  C4_4 
REMARK    2  A    between atoms: C4_4  and  C5_5 
REMARK    3  A    between atoms: C5_5  and  C6_6 
REMARK    4  A    between atoms: C6_6  and  C7_7 
REMARK    5  A    between atoms: C11_13  and  N2_14 
REMARK    6  A    between atoms: N2_14  and  C12_16 
REMARK    7  A    between atoms: C12_16  and  C13_17 
REMARK    8  A    between atoms: C13_17  and  S1_18 
ROOT
HETATM    1  C1  UNL     1       7.810   1.306   0.779  1.00  0.00     0.012 C 
HETATM    2  C2  UNL     1       6.674   1.365   1.185  1.00  0.00    -0.117 C 
HETATM    3  C3  UNL     1       5.280   1.418   1.675  1.00  0.00     0.093 C 
ENDROOT
BRANCH   3   4
HETATM    4  C4  UNL     1       4.309   1.141   0.519  1.00  0.00     0.012 C 
BRANCH   4   5
HETATM    5  C5  UNL     1       4.599  -0.216  -0.029  1.00  0.00     0.007 C 
BRANCH   5   6
HETATM    6  C6  UNL     1       3.766  -0.670  -1.165  1.00  0.00     0.057 C 
BRANCH   6   7
HETATM    7  C7  UNL     1       2.323  -0.784  -0.876  1.00  0.00     0.011 A 
HETATM    8  C8  UNL     1       1.459  -1.162  -1.899  1.00  0.00     0.027 A 
HETATM    9  C9  UNL     1       0.112  -1.311  -1.744  1.00  0.00     0.035 A 
HETATM   10  C10 UNL     1      -0.427  -1.069  -0.485  1.00  0.00     0.078 A 
HETATM   11  N1  UNL     1      -1.749  -1.198  -0.269  1.00  0.00    -0.335 N 
HETATM   12  C16 UNL     1       0.411  -0.697   0.528  1.00  0.00     0.135 A 
HETATM   13  C11 UNL     1      -2.304  -0.973   0.933  1.00  0.00     0.171 A 
ATOM     14  H1  UNL     1      -2.350  -1.476  -1.045  1.00  0.00     0.168 HD
HETATM   15  C15 UNL     1      -1.445  -0.597   1.950  1.00  0.00     0.290 A 
HETATM   16  O3  UNL     1      -1.925  -0.373   3.102  1.00  0.00    -0.264 OA
HETATM   17  N3  UNL     1      -0.121  -0.460   1.761  1.00  0.00    -0.304 N 
ATOM     18  H3  UNL     1       0.482  -0.181   2.535  1.00  0.00     0.171 HD
HETATM   19  N4  UNL     1       1.736  -0.568   0.308  1.00  0.00    -0.344 N 
ATOM     20  H4  UNL     1       2.327  -0.289   1.091  1.00  0.00     0.167 HD
BRANCH  13  21
HETATM   21  N2  UNL     1      -3.580  -1.099   1.136  1.00  0.00    -0.371 N 
ATOM     22  H2  UNL     1      -3.927  -0.910   2.076  1.00  0.00     0.161 HD
BRANCH  21  23
HETATM   23  C12 UNL     1      -4.536  -1.482   0.145  1.00  0.00     0.136 C 
BRANCH  23  24
HETATM   24  C13 UNL     1      -4.966  -0.325  -0.733  1.00  0.00     0.159 C 
BRANCH  24  25
HETATM   25  S1  UNL     1      -5.696   0.903   0.348  1.00  0.00     0.142 S 
HETATM   26  C14 UNL     1      -6.236   2.312  -0.601  1.00  0.00     0.161 C 
HETATM   27  O1  UNL     1      -4.706   1.284   1.390  1.00  0.00    -0.228 OA
HETATM   28  O2  UNL     1      -6.891   0.298   1.002  1.00  0.00    -0.228 OA
ENDBRANCH  24  25
ENDBRANCH  23  24
ENDBRANCH  21  23
ENDBRANCH  13  21
ENDBRANCH   6   7
ENDBRANCH   5   6
ENDBRANCH   4   5
ENDBRANCH   3   4
TORSDOF 8
