REMARK  9 active torsions:
REMARK  status: ('A' for Active; 'I' for Inactive)
REMARK    1  A    between atoms: N1_3  and  C2_4 
REMARK    2  A    between atoms: C2_4  and  C3_5 
REMARK    3  A    between atoms: C3_5  and  N2_6 
REMARK    4  A    between atoms: C8_12  and  C9_13 
REMARK    5  A    between atoms: C9_13  and  C10_14 
REMARK    6  A    between atoms: C10_14  and  C11_15 
REMARK    7  A    between atoms: C11_15  and  O3_16 
REMARK    8  A    between atoms: C13_19  and  O4_20 
REMARK    9  A    between atoms: C13_19  and  C14_22 
ROOT
HETATM    1  O1  UNL     1      -1.260   0.791   3.033  1.00  0.00    -0.270 OA
HETATM    2  C1  UNL     1      -1.512   0.240   1.944  1.00  0.00     0.259 C 
HETATM    3  N1  UNL     1      -0.617  -0.609   1.182  1.00  0.00    -0.343 N 
HETATM    4  C8  UNL     1      -1.444  -1.581   0.580  1.00  0.00     0.091 C 
HETATM    5  C12 UNL     1      -2.812  -0.901   0.386  1.00  0.00     0.078 C 
HETATM    6  C13 UNL     1      -2.800   0.341   1.198  1.00  0.00     0.167 C 
ENDROOT
BRANCH   3   7
HETATM    7  C2  UNL     1       0.788  -0.385   1.158  1.00  0.00     0.156 C 
BRANCH   7   8
HETATM    8  C3  UNL     1       1.257   0.550   0.062  1.00  0.00     0.292 C 
BRANCH   8   9
HETATM    9  N2  UNL     1       2.693   0.697   0.161  1.00  0.00     0.094 N 
HETATM   10  C4  UNL     1       3.440  -0.472  -0.163  1.00  0.00     0.298 C 
HETATM   11  C5  UNL     1       4.902  -0.239  -0.338  1.00  0.00     0.198 C 
HETATM   12  O2  UNL     1       5.253   0.831  -1.115  1.00  0.00    -0.388 OA
HETATM   13  C6  UNL     1       4.211   1.602  -1.556  1.00  0.00     0.198 C 
HETATM   14  C7  UNL     1       3.182   1.876  -0.480  1.00  0.00     0.298 C 
ENDBRANCH   8   9
ENDBRANCH   7   8
ENDBRANCH   3   7
BRANCH   4  15
HETATM   15  C9  UNL     1      -1.086  -2.191  -0.702  1.00  0.00     0.027 C 
BRANCH  15  16
HETATM   16  C10 UNL     1       0.143  -2.966  -0.864  1.00  0.00     0.028 C 
BRANCH  16  17
HETATM   17  C11 UNL     1       0.288  -4.159   0.040  1.00  0.00     0.164 C 
BRANCH  17  18
HETATM   18  O3  UNL     1      -0.757  -5.080  -0.157  1.00  0.00    -0.401 OA
ATOM     19  H3  UNL     1      -0.665  -5.834   0.414  1.00  0.00     0.209 HD
ENDBRANCH  17  18
ENDBRANCH  16  17
ENDBRANCH  15  16
ENDBRANCH   4  15
BRANCH   6  20
HETATM   20  O4  UNL     1      -3.850   0.332   2.139  1.00  0.00    -0.375 OA
ATOM     21  H4  UNL     1      -4.670   0.396   1.664  1.00  0.00     0.211 HD
ENDBRANCH   6  20
BRANCH   6  22
HETATM   22  C14 UNL     1      -2.865   1.609   0.454  1.00  0.00    -0.015 A 
HETATM   23  C15 UNL     1      -2.467   2.795   1.034  1.00  0.00     0.011 A 
HETATM   24  C16 UNL     1      -2.519   4.014   0.373  1.00  0.00     0.001 A 
HETATM   25  C17 UNL     1      -2.978   4.074  -0.903  1.00  0.00     0.000 A 
HETATM   26  C18 UNL     1      -3.382   2.911  -1.510  1.00  0.00     0.001 A 
HETATM   27  C19 UNL     1      -3.327   1.682  -0.835  1.00  0.00     0.011 A 
ENDBRANCH   6  22
TORSDOF 9
