REMARK  9 active torsions:
REMARK  status: ('A' for Active; 'I' for Inactive)
REMARK    1  A    between atoms: O1_1  and  C1_3 
REMARK    2  A    between atoms: C1_3  and  C2_4 
REMARK    3  A    between atoms: C2_4  and  C3_5 
REMARK    4  A    between atoms: C4_6  and  O2_7 
REMARK    5  A    between atoms: N1_10  and  C6_11 
REMARK    6  A    between atoms: C6_11  and  C7_12 
REMARK    7  A    between atoms: C7_12  and  C8_13 
REMARK    8  A    between atoms: C15_20  and  C16_21 
REMARK    9  A    between atoms: C16_21  and  N2_22 
ROOT
HETATM    1  C3  UNL     1       1.072   1.946   0.382  1.00  0.00     0.026 C 
HETATM    2  C4  UNL     1      -0.212   2.646   0.008  1.00  0.00     0.151 C 
HETATM    3  C5  UNL     1      -1.201   1.637  -0.527  1.00  0.00     0.304 C 
HETATM    4  N1  UNL     1      -1.111   0.415   0.187  1.00  0.00     0.091 N 
HETATM    5  C14 UNL     1       0.172  -0.257  -0.051  1.00  0.00     0.279 C 
HETATM    6  C15 UNL     1       1.221   0.693  -0.502  1.00  0.00     0.049 C 
ENDROOT
BRANCH   4   7
HETATM    7  C6  UNL     1      -2.210  -0.484   0.043  1.00  0.00     0.277 C 
BRANCH   7   8
HETATM    8  C7  UNL     1      -3.428   0.081   0.739  1.00  0.00     0.068 C 
BRANCH   8   9
HETATM    9  C8  UNL     1      -4.585  -0.867   0.612  1.00  0.00    -0.057 A 
HETATM   10  C9  UNL     1      -5.460  -0.773  -0.434  1.00  0.00     0.007 A 
HETATM   11  C10 UNL     1      -6.497  -1.686  -0.494  1.00  0.00     0.001 A 
HETATM   12  C11 UNL     1      -6.648  -2.659   0.465  1.00  0.00     0.000 A 
HETATM   13  C12 UNL     1      -5.749  -2.734   1.515  1.00  0.00     0.001 A 
HETATM   14  C13 UNL     1      -4.726  -1.837   1.578  1.00  0.00     0.007 A 
ENDBRANCH   8   9
ENDBRANCH   7   8
ENDBRANCH   4   7
BRANCH   2  15
HETATM   15  O2  UNL     1      -0.067   3.642  -0.933  1.00  0.00    -0.393 OA
ATOM     16  H2  UNL     1      -0.875   4.083  -1.168  1.00  0.00     0.210 HD
ENDBRANCH   2  15
BRANCH   6  17
HETATM   17  C16 UNL     1       2.603   0.174  -0.408  1.00  0.00     0.279 C 
BRANCH  17  18
HETATM   18  N2  UNL     1       2.951  -1.001  -1.145  1.00  0.00     0.093 N 
HETATM   19  C17 UNL     1       4.427  -1.131  -1.021  1.00  0.00     0.298 C 
HETATM   20  C18 UNL     1       4.735  -1.797   0.281  1.00  0.00     0.198 C 
HETATM   21  O3  UNL     1       4.560  -3.179   0.072  1.00  0.00    -0.388 OA
HETATM   22  C19 UNL     1       3.478  -3.375  -0.761  1.00  0.00     0.198 C 
HETATM   23  C20 UNL     1       2.434  -2.245  -0.621  1.00  0.00     0.298 C 
ENDBRANCH  17  18
ENDBRANCH   6  17
BRANCH   1  24
HETATM   24  C2  UNL     1       2.279   2.787   0.221  1.00  0.00     0.034 C 
BRANCH  24  25
HETATM   25  C1  UNL     1       2.241   4.062   1.045  1.00  0.00     0.164 C 
BRANCH  25  26
HETATM   26  O1  UNL     1       3.454   4.737   0.765  1.00  0.00    -0.401 OA
ATOM     27  H1  UNL     1       3.430   5.535   1.280  1.00  0.00     0.209 HD
ENDBRANCH  25  26
ENDBRANCH  24  25
ENDBRANCH   1  24
TORSDOF 9
