REMARK  6 active torsions:
REMARK  status: ('A' for Active; 'I' for Inactive)
REMARK    1  A    between atoms: C1_2  and  C2_4 
REMARK    2  A    between atoms: C2_4  and  C3_5 
REMARK    3  A    between atoms: C3_5  and  N1_6 
REMARK       I    between atoms: N1_6  and  C4_8 
REMARK    4  A    between atoms: C4_8  and  C5_10 
REMARK    5  A    between atoms: N2_16  and  C11_17 
REMARK    6  A    between atoms: C11_17  and  C12_18 
ROOT
HETATM    1  C5  UNL     1       2.623  -0.349   0.961  1.00  0.00     0.213 C 
HETATM    2  C6  UNL     1       2.367   0.024  -0.505  1.00  0.00     0.043 C 
HETATM    3  C7  UNL     1       1.115  -0.713  -0.918  1.00  0.00     0.015 C 
HETATM    4  C8  UNL     1      -0.057  -0.459   0.013  1.00  0.00    -0.013 C 
HETATM    5  C9  UNL     1      -0.658   0.886  -0.176  1.00  0.00     0.056 C 
HETATM    6  C10 UNL     1      -1.896   0.760  -1.028  1.00  0.00     0.059 C 
HETATM    7  N2  UNL     1      -2.855  -0.031  -0.377  1.00  0.00    -0.391 N 
HETATM    8  C16 UNL     1      -2.433  -1.271   0.157  1.00  0.00     0.123 C 
HETATM    9  C17 UNL     1      -0.996  -1.617  -0.110  1.00  0.00     0.032 C 
HETATM   10  C18 UNL     1       0.464  -0.516   1.455  1.00  0.00     0.178 C 
HETATM   11  O5  UNL     1       1.580   0.257   1.659  1.00  0.00    -0.376 OA
ENDROOT
BRANCH   1  12
HETATM   12  C4  UNL     1       3.954   0.138   1.403  1.00  0.00     0.246 C 
HETATM   13  N1  UNL     1       5.133  -0.392   0.809  1.00  0.00    -0.358 N 
ATOM     14  H1  UNL     1       5.058  -1.104   0.082  1.00  0.00     0.162 HD
HETATM   15  O3  UNL     1       4.046   1.001   2.282  1.00  0.00    -0.271 OA
BRANCH  13  16
HETATM   16  C3  UNL     1       6.422   0.066   1.224  1.00  0.00     0.133 C 
BRANCH  16  17
HETATM   17  C2  UNL     1       7.530  -0.623   0.475  1.00  0.00     0.133 C 
BRANCH  17  18
HETATM   18  C1  UNL     1       7.438  -0.384  -0.994  1.00  0.00     0.174 C 
HETATM   19  O1  UNL     1       8.313  -0.949  -1.711  1.00  0.00    -0.648 OA
HETATM   20  O2  UNL     1       6.473   0.400  -1.588  1.00  0.00    -0.648 OA
ENDBRANCH  17  18
ENDBRANCH  16  17
ENDBRANCH  13  16
ENDBRANCH   1  12
BRANCH   7  21
HETATM   21  C11 UNL     1      -3.969   0.584   0.230  1.00  0.00     0.153 C 
BRANCH  21  22
HETATM   22  C12 UNL     1      -4.863   1.151  -0.875  1.00  0.00     0.139 C 
HETATM   23  C13 UNL     1      -6.087   1.793  -0.317  1.00  0.00     0.035 C 
HETATM   24  C14 UNL     1      -7.188   0.813  -0.648  1.00  0.00     0.029 C 
HETATM   25  C15 UNL     1      -6.490  -0.335  -1.297  1.00  0.00     0.168 C 
HETATM   26  O4  UNL     1      -5.231   0.088  -1.657  1.00  0.00    -0.384 OA
ENDBRANCH  21  22
ENDBRANCH   7  21
TORSDOF 6
