REMARK  6 active torsions:
REMARK  status: ('A' for Active; 'I' for Inactive)
REMARK    1  A    between atoms: N1_2  and  C2_5 
REMARK    2  A    between atoms: C2_5  and  C4_7 
REMARK       I    between atoms: C4_7  and  N2_9 
REMARK    3  A    between atoms: C7_12  and  N3_13 
REMARK    4  A    between atoms: C9_15  and  C10_16 
REMARK    5  A    between atoms: C10_16  and  C11_17 
REMARK    6  A    between atoms: C11_17  and  C12_18 
ROOT
HETATM    1  N3  UNL     1       0.380  -0.891   0.566  1.00  0.00    -0.347 N 
HETATM    2  C8  UNL     1      -0.617  -1.801   1.132  1.00  0.00     0.151 C 
HETATM    3  C9  UNL     1      -1.326  -0.832   2.046  1.00  0.00     0.102 C 
HETATM    4  N4  UNL     1      -1.319   0.365   1.260  1.00  0.00    -0.358 N 
ATOM      5  H4  UNL     1      -1.982   1.135   1.348  1.00  0.00     0.162 HD
HETATM    6  C18 UNL     1      -0.341   0.314   0.424  1.00  0.00     0.187 C 
HETATM    7  N5  UNL     1      -0.122   1.410  -0.472  1.00  0.00    -0.064 NA
ENDROOT
BRANCH   1   8
HETATM    8  C7  UNL     1       1.720  -1.156   0.255  1.00  0.00     0.106 C 
HETATM    9  C6  UNL     1       1.956  -2.286  -0.732  1.00  0.00     0.047 C 
HETATM   10  C5  UNL     1       3.429  -2.217  -0.939  1.00  0.00     0.128 C 
HETATM   11  N2  UNL     1       3.716  -0.776  -0.805  1.00  0.00    -0.348 N 
HETATM   12  C4  UNL     1       4.971  -0.140  -0.977  1.00  0.00     0.250 C 
HETATM   13  C19 UNL     1       2.492  -0.095  -0.482  1.00  0.00     0.151 C 
HETATM   14  O1  UNL     1       5.934  -0.896  -1.289  1.00  0.00    -0.271 OA
BRANCH  12  15
HETATM   15  C2  UNL     1       5.201   1.291  -0.819  1.00  0.00     0.272 C 
HETATM   16  C3  UNL     1       5.016   1.805   0.600  1.00  0.00     0.050 C 
BRANCH  15  17
HETATM   17  N1  UNL     1       6.617   1.552  -1.168  1.00  0.00    -0.067 N 
HETATM   18  C1  UNL     1       6.816   2.970  -1.134  1.00  0.00     0.267 C 
ATOM     19  H12 UNL     1       6.891   1.134  -2.057  1.00  0.00     0.277 HD
ATOM     20  H11 UNL     1       7.273   1.044  -0.574  1.00  0.00     0.277 HD
ENDBRANCH  15  17
ENDBRANCH  12  15
ENDBRANCH   1   8
BRANCH   3  21
HETATM   21  C10 UNL     1      -2.644  -1.299   2.531  1.00  0.00     0.027 C 
BRANCH  21  22
HETATM   22  C11 UNL     1      -3.691  -1.605   1.555  1.00  0.00     0.007 C 
BRANCH  22  23
HETATM   23  C12 UNL     1      -4.177  -0.566   0.643  1.00  0.00    -0.014 C 
HETATM   24  C13 UNL     1      -5.270  -1.206  -0.236  1.00  0.00     0.004 C 
HETATM   25  C14 UNL     1      -5.420  -0.273  -1.421  1.00  0.00     0.000 C 
HETATM   26  C15 UNL     1      -5.781   1.120  -1.009  1.00  0.00     0.000 C 
HETATM   27  C16 UNL     1      -5.008   1.654   0.147  1.00  0.00     0.000 C 
HETATM   28  C17 UNL     1      -4.794   0.637   1.254  1.00  0.00     0.004 C 
ENDBRANCH  22  23
ENDBRANCH  21  22
ENDBRANCH   3  21
TORSDOF 6
