REMARK  5 active torsions:
REMARK  status: ('A' for Active; 'I' for Inactive)
REMARK    1  A    between atoms: C6_12  and  C7_13 
REMARK    2  A    between atoms: C8_16  and  C9_17 
REMARK    3  A    between atoms: C13_22  and  N4_23 
REMARK    4  A    between atoms: N4_23  and  C14_25 
REMARK    5  A    between atoms: C14_25  and  C15_26 
ROOT
HETATM    1  C7  UNL     1      -2.345   0.886  -0.272  1.00  0.00     0.069 A 
HETATM    2  N3  UNL     1      -1.248   1.490   0.196  1.00  0.00    -0.339 N 
ATOM      3  H3  UNL     1      -1.150   2.498   0.316  1.00  0.00     0.167 HD
HETATM    4  C8  UNL     1      -0.271   0.573   0.494  1.00  0.00     0.118 A 
HETATM    5  N5  UNL     1      -0.787  -0.606   0.207  1.00  0.00    -0.334 N 
HETATM    6  C19 UNL     1      -2.051  -0.451  -0.267  1.00  0.00     0.041 A 
HETATM    7  C20 UNL     1      -2.952  -1.523  -0.726  1.00  0.00     0.059 C 
HETATM    8  C21 UNL     1      -2.224  -2.175  -1.912  1.00  0.00     0.006 C 
HETATM    9  C22 UNL     1      -1.199  -3.168  -1.461  1.00  0.00     0.002 C 
HETATM   10  C23 UNL     1       0.086  -2.513  -0.950  1.00  0.00     0.020 C 
HETATM   11  C24 UNL     1      -0.168  -1.882   0.406  1.00  0.00     0.131 C 
ENDROOT
BRANCH   4  12
HETATM   12  C9  UNL     1       1.028   0.984   1.046  1.00  0.00     0.011 A 
HETATM   13  C10 UNL     1       1.117   2.240   1.640  1.00  0.00     0.018 A 
HETATM   14  C11 UNL     1       2.287   2.766   2.141  1.00  0.00     0.045 A 
HETATM   15  C12 UNL     1       3.452   2.003   2.050  1.00  0.00     0.142 A 
HETATM   16  F2  UNL     1       4.642   2.446   2.518  1.00  0.00    -0.204 F 
HETATM   17  C13 UNL     1       3.410   0.764   1.473  1.00  0.00     0.068 A 
HETATM   18  C18 UNL     1       2.189   0.272   0.976  1.00  0.00     0.047 A 
BRANCH  17  19
HETATM   19  N4  UNL     1       4.572  -0.018   1.374  1.00  0.00    -0.387 N 
ATOM     20  H4  UNL     1       5.442   0.365   1.744  1.00  0.00     0.159 HD
BRANCH  19  21
HETATM   21  C14 UNL     1       4.607  -1.338   0.776  1.00  0.00     0.130 C 
BRANCH  21  22
HETATM   22  C15 UNL     1       6.008  -1.873   0.857  1.00  0.00     0.081 A 
HETATM   23  C16 UNL     1       7.145  -1.169   0.212  1.00  0.00     0.091 A 
HETATM   24  C17 UNL     1       6.654  -2.511  -0.316  1.00  0.00     0.249 A 
HETATM   25  F3  UNL     1       7.533  -3.559  -0.170  1.00  0.00    -0.206 F 
HETATM   26  F4  UNL     1       5.932  -2.505  -1.493  1.00  0.00    -0.206 F 
ENDBRANCH  21  22
ENDBRANCH  19  21
ENDBRANCH  17  19
ENDBRANCH   4  12
BRANCH   1  27
HETATM   27  C6  UNL     1      -3.595   1.512  -0.699  1.00  0.00     0.018 A 
HETATM   28  C2  UNL     1      -4.306   2.349   0.116  1.00  0.00     0.019 A 
HETATM   29  C1  UNL     1      -3.863   2.674   1.501  1.00  0.00     0.069 C 
HETATM   30  N1  UNL     1      -5.469   2.910  -0.348  1.00  0.00    -0.343 N 
HETATM   31  C3  UNL     1      -5.953   2.682  -1.571  1.00  0.00     0.138 A 
ATOM     32  H1  UNL     1      -5.989   3.531   0.272  1.00  0.00     0.167 HD
HETATM   33  N2  UNL     1      -7.057   3.245  -1.944  1.00  0.00    -0.383 N 
HETATM   34  C4  UNL     1      -5.257   1.843  -2.413  1.00  0.00     0.160 A 
ATOM     35  H22 UNL     1      -7.572   3.866  -1.320  1.00  0.00     0.157 HD
ATOM     36  H21 UNL     1      -7.427   3.071  -2.878  1.00  0.00     0.157 HD
HETATM   37  F1  UNL     1      -5.752   1.617  -3.648  1.00  0.00    -0.202 F 
HETATM   38  C5  UNL     1      -4.065   1.258  -1.960  1.00  0.00     0.062 A 
ENDBRANCH   1  27
TORSDOF 5
