REMARK  6 active torsions:
REMARK  status: ('A' for Active; 'I' for Inactive)
REMARK    1  A    between atoms: C2_2  and  O1_3 
REMARK    2  A    between atoms: C2_2  and  C3_6 
REMARK    3  A    between atoms: C3_6  and  N1_7 
REMARK    4  A    between atoms: N1_7  and  C4_10 
REMARK    5  A    between atoms: C6_12  and  C7_13 
REMARK    6  A    between atoms: C9_15  and  C10_16 
ROOT
HETATM    1  C7  UNL     1       0.096  -1.656   0.517  1.00  0.00    -0.029 A 
HETATM    2  C8  UNL     1      -1.120  -1.043   0.472  1.00  0.00     0.042 A 
HETATM    3  C9  UNL     1      -2.297  -1.729   0.227  1.00  0.00     0.077 A 
HETATM    4  N4  UNL     1      -2.254  -3.053   0.024  1.00  0.00    -0.361 N 
ATOM      5  H4  UNL     1      -3.121  -3.559  -0.156  1.00  0.00     0.165 HD
HETATM    6  C17 UNL     1      -1.076  -3.739   0.053  1.00  0.00     0.113 A 
HETATM    7  C18 UNL     1       0.094  -3.025   0.301  1.00  0.00     0.056 A 
HETATM    8 CL4  UNL     1       1.614  -3.897   0.341  1.00  0.00    -0.082 Cl
ENDROOT
BRANCH   1   9
HETATM    9  C6  UNL     1       1.391  -0.994   0.729  1.00  0.00     0.024 C 
HETATM   10  C5  UNL     1       1.411   0.391   1.272  1.00  0.00     0.042 C 
HETATM   11  C4  UNL     1       2.284   0.820   0.143  1.00  0.00     0.187 C 
HETATM   12  C19 UNL     1       2.010  -0.467  -0.554  1.00  0.00     0.042 C 
BRANCH  11  13
HETATM   13  N1  UNL     1       3.660   1.001   0.590  1.00  0.00    -0.067 N 
ATOM     14  H12 UNL     1       3.981   0.219   1.160  1.00  0.00     0.277 HD
ATOM     15  H11 UNL     1       3.739   1.740   1.289  1.00  0.00     0.277 HD
BRANCH  13  16
HETATM   16  C3  UNL     1       4.532   1.236  -0.548  1.00  0.00     0.286 C 
BRANCH  16  17
HETATM   17  C2  UNL     1       5.933   1.415  -0.021  1.00  0.00     0.154 C 
HETATM   18  C1  UNL     1       6.860   1.639  -1.212  1.00  0.00     0.066 C 
HETATM   19 CL1  UNL     1       6.010   2.786   1.107  1.00  0.00    -0.087 Cl
BRANCH  17  20
HETATM   20  O1  UNL     1       6.375   0.286   0.676  1.00  0.00    -0.374 OA
ATOM     21  H1  UNL     1       5.798   0.147   1.418  1.00  0.00     0.212 HD
ENDBRANCH  17  20
ENDBRANCH  16  17
ENDBRANCH  13  16
ENDBRANCH  11  13
ENDBRANCH   1   9
BRANCH   3  22
HETATM   22  C10 UNL     1      -3.586  -1.054   0.161  1.00  0.00     0.133 A 
HETATM   23  N2  UNL     1      -4.795  -1.577  -0.091  1.00  0.00    -0.339 N 
HETATM   24  C11 UNL     1      -5.680  -0.565  -0.058  1.00  0.00     0.062 A 
ATOM     25  H2  UNL     1      -5.004  -2.559  -0.274  1.00  0.00     0.167 HD
HETATM   26  C12 UNL     1      -7.055  -0.535  -0.251  1.00  0.00     0.057 A 
HETATM   27  C16 UNL     1      -5.035   0.620   0.218  1.00  0.00     0.062 A 
HETATM   28  C13 UNL     1      -7.783   0.629  -0.176  1.00  0.00     0.058 A 
HETATM   29 CL2  UNL     1      -9.527   0.604  -0.431  1.00  0.00    -0.082 Cl
HETATM   30  C14 UNL     1      -7.120   1.804   0.101  1.00  0.00     0.058 A 
HETATM   31 CL3  UNL     1      -8.013   3.297   0.200  1.00  0.00    -0.082 Cl
HETATM   32  C15 UNL     1      -5.762   1.795   0.295  1.00  0.00     0.057 A 
HETATM   33  N3  UNL     1      -3.727   0.283   0.350  1.00  0.00    -0.339 N 
ATOM     34  H3  UNL     1      -2.969   0.932   0.559  1.00  0.00     0.167 HD
ENDBRANCH   3  22
TORSDOF 6
