REMARK  9 active torsions:
REMARK  status: ('A' for Active; 'I' for Inactive)
REMARK    1  A    between atoms: C2_2  and  C4_4 
REMARK    2  A    between atoms: C4_4  and  C5_5 
REMARK    3  A    between atoms: C4_4  and  N1_8 
REMARK    4  A    between atoms: C7_11  and  C8_12 
REMARK    5  A    between atoms: C8_12  and  C9_13 
REMARK    6  A    between atoms: C12_16  and  O4_17 
REMARK    7  A    between atoms: C13_19  and  O5_20 
REMARK    8  A    between atoms: C16_24  and  C17_25 
REMARK    9  A    between atoms: C22_30  and  C23_32 
ROOT
HETATM    1  N1  UNL     1      -1.486  -0.701   1.082  1.00  0.00    -0.274 N 
HETATM    2  C6  UNL     1      -2.680   0.037   0.734  1.00  0.00     0.265 A 
HETATM    3  O3  UNL     1      -3.900  -0.032   1.055  1.00  0.00    -0.267 OA
HETATM    4  C7  UNL     1      -1.931   0.895  -0.133  1.00  0.00     0.060 A 
HETATM    5  C15 UNL     1      -0.706   0.140   0.226  1.00  0.00     0.058 A 
HETATM    6  C16 UNL     1       0.550   0.341  -0.139  1.00  0.00     0.031 C 
ENDROOT
BRANCH   1   7
HETATM    7  C4  UNL     1      -1.275  -1.820   1.982  1.00  0.00     0.100 C 
BRANCH   7   8
HETATM    8  C2  UNL     1      -1.188  -3.160   1.363  1.00  0.00     0.035 C 
HETATM    9  C1  UNL     1      -1.590  -4.208   2.431  1.00  0.00     0.016 C 
HETATM   10  C3  UNL     1       0.042  -3.644   0.739  1.00  0.00     0.016 C 
ENDBRANCH   7   8
BRANCH   7  11
HETATM   11  C5  UNL     1      -0.461  -1.501   3.126  1.00  0.00     0.223 C 
HETATM   12  O1  UNL     1      -0.132  -0.291   3.343  1.00  0.00    -0.643 OA
HETATM   13  O2  UNL     1       0.024  -2.407   4.058  1.00  0.00    -0.643 OA
ENDBRANCH   7  11
ENDBRANCH   1   7
BRANCH   4  14
HETATM   14  C8  UNL     1      -2.203   1.911  -0.927  1.00  0.00     0.031 C 
BRANCH  14  15
HETATM   15  C9  UNL     1      -3.506   2.481  -1.150  1.00  0.00    -0.032 A 
HETATM   16  C10 UNL     1      -4.592   1.703  -1.477  1.00  0.00     0.014 A 
HETATM   17  C11 UNL     1      -5.818   2.311  -1.651  1.00  0.00     0.040 A 
HETATM   18  C12 UNL     1      -5.948   3.666  -1.500  1.00  0.00     0.098 A 
HETATM   19  C13 UNL     1      -4.886   4.491  -1.172  1.00  0.00     0.099 A 
HETATM   20  C14 UNL     1      -3.676   3.864  -1.005  1.00  0.00     0.051 A 
BRANCH  18  21
HETATM   21  O4  UNL     1      -7.183   4.283  -1.674  1.00  0.00    -0.358 OA
ATOM     22  H4  UNL     1      -7.273   5.223  -1.569  1.00  0.00     0.217 HD
ENDBRANCH  18  21
BRANCH  19  23
HETATM   23  O5  UNL     1      -5.038   5.873  -1.023  1.00  0.00    -0.358 OA
ATOM     24  H5  UNL     1      -4.309   6.439  -0.798  1.00  0.00     0.217 HD
ENDBRANCH  19  23
ENDBRANCH  14  15
ENDBRANCH   4  14
BRANCH   6  25
HETATM   25  C17 UNL     1       1.727  -0.333   0.286  1.00  0.00     0.005 C 
HETATM   26  C18 UNL     1       2.935   0.028  -0.227  1.00  0.00    -0.076 C 
HETATM   27  C19 UNL     1       2.987   1.102  -1.203  1.00  0.00     0.034 C 
HETATM   28  C24 UNL     1       4.121  -0.708   0.261  1.00  0.00     0.083 C 
HETATM   29  C20 UNL     1       4.315   1.377  -1.775  1.00  0.00     0.008 C 
HETATM   30  C21 UNL     1       5.151   0.130  -1.841  1.00  0.00     0.050 C 
HETATM   31  C22 UNL     1       5.398  -0.318  -0.401  1.00  0.00     0.165 C 
HETATM   32  F1  UNL     1       5.907   0.786   0.263  1.00  0.00    -0.237 F 
BRANCH  31  33
HETATM   33  C23 UNL     1       6.435  -1.398  -0.394  1.00  0.00     0.392 C 
HETATM   34  F2  UNL     1       6.671  -1.818   0.916  1.00  0.00    -0.211 F 
HETATM   35  F3  UNL     1       6.020  -2.501  -1.116  1.00  0.00    -0.211 F 
ENDBRANCH  31  33
ENDBRANCH   6  25
TORSDOF 9
