REMARK  7 active torsions:
REMARK  status: ('A' for Active; 'I' for Inactive)
REMARK    1  A    between atoms: C2_2  and  C3_3 
REMARK    2  A    between atoms: C3_3  and  C4_4 
REMARK    3  A    between atoms: C4_4  and  C5_5 
REMARK    4  A    between atoms: C5_5  and  C6_6 
REMARK    5  A    between atoms: C7_8  and  O2_9 
REMARK    6  A    between atoms: C17_24  and  C18_25 
REMARK    7  A    between atoms: C17_24  and  C20_27 
ROOT
HETATM    1  C6  UNL     1       2.449  -1.085   0.866  1.00  0.00     0.068 A 
HETATM    2  O1  UNL     1       3.606  -1.251   1.540  1.00  0.00    -0.291 OA
HETATM    3  C7  UNL     1       3.594  -0.686   2.690  1.00  0.00     0.198 A 
HETATM    4  C8  UNL     1       2.368  -0.080   2.861  1.00  0.00     0.074 A 
HETATM    5  C9  UNL     1       1.855   0.663   3.878  1.00  0.00     0.133 A 
HETATM    6  F1  UNL     1       2.618   0.884   4.970  1.00  0.00    -0.205 F 
HETATM    7  C10 UNL     1       0.591   1.150   3.719  1.00  0.00     0.061 A 
HETATM    8  C11 UNL     1      -0.144   0.902   2.584  1.00  0.00     0.051 A 
HETATM    9  C12 UNL     1      -1.422   1.383   2.519  1.00  0.00     0.266 A 
HETATM   10  O3  UNL     1      -1.867   2.087   3.475  1.00  0.00    -0.267 OA
HETATM   11  N1  UNL     1      -2.145   1.082   1.434  1.00  0.00    -0.242 N 
HETATM   12  C13 UNL     1      -1.714   0.359   0.439  1.00  0.00     0.083 A 
HETATM   13  C14 UNL     1      -0.348  -0.175   0.435  1.00  0.00     0.208 A 
HETATM   14  O4  UNL     1      -0.126  -0.834  -0.651  1.00  0.00    -0.285 OA
HETATM   15  C15 UNL     1       0.374   0.135   1.533  1.00  0.00     0.046 A 
HETATM   16  C16 UNL     1       1.666  -0.359   1.683  1.00  0.00     0.027 A 
HETATM   17  C17 UNL     1      -2.605  -0.199  -0.670  1.00  0.00     0.012 C 
HETATM   18  C22 UNL     1      -4.067   0.198  -0.395  1.00  0.00     0.078 C 
HETATM   19  C23 UNL     1      -4.130   1.580   0.131  1.00  0.00     0.075 C 
HETATM   20  N2  UNL     1      -4.749   2.493  -0.485  1.00  0.00    -0.393 N 
ATOM     21  H2  UNL     1      -5.206   2.241  -1.361  1.00  0.00     0.159 HD
HETATM   22  C24 UNL     1      -4.860   3.848  -0.054  1.00  0.00     0.146 C 
HETATM   23  C25 UNL     1      -3.425   1.778   1.383  1.00  0.00     0.277 C 
HETATM   24  O5  UNL     1      -3.816   2.458   2.338  1.00  0.00    -0.265 OA
ENDROOT
BRANCH   1  25
HETATM   25  C5  UNL     1       2.366  -1.669  -0.436  1.00  0.00     0.066 C 
BRANCH  25  26
HETATM   26  C4  UNL     1       3.731  -2.220  -0.892  1.00  0.00     0.006 C 
BRANCH  26  27
HETATM   27  C3  UNL     1       4.849  -1.295  -0.920  1.00  0.00     0.000 C 
BRANCH  27  28
HETATM   28  C2  UNL     1       4.644  -0.061  -1.773  1.00  0.00    -0.005 C 
HETATM   29  C1  UNL     1       5.894   0.822  -1.705  1.00  0.00     0.005 C 
ENDBRANCH  27  28
ENDBRANCH  26  27
ENDBRANCH  25  26
ENDBRANCH   1  25
BRANCH   3  30
HETATM   30  O2  UNL     1       4.600  -0.639   3.658  1.00  0.00    -0.340 OA
ATOM     31  H2  UNL     1       4.591  -0.220   4.511  1.00  0.00     0.220 HD
ENDBRANCH   3  30
BRANCH  17  32
HETATM   32  C18 UNL     1      -2.222   0.431  -1.926  1.00  0.00     0.012 C 
HETATM   33  C19 UNL     1      -2.932   0.022  -3.179  1.00  0.00     0.006 C 
ENDBRANCH  17  32
BRANCH  17  34
HETATM   34  C20 UNL     1      -2.632  -1.674  -0.492  1.00  0.00     0.012 C 
HETATM   35  C21 UNL     1      -3.465  -2.491  -1.416  1.00  0.00     0.006 C 
ENDBRANCH  17  34
TORSDOF 7
