REMARK  10 active torsions:
REMARK  status: ('A' for Active; 'I' for Inactive)
REMARK    1  A    between atoms: C2_2  and  N1_3 
REMARK    2  A    between atoms: N1_3  and  C3_4 
REMARK    3  A    between atoms: N1_3  and  C5_6 
REMARK    4  A    between atoms: C5_6  and  C6_7 
REMARK    5  A    between atoms: C6_7  and  C7_8 
REMARK    6  A    between atoms: C7_8  and  N2_9 
REMARK    7  A    between atoms: C8_10  and  O1_11 
REMARK    8  A    between atoms: C9_13  and  N3_14 
REMARK       I    between atoms: N4_16  and  C10_18 
REMARK    9  A    between atoms: C10_18  and  C11_20 
REMARK   10  A    between atoms: C20_31  and  O3_32 
ROOT
HETATM    1  N2  UNL     1      -0.298   0.018  -0.348  1.00  0.00    -0.323 N 
HETATM    2  C8  UNL     1       0.458   1.130  -0.144  1.00  0.00     0.172 A 
HETATM    3  C9  UNL     1       1.566   0.846   0.616  1.00  0.00     0.112 A 
HETATM    4  C15 UNL     1       1.503  -0.504   0.901  1.00  0.00     0.028 A 
HETATM    5  C16 UNL     1       2.443  -1.187   1.659  1.00  0.00     0.040 C 
HETATM    6  C17 UNL     1       2.754  -2.525   1.601  1.00  0.00     0.036 C 
HETATM    7 CL1  UNL     1       4.217  -3.025   2.400  1.00  0.00    -0.084 Cl
HETATM    8  C18 UNL     1       2.013  -3.520   0.967  1.00  0.00     0.050 C 
HETATM    9  C19 UNL     1       0.703  -3.447   0.559  1.00  0.00     0.068 C 
HETATM   10  S1  UNL     1      -0.064  -4.868   0.312  1.00  0.00    -0.077 SA
HETATM   11  C20 UNL     1      -0.063  -2.311   0.324  1.00  0.00     0.115 C 
HETATM   12  C21 UNL     1       0.338  -0.970   0.284  1.00  0.00     0.084 A 
ENDROOT
BRANCH   3  13
HETATM   13  N3  UNL     1       2.589   1.706   1.052  1.00  0.00    -0.293 N 
HETATM   14  N4  UNL     1       3.770   1.761   0.666  1.00  0.00    -0.269 N 
HETATM   15  C10 UNL     1       4.397   0.970  -0.317  1.00  0.00     0.243 C 
ATOM     16  H4  UNL     1       4.356   2.464   1.116  1.00  0.00     0.190 HD
HETATM   17  O2  UNL     1       3.780   0.459  -1.285  1.00  0.00    -0.271 OA
ATOM     18  H3  UNL     1       2.329   2.372   1.780  1.00  0.00     0.187 HD
BRANCH  15  19
HETATM   19  C11 UNL     1       5.878   0.694  -0.252  1.00  0.00     0.032 C 
HETATM   20  C12 UNL     1       6.636   1.970  -0.418  1.00  0.00     0.025 C 
HETATM   21  C13 UNL     1       6.199   0.103   1.125  1.00  0.00     0.025 C 
HETATM   22  C14 UNL     1       6.280  -0.321  -1.272  1.00  0.00     0.025 C 
ENDBRANCH  15  19
ENDBRANCH   3  13
BRANCH   2  23
HETATM   23  O1  UNL     1       0.117   2.373  -0.655  1.00  0.00    -0.344 OA
ATOM     24  H1  UNL     1       0.645   3.150  -0.513  1.00  0.00     0.219 HD
ENDBRANCH   2  23
BRANCH   1  25
HETATM   25  C7  UNL     1      -1.522  -0.053  -1.114  1.00  0.00     0.133 C 
BRANCH  25  26
HETATM   26  C6  UNL     1      -2.758   0.299  -0.322  1.00  0.00     0.040 C 
BRANCH  26  27
HETATM   27  C5  UNL     1      -3.942   0.149  -1.263  1.00  0.00     0.123 C 
BRANCH  27  28
HETATM   28  N1  UNL     1      -5.198   0.438  -0.684  1.00  0.00    -0.394 N 
BRANCH  28  29
HETATM   29  C2  UNL     1      -5.700  -0.428   0.306  1.00  0.00     0.117 C 
HETATM   30  C1  UNL     1      -7.160  -0.741  -0.046  1.00  0.00     0.026 C 
ENDBRANCH  28  29
BRANCH  28  31
HETATM   31  C3  UNL     1      -5.703   1.744  -0.756  1.00  0.00     0.053 C 
HETATM   32  C4  UNL     1      -5.356   2.659   0.391  1.00  0.00     0.054 C 
ENDBRANCH  28  31
ENDBRANCH  27  28
ENDBRANCH  26  27
ENDBRANCH  25  26
ENDBRANCH   1  25
BRANCH  11  33
HETATM   33  O3  UNL     1      -1.409  -2.517   0.097  1.00  0.00    -0.357 OA
ATOM     34  H3  UNL     1      -1.932  -1.741  -0.064  1.00  0.00     0.218 HD
ENDBRANCH  11  33
TORSDOF 10
