REMARK  6 active torsions:
REMARK  status: ('A' for Active; 'I' for Inactive)
REMARK    1  A    between atoms: C2_2  and  S1_7 
REMARK    2  A    between atoms: C3_3  and  C4_4 
REMARK    3  A    between atoms: S1_7  and  C5_8 
REMARK    4  A    between atoms: C6_10  and  C7_11 
REMARK    5  A    between atoms: C7_11  and  C8_13 
REMARK    6  A    between atoms: C11_16  and  N1_17 
ROOT
HETATM    1  C5  UNL     1       1.106  -0.658   1.823  1.00  0.00     0.069 A 
HETATM    2  S2  UNL     1       0.277  -1.887   0.992  1.00  0.00    -0.075 SA
HETATM    3  C6  UNL     1      -1.131  -1.032   0.568  1.00  0.00     0.080 A 
HETATM    4  C11 UNL     1      -0.918   0.215   1.094  1.00  0.00     0.077 A 
HETATM    5  C17 UNL     1       0.255   0.406   1.751  1.00  0.00     0.096 A 
HETATM    6  C18 UNL     1       0.654   1.680   2.380  1.00  0.00     0.103 C 
HETATM    7  N3  UNL     1       0.952   2.695   2.868  1.00  0.00    -0.191 NA
ENDROOT
BRANCH   1   8
HETATM    8  S1  UNL     1       2.727  -0.779   2.602  1.00  0.00    -0.086 SA
BRANCH   8   9
HETATM    9  C2  UNL     1       3.950  -0.338   1.377  1.00  0.00    -0.014 C 
HETATM   10  C1  UNL     1       3.534   0.043  -0.011  1.00  0.00     0.056 C 
HETATM   11  C3  UNL     1       5.215  -0.353   1.712  1.00  0.00     0.098 C 
BRANCH  11  12
HETATM   12  C4  UNL     1       6.325  -0.022   0.838  1.00  0.00     0.199 C 
HETATM   13  O1  UNL     1       7.530  -0.068   1.263  1.00  0.00    -0.644 OA
HETATM   14  O2  UNL     1       6.155   0.351  -0.470  1.00  0.00    -0.644 OA
ENDBRANCH  11  12
ENDBRANCH   8   9
ENDBRANCH   1   8
BRANCH   4  15
HETATM   15  N1  UNL     1      -1.930   1.261   0.934  1.00  0.00    -0.339 N 
HETATM   16  C12 UNL     1      -1.851   2.079  -0.057  1.00  0.00     0.123 A 
HETATM   17  N2  UNL     1      -0.837   1.948  -0.922  1.00  0.00    -0.350 N 
HETATM   18  C16 UNL     1      -2.775   3.079  -0.253  1.00  0.00     0.057 A 
HETATM   19  C13 UNL     1      -0.694   2.779  -1.993  1.00  0.00     0.113 A 
ATOM     20  H2  UNL     1      -0.153   1.206  -0.775  1.00  0.00     0.166 HD
HETATM   21  C14 UNL     1      -1.627   3.786  -2.186  1.00  0.00     0.050 A 
HETATM   22 CL1  UNL     1      -1.404   4.842  -3.588  1.00  0.00    -0.083 Cl
HETATM   23  C15 UNL     1      -2.689   3.962  -1.323  1.00  0.00     0.048 A 
HETATM   24  S3  UNL     1      -4.141   3.263   0.905  1.00  0.00    -0.049 SA
ATOM     25  H1  UNL     1      -2.694   1.341   1.605  1.00  0.00     0.167 HD
ENDBRANCH   4  15
BRANCH   3  26
HETATM   26  C7  UNL     1      -2.323  -1.494  -0.190  1.00  0.00     0.172 C 
HETATM   27  O3  UNL     1      -3.281  -0.748  -0.423  1.00  0.00    -0.291 OA
BRANCH  26  28
HETATM   28  C8  UNL     1      -2.280  -2.906  -0.645  1.00  0.00     0.053 C 
HETATM   29  C9  UNL     1      -2.159  -3.860   0.535  1.00  0.00     0.018 C 
HETATM   30  C10 UNL     1      -3.406  -3.249  -1.562  1.00  0.00     0.018 C 
ENDBRANCH  26  28
ENDBRANCH   3  26
TORSDOF 6
