REMARK  5 active torsions:
REMARK  status: ('A' for Active; 'I' for Inactive)
REMARK       I    between atoms: C1_2  and  N1_3 
REMARK    1  A    between atoms: C1_2  and  C8_12 
REMARK    2  A    between atoms: N1_3  and  C2_5 
REMARK    3  A    between atoms: C2_5  and  C3_6 
REMARK    4  A    between atoms: C11_15  and  C12_16 
REMARK    5  A    between atoms: C12_16  and  C13_17 
REMARK       I    between atoms: C13_17  and  N2_19 
ROOT
HETATM    1  C8  UNL     1      -1.250  -2.072   0.394  1.00  0.00     0.078 C 
HETATM    2  C9  UNL     1      -0.894  -0.918   1.282  1.00  0.00     0.014 C 
HETATM    3  C10 UNL     1       0.398  -0.244   0.874  1.00  0.00     0.006 C 
HETATM    4  C11 UNL     1       1.450  -1.324   0.868  1.00  0.00    -0.006 C 
HETATM    5  C19 UNL     1       1.169  -2.194  -0.326  1.00  0.00     0.006 C 
HETATM    6  C20 UNL     1      -0.120  -2.940  -0.022  1.00  0.00     0.014 C 
ENDROOT
BRANCH   4   7
HETATM    7  C12 UNL     1       2.824  -0.784   0.929  1.00  0.00     0.107 C 
BRANCH   7   8
HETATM    8  C13 UNL     1       3.246   0.098  -0.155  1.00  0.00     0.220 C 
HETATM    9  O3  UNL     1       2.508   0.396  -1.138  1.00  0.00    -0.273 OA
HETATM   10  N2  UNL     1       4.545   0.661  -0.128  1.00  0.00    -0.346 N 
HETATM   11  C14 UNL     1       5.402   0.335   0.981  1.00  0.00     0.132 C 
HETATM   12  C18 UNL     1       4.940   1.532  -1.212  1.00  0.00     0.186 C 
HETATM   13  C15 UNL     1       6.854   0.591   0.706  1.00  0.00     0.080 C 
HETATM   14  C16 UNL     1       7.108   1.836  -0.036  1.00  0.00     0.054 A 
HETATM   15  N3  UNL     1       8.105   2.743  -0.054  1.00  0.00    -0.288 N 
HETATM   16  C17 UNL     1       6.180   2.263  -0.946  1.00  0.00     0.069 A 
HETATM   17  N4  UNL     1       7.827   3.683  -0.918  1.00  0.00    -0.242 N 
ATOM     18  H3  UNL     1       8.948   2.702   0.519  1.00  0.00     0.188 HD
HETATM   19  N5  UNL     1       6.657   3.394  -1.461  1.00  0.00    -0.287 N 
ATOM     20  H4  UNL     1       8.408   4.493  -1.134  1.00  0.00     0.208 HD
ATOM     21  H5  UNL     1       6.188   3.956  -2.171  1.00  0.00     0.188 HD
ENDBRANCH   7   8
ENDBRANCH   4   7
BRANCH   1  22
HETATM   22  C1  UNL     1      -2.051  -1.568  -0.753  1.00  0.00     0.221 C 
HETATM   23  O1  UNL     1      -1.642  -1.724  -1.935  1.00  0.00    -0.273 OA
HETATM   24  N1  UNL     1      -3.288  -0.900  -0.574  1.00  0.00    -0.360 N 
ATOM     25  H1  UNL     1      -3.633  -0.764   0.376  1.00  0.00     0.162 HD
BRANCH  24  26
HETATM   26  C2  UNL     1      -4.078  -0.406  -1.666  1.00  0.00     0.127 C 
BRANCH  26  27
HETATM   27  C3  UNL     1      -5.339   0.261  -1.237  1.00  0.00     0.007 C 
HETATM   28  C4  UNL     1      -5.106   1.455  -0.343  1.00  0.00     0.032 C 
HETATM   29  C5  UNL     1      -6.423   2.190  -0.208  1.00  0.00     0.168 C 
HETATM   30  O2  UNL     1      -7.493   1.424  -0.678  1.00  0.00    -0.391 OA
HETATM   31  C6  UNL     1      -7.485   0.154  -0.082  1.00  0.00     0.168 C 
HETATM   32  C7  UNL     1      -6.293  -0.669  -0.524  1.00  0.00     0.032 C 
ENDBRANCH  26  27
ENDBRANCH  24  26
ENDBRANCH   1  22
TORSDOF 5
