REMARK  9 active torsions:
REMARK  status: ('A' for Active; 'I' for Inactive)
REMARK    1  A    between atoms: C2_2  and  C3_3 
REMARK    2  A    between atoms: C3_3  and  N1_4 
REMARK       I    between atoms: N1_4  and  C4_6 
REMARK    3  A    between atoms: C4_6  and  C5_8 
REMARK    4  A    between atoms: C5_8  and  C6_9 
REMARK    5  A    between atoms: C7_10  and  C8_11 
REMARK    6  A    between atoms: C8_11  and  C9_12 
REMARK    7  A    between atoms: C9_12  and  O2_13 
REMARK    8  A    between atoms: C18_25  and  O5_26 
REMARK    9  A    between atoms: O5_26  and  C19_27 
ROOT
HETATM    1  C9  UNL     1      -0.777   0.031   0.669  1.00  0.00     0.087 C 
HETATM    2  C10 UNL     1      -0.151  -1.313   1.080  1.00  0.00     0.118 C 
HETATM    3  C11 UNL     1      -1.138  -2.402   1.256  1.00  0.00     0.134 C 
HETATM    4  O3  UNL     1      -1.110  -3.085   2.241  1.00  0.00    -0.297 OA
HETATM    5  C12 UNL     1      -2.179  -2.670   0.217  1.00  0.00     0.057 C 
HETATM    6  C13 UNL     1      -1.627  -3.864  -0.582  1.00  0.00     0.018 C 
HETATM    7  C14 UNL     1      -2.042  -1.470  -0.659  1.00  0.00     0.019 C 
HETATM    8  C15 UNL     1      -2.778  -1.326  -1.878  1.00  0.00     0.023 A 
HETATM    9  C16 UNL     1      -3.992  -1.833  -2.437  1.00  0.00     0.040 A 
HETATM   10  C17 UNL     1      -4.182  -0.871  -1.373  1.00  0.00     0.129 A 
HETATM   11  O4  UNL     1      -3.996   0.438  -1.241  1.00  0.00    -0.355 OA
HETATM   12  C18 UNL     1      -2.706   0.842  -0.768  1.00  0.00     0.271 C 
HETATM   13  C21 UNL     1      -2.157  -0.193   0.202  1.00  0.00     0.043 C 
HETATM   14  C22 UNL     1      -3.068  -0.270   1.349  1.00  0.00     0.024 C 
ENDROOT
BRANCH   1  15
HETATM   15  C8  UNL     1      -0.486   0.997   1.737  1.00  0.00     0.133 C 
BRANCH  15  16
HETATM   16  C7  UNL     1       0.999   0.957   1.946  1.00  0.00    -0.103 C 
HETATM   17  C6  UNL     1       2.194   0.940   2.102  1.00  0.00    -0.097 C 
BRANCH  17  18
HETATM   18  C5  UNL     1       3.643   0.911   2.300  1.00  0.00     0.196 C 
BRANCH  18  19
HETATM   19  C4  UNL     1       4.355   0.388   1.131  1.00  0.00     0.229 C 
HETATM   20  N1  UNL     1       5.766   0.270   1.105  1.00  0.00    -0.357 N 
ATOM     21  H1  UNL     1       6.291   0.561   1.930  1.00  0.00     0.162 HD
HETATM   22  O1  UNL     1       3.694   0.032   0.123  1.00  0.00    -0.273 OA
BRANCH  20  23
HETATM   23  C3  UNL     1       6.502  -0.241  -0.030  1.00  0.00     0.149 C 
BRANCH  23  24
HETATM   24  C2  UNL     1       6.272   0.580  -1.250  1.00  0.00    -0.018 C 
HETATM   25  C1  UNL     1       7.276   1.168  -1.841  1.00  0.00     0.008 C 
ENDBRANCH  23  24
ENDBRANCH  20  23
ENDBRANCH  18  19
ENDBRANCH  17  18
ENDBRANCH  15  16
ENDBRANCH   1  15
BRANCH   1  26
HETATM   26  O2  UNL     1      -0.042   0.458  -0.476  1.00  0.00    -0.388 OA
ATOM     27  H2  UNL     1      -0.230  -0.167  -1.167  1.00  0.00     0.210 HD
ENDBRANCH   1  26
BRANCH  12  28
HETATM   28  O5  UNL     1      -3.006   2.035  -0.090  1.00  0.00    -0.361 OA
BRANCH  28  29
HETATM   29  C19 UNL     1      -2.453   3.092  -0.758  1.00  0.00     0.166 C 
HETATM   30  C20 UNL     1      -2.744   4.423  -0.083  1.00  0.00     0.033 C 
ENDBRANCH  28  29
ENDBRANCH  12  28
TORSDOF 9
