REMARK  6 active torsions:
REMARK  status: ('A' for Active; 'I' for Inactive)
REMARK       I    between atoms: N2_7  and  C5_8 
REMARK    1  A    between atoms: C5_8  and  C6_10 
REMARK    2  A    between atoms: C6_10  and  C7_11 
REMARK    3  A    between atoms: C7_11  and  C8_12 
REMARK    4  A    between atoms: C8_12  and  C9_13 
REMARK    5  A    between atoms: N3_16  and  C12_17 
REMARK    6  A    between atoms: C15_20  and  N4_21 
ROOT
HETATM    1  N1  UNL     1      -8.408   2.997  -0.477  1.00  0.00    -0.194 NA
HETATM    2  C1  UNL     1      -7.296   2.731  -0.310  1.00  0.00     0.099 C 
HETATM    3  C2  UNL     1      -5.891   2.408  -0.109  1.00  0.00     0.294 C 
HETATM    4  O1  UNL     1      -5.230   2.381  -1.312  1.00  0.00    -0.362 OA
HETATM    5  C3  UNL     1      -5.551   1.249  -2.041  1.00  0.00     0.190 C 
HETATM    6  C4  UNL     1      -4.836   0.012  -1.541  1.00  0.00     0.160 C 
HETATM    7  N2  UNL     1      -4.884   0.090  -0.072  1.00  0.00    -0.303 N 
HETATM    8  C5  UNL     1      -4.069  -0.743   0.742  1.00  0.00     0.225 C 
HETATM    9  O2  UNL     1      -4.101  -0.673   1.976  1.00  0.00    -0.273 OA
HETATM   10  C20 UNL     1      -5.786   1.038   0.510  1.00  0.00     0.123 C 
HETATM   11  N5  UNL     1      -6.480   0.717   1.530  1.00  0.00    -0.386 N 
ATOM     12  H51 UNL     1      -6.409  -0.210   1.949  1.00  0.00     0.157 HD
ATOM     13  H52 UNL     1      -7.122   1.392   1.945  1.00  0.00     0.157 HD
ENDROOT
BRANCH   8  14
HETATM   14  C6  UNL     1      -3.182  -1.699   0.042  1.00  0.00     0.103 C 
BRANCH  14  15
HETATM   15  C7  UNL     1      -2.224  -2.418   0.929  1.00  0.00     0.010 C 
BRANCH  15  16
HETATM   16  C8  UNL     1      -1.270  -1.517   1.629  1.00  0.00     0.005 C 
BRANCH  16  17
HETATM   17  C9  UNL     1      -0.416  -0.705   0.644  1.00  0.00    -0.011 C 
HETATM   18  C10 UNL     1       0.481   0.147   1.521  1.00  0.00     0.035 C 
HETATM   19  C11 UNL     1       1.839  -0.573   1.537  1.00  0.00     0.273 C 
HETATM   20  N3  UNL     1       2.382  -0.366   0.223  1.00  0.00     0.093 N 
HETATM   21  C18 UNL     1       1.679  -1.204  -0.687  1.00  0.00     0.273 C 
HETATM   22  C19 UNL     1       0.326  -1.653  -0.227  1.00  0.00     0.035 C 
BRANCH  20  23
HETATM   23  C12 UNL     1       3.795  -0.396   0.180  1.00  0.00     0.223 C 
HETATM   24  C13 UNL     1       4.368   0.736   0.989  1.00  0.00     0.038 C 
HETATM   25  C14 UNL     1       5.902   0.627   0.947  1.00  0.00     0.034 C 
HETATM   26  C15 UNL     1       6.324   1.026  -0.441  1.00  0.00     0.183 C 
HETATM   27  C16 UNL     1       5.254   0.838  -1.468  1.00  0.00     0.034 C 
HETATM   28  C17 UNL     1       4.369  -0.337  -1.213  1.00  0.00     0.038 C 
BRANCH  26  29
HETATM   29  N4  UNL     1       6.603   2.470  -0.382  1.00  0.00    -0.075 N 
ATOM     30  H43 UNL     1       5.824   3.020  -0.020  1.00  0.00     0.274 HD
ATOM     31  H42 UNL     1       7.280   2.724   0.338  1.00  0.00     0.274 HD
ATOM     32  H41 UNL     1       6.889   2.740  -1.323  1.00  0.00     0.274 HD
ENDBRANCH  26  29
ENDBRANCH  20  23
ENDBRANCH  16  17
ENDBRANCH  15  16
ENDBRANCH  14  15
ENDBRANCH   8  14
TORSDOF 6
