REMARK  8 active torsions:
REMARK  status: ('A' for Active; 'I' for Inactive)
REMARK       I    between atoms: N1_2  and  C3_4 
REMARK    1  A    between atoms: C3_4  and  O2_6 
REMARK    2  A    between atoms: O2_6  and  C4_7 
REMARK       I    between atoms: C4_7  and  N2_9 
REMARK    3  A    between atoms: N3_12  and  C7_13 
REMARK    4  A    between atoms: C7_13  and  C8_14 
REMARK       I    between atoms: C8_14  and  N4_16 
REMARK    5  A    between atoms: N4_16  and  C9_18 
REMARK    6  A    between atoms: C9_18  and  C10_19 
REMARK    7  A    between atoms: C10_19  and  C11_20 
REMARK    8  A    between atoms: C11_20  and  O5_21 
ROOT
HETATM    1  C7  UNL     1      -2.031  -0.880  -0.662  1.00  0.00     0.239 C 
HETATM    2  C12 UNL     1      -2.720  -2.220  -0.594  1.00  0.00     0.052 C 
HETATM    3  C13 UNL     1      -3.806  -2.335  -1.660  1.00  0.00     0.003 C 
HETATM    4  C14 UNL     1      -3.126  -2.447  -2.990  1.00  0.00     0.000 C 
HETATM    5  C15 UNL     1      -2.181  -1.278  -3.140  1.00  0.00     0.003 C 
HETATM    6  C16 UNL     1      -2.290  -0.295  -2.012  1.00  0.00     0.052 C 
ENDROOT
BRANCH   1   7
HETATM    7  N3  UNL     1      -0.691  -0.924  -0.247  1.00  0.00     0.110 N 
HETATM    8  C6  UNL     1       0.160  -1.973  -0.705  1.00  0.00     0.294 C 
HETATM    9  C5  UNL     1       1.201  -2.147   0.414  1.00  0.00     0.158 C 
HETATM   10  N2  UNL     1       1.978  -0.927   0.389  1.00  0.00    -0.324 N 
HETATM   11  C4  UNL     1       3.386  -1.014   0.463  1.00  0.00     0.371 C 
HETATM   12  C18 UNL     1       1.338   0.338   0.286  1.00  0.00     0.158 C 
HETATM   13  O3  UNL     1       3.987  -2.136   0.547  1.00  0.00    -0.238 OA
HETATM   14  C17 UNL     1       0.029   0.326  -0.424  1.00  0.00     0.294 C 
BRANCH  11  15
HETATM   15  O2  UNL     1       4.227   0.095   0.450  1.00  0.00    -0.209 OA
BRANCH  15  16
HETATM   16  C3  UNL     1       5.613   0.001   0.520  1.00  0.00     0.370 C 
HETATM   17  N1  UNL     1       6.489   1.098   0.512  1.00  0.00    -0.336 N 
HETATM   18  C1  UNL     1       5.957   2.430   0.433  1.00  0.00     0.154 C 
HETATM   19  C2  UNL     1       7.906   0.892   0.581  1.00  0.00     0.154 C 
HETATM   20  O1  UNL     1       6.087  -1.163   0.595  1.00  0.00    -0.238 OA
ENDBRANCH  15  16
ENDBRANCH  11  15
ENDBRANCH   1   7
BRANCH   1  21
HETATM   21  C8  UNL     1      -2.800  -0.018   0.325  1.00  0.00     0.257 C 
HETATM   22  O4  UNL     1      -3.905   0.360  -0.082  1.00  0.00    -0.271 OA
HETATM   23  N4  UNL     1      -2.298   0.313   1.583  1.00  0.00    -0.359 N 
ATOM     24  H4  UNL     1      -1.381  -0.089   1.778  1.00  0.00     0.162 HD
BRANCH  23  25
HETATM   25  C9  UNL     1      -2.812   1.098   2.643  1.00  0.00     0.125 C 
BRANCH  25  26
HETATM   26  C10 UNL     1      -3.021   2.540   2.503  1.00  0.00     0.046 C 
BRANCH  26  27
HETATM   27  C11 UNL     1      -3.975   3.092   1.530  1.00  0.00     0.165 C 
BRANCH  27  28
HETATM   28  O5  UNL     1      -5.305   2.675   1.738  1.00  0.00    -0.401 OA
ATOM     29  H5  UNL     1      -5.921   3.032   1.109  1.00  0.00     0.209 HD
ENDBRANCH  27  28
ENDBRANCH  26  27
ENDBRANCH  25  26
ENDBRANCH  23  25
ENDBRANCH   1  21
TORSDOF 8
