REMARK  6 active torsions:
REMARK  status: ('A' for Active; 'I' for Inactive)
REMARK    1  A    between atoms: C4_4  and  O1_5 
REMARK    2  A    between atoms: C16_18  and  C17_19 
REMARK    3  A    between atoms: C17_19  and  C18_20 
REMARK    4  A    between atoms: C17_19  and  C19_22 
REMARK    5  A    between atoms: C19_22  and  O3_23 
REMARK    6  A    between atoms: C21_26  and  O4_27 
ROOT
HETATM    1  C1  UNL     1      -3.579   1.718  -0.761  1.00  0.00     0.016 C 
HETATM    2  C2  UNL     1      -2.957   0.899   0.347  1.00  0.00    -0.035 C 
HETATM    3  C3  UNL     1      -4.106   0.384   1.199  1.00  0.00     0.041 C 
HETATM    4  C4  UNL     1      -4.585  -0.966   0.810  1.00  0.00     0.118 C 
HETATM    5  C5  UNL     1      -4.437  -1.289  -0.643  1.00  0.00     0.032 C 
HETATM    6  C6  UNL     1      -3.076  -1.004  -1.187  1.00  0.00     0.008 C 
HETATM    7  C7  UNL     1      -2.225  -0.306  -0.147  1.00  0.00    -0.001 C 
HETATM    8  C8  UNL     1      -0.845  -0.037  -0.699  1.00  0.00     0.001 C 
HETATM    9  C9  UNL     1      -0.043  -1.275  -0.773  1.00  0.00     0.007 C 
HETATM   10  C10 UNL     1       1.122  -1.394   0.159  1.00  0.00     0.014 C 
HETATM   11  C11 UNL     1       1.989  -0.211   0.267  1.00  0.00    -0.016 C 
HETATM   12  C12 UNL     1       2.342  -0.025   1.758  1.00  0.00     0.020 C 
HETATM   13  C13 UNL     1       1.274   1.049  -0.141  1.00  0.00    -0.068 C 
HETATM   14  C14 UNL     1       2.144   1.941  -0.577  1.00  0.00    -0.022 C 
HETATM   15  C15 UNL     1       3.509   1.362  -0.505  1.00  0.00     0.034 C 
HETATM   16  C16 UNL     1       3.243  -0.153  -0.507  1.00  0.00     0.014 C 
HETATM   17  C20 UNL     1      -0.185   1.124  -0.034  1.00  0.00     0.048 C 
HETATM   18  C21 UNL     1      -0.688   1.264   1.361  1.00  0.00     0.127 C 
HETATM   19  C22 UNL     1      -2.119   1.772   1.248  1.00  0.00     0.042 C 
ENDROOT
BRANCH  16  20
HETATM   20  C17 UNL     1       4.439  -0.866  -0.020  1.00  0.00     0.076 C 
BRANCH  20  21
HETATM   21  C18 UNL     1       4.255  -2.332   0.078  1.00  0.00     0.238 C 
HETATM   22  O2  UNL     1       4.540  -2.951   1.087  1.00  0.00    -0.306 OA
ENDBRANCH  20  21
BRANCH  20  23
HETATM   23  C19 UNL     1       5.691  -0.664  -0.875  1.00  0.00     0.176 C 
BRANCH  23  24
HETATM   24  O3  UNL     1       6.103   0.649  -0.953  1.00  0.00    -0.400 OA
ATOM     25  H3  UNL     1       6.881   0.774  -1.484  1.00  0.00     0.209 HD
ENDBRANCH  23  24
ENDBRANCH  20  23
ENDBRANCH  16  20
BRANCH  18  26
HETATM   26  O4  UNL     1      -0.006   2.230   2.098  1.00  0.00    -0.395 OA
ATOM     27  H4  UNL     1      -0.327   2.319   2.988  1.00  0.00     0.210 HD
ENDBRANCH  18  26
BRANCH   4  28
HETATM   28  O1  UNL     1      -5.959  -1.045   1.124  1.00  0.00    -0.396 OA
ATOM     29  H1  UNL     1      -6.266  -1.909   0.875  1.00  0.00     0.210 HD
ENDBRANCH   4  28
TORSDOF 6
