REMARK  6 active torsions:
REMARK  status: ('A' for Active; 'I' for Inactive)
REMARK    1  A    between atoms: C2_2  and  O1_3 
REMARK    2  A    between atoms: C2_2  and  C3_5 
REMARK    3  A    between atoms: C3_5  and  C4_6 
REMARK    4  A    between atoms: C4_6  and  N1_7 
REMARK    5  A    between atoms: C13_16  and  O2_17 
REMARK    6  A    between atoms: C14_19  and  O3_20 
ROOT
HETATM    1  N1  UNL     1       3.054  -0.396   0.801  1.00  0.00     0.089 N 
HETATM    2  C5  UNL     1       1.868  -1.239   0.984  1.00  0.00     0.278 C 
HETATM    3  C6  UNL     1       0.828  -0.482   0.259  1.00  0.00     0.028 C 
HETATM    4  C7  UNL     1      -0.575  -0.884   0.361  1.00  0.00    -0.003 C 
HETATM    5  C8  UNL     1      -1.155  -1.005   1.721  1.00  0.00     0.006 C 
HETATM    6  C9  UNL     1      -2.646  -0.893   1.815  1.00  0.00     0.006 C 
HETATM    7  C10 UNL     1      -3.262   0.062   0.838  1.00  0.00    -0.003 C 
HETATM    8  C11 UNL     1      -4.777  -0.177   0.919  1.00  0.00     0.008 C 
HETATM    9  C12 UNL     1      -5.522   0.658  -0.072  1.00  0.00     0.035 C 
HETATM   10  C13 UNL     1      -4.623   1.413  -1.021  1.00  0.00     0.147 C 
HETATM   11  C14 UNL     1      -3.543   0.525  -1.600  1.00  0.00     0.155 C 
HETATM   12  C15 UNL     1      -2.824  -0.266  -0.545  1.00  0.00    -0.008 C 
HETATM   13  C16 UNL     1      -3.019  -1.729  -0.890  1.00  0.00     0.019 C 
HETATM   14  C17 UNL     1      -1.323  -0.023  -0.611  1.00  0.00     0.001 C 
HETATM   15  C18 UNL     1      -0.938   1.404  -0.700  1.00  0.00     0.007 C 
HETATM   16  C19 UNL     1       0.347   1.854  -0.161  1.00  0.00     0.012 C 
HETATM   17  C20 UNL     1       1.189   0.916   0.597  1.00  0.00    -0.012 C 
HETATM   18  C21 UNL     1       1.334   1.270   2.024  1.00  0.00     0.017 C 
HETATM   19  C22 UNL     1       2.640   0.807   0.090  1.00  0.00     0.282 C 
ENDROOT
BRANCH   1  20
HETATM   20  C4  UNL     1       4.020  -1.062  -0.061  1.00  0.00     0.275 C 
BRANCH  20  21
HETATM   21  C3  UNL     1       5.204  -0.112  -0.188  1.00  0.00     0.061 C 
BRANCH  21  22
HETATM   22  C2  UNL     1       6.280  -0.727  -1.081  1.00  0.00     0.115 C 
HETATM   23  C1  UNL     1       7.433   0.217  -1.196  1.00  0.00     0.039 C 
BRANCH  22  24
HETATM   24  O1  UNL     1       5.664  -0.973  -2.323  1.00  0.00    -0.396 OA
ATOM     25  H1  UNL     1       4.931  -1.573  -2.250  1.00  0.00     0.210 HD
ENDBRANCH  22  24
ENDBRANCH  21  22
ENDBRANCH  20  21
ENDBRANCH   1  20
BRANCH  11  26
HETATM   26  O3  UNL     1      -4.201  -0.305  -2.539  1.00  0.00    -0.392 OA
ATOM     27  H3  UNL     1      -3.523  -0.862  -2.902  1.00  0.00     0.210 HD
ENDBRANCH  11  26
BRANCH  10  28
HETATM   28  O2  UNL     1      -5.421   1.873  -2.069  1.00  0.00    -0.393 OA
ATOM     29  H2  UNL     1      -4.855   2.348  -2.666  1.00  0.00     0.210 HD
ENDBRANCH  10  28
TORSDOF 6
