REMARK  3 active torsions:
REMARK  status: ('A' for Active; 'I' for Inactive)
REMARK    1  A    between atoms: C11_11  and  N1_12 
REMARK    2  A    between atoms: N1_12  and  S1_14 
REMARK    3  A    between atoms: C18_24  and  O4_25 
ROOT
HETATM    1  C1  UNL     1      -2.880   1.106   1.145  1.00  0.00     0.018 C 
HETATM    2  C2  UNL     1      -2.833  -0.351   0.818  1.00  0.00    -0.014 C 
HETATM    3  C3  UNL     1      -1.941  -1.150   1.690  1.00  0.00     0.012 C 
HETATM    4  C4  UNL     1      -0.541  -0.613   1.478  1.00  0.00     0.007 C 
HETATM    5  C5  UNL     1      -0.052  -0.777   0.070  1.00  0.00    -0.002 C 
HETATM    6  C6  UNL     1      -1.069  -0.476  -0.986  1.00  0.00    -0.005 C 
HETATM    7  C7  UNL     1      -0.836   0.856  -1.689  1.00  0.00     0.006 C 
HETATM    8  C8  UNL     1       0.552   0.923  -2.277  1.00  0.00     0.006 C 
HETATM    9  C9  UNL     1       1.499  -0.038  -1.644  1.00  0.00    -0.004 C 
HETATM   10  C10 UNL     1       2.934   0.357  -1.701  1.00  0.00     0.031 C 
HETATM   11  C11 UNL     1       3.592  -0.290  -0.473  1.00  0.00     0.096 C 
HETATM   12  C12 UNL     1       2.435  -0.870   0.334  1.00  0.00     0.035 C 
HETATM   13  C13 UNL     1       1.231  -0.038  -0.132  1.00  0.00    -0.035 C 
HETATM   14  C14 UNL     1       1.335   1.289   0.483  1.00  0.00     0.016 C 
HETATM   15  C15 UNL     1      -2.473  -0.687  -0.600  1.00  0.00     0.001 C 
HETATM   16  C16 UNL     1      -3.511   0.065  -1.350  1.00  0.00     0.008 C 
HETATM   17  C17 UNL     1      -4.758  -0.172  -0.505  1.00  0.00     0.033 C 
HETATM   18  C18 UNL     1      -4.280  -0.826   0.800  1.00  0.00     0.126 C 
ENDROOT
BRANCH  11  19
HETATM   19  N1  UNL     1       4.346   0.682   0.288  1.00  0.00    -0.296 N 
ATOM     20  H1  UNL     1       3.941   1.538   0.668  1.00  0.00     0.175 HD
BRANCH  19  21
HETATM   21  S1  UNL     1       5.985   0.245   0.483  1.00  0.00     0.204 S 
HETATM   22  O1  UNL     1       6.444  -0.496  -0.736  1.00  0.00    -0.578 OA
HETATM   23  O2  UNL     1       6.802   1.491   0.601  1.00  0.00    -0.578 OA
HETATM   24  O3  UNL     1       6.167  -0.661   1.878  1.00  0.00    -0.578 OA
ENDBRANCH  19  21
ENDBRANCH  11  19
BRANCH  18  25
HETATM   25  O4  UNL     1      -4.956  -0.239   1.843  1.00  0.00    -0.395 OA
ATOM     26  H4  UNL     1      -5.859  -0.535   1.832  1.00  0.00     0.210 HD
ENDBRANCH  18  25
TORSDOF 3
