REMARK  6 active torsions:
REMARK  status: ('A' for Active; 'I' for Inactive)
REMARK    1  A    between atoms: C4_4  and  C5_5 
REMARK    2  A    between atoms: C5_5  and  O1_6 
REMARK    3  A    between atoms: C7_13  and  N1_14 
REMARK       I    between atoms: N1_14  and  C8_16 
REMARK    4  A    between atoms: C8_16  and  C9_18 
REMARK    5  A    between atoms: C9_18  and  N2_19 
REMARK    6  A    between atoms: C9_18  and  C10_23 
ROOT
HETATM    1  C5  UNL     1      -1.410  -0.374  -0.753  1.00  0.00     0.160 C 
HETATM    2  S1  UNL     1      -2.322   0.446  -2.131  1.00  0.00     0.008 SA
HETATM    3  S2  UNL     1      -0.908  -0.088  -3.626  1.00  0.00     0.204 S 
HETATM    4  O2  UNL     1      -1.517  -0.978  -4.639  1.00  0.00    -0.216 OA
HETATM    5  O3  UNL     1      -0.236   1.111  -4.173  1.00  0.00    -0.216 OA
HETATM    6  C6  UNL     1       0.174  -1.000  -2.505  1.00  0.00     0.181 C 
HETATM    7  C7  UNL     1       0.017  -0.202  -1.234  1.00  0.00     0.149 C 
ENDROOT
BRANCH   7   8
HETATM    8  N1  UNL     1       0.987  -0.535  -0.248  1.00  0.00    -0.350 N 
HETATM    9  C8  UNL     1       1.895   0.449   0.219  1.00  0.00     0.249 C 
HETATM   10  O4  UNL     1       1.809   1.608  -0.266  1.00  0.00    -0.271 OA
ATOM     11  H1  UNL     1       1.029  -1.484   0.124  1.00  0.00     0.163 HD
BRANCH   9  12
HETATM   12  C9  UNL     1       2.930   0.160   1.248  1.00  0.00     0.284 C 
BRANCH  12  13
HETATM   13  N2  UNL     1       3.690   1.361   1.506  1.00  0.00    -0.066 N 
ATOM     14  H23 UNL     1       4.089   1.757   0.655  1.00  0.00     0.275 HD
ATOM     15  H22 UNL     1       3.095   2.148   1.765  1.00  0.00     0.275 HD
ATOM     16  H21 UNL     1       4.400   1.163   2.211  1.00  0.00     0.275 HD
ENDBRANCH  12  13
BRANCH  12  17
HETATM   17  C10 UNL     1       3.874  -0.925   0.821  1.00  0.00     0.128 C 
HETATM   18  S3  UNL     1       5.072  -1.163   2.174  1.00  0.00    -0.095 SA
ENDBRANCH  12  17
ENDBRANCH   9  12
ENDBRANCH   7   8
BRANCH   1  19
HETATM   19  C4  UNL     1      -1.586   0.340   0.510  1.00  0.00     0.027 C 
HETATM   20  C2  UNL     1      -2.800   0.586   1.029  1.00  0.00    -0.088 C 
HETATM   21  C1  UNL     1      -2.964   1.313   2.316  1.00  0.00     0.042 C 
HETATM   22  C3  UNL     1      -4.045   0.144   0.344  1.00  0.00     0.042 C 
ENDBRANCH   1  19
BRANCH   1  23
HETATM   23  O1  UNL     1      -1.690  -1.718  -0.707  1.00  0.00    -0.373 OA
ATOM     24  H1  UNL     1      -1.576  -2.182  -1.528  1.00  0.00     0.212 HD
ENDBRANCH   1  23
TORSDOF 6
