REMARK  4 active torsions:
REMARK  status: ('A' for Active; 'I' for Inactive)
REMARK    1  A    between atoms: N1_2  and  N2_3 
REMARK       I    between atoms: N1_2  and  C11_26 
REMARK    2  A    between atoms: N3_5  and  C2_7 
REMARK    3  A    between atoms: C3_8  and  C4_9 
REMARK    4  A    between atoms: C5_14  and  N5_15 
ROOT
HETATM    1  C2  UNL     1       1.275  -0.445  -0.168  1.00  0.00     0.152 A 
HETATM    2  C3  UNL     1       0.532   0.053   0.891  1.00  0.00     0.159 A 
HETATM    3  N4  UNL     1      -0.819   0.093   0.805  1.00  0.00    -0.182 N 
ATOM      4  H4  UNL     1      -1.369   0.459   1.582  1.00  0.00     0.184 HD
HETATM    5  C5  UNL     1      -1.442  -0.355  -0.318  1.00  0.00     0.684 A 
HETATM    6  N7  UNL     1      -0.752  -0.846  -1.368  1.00  0.00    -0.154 N 
ATOM      7  H7  UNL     1      -1.235  -1.177  -2.203  1.00  0.00     0.187 HD
HETATM    8  C10 UNL     1       0.590  -0.887  -1.285  1.00  0.00     0.290 A 
HETATM    9  O3  UNL     1       1.290  -1.339  -2.242  1.00  0.00    -0.265 OA
ENDROOT
BRANCH   1  10
HETATM   10  N3  UNL     1       2.676  -0.478  -0.048  1.00  0.00    -0.279 N 
HETATM   11  N2  UNL     1       3.524  -0.272  -0.938  1.00  0.00    -0.237 N 
ATOM     12  H2  UNL     1       3.247  -0.046  -1.893  1.00  0.00     0.208 HD
ATOM     13  H3  UNL     1       3.042  -0.697   0.879  1.00  0.00     0.189 HD
BRANCH  11  14
HETATM   14  N1  UNL     1       4.868  -0.363  -0.573  1.00  0.00    -0.235 N 
HETATM   15  C1  UNL     1       5.426  -1.674  -0.322  1.00  0.00     0.184 C 
HETATM   16  C11 UNL     1       5.718   0.762  -0.434  1.00  0.00     0.350 C 
HETATM   17  N8  UNL     1       5.200   2.060  -0.674  1.00  0.00    -0.038 NA
HETATM   18  O4  UNL     1       6.923   0.664  -0.105  1.00  0.00    -0.249 OA
ENDBRANCH  11  14
ENDBRANCH   1  10
BRANCH   2  19
HETATM   19  C4  UNL     1       1.235   0.524   2.074  1.00  0.00     0.230 C 
HETATM   20  O1  UNL     1       2.483   0.498   2.179  1.00  0.00    -0.643 OA
HETATM   21  O2  UNL     1       0.493   1.023   3.130  1.00  0.00    -0.643 OA
ENDBRANCH   2  19
BRANCH   5  22
HETATM   22  N5  UNL     1      -2.859  -0.291  -0.343  1.00  0.00    -0.214 N 
HETATM   23  C6  UNL     1      -3.714  -1.373   0.077  1.00  0.00     0.160 C 
HETATM   24  C7  UNL     1      -5.110  -0.841   0.197  1.00  0.00     0.134 C 
HETATM   25  N6  UNL     1      -5.207   0.437   0.828  1.00  0.00    -0.418 N 
HETATM   26  C8  UNL     1      -4.328   1.448   0.330  1.00  0.00     0.134 C 
ATOM     27  H6  UNL     1      -5.864   0.617   1.588  1.00  0.00     0.153 HD
HETATM   28  C9  UNL     1      -3.500   0.919  -0.810  1.00  0.00     0.160 C 
ENDBRANCH   5  22
TORSDOF 4
