REMARK  3 active torsions:
REMARK  status: ('A' for Active; 'I' for Inactive)
REMARK    1  A    between atoms: N1_2  and  C3_4 
REMARK    2  A    between atoms: N2_7  and  C6_8 
REMARK    3  A    between atoms: C8_16  and  C9_17 
ROOT
HETATM    1  C6  UNL     1       0.525  -0.247  -0.140  1.00  0.00     0.683 A 
HETATM    2  N3  UNL     1       1.492  -1.127   0.170  1.00  0.00    -0.174 N 
ATOM      3  H3  UNL     1       1.232  -2.062   0.484  1.00  0.00     0.186 HD
HETATM    4  C7  UNL     1       2.777  -0.809   0.077  1.00  0.00     0.153 A 
HETATM    5  N4  UNL     1       3.744  -1.699   0.400  1.00  0.00    -0.283 N 
ATOM      6  H4  UNL     1       3.476  -2.632   0.713  1.00  0.00     0.188 HD
HETATM    7  N5  UNL     1       5.005  -1.395   0.321  1.00  0.00    -0.291 N 
ATOM      8  H5  UNL     1       5.686  -2.109   0.579  1.00  0.00     0.187 HD
HETATM    9  C8  UNL     1       5.463  -0.214  -0.074  1.00  0.00     0.164 A 
HETATM   10  C10 UNL     1       4.528   0.759  -0.426  1.00  0.00     0.222 A 
HETATM   11  O2  UNL     1       4.945   1.881  -0.803  1.00  0.00    -0.285 OA
HETATM   12  C11 UNL     1       3.198   0.454  -0.347  1.00  0.00     0.106 A 
HETATM   13  C12 UNL     1       2.223   1.360  -0.666  1.00  0.00     0.133 A 
HETATM   14  N7  UNL     1       2.448   2.519  -1.062  1.00  0.00    -0.384 N 
ATOM     15  H71 UNL     1       1.721   3.194  -1.300  1.00  0.00     0.157 HD
ATOM     16  H72 UNL     1       3.420   2.816  -1.152  1.00  0.00     0.157 HD
HETATM   17  N8  UNL     1       0.919   0.961  -0.545  1.00  0.00    -0.176 N 
ATOM     18  H8  UNL     1       0.194   1.639  -0.782  1.00  0.00     0.186 HD
ENDROOT
BRANCH   1  19
HETATM   19  N2  UNL     1      -0.851  -0.579  -0.043  1.00  0.00    -0.217 N 
HETATM   20  C5  UNL     1      -1.427  -0.812   1.258  1.00  0.00     0.143 C 
HETATM   21  C4  UNL     1      -2.687   0.054   1.288  1.00  0.00     0.056 C 
HETATM   22  C3  UNL     1      -3.652  -0.539   0.330  1.00  0.00     0.225 C 
HETATM   23  C14 UNL     1      -3.101  -0.803  -1.012  1.00  0.00     0.056 C 
HETATM   24  C13 UNL     1      -1.641  -0.661  -1.221  1.00  0.00     0.143 C 
BRANCH  22  25
HETATM   25  N1  UNL     1      -4.867   0.249   0.328  1.00  0.00     0.084 N 
HETATM   26  C1  UNL     1      -5.877  -0.275  -0.561  1.00  0.00     0.309 C 
HETATM   27  C2  UNL     1      -4.626   1.656   0.116  1.00  0.00     0.309 C 
ENDBRANCH  22  25
ENDBRANCH   1  19
BRANCH   9  28
HETATM   28  C9  UNL     1       6.876   0.121  -0.146  1.00  0.00     0.286 C 
HETATM   29  N6  UNL     1       7.887  -0.778   0.252  1.00  0.00    -0.056 NA
HETATM   30  O1  UNL     1       7.225   1.261  -0.577  1.00  0.00    -0.269 OA
ENDBRANCH   9  28
TORSDOF 3
