REMARK  4 active torsions:
REMARK  status: ('A' for Active; 'I' for Inactive)
REMARK    1  A    between atoms: C2_5  and  C3_6 
REMARK    2  A    between atoms: C4_9  and  S1_10 
REMARK    3  A    between atoms: S1_10  and  C5_11 
REMARK    4  A    between atoms: C8_19  and  C9_20 
ROOT
HETATM    1  S1  UNL     1      -0.269  -1.111   0.007  1.00  0.00    -0.122 SA
ENDROOT
BRANCH   1   2
HETATM    2  C4  UNL     1       1.350  -0.327  -0.094  1.00  0.00     0.022 C 
HETATM    3  C2  UNL     1       2.367  -1.031   0.371  1.00  0.00     0.125 C 
HETATM    4  N2  UNL     1       3.705  -0.603   0.372  1.00  0.00    -0.333 N 
HETATM    5  C1  UNL     1       4.140   0.502  -0.073  1.00  0.00     0.155 C 
ATOM      6  H2  UNL     1       4.393  -1.243   0.769  1.00  0.00     0.168 HD
HETATM    7  N1  UNL     1       5.518   0.859  -0.025  1.00  0.00    -0.075 NA
HETATM    8  S2  UNL     1       3.038   1.639  -0.869  1.00  0.00    -0.092 SA
HETATM    9  C10 UNL     1       1.360   1.036  -0.642  1.00  0.00     0.130 C 
BRANCH   3  10
HETATM   10  C3  UNL     1       2.115  -2.368   0.930  1.00  0.00     0.228 C 
HETATM   11  O1  UNL     1       0.959  -2.810   0.956  1.00  0.00    -0.643 OA
HETATM   12  O2  UNL     1       3.155  -3.127   1.424  1.00  0.00    -0.643 OA
ENDBRANCH   3  10
ENDBRANCH   1   2
BRANCH   1  13
HETATM   13  C5  UNL     1      -1.594  -0.118  -0.689  1.00  0.00     0.099 C 
HETATM   14  C6  UNL     1      -2.816  -1.047  -0.724  1.00  0.00     0.142 C 
HETATM   15  N3  UNL     1      -3.966  -0.403  -1.291  1.00  0.00    -0.342 N 
HETATM   16  C7  UNL     1      -4.222   0.940  -0.914  1.00  0.00     0.316 C 
ATOM     17  H3  UNL     1      -4.578  -0.894  -1.943  1.00  0.00     0.164 HD
HETATM   18  O3  UNL     1      -5.256   1.565  -1.324  1.00  0.00    -0.247 OA
HETATM   19  N4  UNL     1      -3.288   1.555  -0.067  1.00  0.00    -0.331 N 
HETATM   20  C8  UNL     1      -1.915   1.106   0.132  1.00  0.00     0.163 C 
ATOM     21  H4  UNL     1      -3.593   2.380   0.450  1.00  0.00     0.165 HD
BRANCH  20  22
HETATM   22  C9  UNL     1      -1.732   0.915   1.590  1.00  0.00     0.257 C 
HETATM   23  O4  UNL     1      -2.617   1.115   2.398  1.00  0.00    -0.305 OA
ENDBRANCH  20  22
ENDBRANCH   1  13
TORSDOF 4
