REMARK  3 active torsions:
REMARK  status: ('A' for Active; 'I' for Inactive)
REMARK    1  A    between atoms: C2_5  and  C3_6 
REMARK    2  A    between atoms: C3_6  and  O2_7 
REMARK    3  A    between atoms: N2_17  and  C11_18 
ROOT
HETATM    1  O1  UNL     1      -1.848  -0.746   2.807  1.00  0.00    -0.244 OA
HETATM    2  C1  UNL     1      -1.131  -0.650   1.792  1.00  0.00     0.348 A 
HETATM    3  N1  UNL     1       0.225  -0.585   1.836  1.00  0.00    -0.286 N 
ATOM      4  H1  UNL     1       0.822  -0.605   2.663  1.00  0.00     0.172 HD
HETATM    5  C2  UNL     1       0.608  -0.489   0.552  1.00  0.00     0.186 A 
HETATM    6  O3  UNL     1      -0.429  -0.494  -0.212  1.00  0.00    -0.214 OA
HETATM    7  N2  UNL     1      -1.503  -0.593   0.514  1.00  0.00    -0.195 N 
ENDROOT
BRANCH   5   8
HETATM    8  C3  UNL     1       2.012  -0.389   0.027  1.00  0.00     0.125 C 
HETATM    9  C4  UNL     1       2.966  -0.584   1.155  1.00  0.00     0.051 C 
HETATM   10  C5  UNL     1       4.347  -0.042   0.871  1.00  0.00    -0.011 C 
HETATM   11  C6  UNL     1       4.920  -0.541  -0.414  1.00  0.00     0.005 C 
HETATM   12  C9  UNL     1       4.155   1.460   0.630  1.00  0.00     0.009 C 
HETATM   13  C7  UNL     1       4.500   0.463  -1.472  1.00  0.00     0.005 C 
HETATM   14  C8  UNL     1       3.567   1.427  -0.783  1.00  0.00    -0.011 C 
HETATM   15  C10 UNL     1       2.162   0.928  -0.684  1.00  0.00     0.051 C 
BRANCH   8  16
HETATM   16  O2  UNL     1       2.135  -1.399  -0.917  1.00  0.00    -0.381 OA
ATOM     17  H2  UNL     1       3.023  -1.336  -1.249  1.00  0.00     0.211 HD
ENDBRANCH   8  16
ENDBRANCH   5   8
BRANCH   7  18
HETATM   18  C11 UNL     1      -2.828  -0.622  -0.059  1.00  0.00     0.120 C 
HETATM   19  C12 UNL     1      -3.176   0.723  -0.632  1.00  0.00     0.028 C 
HETATM   20  C13 UNL     1      -4.543   1.204  -0.270  1.00  0.00     0.002 C 
HETATM   21  C14 UNL     1      -5.616   0.155  -0.398  1.00  0.00     0.000 C 
HETATM   22  C15 UNL     1      -5.189  -1.203   0.058  1.00  0.00     0.002 C 
HETATM   23  C16 UNL     1      -3.879  -1.214   0.815  1.00  0.00     0.028 C 
ENDBRANCH   7  18
TORSDOF 3
