REMARK  3 active torsions:
REMARK  status: ('A' for Active; 'I' for Inactive)
REMARK    1  A    between atoms: O1_2  and  C2_3 
REMARK    2  A    between atoms: C8_10  and  S1_11 
REMARK    3  A    between atoms: N1_14  and  O3_16 
ROOT
HETATM    1  C2  UNL     1      -1.975   0.647   0.779  1.00  0.00     0.129 C 
HETATM    2  C3  UNL     1      -0.993   1.602   1.427  1.00  0.00     0.034 C 
HETATM    3  C4  UNL     1       0.099   0.779   2.028  1.00  0.00     0.020 C 
HETATM    4  C5  UNL     1       0.741  -0.197   1.145  1.00  0.00     0.032 C 
HETATM    5  C6  UNL     1       1.273  -1.343   1.998  1.00  0.00     0.025 C 
HETATM    6  C7  UNL     1       1.969   0.437   0.533  1.00  0.00     0.155 C 
HETATM    7  O2  UNL     1       2.550   1.432   0.927  1.00  0.00    -0.295 OA
HETATM    8  C8  UNL     1       2.263  -0.445  -0.627  1.00  0.00     0.165 C 
HETATM    9  C10 UNL     1       0.908  -0.692  -1.165  1.00  0.00     0.041 C 
HETATM   10  N1  UNL     1       0.640  -0.848  -2.414  1.00  0.00    -0.275 N 
ATOM     11  H1  UNL     1      -0.329  -1.015  -2.686  1.00  0.00     0.193 HD
HETATM   12  C11 UNL     1      -0.011  -0.724  -0.000  1.00  0.00     0.022 C 
HETATM   13  C12 UNL     1      -0.406  -2.196   0.165  1.00  0.00     0.024 C 
HETATM   14  C13 UNL     1      -1.250   0.022  -0.387  1.00  0.00    -0.008 C 
HETATM   15  C14 UNL     1      -0.969   1.144  -1.378  1.00  0.00     0.018 C 
HETATM   16  C15 UNL     1      -2.260  -0.900  -1.072  1.00  0.00     0.018 C 
ENDROOT
BRANCH   8  17
HETATM   17  S1  UNL     1       3.286   0.399  -1.861  1.00  0.00    -0.155 SA
HETATM   18  C9  UNL     1       4.921   0.758  -1.244  1.00  0.00     0.091 C 
ENDBRANCH   8  17
BRANCH  10  19
HETATM   19  O3  UNL     1       1.591  -0.801  -3.392  1.00  0.00    -0.290 OA
ATOM     20  H3  UNL     1       1.393  -0.916  -4.314  1.00  0.00     0.244 HD
ENDBRANCH  10  19
BRANCH   1  21
HETATM   21  O1  UNL     1      -3.088   1.313   0.288  1.00  0.00    -0.390 OA
HETATM   22  C1  UNL     1      -4.275   0.904   0.856  1.00  0.00     0.202 C 
ENDBRANCH   1  21
TORSDOF 3
