REMARK  2 active torsions:
REMARK  status: ('A' for Active; 'I' for Inactive)
REMARK    1  A    between atoms: S1_2  and  C2_3 
REMARK    2  A    between atoms: C3_6  and  C4_7 
ROOT
HETATM    1  C4  UNL     1       0.904  -1.218   0.604  1.00  0.00     0.057 C 
HETATM    2  C5  UNL     1       0.950  -2.370  -0.334  1.00  0.00     0.022 C 
HETATM    3  C6  UNL     1      -0.100  -3.418  -0.060  1.00  0.00     0.075 C 
HETATM    4  S2  UNL     1      -1.662  -2.574   0.246  1.00  0.00    -0.159 SA
HETATM    5  C7  UNL     1      -1.535  -0.788   0.140  1.00  0.00     0.012 C 
HETATM    6  C8  UNL     1      -1.975  -0.387  -1.276  1.00  0.00     0.050 C 
HETATM    7  C9  UNL     1      -2.439   1.061  -1.157  1.00  0.00     0.273 C 
HETATM    8  N2  UNL     1      -3.788   1.022  -0.666  1.00  0.00     0.084 N 
HETATM    9  C10 UNL     1      -4.371   2.302  -0.427  1.00  0.00     0.309 C 
HETATM   10  C11 UNL     1      -3.860   0.110   0.426  1.00  0.00     0.273 C 
HETATM   11  C12 UNL     1      -2.539  -0.180   1.082  1.00  0.00     0.050 C 
HETATM   12  C13 UNL     1      -0.183  -0.234   0.350  1.00  0.00     0.032 C 
ENDROOT
BRANCH   1  13
HETATM   13  C3  UNL     1       2.196  -0.470   0.426  1.00  0.00     0.102 A 
HETATM   14  N1  UNL     1       3.152  -0.217   1.296  1.00  0.00    -0.324 N 
HETATM   15  C2  UNL     1       4.102   0.495   0.627  1.00  0.00     0.160 A 
ATOM     16  H1  UNL     1       3.176  -0.498   2.276  1.00  0.00     0.169 HD
HETATM   17  N4  UNL     1       3.712   0.667  -0.647  1.00  0.00    -0.278 N 
HETATM   18  N3  UNL     1       2.539   0.069  -0.755  1.00  0.00    -0.287 N 
ATOM     19  H4  UNL     1       4.219   1.160  -1.382  1.00  0.00     0.189 HD
ATOM     20  H3  UNL     1       1.979   0.024  -1.606  1.00  0.00     0.188 HD
BRANCH  15  21
HETATM   21  S1  UNL     1       5.629   1.116   1.297  1.00  0.00    -0.097 SA
HETATM   22  C1  UNL     1       6.543   1.991   0.014  1.00  0.00     0.099 C 
ENDBRANCH  15  21
ENDBRANCH   1  13
TORSDOF 2
