REMARK  3 active torsions:
REMARK  status: ('A' for Active; 'I' for Inactive)
REMARK    1  A    between atoms: C2_2  and  O1_3 
REMARK    2  A    between atoms: O1_3  and  C3_4 
REMARK       I    between atoms: C3_4  and  N1_6 
REMARK    3  A    between atoms: N3_12  and  N4_14 
ROOT
HETATM    1  C3  UNL     1       3.126   0.453  -0.314  1.00  0.00     0.385 C 
HETATM    2  O2  UNL     1       2.658  -0.051  -1.364  1.00  0.00    -0.237 OA
HETATM    3  N1  UNL     1       2.518   0.123   0.945  1.00  0.00    -0.098 N 
HETATM    4  C4  UNL     1       2.919   0.594   2.155  1.00  0.00     0.138 A 
HETATM    5  C5  UNL     1       2.093   0.050   3.099  1.00  0.00     0.124 A 
HETATM    6  N2  UNL     1       1.230  -0.722   2.443  1.00  0.00    -0.199 N 
ATOM      7  H2  UNL     1       0.486  -1.263   2.883  1.00  0.00     0.183 HD
HETATM    8  C6  UNL     1       1.471  -0.692   1.127  1.00  0.00     0.707 A 
HETATM    9  N3  UNL     1       0.798  -1.340   0.237  1.00  0.00    -0.131 N 
ATOM     10  H3  UNL     1       1.072  -1.241  -0.741  1.00  0.00     0.205 HD
ENDROOT
BRANCH   9  11
HETATM   11  N4  UNL     1      -0.273  -2.161   0.535  1.00  0.00    -0.294 N 
HETATM   12  C7  UNL     1      -1.502  -1.776   0.500  1.00  0.00     0.009 C 
HETATM   13  C8  UNL     1      -2.543  -2.787   0.849  1.00  0.00     0.054 C 
HETATM   14  C15 UNL     1      -1.825  -0.404   0.132  1.00  0.00     0.037 C 
HETATM   15  C9  UNL     1      -3.663  -2.592  -0.150  1.00  0.00     0.006 C 
HETATM   16  C10 UNL     1      -4.211  -1.211  -0.175  1.00  0.00     0.006 C 
HETATM   17  C11 UNL     1      -3.242  -0.099  -0.119  1.00  0.00    -0.001 C 
HETATM   18  C12 UNL     1      -2.914   0.520  -1.471  1.00  0.00    -0.013 C 
HETATM   19  C13 UNL     1      -2.847   2.021  -1.440  1.00  0.00     0.010 C 
HETATM   20  C14 UNL     1      -1.547  -0.168  -1.354  1.00  0.00     0.015 C 
ATOM     21  H4  UNL     1      -0.079  -3.127   0.798  1.00  0.00     0.186 HD
ENDBRANCH   9  11
BRANCH   1  22
HETATM   22  O1  UNL     1       4.198   1.295  -0.422  1.00  0.00    -0.303 OA
BRANCH  22  23
HETATM   23  C2  UNL     1       4.820   1.640  -1.650  1.00  0.00     0.176 C 
HETATM   24  C1  UNL     1       5.957   2.587  -1.325  1.00  0.00     0.034 C 
ENDBRANCH  22  23
ENDBRANCH   1  22
TORSDOF 3
