REMARK  4 active torsions:
REMARK  status: ('A' for Active; 'I' for Inactive)
REMARK    1  A    between atoms: C2_2  and  O1_3 
REMARK    2  A    between atoms: C2_2  and  C3_5 
REMARK    3  A    between atoms: C3_5  and  C4_6 
REMARK    4  A    between atoms: C4_6  and  O2_7 
ROOT
HETATM    1  C3  UNL     1      -0.873   0.391   0.116  1.00  0.00     0.014 C 
HETATM    2  C5  UNL     1      -0.976   0.548  -1.365  1.00  0.00     0.015 C 
HETATM    3  C6  UNL     1      -0.094  -0.275  -2.205  1.00  0.00     0.006 C 
HETATM    4  C7  UNL     1       1.158  -0.772  -1.594  1.00  0.00    -0.005 A 
HETATM    5  C8  UNL     1       2.295   0.171  -1.327  1.00  0.00     0.015 A 
HETATM    6  C9  UNL     1       1.487  -0.445  -0.244  1.00  0.00    -0.032 A 
HETATM    7  C10 UNL     1       2.286  -1.486   0.559  1.00  0.00     0.016 C 
HETATM    8  C11 UNL     1       0.548   0.396   0.578  1.00  0.00    -0.028 C 
HETATM    9  C12 UNL     1       1.158   1.806   0.513  1.00  0.00     0.016 C 
HETATM   10  C13 UNL     1       0.701   0.062   2.043  1.00  0.00     0.016 C 
ENDROOT
BRANCH   1  11
HETATM   11  C2  UNL     1      -1.731  -0.674   0.686  1.00  0.00     0.125 C 
HETATM   12  C1  UNL     1      -1.444  -2.095   0.364  1.00  0.00     0.040 C 
BRANCH  11  13
HETATM   13  O1  UNL     1      -3.077  -0.458   0.312  1.00  0.00    -0.395 OA
ATOM     14  H1  UNL     1      -3.261   0.451   0.518  1.00  0.00     0.210 HD
ENDBRANCH  11  13
ENDBRANCH   1  11
BRANCH   1  15
HETATM   15  C4  UNL     1      -1.458   1.721   0.659  1.00  0.00     0.177 C 
BRANCH  15  16
HETATM   16  O2  UNL     1      -2.783   1.880   0.254  1.00  0.00    -0.400 OA
ATOM     17  H2  UNL     1      -3.141   2.695   0.587  1.00  0.00     0.209 HD
ENDBRANCH  15  16
ENDBRANCH   1  15
TORSDOF 4
