REMARK  5 active torsions:
REMARK  status: ('A' for Active; 'I' for Inactive)
REMARK    1  A    between atoms: C2_2  and  O1_4 
REMARK    2  A    between atoms: C2_2  and  C4_6 
REMARK    3  A    between atoms: C4_6  and  C5_7 
REMARK    4  A    between atoms: C10_12  and  C12_14 
REMARK    5  A    between atoms: C12_14  and  N1_15 
ROOT
HETATM    1  C5  UNL     1      -0.285  -0.032  -1.108  1.00  0.00    -0.033 A 
HETATM    2  C6  UNL     1       0.069   0.131  -2.631  1.00  0.00     0.015 A 
HETATM    3  C7  UNL     1       0.261  -1.165  -1.847  1.00  0.00    -0.005 A 
HETATM    4  C8  UNL     1       1.640  -1.600  -1.639  1.00  0.00     0.006 C 
HETATM    5  C9  UNL     1       2.493  -0.854  -0.698  1.00  0.00     0.011 C 
HETATM    6  C10 UNL     1       1.752  -0.073   0.357  1.00  0.00    -0.020 C 
HETATM    7  C11 UNL     1       1.311  -0.995   1.443  1.00  0.00     0.017 C 
HETATM    8  C13 UNL     1       0.638   0.738  -0.267  1.00  0.00     0.020 C 
ENDROOT
BRANCH   1   9
HETATM    9  C4  UNL     1      -1.746   0.087  -0.898  1.00  0.00     0.046 C 
BRANCH   9  10
HETATM   10  C2  UNL     1      -2.375  -0.056   0.408  1.00  0.00     0.051 C 
HETATM   11  C1  UNL     1      -3.916   0.106   0.148  1.00  0.00     0.045 C 
HETATM   12  C3  UNL     1      -2.104   0.951   1.477  1.00  0.00     0.045 C 
BRANCH  10  13
HETATM   13  O1  UNL     1      -2.281  -1.317   0.985  1.00  0.00    -0.391 OA
ATOM     14  H1  UNL     1      -1.349  -1.415   1.142  1.00  0.00     0.210 HD
ENDBRANCH  10  13
ENDBRANCH   9  10
ENDBRANCH   1   9
BRANCH   6  15
HETATM   15  C12 UNL     1       2.735   0.917   0.952  1.00  0.00     0.238 C 
BRANCH  15  16
HETATM   16  N1  UNL     1       2.059   1.700   1.984  1.00  0.00    -0.079 N 
ATOM     17  H13 UNL     1       1.214   2.154   1.636  1.00  0.00     0.274 HD
ATOM     18  H12 UNL     1       1.623   1.112   2.694  1.00  0.00     0.274 HD
ATOM     19  H11 UNL     1       2.720   2.366   2.384  1.00  0.00     0.274 HD
ENDBRANCH  15  16
ENDBRANCH   6  15
TORSDOF 5
