REMARK  6 active torsions:
REMARK  status: ('A' for Active; 'I' for Inactive)
REMARK    1  A    between atoms: C2_2  and  N1_4 
REMARK    2  A    between atoms: N1_4  and  C4_6 
REMARK    3  A    between atoms: C5_9  and  N3_10 
REMARK    4  A    between atoms: C6_15  and  C7_16 
REMARK    5  A    between atoms: C8_25  and  S1_26 
REMARK    6  A    between atoms: S1_26  and  N9_27 
ROOT
HETATM    1  C4  UNL     1       0.590  -0.017   0.130  1.00  0.00     0.143 A 
HETATM    2  N2  UNL     1       1.078  -1.262   0.256  1.00  0.00    -0.176 N 
ATOM      3  H2  UNL     1       2.088  -1.401   0.245  1.00  0.00     0.186 HD
HETATM    4  C5  UNL     1       0.274  -2.332   0.396  1.00  0.00     0.678 A 
HETATM    5  N4  UNL     1      -1.039  -2.107   0.404  1.00  0.00    -0.186 N 
ATOM      6  H4  UNL     1      -1.658  -2.911   0.509  1.00  0.00     0.184 HD
HETATM    7  C6  UNL     1      -1.612  -0.876   0.281  1.00  0.00     0.123 A 
HETATM    8  C8  UNL     1      -0.809   0.223   0.140  1.00  0.00     0.154 A 
ENDROOT
BRANCH   7   9
HETATM    9  C7  UNL     1      -3.056  -0.730   0.256  1.00  0.00     0.166 A 
HETATM   10  N5  UNL     1      -3.868  -1.810   0.364  1.00  0.00    -0.267 N 
HETATM   11  N6  UNL     1      -5.119  -1.421   0.287  1.00  0.00    -0.227 N 
ATOM     12  H5  UNL     1      -3.556  -2.773   0.486  1.00  0.00     0.190 HD
HETATM   13  N7  UNL     1      -5.114  -0.118   0.132  1.00  0.00    -0.227 N 
ATOM     14  H6  UNL     1      -5.943  -2.020   0.338  1.00  0.00     0.210 HD
HETATM   15  N8  UNL     1      -3.873   0.285   0.115  1.00  0.00    -0.267 N 
ATOM     16  H7  UNL     1      -5.938   0.477   0.041  1.00  0.00     0.210 HD
ATOM     17  H8  UNL     1      -3.579   1.256   0.007  1.00  0.00     0.190 HD
ENDBRANCH   7   9
BRANCH   8  18
HETATM   18  S1  UNL     1      -1.367   1.856  -0.027  1.00  0.00     0.262 S 
HETATM   19  O1  UNL     1      -2.275   2.338   1.048  1.00  0.00    -0.201 OA
HETATM   20  O2  UNL     1      -0.141   2.805   0.125  1.00  0.00    -0.201 OA
BRANCH  18  21
HETATM   21  N9  UNL     1      -1.915   2.192  -1.626  1.00  0.00    -0.324 N 
ATOM     22  H92 UNL     1      -1.906   1.500  -2.375  1.00  0.00     0.169 HD
ATOM     23  H91 UNL     1      -2.243   3.153  -1.724  1.00  0.00     0.169 HD
ENDBRANCH  18  21
ENDBRANCH   8  18
BRANCH   4  24
HETATM   24  N3  UNL     1       0.762  -3.536   0.518  1.00  0.00    -0.234 N 
ATOM     25  H32 UNL     1       1.767  -3.708   0.512  1.00  0.00     0.174 HD
ATOM     26  H31 UNL     1       0.153  -4.347   0.624  1.00  0.00     0.174 HD
ENDBRANCH   4  24
BRANCH   1  27
HETATM   27  N1  UNL     1       1.313   1.020  -0.007  1.00  0.00    -0.371 N 
ATOM     28  H1  UNL     1       0.833   1.916  -0.094  1.00  0.00     0.161 HD
BRANCH  27  29
HETATM   29  C2  UNL     1       2.720   1.035  -0.049  1.00  0.00     0.075 C 
HETATM   30  C1  UNL     1       3.408   0.578   1.228  1.00  0.00     0.031 C 
HETATM   31  C3  UNL     1       3.355   0.315  -1.208  1.00  0.00     0.031 C 
ENDBRANCH  27  29
ENDBRANCH   1  27
TORSDOF 6
