REMARK  4 active torsions:
REMARK  status: ('A' for Active; 'I' for Inactive)
REMARK    1  A    between atoms: C2_2  and  C4_4 
REMARK    2  A    between atoms: C2_2  and  S1_7 
REMARK    3  A    between atoms: S1_7  and  C5_10 
REMARK    4  A    between atoms: C7_16  and  N3_17 
ROOT
HETATM    1  C5  UNL     1       0.037   0.006   0.956  1.00  0.00     0.206 A 
HETATM    2  N1  UNL     1       0.757  -0.836   0.199  1.00  0.00    -0.317 N 
ATOM      3  H1  UNL     1       0.391  -1.688  -0.226  1.00  0.00     0.169 HD
HETATM    4  C6  UNL     1       2.028  -0.405   0.076  1.00  0.00     0.155 A 
HETATM    5  N2  UNL     1       3.126  -0.859  -0.553  1.00  0.00    -0.174 N 
ATOM      6  H2  UNL     1       3.052  -1.729  -1.080  1.00  0.00     0.186 HD
HETATM    7  C7  UNL     1       4.311  -0.237  -0.529  1.00  0.00     0.680 A 
HETATM    8  N4  UNL     1       4.388   0.910   0.172  1.00  0.00    -0.154 N 
ATOM      9  H4  UNL     1       5.278   1.406   0.209  1.00  0.00     0.187 HD
HETATM   10  C8  UNL     1       3.329   1.424   0.826  1.00  0.00     0.290 A 
HETATM   11  O5  UNL     1       3.394   2.500   1.486  1.00  0.00    -0.265 OA
HETATM   12  C9  UNL     1       2.112   0.767   0.791  1.00  0.00     0.148 A 
HETATM   13  N5  UNL     1       0.895   0.993   1.313  1.00  0.00    -0.325 N 
ATOM     14  H5  UNL     1       0.651   1.794   1.896  1.00  0.00     0.168 HD
ENDROOT
BRANCH   1  15
HETATM   15  S1  UNL     1      -1.652  -0.155   1.380  1.00  0.00     0.225 S 
HETATM   16  O3  UNL     1      -1.896  -1.406   2.187  1.00  0.00    -0.218 OA
HETATM   17  O4  UNL     1      -2.036   1.003   2.257  1.00  0.00    -0.218 OA
BRANCH  15  18
HETATM   18  C2  UNL     1      -2.676  -0.178  -0.078  1.00  0.00     0.152 C 
HETATM   19  C1  UNL     1      -2.453   1.123  -0.803  1.00  0.00     0.044 C 
HETATM   20  C3  UNL     1      -2.338  -1.368  -0.953  1.00  0.00     0.044 C 
BRANCH  18  21
HETATM   21  C4  UNL     1      -4.107  -0.291   0.272  1.00  0.00     0.197 C 
HETATM   22  O1  UNL     1      -4.888   0.633  -0.052  1.00  0.00    -0.647 OA
HETATM   23  O2  UNL     1      -4.633  -1.377   0.947  1.00  0.00    -0.647 OA
ENDBRANCH  18  21
ENDBRANCH  15  18
ENDBRANCH   1  15
BRANCH   7  24
HETATM   24  N3  UNL     1       5.357  -0.675  -1.132  1.00  0.00    -0.234 N 
ATOM     25  H32 UNL     1       5.299  -1.544  -1.663  1.00  0.00     0.174 HD
ATOM     26  H31 UNL     1       6.260  -0.201  -1.114  1.00  0.00     0.174 HD
ENDBRANCH   7  24
TORSDOF 4
