REMARK  4 active torsions:
REMARK  status: ('A' for Active; 'I' for Inactive)
REMARK    1  A    between atoms: N1_1  and  C1_4 
REMARK    2  A    between atoms: C3_9  and  C4_10 
REMARK    3  A    between atoms: C4_10  and  C5_12 
REMARK    4  A    between atoms: C5_12  and  C6_13 
REMARK       I    between atoms: C6_13  and  N5_15 
ROOT
HETATM    1  C1  UNL     1      -4.228  -1.841  -0.006  1.00  0.00     0.680 A 
HETATM    2  N2  UNL     1      -4.340  -0.552  -0.360  1.00  0.00    -0.178 N 
ATOM      3  H2  UNL     1      -5.236  -0.194  -0.691  1.00  0.00     0.185 HD
HETATM    4  C2  UNL     1      -3.297   0.260  -0.283  1.00  0.00     0.149 A 
HETATM    5  N3  UNL     1      -3.473   1.601  -0.665  1.00  0.00    -0.081 NA
HETATM    6  C3  UNL     1      -2.037  -0.230   0.177  1.00  0.00     0.098 A 
HETATM    7  C11 UNL     1      -1.970  -1.540   0.535  1.00  0.00     0.275 A 
HETATM    8  O3  UNL     1      -0.945  -2.063   0.980  1.00  0.00    -0.267 OA
HETATM    9  N6  UNL     1      -3.066  -2.342   0.440  1.00  0.00    -0.155 N 
ATOM     10  H6  UNL     1      -3.004  -3.324   0.708  1.00  0.00     0.187 HD
ENDROOT
BRANCH   6  11
HETATM   11  C4  UNL     1      -0.960   0.771   0.230  1.00  0.00     0.070 C 
HETATM   12  N4  UNL     1      -1.478   2.109   0.153  1.00  0.00    -0.101 NA
BRANCH  11  13
HETATM   13  C5  UNL     1       0.295   0.562  -0.507  1.00  0.00     0.102 C 
BRANCH  13  14
HETATM   14  C6  UNL     1       1.300  -0.427  -0.368  1.00  0.00     0.252 C 
HETATM   15  O1  UNL     1       1.118  -1.628  -0.667  1.00  0.00    -0.268 OA
HETATM   16  N5  UNL     1       2.637  -0.176   0.126  1.00  0.00    -0.283 N 
HETATM   17  C7  UNL     1       3.519  -1.302   0.392  1.00  0.00     0.145 C 
HETATM   18  C10 UNL     1       3.063   1.167   0.209  1.00  0.00     0.235 C 
HETATM   19  C8  UNL     1       4.844  -0.803   0.939  1.00  0.00     0.095 C 
HETATM   20  S1  UNL     1       5.515   0.298  -0.344  1.00  0.00    -0.158 SA
HETATM   21  C9  UNL     1       4.304   1.675  -0.461  1.00  0.00     0.177 C 
HETATM   22  O2  UNL     1       2.378   1.974   0.880  1.00  0.00    -0.272 OA
ENDBRANCH  13  14
ENDBRANCH  11  13
ENDBRANCH   6  11
BRANCH   1  23
HETATM   23  N1  UNL     1      -5.214  -2.646  -0.155  1.00  0.00    -0.234 N 
ATOM     24  H12 UNL     1      -6.097  -2.265  -0.494  1.00  0.00     0.174 HD
ATOM     25  H11 UNL     1      -5.129  -3.626   0.114  1.00  0.00     0.174 HD
ENDBRANCH   1  23
TORSDOF 4
