REMARK  4 active torsions:
REMARK  status: ('A' for Active; 'I' for Inactive)
REMARK    1  A    between atoms: C2_2  and  N1_3 
REMARK    2  A    between atoms: C2_2  and  C5_10 
REMARK    3  A    between atoms: N1_3  and  N2_4 
REMARK    4  A    between atoms: N2_4  and  S1_6 
ROOT
HETATM    1  C5  UNL     1       0.658  -0.627  -0.516  1.00  0.00     0.089 A 
HETATM    2  C6  UNL     1       0.970   0.604   0.024  1.00  0.00     0.150 A 
HETATM    3  N3  UNL     1       2.325   0.710   0.126  1.00  0.00    -0.136 N 
HETATM    4  C7  UNL     1       3.158   1.674   0.573  1.00  0.00     0.698 A 
HETATM    5  N4  UNL     1       2.635   2.766   1.018  1.00  0.00    -0.233 N 
ATOM      6  H41 UNL     1       3.264   3.494   1.356  1.00  0.00     0.174 HD
ATOM      7  H42 UNL     1       1.621   2.877   1.023  1.00  0.00     0.174 HD
HETATM    8  N5  UNL     1       4.495   1.527   0.567  1.00  0.00    -0.130 N 
ATOM      9  H5  UNL     1       5.090   2.279   0.914  1.00  0.00     0.205 HD
HETATM   10  N6  UNL     1       5.045   0.406   0.111  1.00  0.00    -0.268 N 
ATOM     11  H6  UNL     1       6.058   0.286   0.102  1.00  0.00     0.189 HD
HETATM   12  C8  UNL     1       4.231  -0.567  -0.339  1.00  0.00     0.160 A 
HETATM   13  N7  UNL     1       4.727  -1.650  -0.781  1.00  0.00    -0.381 N 
ATOM     14  H71 UNL     1       4.110  -2.387  -1.122  1.00  0.00     0.157 HD
ATOM     15  H72 UNL     1       5.742  -1.746  -0.779  1.00  0.00     0.157 HD
HETATM   16  C9  UNL     1       2.850  -0.436  -0.342  1.00  0.00     0.174 A 
HETATM   17  N8  UNL     1       1.837  -1.233  -0.725  1.00  0.00    -0.335 N 
ATOM     18  H8  UNL     1       1.949  -2.167  -1.119  1.00  0.00     0.168 HD
ENDROOT
BRANCH   1  19
HETATM   19  C2  UNL     1      -0.711  -1.148  -0.797  1.00  0.00     0.134 C 
HETATM   20  C1  UNL     1      -0.747  -2.546  -1.394  1.00  0.00     0.090 C 
BRANCH  19  21
HETATM   21  N1  UNL     1      -1.680  -0.511  -0.566  1.00  0.00    -0.317 NA
BRANCH  21  22
HETATM   22  N2  UNL     1      -2.741   0.188  -0.313  1.00  0.00    -0.157 N 
HETATM   23  C3  UNL     1      -2.767   1.665  -0.394  1.00  0.00     0.207 C 
BRANCH  22  24
HETATM   24  S1  UNL     1      -4.227  -0.627   0.148  1.00  0.00     0.251 S 
HETATM   25  C4  UNL     1      -4.742  -0.152   1.757  1.00  0.00     0.188 C 
HETATM   26  O1  UNL     1      -4.028  -2.109   0.072  1.00  0.00    -0.204 OA
HETATM   27  O2  UNL     1      -5.316  -0.252  -0.839  1.00  0.00    -0.204 OA
ENDBRANCH  22  24
ENDBRANCH  21  22
ENDBRANCH  19  21
ENDBRANCH   1  19
TORSDOF 4
