REMARK  5 active torsions:
REMARK  status: ('A' for Active; 'I' for Inactive)
REMARK       I    between atoms: C2_2  and  N1_4 
REMARK    1  A    between atoms: N1_4  and  N2_5 
REMARK    2  A    between atoms: C3_7  and  C4_8 
REMARK    3  A    between atoms: C4_8  and  N3_9 
REMARK    4  A    between atoms: N3_9  and  N4_11 
REMARK    5  A    between atoms: N4_11  and  C5_13 
ROOT
HETATM    1  C5  UNL     1      -0.733   0.356  -0.442  1.00  0.00     0.701 A 
HETATM    2  N5  UNL     1      -0.694   0.076   0.870  1.00  0.00    -0.154 N 
ATOM      3  H5  UNL     1       0.188   0.009   1.378  1.00  0.00     0.187 HD
HETATM    4  C6  UNL     1      -1.896  -0.115   1.489  1.00  0.00     0.279 A 
HETATM    5  O2  UNL     1      -1.884  -0.379   2.730  1.00  0.00    -0.266 OA
HETATM    6  C7  UNL     1      -3.092  -0.028   0.814  1.00  0.00     0.145 A 
HETATM    7  C8  UNL     1      -4.317  -0.225   1.414  1.00  0.00     0.266 A 
HETATM    8  O3  UNL     1      -4.299  -0.491   2.655  1.00  0.00    -0.267 OA
HETATM    9  N6  UNL     1      -5.467  -0.134   0.706  1.00  0.00    -0.312 N 
ATOM     10  H6  UNL     1      -6.358  -0.284   1.180  1.00  0.00     0.170 HD
HETATM   11  C9  UNL     1      -5.462   0.150  -0.610  1.00  0.00     0.081 A 
HETATM   12  C10 UNL     1      -6.740   0.252  -1.397  1.00  0.00     0.089 C 
HETATM   13  N7  UNL     1      -4.274   0.342  -1.201  1.00  0.00    -0.331 N 
ATOM     14  H7  UNL     1      -4.253   0.558  -2.198  1.00  0.00     0.168 HD
HETATM   15  C11 UNL     1      -3.103   0.261  -0.530  1.00  0.00     0.143 A 
HETATM   16  N8  UNL     1      -1.924   0.446  -1.122  1.00  0.00    -0.174 N 
ATOM     17  H8  UNL     1      -1.904   0.663  -2.118  1.00  0.00     0.186 HD
ENDROOT
BRANCH   1  18
HETATM   18  N4  UNL     1       0.350   0.540  -1.088  1.00  0.00    -0.132 N 
ATOM     19  H4  UNL     1       0.247   0.751  -2.081  1.00  0.00     0.205 HD
BRANCH  18  20
HETATM   20  N3  UNL     1       1.592   0.491  -0.632  1.00  0.00    -0.296 N 
ATOM     21  H3  UNL     1       2.158  -0.193  -1.134  1.00  0.00     0.186 HD
BRANCH  20  22
HETATM   22  C4  UNL     1       2.244   1.075   0.261  1.00  0.00     0.127 C 
BRANCH  22  23
HETATM   23  C3  UNL     1       3.658   0.717   0.453  1.00  0.00     0.139 C 
HETATM   24  N2  UNL     1       4.128  -0.172  -0.302  1.00  0.00    -0.242 N 
ATOM     25  H2  UNL     1       3.451  -0.542  -0.970  1.00  0.00     0.201 HD
BRANCH  24  26
HETATM   26  N1  UNL     1       5.311  -0.715  -0.400  1.00  0.00    -0.288 NA
HETATM   27  C2  UNL     1       6.543  -1.281  -0.502  1.00  0.00     0.308 C 
HETATM   28  C1  UNL     1       7.721  -0.471   0.028  1.00  0.00     0.137 C 
HETATM   29  O1  UNL     1       6.906  -2.401  -0.974  1.00  0.00    -0.256 OA
ENDBRANCH  24  26
ENDBRANCH  22  23
ENDBRANCH  20  22
ENDBRANCH  18  20
ENDBRANCH   1  18
TORSDOF 5
