REMARK  5 active torsions:
REMARK  status: ('A' for Active; 'I' for Inactive)
REMARK    1  A    between atoms: C3_6  and  C4_7 
REMARK    2  A    between atoms: C4_7  and  C5_8 
REMARK    3  A    between atoms: C7_12  and  N4_13 
REMARK    4  A    between atoms: C9_20  and  S1_21 
REMARK    5  A    between atoms: S1_21  and  N6_22 
ROOT
HETATM    1  C5  UNL     1      -0.096  -0.051   0.106  1.00  0.00     0.036 C 
HETATM    2  C6  UNL     1      -1.425  -0.497  -0.251  1.00  0.00     0.078 A 
HETATM    3  N3  UNL     1      -1.608  -1.523  -1.138  1.00  0.00    -0.190 N 
ATOM      4  H3  UNL     1      -0.798  -1.992  -1.542  1.00  0.00     0.184 HD
HETATM    5  C7  UNL     1      -2.861  -1.922  -1.485  1.00  0.00     0.679 A 
HETATM    6  N5  UNL     1      -3.918  -1.312  -0.958  1.00  0.00    -0.155 N 
ATOM      7  H5  UNL     1      -4.858  -1.610  -1.219  1.00  0.00     0.187 HD
HETATM    8  C8  UNL     1      -3.756  -0.309  -0.088  1.00  0.00     0.285 A 
HETATM    9  O1  UNL     1      -4.786   0.231   0.378  1.00  0.00    -0.266 OA
HETATM   10  C9  UNL     1      -2.509   0.136   0.298  1.00  0.00     0.174 A 
ENDROOT
BRANCH   1  11
HETATM   11  C4  UNL     1       0.968  -0.649  -0.389  1.00  0.00     0.052 C 
BRANCH  11  12
HETATM   12  C3  UNL     1       2.317  -0.168  -0.004  1.00  0.00     0.120 A 
HETATM   13  N2  UNL     1       2.562   0.866   0.840  1.00  0.00    -0.336 N 
HETATM   14  C2  UNL     1       3.891   1.021   0.959  1.00  0.00     0.201 A 
ATOM     15  H2  UNL     1       1.854   1.432   1.307  1.00  0.00     0.168 HD
HETATM   16  N1  UNL     1       4.471   0.082   0.188  1.00  0.00    -0.290 N 
HETATM   17  C1  UNL     1       5.909  -0.053   0.069  1.00  0.00     0.178 C 
HETATM   18  N7  UNL     1       3.519  -0.624  -0.383  1.00  0.00    -0.283 N 
ATOM     19  H7  UNL     1       3.673  -1.405  -1.021  1.00  0.00     0.189 HD
ENDBRANCH  11  12
ENDBRANCH   1  11
BRANCH  10  20
HETATM   20  S1  UNL     1      -2.348   1.390   1.440  1.00  0.00     0.264 S 
HETATM   21  O2  UNL     1      -1.362   1.188   2.521  1.00  0.00    -0.200 OA
HETATM   22  O3  UNL     1      -3.709   1.493   2.169  1.00  0.00    -0.200 OA
BRANCH  20  23
HETATM   23  N6  UNL     1      -2.096   2.946   0.742  1.00  0.00    -0.324 N 
ATOM     24  H62 UNL     1      -2.050   3.087  -0.267  1.00  0.00     0.169 HD
ATOM     25  H61 UNL     1      -2.000   3.697   1.426  1.00  0.00     0.169 HD
ENDBRANCH  20  23
ENDBRANCH  10  20
BRANCH   5  26
HETATM   26  N4  UNL     1      -2.947  -2.898  -2.329  1.00  0.00    -0.234 N 
ATOM     27  H42 UNL     1      -2.136  -3.366  -2.733  1.00  0.00     0.174 HD
ATOM     28  H41 UNL     1      -3.887  -3.197  -2.589  1.00  0.00     0.174 HD
ENDBRANCH   5  26
TORSDOF 5
