REMARK  6 active torsions:
REMARK  status: ('A' for Active; 'I' for Inactive)
REMARK    1  A    between atoms: N1_2  and  C2_4 
REMARK    2  A    between atoms: C2_4  and  O1_5 
REMARK    3  A    between atoms: C5_13  and  C6_14 
REMARK    4  A    between atoms: C9_19  and  N5_20 
REMARK       I    between atoms: N5_20  and  C10_22 
REMARK    5  A    between atoms: C10_22  and  C11_24 
REMARK    6  A    between atoms: N8_34  and  O3_35 
ROOT
HETATM    1  C6  UNL     1       2.650   1.195   1.098  1.00  0.00     0.147 A 
HETATM    2  N4  UNL     1       2.300   0.001   0.590  1.00  0.00    -0.342 N 
ATOM      3  H4  UNL     1       3.039  -0.684   0.430  1.00  0.00     0.167 HD
HETATM    4  C7  UNL     1       1.060  -0.345   0.284  1.00  0.00     0.035 A 
HETATM    5  C8  UNL     1       0.751  -1.677  -0.271  1.00  0.00     0.070 C 
HETATM    6  C9  UNL     1      -0.005   0.549   0.480  1.00  0.00     0.075 A 
HETATM    7  C16 UNL     1       0.337   1.759   0.992  1.00  0.00     0.156 A 
HETATM    8  N8  UNL     1       1.635   2.047   1.284  1.00  0.00    -0.216 N 
ENDROOT
BRANCH   1   9
HETATM    9  C5  UNL     1       4.046   1.478   1.379  1.00  0.00     0.059 A 
HETATM   10  C3  UNL     1       5.172   0.939   0.888  1.00  0.00     0.114 A 
HETATM   11  C2  UNL     1       5.403  -0.104  -0.070  1.00  0.00     0.165 C 
HETATM   12  N2  UNL     1       6.231   1.575   1.517  1.00  0.00    -0.296 N 
HETATM   13  N3  UNL     1       5.805   2.467   2.353  1.00  0.00    -0.310 N 
ATOM     14  H2  UNL     1       7.215   1.368   1.344  1.00  0.00     0.187 HD
HETATM   15  C4  UNL     1       4.464   2.442   2.300  1.00  0.00     0.124 A 
ATOM     16  H3  UNL     1       6.379   3.073   2.940  1.00  0.00     0.186 HD
BRANCH  11  17
HETATM   17  N1  UNL     1       4.722  -0.330  -1.270  1.00  0.00    -0.373 N 
HETATM   18  C1  UNL     1       5.099  -1.462  -2.119  1.00  0.00     0.148 C 
ATOM     19  H1  UNL     1       3.965   0.292  -1.553  1.00  0.00     0.161 HD
ENDBRANCH  11  17
BRANCH  11  20
HETATM   20  O1  UNL     1       6.361  -0.955   0.170  1.00  0.00    -0.345 OA
ATOM     21  H1  UNL     1       6.824  -0.801   0.985  1.00  0.00     0.219 HD
ENDBRANCH  11  20
ENDBRANCH   1   9
BRANCH   8  22
HETATM   22  O3  UNL     1       1.859   3.296   1.773  1.00  0.00    -0.281 OA
ATOM     23  H3  UNL     1       1.138   3.901   1.905  1.00  0.00     0.245 HD
ENDBRANCH   8  22
BRANCH   6  24
HETATM   24  N5  UNL     1      -1.317   0.158   0.147  1.00  0.00    -0.318 N 
HETATM   25  C10 UNL     1      -2.499   0.887   0.262  1.00  0.00     0.290 C 
HETATM   26  O2  UNL     1      -2.577   2.044   0.696  1.00  0.00    -0.264 OA
ATOM     27  H5  UNL     1      -1.415  -0.785  -0.229  1.00  0.00     0.169 HD
BRANCH  25  28
HETATM   28  C11 UNL     1      -3.796   0.296  -0.146  1.00  0.00     0.175 A 
HETATM   29  N6  UNL     1      -5.021   0.832  -0.111  1.00  0.00    -0.340 N 
HETATM   30  C12 UNL     1      -5.912  -0.059  -0.577  1.00  0.00     0.029 A 
ATOM     31  H6  UNL     1      -5.244   1.771   0.218  1.00  0.00     0.167 HD
HETATM   32  C13 UNL     1      -7.377   0.120  -0.713  1.00  0.00     0.070 C 
HETATM   33  C14 UNL     1      -5.244  -1.197  -0.921  1.00  0.00     0.029 A 
HETATM   34  C15 UNL     1      -5.813  -2.452  -1.483  1.00  0.00     0.070 C 
HETATM   35  N7  UNL     1      -3.939  -0.957  -0.647  1.00  0.00    -0.340 N 
ATOM     36  H7  UNL     1      -3.178  -1.619  -0.795  1.00  0.00     0.167 HD
ENDBRANCH  25  28
ENDBRANCH   6  24
TORSDOF 6
