REMARK  5 active torsions:
REMARK  status: ('A' for Active; 'I' for Inactive)
REMARK       I    between atoms: C2_2  and  N1_4 
REMARK    1  A    between atoms: N1_4  and  N2_6 
REMARK    2  A    between atoms: C3_8  and  O2_9 
REMARK    3  A    between atoms: C3_8  and  C4_11 
REMARK       I    between atoms: N4_26  and  C17_27 
REMARK    4  A    between atoms: C17_27  and  C18_29 
REMARK    5  A    between atoms: C18_29  and  N5_31 
ROOT
HETATM    1  C4  UNL     1       1.715  -0.327  -0.153  1.00  0.00     0.062 C 
HETATM    2  C5  UNL     1       1.648   1.031   0.478  1.00  0.00     0.015 C 
HETATM    3  C6  UNL     1       0.472   1.290   1.336  1.00  0.00     0.033 C 
HETATM    4  C7  UNL     1      -0.618   0.325   1.162  1.00  0.00     0.051 C 
HETATM    5  C8  UNL     1       0.014  -1.021   1.552  1.00  0.00     0.033 C 
HETATM    6  C9  UNL     1       1.193  -1.410   0.749  1.00  0.00     0.015 C 
HETATM    7  C10 UNL     1      -1.708   0.482   2.257  1.00  0.00     0.145 C 
HETATM    8  N3  UNL     1      -2.473  -0.740   2.202  1.00  0.00    -0.413 N 
ATOM      9  H3  UNL     1      -2.593  -1.344   3.015  1.00  0.00     0.153 HD
HETATM   10  C11 UNL     1      -3.049  -1.046   0.935  1.00  0.00     0.099 C 
HETATM   11  C12 UNL     1      -3.661  -2.402   1.009  1.00  0.00     0.027 C 
HETATM   12  C13 UNL     1      -4.051  -3.026  -0.277  1.00  0.00     0.002 C 
HETATM   13  C14 UNL     1      -3.032  -2.847  -1.375  1.00  0.00     0.002 C 
HETATM   14  C15 UNL     1      -2.659  -1.336  -1.486  1.00  0.00     0.027 C 
HETATM   15  C16 UNL     1      -2.030  -1.018  -0.202  1.00  0.00     0.110 C 
HETATM   16  N4  UNL     1      -1.378   0.298  -0.053  1.00  0.00    -0.333 N 
HETATM   17  C17 UNL     1      -1.600   1.331  -0.969  1.00  0.00     0.251 C 
HETATM   18  O3  UNL     1      -2.257   0.996  -2.039  1.00  0.00    -0.271 OA
ENDROOT
BRANCH  17  19
HETATM   19  C18 UNL     1      -1.238   2.737  -0.958  1.00  0.00     0.271 C 
HETATM   20  C19 UNL     1      -2.170   3.573  -0.055  1.00  0.00     0.050 C 
BRANCH  19  21
HETATM   21  N5  UNL     1      -1.537   3.315  -2.304  1.00  0.00    -0.067 N 
ATOM     22  H53 UNL     1      -1.085   2.800  -3.060  1.00  0.00     0.275 HD
ATOM     23  H52 UNL     1      -2.504   3.162  -2.589  1.00  0.00     0.275 HD
ATOM     24  H51 UNL     1      -1.283   4.303  -2.296  1.00  0.00     0.275 HD
ENDBRANCH  19  21
ENDBRANCH  17  19
BRANCH   1  25
HETATM   25  C3  UNL     1       3.129  -0.625  -0.463  1.00  0.00     0.134 C 
HETATM   26  N2  UNL     1       4.071   0.202  -0.199  1.00  0.00    -0.281 N 
ATOM     27  H2  UNL     1       3.816   1.087   0.239  1.00  0.00     0.189 HD
BRANCH  26  28
HETATM   28  N1  UNL     1       5.409  -0.020  -0.466  1.00  0.00    -0.269 N 
HETATM   29  C2  UNL     1       6.343   1.030  -0.258  1.00  0.00     0.232 C 
HETATM   30  C1  UNL     1       7.788   0.808  -0.540  1.00  0.00     0.119 C 
HETATM   31  O1  UNL     1       5.964   2.139   0.158  1.00  0.00    -0.272 OA
ATOM     32  H1  UNL     1       5.722  -0.928  -0.809  1.00  0.00     0.190 HD
ENDBRANCH  26  28
BRANCH  25  33
HETATM   33  O2  UNL     1       3.455  -1.827  -1.056  1.00  0.00    -0.348 OA
ATOM     34  H2  UNL     1       2.756  -2.440  -1.252  1.00  0.00     0.219 HD
ENDBRANCH  25  33
ENDBRANCH   1  25
TORSDOF 5
