REMARK  8 active torsions:
REMARK  status: ('A' for Active; 'I' for Inactive)
REMARK    1  A    between atoms: N1_2  and  C2_4 
REMARK    2  A    between atoms: C2_4  and  N2_6 
REMARK    3  A    between atoms: N2_6  and  N3_8 
REMARK       I    between atoms: N3_8  and  C3_10 
REMARK    4  A    between atoms: C3_10  and  C4_12 
REMARK    5  A    between atoms: C4_12  and  S2_13 
REMARK    6  A    between atoms: S2_13  and  C5_14 
REMARK    7  A    between atoms: C6_17  and  N5_18 
REMARK    8  A    between atoms: N5_18  and  C7_20 
ROOT
HETATM    1  C5  UNL     1       0.199   0.555  -0.532  1.00  0.00     0.161 A 
HETATM    2  N4  UNL     1      -0.996   0.913   0.003  1.00  0.00    -0.170 N 
ATOM      3  H4  UNL     1      -1.099   1.861   0.364  1.00  0.00     0.186 HD
HETATM    4  C6  UNL     1      -2.056   0.078   0.082  1.00  0.00     0.681 A 
HETATM    5  N6  UNL     1      -1.911  -1.169  -0.394  1.00  0.00    -0.181 N 
ATOM      6  H6  UNL     1      -2.690  -1.826  -0.350  1.00  0.00     0.185 HD
HETATM    7  C13 UNL     1      -0.726  -1.556  -0.935  1.00  0.00     0.095 A 
HETATM    8  C14 UNL     1      -0.626  -2.957  -1.426  1.00  0.00     0.089 C 
HETATM    9  N7  UNL     1       0.303  -0.698  -0.997  1.00  0.00    -0.326 N 
ATOM     10  H7  UNL     1       1.185  -1.006  -1.407  1.00  0.00     0.169 HD
ENDROOT
BRANCH   1  11
HETATM   11  S2  UNL     1       1.538   1.742  -0.638  1.00  0.00    -0.084 SA
BRANCH  11  12
HETATM   12  C4  UNL     1       2.680   1.492   0.738  1.00  0.00     0.186 C 
BRANCH  12  13
HETATM   13  C3  UNL     1       3.478   0.230   0.571  1.00  0.00     0.245 C 
HETATM   14  N3  UNL     1       4.794   0.387   0.069  1.00  0.00    -0.267 N 
ATOM     15  H3  UNL     1       5.141   1.322  -0.143  1.00  0.00     0.190 HD
HETATM   16  O1  UNL     1       2.948  -0.847   0.875  1.00  0.00    -0.271 OA
BRANCH  14  17
HETATM   17  N2  UNL     1       5.618  -0.710  -0.139  1.00  0.00    -0.274 N 
ATOM     18  H2  UNL     1       5.205  -1.641  -0.202  1.00  0.00     0.189 HD
BRANCH  17  19
HETATM   19  C2  UNL     1       7.041  -0.560  -0.268  1.00  0.00     0.186 C 
HETATM   20  S1  UNL     1       7.931  -1.919  -0.514  1.00  0.00    -0.040 SA
BRANCH  19  21
HETATM   21  N1  UNL     1       7.684   0.695  -0.193  1.00  0.00    -0.370 N 
HETATM   22  C1  UNL     1       9.113   0.775  -0.330  1.00  0.00     0.148 C 
ATOM     23  H1  UNL     1       7.136   1.542  -0.042  1.00  0.00     0.161 HD
ENDBRANCH  19  21
ENDBRANCH  17  19
ENDBRANCH  14  17
ENDBRANCH  12  13
ENDBRANCH  11  12
ENDBRANCH   1  11
BRANCH   4  24
HETATM   24  N5  UNL     1      -3.177   0.471   0.594  1.00  0.00    -0.221 N 
ATOM     25  H5  UNL     1      -3.264   1.425   0.945  1.00  0.00     0.178 HD
BRANCH  24  26
HETATM   26  C7  UNL     1      -4.306  -0.423   0.674  1.00  0.00     0.099 C 
HETATM   27  C8  UNL     1      -5.237   0.011   1.767  1.00  0.00     0.026 C 
HETATM   28  C9  UNL     1      -5.935   1.303   1.484  1.00  0.00     0.002 C 
HETATM   29  C10 UNL     1      -6.000   1.618   0.005  1.00  0.00     0.000 C 
HETATM   30  C11 UNL     1      -6.275   0.303  -0.694  1.00  0.00     0.002 C 
HETATM   31  C12 UNL     1      -4.969  -0.459  -0.676  1.00  0.00     0.026 C 
ENDBRANCH  24  26
ENDBRANCH   4  24
TORSDOF 8
