REMARK  8 active torsions:
REMARK  status: ('A' for Active; 'I' for Inactive)
REMARK       I    between atoms: N1_2  and  C2_4 
REMARK    1  A    between atoms: C2_4  and  C3_6 
REMARK    2  A    between atoms: C3_6  and  N2_7 
REMARK    3  A    between atoms: C3_6  and  C13_23 
REMARK    4  A    between atoms: N2_7  and  C4_10 
REMARK    5  A    between atoms: C4_10  and  C5_11 
REMARK    6  A    between atoms: C5_11  and  N3_12 
REMARK    7  A    between atoms: N3_12  and  C6_14 
REMARK    8  A    between atoms: C10_19  and  O2_20 
ROOT
HETATM    1  C4  UNL     1      -1.169  -1.165   1.186  1.00  0.00     0.253 C 
ENDROOT
BRANCH   1   2
HETATM    2  N2  UNL     1      -1.662  -1.060  -0.140  1.00  0.00    -0.054 N 
ATOM      3  H22 UNL     1      -1.456  -1.911  -0.664  1.00  0.00     0.278 HD
ATOM      4  H21 UNL     1      -1.109  -0.388  -0.672  1.00  0.00     0.278 HD
BRANCH   2   5
HETATM    5  C3  UNL     1      -3.054  -0.743  -0.232  1.00  0.00     0.345 C 
BRANCH   5   6
HETATM    6  C2  UNL     1      -3.414   0.604   0.272  1.00  0.00     0.255 C 
HETATM    7  N1  UNL     1      -4.733   1.065   0.441  1.00  0.00    -0.363 N 
HETATM    8  C1  UNL     1      -4.962   2.411   0.939  1.00  0.00     0.149 C 
ATOM      9  H1  UNL     1      -5.522   0.459   0.216  1.00  0.00     0.161 HD
HETATM   10  O1  UNL     1      -2.476   1.423   0.585  1.00  0.00    -0.271 OA
ENDBRANCH   5   6
BRANCH   5  11
HETATM   11  C13 UNL     1      -3.440  -0.917  -1.658  1.00  0.00     0.163 C 
HETATM   12  C14 UNL     1      -4.820  -0.664  -2.089  1.00  0.00     0.093 C 
HETATM   13  O3  UNL     1      -2.598  -1.273  -2.476  1.00  0.00    -0.296 OA
ENDBRANCH   5  11
ENDBRANCH   2   5
ENDBRANCH   1   2
BRANCH   1  14
HETATM   14  C5  UNL     1       0.339  -1.466   1.160  1.00  0.00     0.147 C 
BRANCH  14  15
HETATM   15  N3  UNL     1       0.981  -0.377   0.479  1.00  0.00    -0.388 N 
ATOM     16  H3  UNL     1       0.415   0.405   0.149  1.00  0.00     0.159 HD
BRANCH  15  17
HETATM   17  C6  UNL     1       2.404  -0.360   0.250  1.00  0.00     0.032 A 
HETATM   18  C7  UNL     1       3.177  -1.423   0.646  1.00  0.00     0.055 A 
HETATM   19  C8  UNL     1       4.561  -1.410   0.423  1.00  0.00     0.051 A 
HETATM   20  N4  UNL     1       5.396  -2.480   0.809  1.00  0.00    -0.102 NA
HETATM   21  C9  UNL     1       5.180  -0.327  -0.199  1.00  0.00     0.063 A 
HETATM   22  C10 UNL     1       4.392   0.734  -0.590  1.00  0.00     0.072 A 
HETATM   23  C12 UNL     1       3.019   0.705  -0.362  1.00  0.00     0.066 A 
BRANCH  22  24
HETATM   24  O2  UNL     1       5.019   1.801  -1.206  1.00  0.00    -0.356 OA
HETATM   25  C11 UNL     1       4.364   2.957  -1.663  1.00  0.00     0.210 C 
ENDBRANCH  22  24
ENDBRANCH  15  17
ENDBRANCH  14  15
ENDBRANCH   1  14
TORSDOF 8
