REMARK  7 active torsions:
REMARK  status: ('A' for Active; 'I' for Inactive)
REMARK    1  A    between atoms: C2_3  and  C3_4 
REMARK    2  A    between atoms: C3_4  and  N2_5 
REMARK    3  A    between atoms: N5_14  and  C8_15 
REMARK    4  A    between atoms: C8_15  and  C9_16 
REMARK       I    between atoms: C9_16  and  N6_18 
REMARK    5  A    between atoms: N6_18  and  C10_20 
REMARK    6  A    between atoms: C10_20  and  C11_21 
REMARK    7  A    between atoms: C11_21  and  N7_22 
REMARK       I    between atoms: N7_22  and  C12_24 
ROOT
HETATM    1  N1  UNL     1      -6.559   0.172   2.058  1.00  0.00    -0.197 NA
HETATM    2  C1  UNL     1      -6.134  -0.565   1.278  1.00  0.00     0.060 C 
HETATM    3  C2  UNL     1      -5.571  -1.492   0.288  1.00  0.00     0.144 C 
ENDROOT
BRANCH   3   4
HETATM    4  C3  UNL     1      -4.143  -1.837   0.677  1.00  0.00     0.145 C 
BRANCH   4   5
HETATM    5  N2  UNL     1      -3.311  -0.646   0.727  1.00  0.00    -0.325 N 
HETATM    6  C4  UNL     1      -3.075   0.160   1.783  1.00  0.00     0.186 A 
HETATM    7  N3  UNL     1      -2.247   1.158   1.425  1.00  0.00    -0.335 N 
HETATM    8  C5  UNL     1      -1.927   1.016   0.118  1.00  0.00     0.155 A 
ATOM      9  H3  UNL     1      -1.914   1.901   2.039  1.00  0.00     0.168 HD
HETATM   10  C6  UNL     1      -2.599  -0.112  -0.301  1.00  0.00     0.154 A 
HETATM   11  N5  UNL     1      -1.217   1.547  -0.913  1.00  0.00    -0.317 N 
HETATM   12  N4  UNL     1      -2.277  -0.247  -1.606  1.00  0.00    -0.335 N 
HETATM   13  C7  UNL     1      -1.448   0.743  -1.986  1.00  0.00     0.186 A 
ATOM     14  H4  UNL     1      -2.614  -0.992  -2.216  1.00  0.00     0.168 HD
BRANCH  11  15
HETATM   15  C8  UNL     1      -0.386   2.730  -0.873  1.00  0.00     0.234 C 
BRANCH  15  16
HETATM   16  C9  UNL     1       1.006   2.368  -0.518  1.00  0.00     0.235 C 
HETATM   17  O1  UNL     1       1.894   3.234  -0.430  1.00  0.00    -0.272 OA
HETATM   18  N6  UNL     1       1.322   1.017  -0.278  1.00  0.00    -0.358 N 
ATOM     19  H6  UNL     1       0.602   0.298  -0.346  1.00  0.00     0.162 HD
BRANCH  18  20
HETATM   20  C10 UNL     1       2.684   0.662   0.067  1.00  0.00     0.142 C 
BRANCH  20  21
HETATM   21  C11 UNL     1       2.787  -0.821   0.270  1.00  0.00     0.142 C 
BRANCH  21  22
HETATM   22  N7  UNL     1       4.146  -1.172   0.608  1.00  0.00    -0.363 N 
HETATM   23  C12 UNL     1       5.215  -1.071  -0.311  1.00  0.00     0.181 C 
HETATM   24  N8  UNL     1       5.018  -0.752  -1.544  1.00  0.00    -0.374 N 
HETATM   25  N9  UNL     1       6.536  -1.326   0.121  1.00  0.00    -0.064 NA
ATOM     26  H82 UNL     1       4.064  -0.568  -1.856  1.00  0.00     0.158 HD
ATOM     27  H81 UNL     1       5.789  -0.679  -2.207  1.00  0.00     0.158 HD
ATOM     28  H7  UNL     1       4.343  -1.507   1.551  1.00  0.00     0.162 HD
ENDBRANCH  21  22
ENDBRANCH  20  21
ENDBRANCH  18  20
ENDBRANCH  15  16
ENDBRANCH  11  15
ENDBRANCH   4   5
ENDBRANCH   3   4
TORSDOF 7
