REMARK  9 active torsions:
REMARK  status: ('A' for Active; 'I' for Inactive)
REMARK    1  A    between atoms: N1_2  and  C2_4 
REMARK    2  A    between atoms: C2_4  and  C3_5 
REMARK    3  A    between atoms: C2_4  and  C12_22 
REMARK    4  A    between atoms: C3_5  and  C4_6 
REMARK    5  A    between atoms: C4_6  and  C5_7 
REMARK       I    between atoms: C5_7  and  N2_9 
REMARK    6  A    between atoms: N2_9  and  N3_11 
REMARK    7  A    between atoms: C6_13  and  C7_14 
REMARK    8  A    between atoms: C8_15  and  N4_16 
REMARK    9  A    between atoms: N7_24  and  O2_26 
ROOT
HETATM    1  C5  UNL     1      -0.296   0.941  -1.971  1.00  0.00     0.236 C 
HETATM    2  O1  UNL     1      -0.040   2.135  -1.853  1.00  0.00    -0.272 OA
HETATM    3  N2  UNL     1       0.362   0.104  -2.878  1.00  0.00    -0.270 N 
ATOM      4  H2  UNL     1       0.127  -0.886  -2.948  1.00  0.00     0.190 HD
ENDROOT
BRANCH   1   5
HETATM    5  C4  UNL     1      -1.375   0.337  -1.096  1.00  0.00     0.107 C 
BRANCH   5   6
HETATM    6  C3  UNL     1      -1.925   1.341  -0.166  1.00  0.00     0.041 C 
BRANCH   6   7
HETATM    7  C2  UNL     1      -2.950   0.836   0.784  1.00  0.00     0.143 C 
BRANCH   7   8
HETATM    8  N1  UNL     1      -4.109   0.269   0.249  1.00  0.00    -0.415 N 
HETATM    9  C1  UNL     1      -4.100  -0.927  -0.481  1.00  0.00     0.140 C 
ATOM     10  H1  UNL     1      -4.999   0.745   0.396  1.00  0.00     0.153 HD
ENDBRANCH   7   8
BRANCH   7  11
HETATM   11  C12 UNL     1      -2.346   0.061   1.903  1.00  0.00     0.135 C 
HETATM   12  N6  UNL     1      -3.096  -0.246   3.051  1.00  0.00    -0.084 NA
HETATM   13  N7  UNL     1      -1.141  -0.319   1.823  1.00  0.00    -0.257 N 
ATOM     14  H7  UNL     1      -0.627  -0.072   0.978  1.00  0.00     0.195 HD
BRANCH  13  15
HETATM   15  O2  UNL     1      -0.480  -1.027   2.770  1.00  0.00    -0.289 OA
ATOM     16  H2  UNL     1       0.424  -1.312   2.710  1.00  0.00     0.244 HD
ENDBRANCH  13  15
ENDBRANCH   7  11
ENDBRANCH   6   7
ENDBRANCH   5   6
ENDBRANCH   1   5
BRANCH   3  17
HETATM   17  N3  UNL     1       1.351   0.669  -3.683  1.00  0.00    -0.309 N 
HETATM   18  C6  UNL     1       2.534   0.824  -3.219  1.00  0.00     0.108 C 
ATOM     19  H3  UNL     1       1.133   0.957  -4.637  1.00  0.00     0.186 HD
BRANCH  18  20
HETATM   20  C7  UNL     1       2.827   0.407  -1.863  1.00  0.00     0.038 C 
HETATM   21  C8  UNL     1       4.034   0.569  -1.389  1.00  0.00     0.117 C 
BRANCH  21  22
HETATM   22  N4  UNL     1       4.329   0.162  -0.059  1.00  0.00    -0.279 N 
HETATM   23  C9  UNL     1       3.494  -0.395   0.797  1.00  0.00     0.117 A 
HETATM   24  C10 UNL     1       4.173  -0.630   1.971  1.00  0.00     0.038 A 
HETATM   25  C11 UNL     1       5.445  -0.179   1.748  1.00  0.00     0.109 A 
HETATM   26  N5  UNL     1       5.517   0.293   0.521  1.00  0.00    -0.306 N 
ATOM     27  H5  UNL     1       6.349   0.694   0.087  1.00  0.00     0.186 HD
ENDBRANCH  21  22
ENDBRANCH  18  20
ENDBRANCH   3  17
TORSDOF 9
