REMARK  8 active torsions:
REMARK  status: ('A' for Active; 'I' for Inactive)
REMARK    1  A    between atoms: N1_2  and  C2_5 
REMARK    2  A    between atoms: C2_5  and  C3_6 
REMARK    3  A    between atoms: C4_11  and  C5_12 
REMARK    4  A    between atoms: C5_12  and  N4_13 
REMARK    5  A    between atoms: N4_13  and  C6_14 
REMARK    6  A    between atoms: N4_13  and  C7_16 
REMARK    7  A    between atoms: C10_19  and  C11_20 
REMARK    8  A    between atoms: N6_22  and  O2_24 
ROOT
HETATM    1  N4  UNL     1       0.526  -2.300  -0.219  1.00  0.00    -0.318 N 
ENDROOT
BRANCH   1   2
HETATM    2  C5  UNL     1      -0.431  -2.444   0.824  1.00  0.00     0.217 C 
BRANCH   2   3
HETATM    3  C4  UNL     1      -1.729  -1.785   0.558  1.00  0.00     0.158 A 
HETATM    4  N3  UNL     1      -2.705  -2.220  -0.296  1.00  0.00    -0.280 N 
HETATM    5  N2  UNL     1      -3.696  -1.356  -0.241  1.00  0.00    -0.280 N 
ATOM      6  H3  UNL     1      -2.671  -3.062  -0.871  1.00  0.00     0.189 HD
HETATM    7  C3  UNL     1      -3.374  -0.376   0.631  1.00  0.00     0.166 A 
ATOM      8  H2  UNL     1      -4.566  -1.416  -0.771  1.00  0.00     0.189 HD
HETATM    9  O3  UNL     1      -2.188  -0.688   1.075  1.00  0.00    -0.279 OA
BRANCH   7  10
HETATM   10  C2  UNL     1      -4.212   0.810   0.999  1.00  0.00     0.317 C 
BRANCH  10  11
HETATM   11  N1  UNL     1      -5.440   0.772   0.224  1.00  0.00    -0.072 N 
HETATM   12  C1  UNL     1      -6.274   1.909   0.556  1.00  0.00     0.267 C 
ATOM     13  H12 UNL     1      -5.936  -0.112   0.339  1.00  0.00     0.277 HD
ATOM     14  H11 UNL     1      -5.257   0.712  -0.778  1.00  0.00     0.277 HD
ENDBRANCH  10  11
ENDBRANCH   7  10
ENDBRANCH   2   3
ENDBRANCH   1   2
BRANCH   1  15
HETATM   15  C6  UNL     1       0.568  -3.268  -1.276  1.00  0.00     0.356 C 
HETATM   16  O1  UNL     1      -0.257  -4.220  -1.270  1.00  0.00    -0.283 OA
ENDBRANCH   1  15
BRANCH   1  17
HETATM   17  C7  UNL     1       1.443  -1.221  -0.201  1.00  0.00     0.037 A 
HETATM   18  C8  UNL     1       2.782  -1.545  -0.117  1.00  0.00     0.030 A 
HETATM   19  C9  UNL     1       3.719  -0.550  -0.100  1.00  0.00     0.017 A 
HETATM   20  C10 UNL     1       3.370   0.804  -0.164  1.00  0.00     0.007 A 
HETATM   21  C12 UNL     1       2.043   1.107  -0.247  1.00  0.00     0.017 A 
HETATM   22  C13 UNL     1       1.089   0.101  -0.266  1.00  0.00     0.030 A 
BRANCH  20  23
HETATM   23  C11 UNL     1       4.416   1.815  -0.143  1.00  0.00     0.146 C 
HETATM   24  N5  UNL     1       5.768   1.411  -0.069  1.00  0.00    -0.080 NA
HETATM   25  N6  UNL     1       4.147   3.070  -0.193  1.00  0.00    -0.255 N 
ATOM     26  H6  UNL     1       3.170   3.357  -0.250  1.00  0.00     0.195 HD
BRANCH  25  27
HETATM   27  O2  UNL     1       5.118   4.043  -0.173  1.00  0.00    -0.288 OA
ATOM     28  H2  UNL     1       4.919   4.971  -0.210  1.00  0.00     0.244 HD
ENDBRANCH  25  27
ENDBRANCH  20  23
ENDBRANCH   1  17
TORSDOF 8
