REMARK  14 active torsions:
REMARK  status: ('A' for Active; 'I' for Inactive)
REMARK    1  A    between atoms: S1_2  and  C2_3 
REMARK    2  A    between atoms: C2_3  and  C3_4 
REMARK    3  A    between atoms: C2_3  and  C12_26 
REMARK    4  A    between atoms: C3_4  and  O1_5 
REMARK    5  A    between atoms: O1_5  and  C4_6 
REMARK    6  A    between atoms: C4_6  and  C5_7 
REMARK    7  A    between atoms: C5_7  and  O2_8 
REMARK    8  A    between atoms: C5_7  and  C6_10 
REMARK    9  A    between atoms: C6_10  and  O3_11 
REMARK   10  A    between atoms: C6_10  and  C7_13 
REMARK   11  A    between atoms: C7_13  and  N1_14 
REMARK   12  A    between atoms: C7_13  and  C8_18 
REMARK   13  A    between atoms: C8_18  and  C9_19 
REMARK   14  A    between atoms: C12_26  and  N4_27 
ROOT
HETATM    1  C5  UNL     1       0.975   0.638   0.578  1.00  0.00     0.172 C 
ENDROOT
BRANCH   1   2
HETATM    2  C4  UNL     1      -0.031   0.674  -0.577  1.00  0.00     0.201 C 
BRANCH   2   3
HETATM    3  O1  UNL     1      -1.246   0.632  -0.282  1.00  0.00    -0.387 OA
BRANCH   3   4
HETATM    4  C3  UNL     1      -2.446   0.587   0.013  1.00  0.00     0.184 C 
BRANCH   4   5
HETATM    5  C2  UNL     1      -3.187  -0.633  -0.606  1.00  0.00     0.089 C 
BRANCH   5   6
HETATM    6  S1  UNL     1      -2.283  -2.076   0.086  1.00  0.00    -0.165 SA
HETATM    7  C1  UNL     1      -2.597  -2.079   1.870  1.00  0.00     0.090 C 
ENDBRANCH   5   6
BRANCH   5   8
HETATM    8  C12 UNL     1      -4.585  -0.752  -0.108  1.00  0.00     0.146 C 
BRANCH   8   9
HETATM    9  N4  UNL     1      -5.484   0.292  -0.539  1.00  0.00    -0.350 N 
HETATM   10  C13 UNL     1      -6.240   0.280  -1.667  1.00  0.00     0.108 A 
HETATM   11  C14 UNL     1      -6.958   1.432  -1.720  1.00  0.00     0.106 A 
HETATM   12  N5  UNL     1      -6.662   2.165  -0.639  1.00  0.00    -0.361 N 
HETATM   13  C15 UNL     1      -5.757   1.438   0.061  1.00  0.00     0.182 A 
ATOM     14  H5  UNL     1      -7.039   3.080  -0.393  1.00  0.00     0.166 HD
ENDBRANCH   8   9
ENDBRANCH   5   8
ENDBRANCH   4   5
ENDBRANCH   3   4
ENDBRANCH   2   3
ENDBRANCH   1   2
BRANCH   1  15
HETATM   15  O2  UNL     1       0.700   1.734   1.429  1.00  0.00    -0.391 OA
ATOM     16  H2  UNL     1       1.324   1.712   2.145  1.00  0.00     0.210 HD
ENDBRANCH   1  15
BRANCH   1  17
HETATM   17  C6  UNL     1       2.393   0.817   0.115  1.00  0.00     0.179 C 
BRANCH  17  18
HETATM   18  O3  UNL     1       3.237   0.896   1.260  1.00  0.00    -0.391 OA
ATOM     19  H3  UNL     1       4.134   1.009   0.967  1.00  0.00     0.210 HD
ENDBRANCH  17  18
BRANCH  17  20
HETATM   20  C7  UNL     1       2.826  -0.341  -0.719  1.00  0.00     0.220 C 
BRANCH  20  21
HETATM   21  N1  UNL     1       2.739  -1.596   0.019  1.00  0.00    -0.072 N 
ATOM     22  H13 UNL     1       3.261  -1.551   0.894  1.00  0.00     0.274 HD
ATOM     23  H12 UNL     1       1.804  -1.740   0.400  1.00  0.00     0.274 HD
ATOM     24  H11 UNL     1       3.035  -2.388  -0.551  1.00  0.00     0.274 HD
ENDBRANCH  20  21
BRANCH  20  25
HETATM   25  C8  UNL     1       4.181  -0.220  -1.345  1.00  0.00     0.094 C 
BRANCH  25  26
HETATM   26  C9  UNL     1       5.315  -0.060  -0.441  1.00  0.00     0.027 A 
HETATM   27  C10 UNL     1       6.067  -1.036   0.166  1.00  0.00     0.114 A 
HETATM   28  N2  UNL     1       7.016  -0.426   0.884  1.00  0.00    -0.360 N 
HETATM   29  C11 UNL     1       6.879   0.898   0.744  1.00  0.00     0.180 A 
ATOM     30  H2  UNL     1       7.728  -0.893   1.446  1.00  0.00     0.166 HD
HETATM   31  N3  UNL     1       5.837   1.141  -0.069  1.00  0.00    -0.355 N 
ATOM     32  H3  UNL     1       5.498   2.059  -0.356  1.00  0.00     0.166 HD
ENDBRANCH  25  26
ENDBRANCH  20  25
ENDBRANCH  17  20
ENDBRANCH   1  17
TORSDOF 14
