REMARK  10 active torsions:
REMARK  status: ('A' for Active; 'I' for Inactive)
REMARK    1  A    between atoms: O1_2  and  C2_3 
REMARK    2  A    between atoms: C2_3  and  C3_5 
REMARK    3  A    between atoms: C3_5  and  C4_6 
REMARK    4  A    between atoms: C3_5  and  C12_25 
REMARK       I    between atoms: C4_6  and  N1_8 
REMARK    5  A    between atoms: N1_8  and  C5_10 
REMARK    6  A    between atoms: C5_10  and  C6_11 
REMARK    7  A    between atoms: C6_11  and  O5_13 
REMARK    8  A    between atoms: O5_13  and  C7_14 
REMARK    9  A    between atoms: C7_14  and  C8_15 
REMARK   10  A    between atoms: C13_31  and  N6_32 
ROOT
HETATM    1  C4  UNL     1      -2.041   0.310  -0.793  1.00  0.00     0.237 C 
HETATM    2  O3  UNL     1      -1.328   0.602  -1.786  1.00  0.00    -0.272 OA
HETATM    3  N1  UNL     1      -1.777   0.850   0.491  1.00  0.00    -0.351 N 
ATOM      4  H1  UNL     1      -2.385   0.585   1.266  1.00  0.00     0.163 HD
ENDROOT
BRANCH   1   5
HETATM    5  C3  UNL     1      -3.183  -0.619  -0.968  1.00  0.00     0.232 C 
BRANCH   5   6
HETATM    6  C2  UNL     1      -4.428   0.131  -0.670  1.00  0.00     0.277 C 
HETATM    7  O2  UNL     1      -5.260   0.274  -1.608  1.00  0.00    -0.264 OA
BRANCH   6   8
HETATM    8  O1  UNL     1      -4.721   0.674   0.569  1.00  0.00    -0.326 OA
HETATM    9  C1  UNL     1      -5.930   1.363   0.737  1.00  0.00     0.213 C 
ENDBRANCH   6   8
ENDBRANCH   5   6
BRANCH   5  10
HETATM   10  C12 UNL     1      -3.193  -1.080  -2.391  1.00  0.00     0.102 A 
HETATM   11  N4  UNL     1      -3.539  -0.362  -3.462  1.00  0.00    -0.241 N 
HETATM   12  O6  UNL     1      -3.419  -1.107  -4.522  1.00  0.00    -0.155 OA
ATOM     13  H4  UNL     1      -3.847   0.610  -3.451  1.00  0.00     0.196 HD
HETATM   14  N5  UNL     1      -3.002  -2.298  -4.166  1.00  0.00    -0.224 N 
HETATM   15  C13 UNL     1      -2.842  -2.339  -2.828  1.00  0.00     0.147 A 
ATOM     16  H5  UNL     1      -2.826  -3.074  -4.804  1.00  0.00     0.198 HD
BRANCH  15  17
HETATM   17  N6  UNL     1      -2.454  -3.305  -2.083  1.00  0.00    -0.382 N 
ATOM     18  H62 UNL     1      -2.333  -3.336  -1.071  1.00  0.00     0.157 HD
ATOM     19  H61 UNL     1      -2.194  -4.237  -2.406  1.00  0.00     0.157 HD
ENDBRANCH  15  17
ENDBRANCH   5  10
ENDBRANCH   1   5
BRANCH   3  20
HETATM   20  C5  UNL     1      -0.694   1.751   0.749  1.00  0.00     0.233 C 
BRANCH  20  21
HETATM   21  C6  UNL     1       0.639   1.104   0.452  1.00  0.00     0.276 C 
HETATM   22  O4  UNL     1       0.713  -0.070   0.067  1.00  0.00    -0.263 OA
BRANCH  21  23
HETATM   23  O5  UNL     1       1.745   1.836   0.616  1.00  0.00    -0.319 OA
BRANCH  23  24
HETATM   24  C7  UNL     1       3.071   1.554   0.449  1.00  0.00     0.201 C 
BRANCH  24  25
HETATM   25  C8  UNL     1       3.654   0.553   1.369  1.00  0.00     0.050 C 
HETATM   26  C9  UNL     1       3.524   0.934   2.827  1.00  0.00     0.031 C 
HETATM   27  C10 UNL     1       5.191   0.448   1.075  1.00  0.00     0.144 C 
HETATM   28  N2  UNL     1       5.656  -0.739   1.705  1.00  0.00    -0.369 N 
HETATM   29  C11 UNL     1       4.845  -1.862   1.447  1.00  0.00     0.134 C 
ATOM     30  H2  UNL     1       6.494  -0.774   2.286  1.00  0.00     0.161 HD
HETATM   31  N3  UNL     1       5.138  -3.086   1.449  1.00  0.00    -0.380 N 
HETATM   32  S1  UNL     1       3.235  -1.171   1.098  1.00  0.00    -0.081 SA
ATOM     33  H32 UNL     1       6.057  -3.481   1.648  1.00  0.00     0.158 HD
ATOM     34  H31 UNL     1       4.551  -3.899   1.262  1.00  0.00     0.158 HD
ENDBRANCH  24  25
ENDBRANCH  23  24
ENDBRANCH  21  23
ENDBRANCH  20  21
ENDBRANCH   3  20
TORSDOF 10
