REMARK  11 active torsions:
REMARK  status: ('A' for Active; 'I' for Inactive)
REMARK    1  A    between atoms: C2_2  and  O1_3 
REMARK    2  A    between atoms: O1_3  and  C3_4 
REMARK       I    between atoms: C3_4  and  N1_6 
REMARK       I    between atoms: N1_6  and  C4_8 
REMARK    3  A    between atoms: C4_8  and  C5_10 
REMARK    4  A    between atoms: C5_10  and  O4_11 
REMARK    5  A    between atoms: C5_10  and  C12_26 
REMARK    6  A    between atoms: O4_11  and  C6_12 
REMARK    7  A    between atoms: C6_12  and  C7_14 
REMARK    8  A    between atoms: C7_14  and  O6_15 
REMARK    9  A    between atoms: N2_21  and  O7_23 
REMARK   10  A    between atoms: C12_26  and  O9_27 
REMARK   11  A    between atoms: C12_26  and  C13_29 
REMARK       I    between atoms: C13_29  and  N3_31 
ROOT
HETATM    1  C5  UNL     1      -0.795   0.707  -0.279  1.00  0.00     0.262 C 
ENDROOT
BRANCH   1   2
HETATM    2  C4  UNL     1      -1.484  -0.503   0.228  1.00  0.00     0.258 C 
HETATM    3  N1  UNL     1      -2.874  -0.558   0.356  1.00  0.00    -0.271 N 
HETATM    4  C3  UNL     1      -3.543  -1.731   0.864  1.00  0.00     0.367 C 
ATOM      5  H1  UNL     1      -3.430   0.252   0.083  1.00  0.00     0.174 HD
HETATM    6  O2  UNL     1      -4.792  -1.752   0.968  1.00  0.00    -0.238 OA
HETATM    7  O3  UNL     1      -0.791  -1.495   0.546  1.00  0.00    -0.270 OA
BRANCH   4   8
HETATM    8  O1  UNL     1      -2.757  -2.813   1.225  1.00  0.00    -0.304 OA
BRANCH   8   9
HETATM    9  C2  UNL     1      -3.420  -3.961   1.722  1.00  0.00     0.176 C 
HETATM   10  C1  UNL     1      -4.366  -4.481   0.670  1.00  0.00     0.034 C 
ENDBRANCH   8   9
ENDBRANCH   4   8
ENDBRANCH   1   2
BRANCH   1  11
HETATM   11  O4  UNL     1       0.599   0.435  -0.448  1.00  0.00    -0.299 OA
BRANCH  11  12
HETATM   12  C6  UNL     1       1.289   0.565  -1.618  1.00  0.00     0.323 C 
HETATM   13  O5  UNL     1       0.601   0.978  -2.616  1.00  0.00    -0.259 OA
BRANCH  12  14
HETATM   14  C7  UNL     1       2.708   0.259  -1.755  1.00  0.00     0.259 C 
HETATM   15  C8  UNL     1       3.646   0.941  -0.830  1.00  0.00     0.080 C 
HETATM   16  C9  UNL     1       3.615   0.411   0.579  1.00  0.00     0.014 C 
HETATM   17  C10 UNL     1       3.795  -1.073   0.650  1.00  0.00     0.086 C 
HETATM   18  C11 UNL     1       2.991  -1.775  -0.383  1.00  0.00     0.141 C 
HETATM   19  N2  UNL     1       2.404  -2.891  -0.119  1.00  0.00    -0.251 N 
HETATM   20  O8  UNL     1       2.917  -1.158  -1.624  1.00  0.00    -0.290 OA
ATOM     21  H2  UNL     1       1.852  -3.372  -0.829  1.00  0.00     0.196 HD
BRANCH  14  22
HETATM   22  O6  UNL     1       3.106   0.529  -3.085  1.00  0.00    -0.357 OA
ATOM     23  H6  UNL     1       4.031   0.330  -3.174  1.00  0.00     0.213 HD
ENDBRANCH  14  22
BRANCH  19  24
HETATM   24  O7  UNL     1       2.540  -3.415   1.137  1.00  0.00    -0.288 OA
ATOM     25  H7  UNL     1       2.107  -4.238   1.332  1.00  0.00     0.244 HD
ENDBRANCH  19  24
ENDBRANCH  12  14
ENDBRANCH  11  12
ENDBRANCH   1  11
BRANCH   1  26
HETATM   26  C12 UNL     1      -0.968   1.796   0.752  1.00  0.00     0.248 C 
BRANCH  26  27
HETATM   27  O9  UNL     1      -2.309   2.113   0.985  1.00  0.00    -0.383 OA
ATOM     28  H9  UNL     1      -2.418   2.798   1.634  1.00  0.00     0.210 HD
ENDBRANCH  26  27
BRANCH  26  29
HETATM   29  C13 UNL     1      -0.280   3.040   0.363  1.00  0.00     0.249 C 
HETATM   30  O10 UNL     1       0.947   3.110   0.080  1.00  0.00    -0.271 OA
HETATM   31  N3  UNL     1      -0.980   4.284   0.281  1.00  0.00    -0.363 N 
HETATM   32  C14 UNL     1      -0.354   5.529  -0.095  1.00  0.00     0.149 C 
ATOM     33  H3  UNL     1      -1.976   4.292   0.500  1.00  0.00     0.162 HD
ENDBRANCH  26  29
ENDBRANCH   1  26
TORSDOF 11
