REMARK  7 active torsions:
REMARK  status: ('A' for Active; 'I' for Inactive)
REMARK    1  A    between atoms: C2_5  and  N3_6 
REMARK    2  A    between atoms: N3_6  and  N4_8 
REMARK    3  A    between atoms: N5_10  and  C3_12 
REMARK    4  A    between atoms: C7_22  and  S2_23 
REMARK    5  A    between atoms: S2_23  and  N8_26 
REMARK    6  A    between atoms: N8_26  and  C8_28 
REMARK    7  A    between atoms: C8_28  and  C9_29 
ROOT
HETATM    1  N1  UNL     1      -0.221   2.443   1.286  1.00  0.00    -0.080 NA
HETATM    2  C1  UNL     1       0.009   1.191   0.704  1.00  0.00     0.161 A 
HETATM    3  N2  UNL     1       0.977   0.357   1.106  1.00  0.00    -0.176 N 
ATOM      4  H2  UNL     1       1.587   0.634   1.875  1.00  0.00     0.185 HD
HETATM    5  C2  UNL     1       1.161  -0.835   0.518  1.00  0.00     0.702 A 
HETATM    6  N7  UNL     1       0.395  -1.261  -0.498  1.00  0.00    -0.153 N 
ATOM      7  H7  UNL     1       0.559  -2.173  -0.925  1.00  0.00     0.187 HD
HETATM    8  C6  UNL     1      -0.587  -0.468  -0.940  1.00  0.00     0.286 A 
HETATM    9  O1  UNL     1      -1.296  -0.905  -1.909  1.00  0.00    -0.266 OA
HETATM   10  C7  UNL     1      -0.794   0.759  -0.352  1.00  0.00     0.189 A 
ENDROOT
BRANCH   5  11
HETATM   11  N3  UNL     1       2.098  -1.615   0.925  1.00  0.00    -0.117 N 
ATOM     12  H3  UNL     1       2.687  -1.304   1.697  1.00  0.00     0.207 HD
BRANCH  11  13
HETATM   13  N4  UNL     1       2.345  -2.853   0.368  1.00  0.00    -0.226 N 
HETATM   14  N5  UNL     1       3.412  -3.182  -0.234  1.00  0.00    -0.265 N 
ATOM     15  H5  UNL     1       3.549  -4.112  -0.630  1.00  0.00     0.190 HD
ATOM     16  H4  UNL     1       1.613  -3.559   0.446  1.00  0.00     0.209 HD
BRANCH  14  17
HETATM   17  C3  UNL     1       4.420  -2.152  -0.322  1.00  0.00     0.164 A 
HETATM   18  N6  UNL     1       4.193  -0.877  -0.596  1.00  0.00    -0.345 N 
HETATM   19  C4  UNL     1       5.178  -0.042  -0.648  1.00  0.00     0.097 A 
ATOM     20  H6  UNL     1       3.241  -0.554  -0.766  1.00  0.00     0.167 HD
HETATM   21  C5  UNL     1       6.439  -0.525  -0.414  1.00  0.00     0.070 A 
HETATM   22  S1  UNL     1       6.113  -2.187  -0.127  1.00  0.00    -0.063 SA
ENDBRANCH  14  17
ENDBRANCH  11  13
ENDBRANCH   5  11
BRANCH  10  23
HETATM   23  S2  UNL     1      -2.080   1.758  -0.965  1.00  0.00     0.268 S 
HETATM   24  O2  UNL     1      -2.314   1.373  -2.414  1.00  0.00    -0.200 OA
HETATM   25  O3  UNL     1      -1.710   3.211  -0.965  1.00  0.00    -0.200 OA
BRANCH  23  26
HETATM   26  N8  UNL     1      -3.505   1.448  -0.080  1.00  0.00    -0.305 N 
ATOM     27  H8  UNL     1      -3.982   2.162   0.471  1.00  0.00     0.172 HD
BRANCH  26  28
HETATM   28  C8  UNL     1      -3.972   0.102  -0.177  1.00  0.00     0.245 C 
BRANCH  28  29
HETATM   29  C9  UNL     1      -5.213  -0.132   0.601  1.00  0.00     0.191 C 
HETATM   30  O4  UNL     1      -5.726   0.801   1.241  1.00  0.00    -0.647 OA
HETATM   31  O5  UNL     1      -5.794  -1.385   0.611  1.00  0.00    -0.647 OA
ENDBRANCH  28  29
ENDBRANCH  26  28
ENDBRANCH  23  26
ENDBRANCH  10  23
TORSDOF 7
