REMARK  8 active torsions:
REMARK  status: ('A' for Active; 'I' for Inactive)
REMARK    1  A    between atoms: N1_2  and  S1_4 
REMARK    2  A    between atoms: S1_4  and  N2_6 
REMARK    3  A    between atoms: S1_4  and  C4_11 
REMARK       I    between atoms: N2_6  and  C2_8 
REMARK    4  A    between atoms: C4_11  and  C5_12 
REMARK    5  A    between atoms: C4_11  and  C12_32 
REMARK    6  A    between atoms: N3_13  and  N4_15 
REMARK       I    between atoms: N4_15  and  C6_17 
REMARK    7  A    between atoms: C6_17  and  C7_19 
REMARK    8  A    between atoms: C9_21  and  O4_22 
ROOT
HETATM    1  C5  UNL     1      -0.982  -0.140  -0.585  1.00  0.00     0.111 C 
HETATM    2  N3  UNL     1      -0.103   0.291  -1.392  1.00  0.00    -0.311 N 
ATOM      3  H3  UNL     1      -0.452   0.626  -2.290  1.00  0.00     0.185 HD
ENDROOT
BRANCH   2   4
HETATM    4  N4  UNL     1       1.254   0.366  -1.215  1.00  0.00    -0.265 N 
HETATM    5  C6  UNL     1       2.008  -0.499  -0.428  1.00  0.00     0.287 C 
HETATM    6  O3  UNL     1       1.420  -1.441   0.185  1.00  0.00    -0.264 OA
ATOM      7  H4  UNL     1       1.750   1.115  -1.698  1.00  0.00     0.190 HD
BRANCH   5   8
HETATM    8  C7  UNL     1       3.433  -0.371  -0.280  1.00  0.00     0.122 A 
HETATM    9  C8  UNL     1       4.097  -1.236   0.564  1.00  0.00     0.092 A 
HETATM   10  C9  UNL     1       5.459  -1.170   0.750  1.00  0.00     0.159 A 
HETATM   11  N5  UNL     1       6.130  -0.206   0.058  1.00  0.00    -0.171 N 
HETATM   12  C11 UNL     1       5.505   0.643  -0.766  1.00  0.00     0.678 A 
ATOM     13  H5  UNL     1       7.141  -0.129   0.172  1.00  0.00     0.186 HD
HETATM   14  N6  UNL     1       6.106   1.563  -1.435  1.00  0.00    -0.234 N 
HETATM   15  N7  UNL     1       4.151   0.550  -0.927  1.00  0.00    -0.186 N 
ATOM     16  H62 UNL     1       7.117   1.632  -1.315  1.00  0.00     0.174 HD
ATOM     17  H61 UNL     1       5.630   2.210  -2.063  1.00  0.00     0.174 HD
ATOM     18  H7  UNL     1       3.678   1.199  -1.556  1.00  0.00     0.184 HD
BRANCH  10  19
HETATM   19  O4  UNL     1       6.126  -2.040   1.599  1.00  0.00    -0.340 OA
HETATM   20  C10 UNL     1       7.522  -1.903   1.731  1.00  0.00     0.211 C 
ENDBRANCH  10  19
ENDBRANCH   5   8
ENDBRANCH   2   4
BRANCH   1  21
HETATM   21  C4  UNL     1      -2.397  -0.100  -1.055  1.00  0.00     0.247 C 
BRANCH  21  22
HETATM   22  S1  UNL     1      -3.450   0.111   0.341  1.00  0.00     0.127 S 
HETATM   23  O1  UNL     1      -3.127   1.347   1.122  1.00  0.00    -0.227 OA
BRANCH  22  24
HETATM   24  N1  UNL     1      -3.297  -1.095   1.316  1.00  0.00    -0.339 N 
HETATM   25  C1  UNL     1      -3.581  -0.834   2.703  1.00  0.00     0.157 C 
ATOM     26  H1  UNL     1      -3.011  -2.018   0.990  1.00  0.00     0.170 HD
ENDBRANCH  22  24
BRANCH  22  27
HETATM   27  N2  UNL     1      -5.078   0.248  -0.211  1.00  0.00    -0.271 N 
HETATM   28  C2  UNL     1      -5.942   1.292   0.173  1.00  0.00     0.225 C 
HETATM   29  C3  UNL     1      -7.331   1.369  -0.329  1.00  0.00     0.118 C 
HETATM   30  O2  UNL     1      -5.530   2.173   0.953  1.00  0.00    -0.273 OA
ATOM     31  H2  UNL     1      -5.434  -0.464  -0.849  1.00  0.00     0.180 HD
ENDBRANCH  22  27
ENDBRANCH  21  22
BRANCH  21  32
HETATM   32  C12 UNL     1      -2.579   1.005  -2.018  1.00  0.00     0.197 C 
HETATM   33  O5  UNL     1      -3.407   1.926  -1.822  1.00  0.00    -0.647 OA
HETATM   34  O6  UNL     1      -1.815   1.052  -3.199  1.00  0.00    -0.647 OA
ENDBRANCH  21  32
ENDBRANCH   1  21
TORSDOF 8
