REMARK  11 active torsions:
REMARK  status: ('A' for Active; 'I' for Inactive)
REMARK    1  A    between atoms: C2_2  and  O1_3 
REMARK    2  A    between atoms: O1_3  and  C3_4 
REMARK    3  A    between atoms: C3_4  and  C4_6 
REMARK    4  A    between atoms: C4_6  and  N1_7 
REMARK    5  A    between atoms: N1_7  and  C6_9 
REMARK    6  A    between atoms: C7_12  and  N3_13 
REMARK    7  A    between atoms: N3_13  and  C8_15 
REMARK    8  A    between atoms: C8_15  and  N4_16 
REMARK    9  A    between atoms: C8_15  and  C9_20 
REMARK   10  A    between atoms: C11_30  and  N8_31 
REMARK   11  A    between atoms: C12_34  and  N9_35 
ROOT
HETATM    1  C6  UNL     1       0.580  -0.755  -0.806  1.00  0.00     0.156 A 
HETATM    2  N2  UNL     1      -0.445   0.079  -1.144  1.00  0.00    -0.174 N 
ATOM      3  H2  UNL     1      -0.235   0.986  -1.561  1.00  0.00     0.186 HD
HETATM    4  C7  UNL     1      -1.748  -0.277  -0.935  1.00  0.00     0.683 A 
HETATM    5  N7  UNL     1      -2.044  -1.456  -0.394  1.00  0.00    -0.174 N 
ATOM      6  H7  UNL     1      -3.017  -1.721  -0.239  1.00  0.00     0.186 HD
HETATM    7  C11 UNL     1      -1.039  -2.304  -0.049  1.00  0.00     0.151 A 
HETATM    8  C12 UNL     1       0.309  -1.975  -0.246  1.00  0.00     0.191 A 
ENDROOT
BRANCH   4   9
HETATM    9  N3  UNL     1      -2.678   0.526  -1.271  1.00  0.00    -0.189 N 
ATOM     10  H3  UNL     1      -2.423   1.420  -1.691  1.00  0.00     0.180 HD
BRANCH   9  11
HETATM   11  C8  UNL     1      -4.061   0.228  -1.085  1.00  0.00     0.373 C 
BRANCH  11  12
HETATM   12  N4  UNL     1      -4.753   1.034  -2.135  1.00  0.00    -0.050 N 
ATOM     13  H43 UNL     1      -4.533   2.030  -2.111  1.00  0.00     0.277 HD
ATOM     14  H42 UNL     1      -4.413   0.868  -3.082  1.00  0.00     0.277 HD
ATOM     15  H41 UNL     1      -5.742   0.821  -2.002  1.00  0.00     0.277 HD
ENDBRANCH  11  12
BRANCH  11  16
HETATM   16  C9  UNL     1      -4.569   0.721   0.234  1.00  0.00     0.194 A 
HETATM   17  N5  UNL     1      -3.939   0.628   1.393  1.00  0.00    -0.276 N 
HETATM   18  N6  UNL     1      -4.717   1.183   2.319  1.00  0.00    -0.243 N 
ATOM     19  H5  UNL     1      -3.023   0.207   1.549  1.00  0.00     0.189 HD
HETATM   20  C10 UNL     1      -5.819   1.605   1.683  1.00  0.00     0.386 A 
ATOM     21  H6  UNL     1      -4.515   1.270   3.315  1.00  0.00     0.192 HD
HETATM   22  O3  UNL     1      -6.792   2.182   2.215  1.00  0.00    -0.236 OA
HETATM   23  O4  UNL     1      -5.712   1.317   0.420  1.00  0.00    -0.241 OA
ENDBRANCH  11  16
ENDBRANCH   9  11
ENDBRANCH   4   9
BRANCH   1  24
HETATM   24  N1  UNL     1       1.907  -0.305  -1.028  1.00  0.00    -0.360 N 
HETATM   25  C5  UNL     1       3.023  -1.156  -1.341  1.00  0.00     0.152 C 
BRANCH  24  26
HETATM   26  C4  UNL     1       2.213   1.125  -1.011  1.00  0.00     0.235 C 
BRANCH  26  27
HETATM   27  C3  UNL     1       3.122   1.451   0.133  1.00  0.00     0.276 C 
HETATM   28  O2  UNL     1       3.426   2.645   0.369  1.00  0.00    -0.263 OA
BRANCH  27  29
HETATM   29  O1  UNL     1       3.647   0.478   0.949  1.00  0.00    -0.321 OA
BRANCH  29  30
HETATM   30  C2  UNL     1       4.511   0.752   2.046  1.00  0.00     0.174 C 
HETATM   31  C1  UNL     1       5.759   1.471   1.612  1.00  0.00     0.034 C 
ENDBRANCH  29  30
ENDBRANCH  27  29
ENDBRANCH  26  27
ENDBRANCH  24  26
ENDBRANCH   1  24
BRANCH   7  32
HETATM   32  N8  UNL     1      -1.341  -3.437   0.468  1.00  0.00    -0.383 N 
ATOM     33  H82 UNL     1      -2.322  -3.676   0.611  1.00  0.00     0.157 HD
ATOM     34  H81 UNL     1      -0.587  -4.073   0.727  1.00  0.00     0.157 HD
ENDBRANCH   7  32
BRANCH   8  35
HETATM   35  N9  UNL     1       1.255  -2.931   0.175  1.00  0.00    -0.108 N 
HETATM   36  O5  UNL     1       1.914  -2.824   1.225  1.00  0.00    -0.531 OA
HETATM   37  O6  UNL     1       1.447  -4.054  -0.586  1.00  0.00    -0.531 OA
ENDBRANCH   8  35
TORSDOF 11
