REMARK  12 active torsions:
REMARK  status: ('A' for Active; 'I' for Inactive)
REMARK    1  A    between atoms: O1_2  and  C2_3 
REMARK    2  A    between atoms: C2_3  and  C3_5 
REMARK    3  A    between atoms: C3_5  and  N1_6 
REMARK    4  A    between atoms: C6_12  and  C7_13 
REMARK       I    between atoms: C7_13  and  N2_15 
REMARK    5  A    between atoms: N2_15  and  C8_17 
REMARK    6  A    between atoms: C8_17  and  C9_18 
REMARK    7  A    between atoms: C8_17  and  C13_28 
REMARK       I    between atoms: C9_18  and  N3_20 
REMARK    8  A    between atoms: N3_20  and  C10_21 
REMARK    9  A    between atoms: N3_20  and  N4_24 
REMARK   10  A    between atoms: C10_21  and  S1_22 
REMARK   11  A    between atoms: C13_28  and  O5_29 
REMARK   12  A    between atoms: N6_31  and  O6_33 
ROOT
HETATM    1  N4  UNL     1       3.450   2.064  -1.020  1.00  0.00    -0.227 N 
ATOM      2  H4  UNL     1       3.595   3.018  -0.689  1.00  0.00     0.200 HD
HETATM    3  C12 UNL     1       3.778   1.717  -2.328  1.00  0.00     0.198 C 
HETATM    4  N5  UNL     1       4.076   1.422  -3.427  1.00  0.00    -0.170 NA
ENDROOT
BRANCH   1   5
HETATM    5  N3  UNL     1       2.908   1.070  -0.145  1.00  0.00    -0.218 N 
HETATM    6  C9  UNL     1       1.960   0.187  -0.671  1.00  0.00     0.274 C 
HETATM    7  O4  UNL     1       1.619   0.314  -1.901  1.00  0.00    -0.268 OA
BRANCH   6   8
HETATM    8  C8  UNL     1       1.280  -0.914   0.071  1.00  0.00     0.256 C 
BRANCH   8   9
HETATM    9  N2  UNL     1      -0.119  -0.844  -0.387  1.00  0.00    -0.340 N 
HETATM   10  C7  UNL     1      -1.159  -0.378   0.450  1.00  0.00     0.231 C 
HETATM   11  O3  UNL     1      -0.926   0.004   1.635  1.00  0.00    -0.273 OA
ATOM     12  H2  UNL     1      -0.344  -1.141  -1.337  1.00  0.00     0.163 HD
BRANCH  10  13
HETATM   13  C6  UNL     1      -2.534  -0.340  -0.080  1.00  0.00     0.091 A 
HETATM   14  C3  UNL     1      -3.576   0.287   0.757  1.00  0.00     0.231 A 
HETATM   15  C4  UNL     1      -3.610  -1.234   0.385  1.00  0.00     0.055 A 
HETATM   16  C5  UNL     1      -2.896  -1.620  -0.853  1.00  0.00     0.032 A 
BRANCH  14  17
HETATM   17  C2  UNL     1      -4.730   0.981   0.105  1.00  0.00     0.296 C 
HETATM   18  O2  UNL     1      -5.012   0.850  -1.107  1.00  0.00    -0.262 OA
BRANCH  17  19
HETATM   19  O1  UNL     1      -5.524   1.805   0.869  1.00  0.00    -0.324 OA
HETATM   20  C1  UNL     1      -6.641   2.525   0.410  1.00  0.00     0.213 C 
ENDBRANCH  17  19
ENDBRANCH  14  17
BRANCH  14  21
HETATM   21  N1  UNL     1      -3.414   0.585   2.139  1.00  0.00    -0.059 N 
ATOM     22  H13 UNL     1      -3.348   1.593   2.280  1.00  0.00     0.275 HD
ATOM     23  H12 UNL     1      -4.277   0.393   2.647  1.00  0.00     0.275 HD
ATOM     24  H11 UNL     1      -2.627   0.112   2.584  1.00  0.00     0.275 HD
ENDBRANCH  14  21
ENDBRANCH  10  13
ENDBRANCH   8   9
BRANCH   8  25
HETATM   25  C13 UNL     1       1.752  -2.246  -0.346  1.00  0.00     0.168 C 
HETATM   26  N6  UNL     1       0.958  -3.091  -0.896  1.00  0.00    -0.249 N 
ATOM     27  H6  UNL     1      -0.014  -2.819  -1.040  1.00  0.00     0.196 HD
BRANCH  25  28
HETATM   28  O5  UNL     1       3.058  -2.641  -0.164  1.00  0.00    -0.346 OA
ATOM     29  H5  UNL     1       3.362  -3.500  -0.433  1.00  0.00     0.219 HD
ENDBRANCH  25  28
BRANCH  26  30
HETATM   30  O6  UNL     1       1.352  -4.345  -1.301  1.00  0.00    -0.288 OA
ATOM     31  H6  UNL     1       0.764  -4.971  -1.708  1.00  0.00     0.244 HD
ENDBRANCH  26  30
ENDBRANCH   8  25
ENDBRANCH   6   8
BRANCH   5  32
HETATM   32  C10 UNL     1       3.351   1.034   1.206  1.00  0.00     0.164 C 
BRANCH  32  33
HETATM   33  S1  UNL     1       4.787   0.016   1.517  1.00  0.00    -0.127 SA
HETATM   34  C11 UNL     1       6.261   0.705   0.685  1.00  0.00     0.096 C 
ENDBRANCH  32  33
ENDBRANCH   5  32
ENDBRANCH   1   5
TORSDOF 12
