REMARK  1 active torsions:
REMARK  status: ('A' for Active; 'I' for Inactive)
REMARK    1  A    between atoms: O1_2  and  C2_3 
ROOT
HETATM    1  C2  UNL     1       1.581   0.672  -0.052  1.00  0.00     0.070 A 
HETATM    2  C3  UNL     1       0.704   1.720   0.129  1.00  0.00     0.039 A 
HETATM    3  C4  UNL     1      -0.656   1.435   0.214  1.00  0.00     0.036 A 
HETATM    4  C5  UNL     1      -1.130   0.141   0.121  1.00  0.00     0.080 A 
HETATM    5  C6  UNL     1      -0.250  -0.911  -0.061  1.00  0.00     0.080 A 
HETATM    6  C7  UNL     1       1.088  -0.621  -0.144  1.00  0.00     0.070 A 
HETATM    7  N1  UNL     1      -0.994  -2.036  -0.114  1.00  0.00    -0.284 N 
ATOM      8  H1  UNL     1      -0.645  -2.986  -0.241  1.00  0.00     0.188 HD
HETATM    9  N2  UNL     1      -2.262  -1.679   0.029  1.00  0.00    -0.240 N 
ATOM     10  H2  UNL     1      -3.050  -2.327   0.028  1.00  0.00     0.208 HD
HETATM   11  N3  UNL     1      -2.367  -0.384   0.171  1.00  0.00    -0.280 N 
HETATM   12  C8  UNL     1      -3.621   0.319   0.348  1.00  0.00     0.179 C 
ENDROOT
BRANCH   1  13
HETATM   13  O1  UNL     1       2.965   0.905  -0.145  1.00  0.00    -0.356 OA
HETATM   14  C1  UNL     1       3.834  -0.193  -0.330  1.00  0.00     0.210 C 
ENDBRANCH   1  13
TORSDOF 1
