REMARK  1 active torsions:
REMARK  status: ('A' for Active; 'I' for Inactive)
REMARK    1  A    between atoms: O1_2  and  C2_3 
ROOT
HETATM    1  C2  UNL     1       0.583   0.095   0.056  1.00  0.00     0.144 A 
HETATM    2  C3  UNL     1       0.575   1.467  -0.146  1.00  0.00     0.056 A 
HETATM    3  C4  UNL     1      -0.643   2.073  -0.368  1.00  0.00     0.007 A 
HETATM    4  C5  UNL     1      -1.817   1.362  -0.392  1.00  0.00     0.041 A 
HETATM    5  C6  UNL     1      -1.776  -0.001  -0.187  1.00  0.00     0.117 A 
HETATM    6  C7  UNL     1      -2.984  -0.805  -0.201  1.00  0.00     0.118 C 
HETATM    7  N1  UNL     1      -3.954  -1.443  -0.199  1.00  0.00    -0.190 NA
HETATM    8  N2  UNL     1      -0.586  -0.587   0.029  1.00  0.00    -0.324 N 
HETATM    9  C8  UNL     1      -0.593  -2.042   0.241  1.00  0.00     0.159 C 
ENDROOT
BRANCH   1  10
HETATM   10  O1  UNL     1       1.764  -0.578   0.284  1.00  0.00    -0.341 OA
HETATM   11  C1  UNL     1       3.013   0.037   0.330  1.00  0.00     0.211 C 
ENDBRANCH   1  10
TORSDOF 1
