REMARK  1 active torsions:
REMARK  status: ('A' for Active; 'I' for Inactive)
REMARK    1  A    between atoms: N3_9  and  C6_11 
ROOT
HETATM    1  C1  UNL     1       2.471  -0.119   3.801  1.00  0.00     0.229 C 
HETATM    2  N1  UNL     1       1.790  -0.485   2.939  1.00  0.00    -0.429 NA
HETATM    3  C2  UNL     1       0.981  -0.936   1.902  1.00  0.00     0.110 A 
HETATM    4  C3  UNL     1       0.637  -2.256   1.772  1.00  0.00     0.062 A 
HETATM    5  C4  UNL     1      -0.164  -2.664   0.737  1.00  0.00     0.093 A 
HETATM    6  N2  UNL     1      -0.615  -1.787  -0.151  1.00  0.00    -0.352 N 
ATOM      7  H2  UNL     1      -1.208  -2.118  -0.912  1.00  0.00     0.166 HD
HETATM    8  C5  UNL     1      -0.317  -0.477  -0.083  1.00  0.00     0.103 A 
HETATM    9  N3  UNL     1      -0.758   0.352  -0.944  1.00  0.00    -0.377 N 
ATOM     10  H3  UNL     1      -1.352   0.025  -1.706  1.00  0.00     0.161 HD
HETATM   11  C8  UNL     1       0.486  -0.054   0.951  1.00  0.00     0.092 A 
ENDROOT
BRANCH   9  12
HETATM   12  C6  UNL     1      -0.424   1.737  -0.846  1.00  0.00     0.116 C 
HETATM   13  C7  UNL     1      -0.930   2.504  -2.057  1.00  0.00     0.026 C 
ENDBRANCH   9  12
TORSDOF 1
