REMARK  1 active torsions:
REMARK  status: ('A' for Active; 'I' for Inactive)
REMARK    1  A    between atoms: C4_8  and  N3_9 
ROOT
HETATM    1  C1  UNL     1       4.182  -0.279  -0.612  1.00  0.00     0.165 C 
HETATM    2  N1  UNL     1       3.282   0.799  -0.887  1.00  0.00    -0.230 N 
ATOM      3  H1  UNL     1       3.629   1.684  -1.256  1.00  0.00     0.177 HD
HETATM    4  C2  UNL     1       2.006   0.628  -0.657  1.00  0.00     0.677 A 
HETATM    5  N2  UNL     1       1.064   1.659  -0.910  1.00  0.00    -0.200 N 
ATOM      6  H2  UNL     1       1.382   2.555  -1.279  1.00  0.00     0.183 HD
HETATM    7  C3  UNL     1      -0.208   1.471  -0.674  1.00  0.00     0.136 A 
HETATM    8  C4  UNL     1      -0.710   0.215  -0.149  1.00  0.00     0.061 A 
HETATM    9  C7  UNL     1       0.129  -0.770   0.101  1.00  0.00     0.136 A 
HETATM   10  N4  UNL     1       1.521  -0.605  -0.143  1.00  0.00    -0.200 N 
ATOM     11  H4  UNL     1       2.169  -1.369   0.050  1.00  0.00     0.183 HD
ENDROOT
BRANCH   8  12
HETATM   12  N3  UNL     1      -2.093   0.041   0.097  1.00  0.00    -0.387 N 
HETATM   13  C5  UNL     1      -3.061  -0.235  -0.934  1.00  0.00     0.149 C 
HETATM   14  C6  UNL     1      -2.539   0.152   1.486  1.00  0.00     0.149 C 
ENDBRANCH   8  12
TORSDOF 1
