REMARK  2 active torsions:
REMARK  status: ('A' for Active; 'I' for Inactive)
REMARK    1  A    between atoms: C3_3  and  C4_4 
REMARK    2  A    between atoms: N1_11  and  N2_13 
ROOT
HETATM    1  C1  UNL     1      -3.342  -2.261   0.282  1.00  0.00     0.012 C 
HETATM    2  C2  UNL     1      -2.658  -1.274   0.466  1.00  0.00    -0.113 C 
HETATM    3  C3  UNL     1      -1.857  -0.074   0.698  1.00  0.00     0.134 C 
ENDROOT
BRANCH   3   4
HETATM    4  C4  UNL     1      -0.457  -0.235   0.225  1.00  0.00    -0.015 A 
HETATM    5  C5  UNL     1      -0.085  -1.388  -0.333  1.00  0.00     0.065 A 
HETATM    6  C6  UNL     1       1.301  -1.541  -0.799  1.00  0.00     0.172 A 
HETATM    7  O1  UNL     1       1.635  -2.646  -1.328  1.00  0.00    -0.289 OA
HETATM    8  C7  UNL     1       2.280  -0.470  -0.669  1.00  0.00     0.057 A 
HETATM    9  C8  UNL     1       1.860   0.655  -0.108  1.00  0.00     0.035 A 
HETATM   10  C9  UNL     1       0.503   0.843   0.363  1.00  0.00     0.054 A 
HETATM   11  N1  UNL     1       0.164   1.950   0.894  1.00  0.00    -0.307 N 
ATOM     12  H1  UNL     1      -0.801   2.040   1.212  1.00  0.00     0.186 HD
BRANCH  11  13
HETATM   13  N2  UNL     1       0.994   3.037   1.074  1.00  0.00    -0.345 N 
ATOM     14  H22 UNL     1       1.955   2.929   0.750  1.00  0.00     0.176 HD
ATOM     15  H21 UNL     1       0.723   3.923   1.499  1.00  0.00     0.176 HD
ENDBRANCH  11  13
ENDBRANCH   3   4
TORSDOF 2
