REMARK  3 active torsions:
REMARK  status: ('A' for Active; 'I' for Inactive)
REMARK    1  A    between atoms: C2_2  and  N1_4 
REMARK    2  A    between atoms: N1_4  and  C4_6 
REMARK    3  A    between atoms: N3_12  and  O1_13 
ROOT
HETATM    1  C4  UNL     1       0.746   0.206  -0.033  1.00  0.00     0.704 A 
HETATM    2  N2  UNL     1       1.741   1.103   0.214  1.00  0.00    -0.200 N 
ATOM      3  H2  UNL     1       1.510   2.096   0.211  1.00  0.00     0.183 HD
HETATM    4  C5  UNL     1       3.007   0.745   0.460  1.00  0.00     0.107 A 
HETATM    5  C6  UNL     1       3.321  -0.598   0.463  1.00  0.00     0.038 A 
HETATM    6  C7  UNL     1       2.329  -1.509   0.217  1.00  0.00     0.143 A 
HETATM    7  N3  UNL     1       1.074  -1.088  -0.024  1.00  0.00    -0.064 N 
ENDROOT
BRANCH   1   8
HETATM    8  N1  UNL     1      -0.395   0.667  -0.248  1.00  0.00    -0.220 N 
ATOM      9  H1  UNL     1      -0.428   1.686  -0.208  1.00  0.00     0.178 HD
BRANCH   8  10
HETATM   10  C2  UNL     1      -1.651   0.082  -0.535  1.00  0.00     0.091 C 
HETATM   11  C1  UNL     1      -2.649   1.138  -1.059  1.00  0.00     0.032 C 
HETATM   12  C3  UNL     1      -2.271  -0.460   0.760  1.00  0.00     0.032 C 
ENDBRANCH   8  10
ENDBRANCH   1   8
BRANCH   7  13
HETATM   13  O1  UNL     1       0.123  -2.081  -0.266  1.00  0.00    -0.270 OA
ATOM     14  H1  UNL     1       0.356  -3.002  -0.260  1.00  0.00     0.245 HD
ENDBRANCH   7  13
TORSDOF 3
