REMARK  13 active torsions:
REMARK  status: ('A' for Active; 'I' for Inactive)
REMARK    1  A    between atoms: C2_2  and  C4_4 
REMARK    2  A    between atoms: C4_4  and  C5_5 
REMARK    3  A    between atoms: C7_10  and  C8_11 
REMARK    4  A    between atoms: C8_11  and  C9_12 
REMARK    5  A    between atoms: C19_28  and  O4_29 
REMARK    6  A    between atoms: C20_31  and  C21_32 
REMARK    7  A    between atoms: C21_32  and  C22_33 
REMARK    8  A    between atoms: C22_33  and  C23_34 
REMARK    9  A    between atoms: C23_34  and  C24_35 
REMARK   10  A    between atoms: C24_35  and  C25_36 
REMARK   11  A    between atoms: C25_36  and  C26_37 
REMARK   12  A    between atoms: C26_37  and  C27_38 
REMARK   13  A    between atoms: C28_45  and  O5_46 
ROOT
HETATM    1  C5  UNL     1      -1.346   2.470  -0.020  1.00  0.00     0.063 C 
HETATM    2  N1  UNL     1      -1.329   1.208   0.702  1.00  0.00    -0.325 N 
ATOM      3  H1  UNL     1      -0.423   0.742   0.655  1.00  0.00     0.169 HD
HETATM    4  C6  UNL     1      -2.241   0.505   1.425  1.00  0.00     0.244 C 
HETATM    5  O1  UNL     1      -1.878   0.074   2.590  1.00  0.00    -0.271 OA
HETATM    6  C7  UNL     1      -3.656   0.096   1.153  1.00  0.00     0.177 C 
HETATM    7  N2  UNL     1      -3.764  -1.281   0.801  1.00  0.00    -0.346 N 
ATOM      8  H2  UNL     1      -4.654  -1.513   0.360  1.00  0.00     0.163 HD
HETATM    9  C12 UNL     1      -2.918  -2.376   0.929  1.00  0.00     0.240 C 
HETATM   10  O2  UNL     1      -3.243  -3.346   1.669  1.00  0.00    -0.271 OA
HETATM   11  C13 UNL     1      -1.580  -2.606   0.275  1.00  0.00     0.174 C 
HETATM   12  C14 UNL     1      -0.935  -3.900   0.791  1.00  0.00     0.042 C 
HETATM   13  N3  UNL     1      -1.646  -2.732  -1.130  1.00  0.00    -0.342 N 
HETATM   14  C15 UNL     1      -2.897  -3.067  -1.811  1.00  0.00     0.153 C 
HETATM   15  C16 UNL     1      -0.500  -2.539  -1.929  1.00  0.00     0.238 C 
HETATM   16  O3  UNL     1      -0.426  -3.010  -3.114  1.00  0.00    -0.272 OA
HETATM   17  C17 UNL     1       0.671  -1.768  -1.403  1.00  0.00     0.227 C 
HETATM   18  N4  UNL     1       1.467  -1.179  -2.457  1.00  0.00    -0.356 N 
HETATM   19  C18 UNL     1       1.967  -2.106  -3.484  1.00  0.00     0.152 C 
HETATM   20  C19 UNL     1       1.801   0.193  -2.585  1.00  0.00     0.161 C 
HETATM   21  C20 UNL     1       1.896   1.229  -1.546  1.00  0.00     0.062 C 
HETATM   22  N7  UNL     1       0.744   2.105  -1.599  1.00  0.00    -0.335 N 
ATOM     23  H7  UNL     1       0.482   2.274  -2.570  1.00  0.00     0.168 HD
HETATM   24  C28 UNL     1      -0.104   2.777  -0.766  1.00  0.00     0.163 C 
ENDROOT
BRANCH  21  25
HETATM   25  C21 UNL     1       2.518   0.949  -0.261  1.00  0.00     0.062 C 
BRANCH  25  26
HETATM   26  C22 UNL     1       3.970   0.586  -0.202  1.00  0.00     0.006 C 
BRANCH  26  27
HETATM   27  C23 UNL     1       4.422  -0.612  -0.927  1.00  0.00     0.000 C 
BRANCH  27  28
HETATM   28  C24 UNL     1       5.907  -0.806  -0.727  1.00  0.00     0.000 C 
BRANCH  28  29
HETATM   29  C25 UNL     1       6.323  -1.003   0.694  1.00  0.00     0.007 C 
BRANCH  29  30
HETATM   30  C26 UNL     1       7.837  -1.202   0.731  1.00  0.00     0.072 C 
BRANCH  30  31
HETATM   31  C27 UNL     1       8.226  -1.392   2.144  1.00  0.00     0.086 C 
HETATM   32  N5  UNL     1       8.816  -2.475   2.529  1.00  0.00    -0.391 N 
ATOM     33  H52 UNL     1       9.023  -3.219   1.862  1.00  0.00     0.157 HD
ATOM     34  H51 UNL     1       9.084  -2.606   3.504  1.00  0.00     0.157 HD
HETATM   35  N6  UNL     1       7.934  -0.342   3.085  1.00  0.00    -0.088 NA
ENDBRANCH  30  31
ENDBRANCH  29  30
ENDBRANCH  28  29
ENDBRANCH  27  28
ENDBRANCH  26  27
ENDBRANCH  25  26
ENDBRANCH  21  25
BRANCH  20  36
HETATM   36  O4  UNL     1       2.060   0.603  -3.795  1.00  0.00    -0.345 OA
ATOM     37  H4  UNL     1       2.284   1.522  -3.881  1.00  0.00     0.219 HD
ENDBRANCH  20  36
BRANCH  24  38
HETATM   38  O5  UNL     1       0.259   4.032  -0.559  1.00  0.00    -0.345 OA
ATOM     39  H5  UNL     1       1.056   4.229  -1.038  1.00  0.00     0.219 HD
ENDBRANCH  24  38
BRANCH   1  40
HETATM   40  C4  UNL     1      -2.637   2.758  -0.676  1.00  0.00     0.065 C 
BRANCH  40  41
HETATM   41  C2  UNL     1      -2.852   3.999  -1.444  1.00  0.00    -0.017 C 
HETATM   42  C1  UNL     1      -2.025   4.276  -2.643  1.00  0.00     0.010 C 
HETATM   43  C3  UNL     1      -3.026   5.232  -0.563  1.00  0.00     0.010 C 
ENDBRANCH  40  41
ENDBRANCH   1  40
BRANCH   6  44
HETATM   44  C8  UNL     1      -4.500   0.423   2.357  1.00  0.00     0.038 C 
BRANCH  44  45
HETATM   45  C9  UNL     1      -5.947   0.138   2.327  1.00  0.00    -0.020 C 
HETATM   46  C10 UNL     1      -6.416  -1.261   2.180  1.00  0.00     0.009 C 
HETATM   47  C11 UNL     1      -6.520   0.648   3.677  1.00  0.00     0.009 C 
ENDBRANCH  44  45
ENDBRANCH   6  44
TORSDOF 13
