REMARK  11 active torsions:
REMARK  status: ('A' for Active; 'I' for Inactive)
REMARK    1  A    between atoms: C2_2  and  C3_3 
REMARK    2  A    between atoms: C3_3  and  N1_4 
REMARK       I    between atoms: N1_4  and  C4_6 
REMARK    3  A    between atoms: C4_6  and  C5_8 
REMARK    4  A    between atoms: C5_8  and  C6_9 
REMARK    5  A    between atoms: C9_18  and  C10_19 
REMARK    6  A    between atoms: C10_19  and  C11_20 
REMARK    7  A    between atoms: C15_27  and  C16_28 
REMARK    8  A    between atoms: C16_28  and  C17_29 
REMARK    9  A    between atoms: C20_34  and  O5_35 
REMARK   10  A    between atoms: C21_37  and  C22_38 
REMARK   11  A    between atoms: C22_38  and  C23_39 
ROOT
HETATM    1  C6  UNL     1       1.966   0.575  -0.090  1.00  0.00     0.187 C 
HETATM    2  N2  UNL     1       1.525   0.312   1.270  1.00  0.00    -0.329 N 
ATOM      3  H2  UNL     1       1.469  -0.670   1.539  1.00  0.00     0.165 HD
HETATM    4  C7  UNL     1       1.171   1.229   2.248  1.00  0.00     0.323 C 
HETATM    5  O2  UNL     1       1.643   0.967   3.429  1.00  0.00    -0.247 OA
HETATM    6  N3  UNL     1       0.386   2.385   2.183  1.00  0.00    -0.278 N 
ATOM      7  H3  UNL     1       0.658   3.123   2.832  1.00  0.00     0.173 HD
HETATM    8  C8  UNL     1      -0.710   2.692   1.373  1.00  0.00     0.248 C 
HETATM    9  O3  UNL     1      -0.609   3.678   0.557  1.00  0.00    -0.271 OA
HETATM   10  C9  UNL     1      -2.037   2.012   1.319  1.00  0.00     0.177 C 
HETATM   11  N4  UNL     1      -2.431   1.922  -0.072  1.00  0.00    -0.346 N 
ATOM     12  H4  UNL     1      -2.463   2.803  -0.586  1.00  0.00     0.163 HD
HETATM   13  C14 UNL     1      -2.776   0.767  -0.803  1.00  0.00     0.241 C 
HETATM   14  O4  UNL     1      -3.812   0.841  -1.558  1.00  0.00    -0.271 OA
HETATM   15  C15 UNL     1      -2.068  -0.523  -0.802  1.00  0.00     0.175 C 
HETATM   16  N5  UNL     1      -1.058  -0.521  -1.845  1.00  0.00    -0.359 N 
ATOM     17  H5  UNL     1      -0.979   0.368  -2.339  1.00  0.00     0.162 HD
HETATM   18  C20 UNL     1      -0.187  -1.484  -2.297  1.00  0.00     0.135 C 
HETATM   19  C21 UNL     1       0.853  -2.296  -1.621  1.00  0.00     0.161 C 
HETATM   20  N6  UNL     1       2.138  -1.579  -1.600  1.00  0.00    -0.343 N 
HETATM   21  C26 UNL     1       3.051  -1.925  -2.722  1.00  0.00     0.153 C 
HETATM   22  C27 UNL     1       2.584  -0.640  -0.675  1.00  0.00     0.243 C 
HETATM   23  O6  UNL     1       3.773  -0.821  -0.200  1.00  0.00    -0.271 OA
ENDROOT
BRANCH   1  24
HETATM   24  C5  UNL     1       3.035   1.691   0.023  1.00  0.00     0.137 C 
BRANCH  24  25
HETATM   25  C4  UNL     1       3.577   2.093  -1.276  1.00  0.00     0.220 C 
HETATM   26  N1  UNL     1       4.635   2.954  -1.555  1.00  0.00    -0.358 N 
ATOM     27  H1  UNL     1       5.127   3.389  -0.774  1.00  0.00     0.162 HD
HETATM   28  O1  UNL     1       2.992   1.577  -2.296  1.00  0.00    -0.274 OA
BRANCH  26  29
HETATM   29  C3  UNL     1       5.066   3.258  -2.890  1.00  0.00     0.149 C 
BRANCH  29  30
HETATM   30  C2  UNL     1       5.518   2.082  -3.631  1.00  0.00    -0.018 C 
HETATM   31  C1  UNL     1       6.755   2.050  -4.083  1.00  0.00     0.008 C 
ENDBRANCH  29  30
ENDBRANCH  26  29
ENDBRANCH  24  25
ENDBRANCH   1  24
BRANCH  19  32
HETATM   32  C22 UNL     1       0.456  -2.921  -0.340  1.00  0.00     0.037 C 
BRANCH  32  33
HETATM   33  C23 UNL     1       1.544  -3.753   0.264  1.00  0.00    -0.020 C 
HETATM   34  C24 UNL     1       1.929  -4.878  -0.683  1.00  0.00     0.009 C 
HETATM   35  C25 UNL     1       1.030  -4.436   1.539  1.00  0.00     0.009 C 
ENDBRANCH  32  33
ENDBRANCH  19  32
BRANCH  18  36
HETATM   36  O5  UNL     1      -0.320  -1.708  -3.581  1.00  0.00    -0.348 OA
ATOM     37  H5  UNL     1       0.282  -2.373  -3.893  1.00  0.00     0.219 HD
ENDBRANCH  18  36
BRANCH  10  38
HETATM   38  C10 UNL     1      -3.092   2.924   1.983  1.00  0.00     0.038 C 
BRANCH  38  39
HETATM   39  C11 UNL     1      -2.791   3.220   3.410  1.00  0.00    -0.020 C 
HETATM   40  C12 UNL     1      -2.754   1.959   4.206  1.00  0.00     0.009 C 
HETATM   41  C13 UNL     1      -3.906   4.126   3.957  1.00  0.00     0.009 C 
ENDBRANCH  38  39
ENDBRANCH  10  38
BRANCH  15  42
HETATM   42  C16 UNL     1      -2.993  -1.665  -0.828  1.00  0.00     0.038 C 
BRANCH  42  43
HETATM   43  C17 UNL     1      -3.870  -1.842   0.345  1.00  0.00    -0.020 C 
HETATM   44  C18 UNL     1      -4.738  -3.125   0.146  1.00  0.00     0.009 C 
HETATM   45  C19 UNL     1      -4.863  -0.803   0.713  1.00  0.00     0.009 C 
ENDBRANCH  42  43
ENDBRANCH  15  42
TORSDOF 11
