REMARK  11 active torsions:
REMARK  status: ('A' for Active; 'I' for Inactive)
REMARK    1  A    between atoms: C2_2  and  C3_3 
REMARK    2  A    between atoms: C3_3  and  C4_4 
REMARK    3  A    between atoms: C4_4  and  C5_5 
REMARK    4  A    between atoms: C7_10  and  C8_11 
REMARK    5  A    between atoms: C8_11  and  C9_12 
REMARK    6  A    between atoms: C9_12  and  C10_13 
REMARK    7  A    between atoms: C10_13  and  N2_14 
REMARK    8  A    between atoms: C14_23  and  C15_24 
REMARK    9  A    between atoms: C15_24  and  C17_26 
REMARK   10  A    between atoms: C20_32  and  C21_33 
REMARK   11  A    between atoms: C21_33  and  C22_34 
ROOT
HETATM    1  C5  UNL     1       1.374   2.145  -0.188  1.00  0.00     0.171 C 
HETATM    2  C6  UNL     1       2.357   1.047  -0.205  1.00  0.00     0.240 C 
HETATM    3  O1  UNL     1       3.580   1.466  -0.106  1.00  0.00    -0.271 OA
HETATM    4  N1  UNL     1       2.183  -0.316  -0.309  1.00  0.00    -0.346 N 
ATOM      5  H1  UNL     1       2.735  -0.745  -1.052  1.00  0.00     0.163 HD
HETATM    6  C7  UNL     1       1.373  -1.252   0.428  1.00  0.00     0.176 C 
HETATM    7  C12 UNL     1       0.845  -2.337  -0.469  1.00  0.00     0.243 C 
HETATM    8  O2  UNL     1       1.150  -3.529  -0.127  1.00  0.00    -0.271 OA
HETATM    9  N5  UNL     1       0.054  -2.147  -1.636  1.00  0.00    -0.341 N 
HETATM   10  C13 UNL     1       0.396  -3.041  -2.725  1.00  0.00     0.153 C 
HETATM   11  C14 UNL     1      -0.972  -1.132  -1.653  1.00  0.00     0.182 C 
HETATM   12  C19 UNL     1      -2.146  -1.479  -0.793  1.00  0.00     0.241 C 
HETATM   13  O3  UNL     1      -2.268  -2.756  -0.630  1.00  0.00    -0.271 OA
HETATM   14  N6  UNL     1      -3.074  -0.669  -0.183  1.00  0.00    -0.346 N 
ATOM     15  H6  UNL     1      -4.021  -0.822  -0.529  1.00  0.00     0.163 HD
HETATM   16  C20 UNL     1      -3.007   0.347   0.835  1.00  0.00     0.177 C 
HETATM   17  C25 UNL     1      -2.877   1.711   0.352  1.00  0.00     0.240 C 
HETATM   18  O4  UNL     1      -3.137   1.943  -0.862  1.00  0.00    -0.271 OA
HETATM   19  N7  UNL     1      -2.484   2.817   1.124  1.00  0.00    -0.358 N 
ATOM     20  H7  UNL     1      -3.077   3.645   1.069  1.00  0.00     0.162 HD
HETATM   21  C26 UNL     1      -1.321   2.906   1.993  1.00  0.00     0.142 C 
HETATM   22  C27 UNL     1      -0.207   2.022   1.607  1.00  0.00     0.136 C 
HETATM   23  N8  UNL     1       0.993   2.629   1.105  1.00  0.00    -0.403 N 
HETATM   24  C28 UNL     1       1.157   4.009   1.351  1.00  0.00     0.144 C 
ENDROOT
BRANCH   6  25
HETATM   25  C8  UNL     1       2.151  -1.917   1.566  1.00  0.00     0.036 C 
BRANCH  25  26
HETATM   26  C9  UNL     1       2.669  -0.976   2.585  1.00  0.00     0.022 C 
BRANCH  26  27
HETATM   27  C10 UNL     1       3.431  -1.726   3.668  1.00  0.00     0.122 C 
BRANCH  27  28
HETATM   28  N2  UNL     1       4.519  -2.405   3.048  1.00  0.00    -0.367 N 
HETATM   29  C11 UNL     1       4.691  -3.672   2.958  1.00  0.00     0.196 C 
HETATM   30  N3  UNL     1       5.845  -4.157   2.297  1.00  0.00    -0.067 NA
HETATM   31  N4  UNL     1       3.760  -4.582   3.504  1.00  0.00    -0.067 NA
ATOM     32  H2  UNL     1       5.241  -1.818   2.630  1.00  0.00     0.161 HD
ENDBRANCH  27  28
ENDBRANCH  26  27
ENDBRANCH  25  26
ENDBRANCH   6  25
BRANCH   1  33
HETATM   33  C4  UNL     1       1.844   3.350  -1.010  1.00  0.00     0.034 C 
BRANCH  33  34
HETATM   34  C3  UNL     1       2.054   2.917  -2.465  1.00  0.00     0.002 C 
BRANCH  34  35
HETATM   35  C2  UNL     1       2.515   4.076  -3.308  1.00  0.00    -0.004 C 
HETATM   36  C1  UNL     1       3.808   4.671  -2.846  1.00  0.00     0.005 C 
ENDBRANCH  34  35
ENDBRANCH  33  34
ENDBRANCH   1  33
BRANCH  11  37
HETATM   37  C15 UNL     1      -1.490  -0.838  -3.034  1.00  0.00     0.013 C 
HETATM   38  C16 UNL     1      -0.495  -0.386  -4.026  1.00  0.00     0.012 C 
BRANCH  37  39
HETATM   39  C17 UNL     1      -2.595  -1.730  -3.501  1.00  0.00     0.002 C 
HETATM   40  C18 UNL     1      -3.042  -1.357  -4.919  1.00  0.00     0.005 C 
ENDBRANCH  37  39
ENDBRANCH  11  37
BRANCH  16  41
HETATM   41  C21 UNL     1      -4.361   0.356   1.601  1.00  0.00     0.038 C 
BRANCH  41  42
HETATM   42  C22 UNL     1      -4.622  -0.983   2.234  1.00  0.00    -0.020 C 
HETATM   43  C23 UNL     1      -5.968  -0.850   2.947  1.00  0.00     0.009 C 
HETATM   44  C24 UNL     1      -3.606  -1.364   3.276  1.00  0.00     0.009 C 
ENDBRANCH  41  42
ENDBRANCH  16  41
TORSDOF 11
