REMARK  12 active torsions:
REMARK  status: ('A' for Active; 'I' for Inactive)
REMARK    1  A    between atoms: N1_1  and  C1_4 
REMARK    2  A    between atoms: C3_9  and  N4_10 
REMARK    3  A    between atoms: C4_15  and  N6_16 
REMARK    4  A    between atoms: C6_18  and  C7_19 
REMARK    5  A    between atoms: C8_21  and  O2_22 
REMARK    6  A    between atoms: O2_22  and  C9_23 
REMARK    7  A    between atoms: C9_23  and  C10_24 
REMARK    8  A    between atoms: C10_24  and  C11_25 
REMARK    9  A    between atoms: C11_25  and  O3_26 
REMARK   10  A    between atoms: N9_30  and  N10_31 
REMARK   11  A    between atoms: C13_39  and  C14_40 
REMARK   12  A    between atoms: N15_47  and  O5_49 
ROOT
HETATM    1  C1  UNL     1      -2.999  -3.264   3.647  1.00  0.00     0.705 A 
HETATM    2  N2  UNL     1      -3.347  -1.976   3.627  1.00  0.00    -0.019 N 
ATOM      3  H2  UNL     1      -3.540  -1.510   4.513  1.00  0.00     0.203 HD
HETATM    4  C2  UNL     1      -3.455  -1.259   2.480  1.00  0.00     0.737 A 
HETATM    5  N3  UNL     1      -3.198  -1.890   1.333  1.00  0.00     0.018 N 
HETATM    6  C3  UNL     1      -2.843  -3.197   1.306  1.00  0.00     0.709 A 
HETATM    7  N5  UNL     1      -2.752  -3.851   2.468  1.00  0.00    -0.022 N 
ATOM      8  H5  UNL     1      -2.484  -4.835   2.457  1.00  0.00     0.203 HD
HETATM    9  C4  UNL     1      -3.355  -0.950   0.253  1.00  0.00     0.305 A 
HETATM   10  C12 UNL     1      -3.781   0.305   0.899  1.00  0.00     0.128 A 
HETATM   11  C13 UNL     1      -4.182   1.638   1.058  1.00  0.00     0.111 A 
HETATM   12  N16 UNL     1      -4.191   1.343   2.381  1.00  0.00    -0.275 N 
ATOM     13  H16 UNL     1      -4.410   1.893   3.211  1.00  0.00     0.188 HD
HETATM   14  N17 UNL     1      -3.815   0.088   2.211  1.00  0.00    -0.082 N 
ENDROOT
BRANCH   9  15
HETATM   15  N6  UNL     1      -2.008  -0.788  -0.308  1.00  0.00    -0.256 N 
HETATM   16  C5  UNL     1      -0.832  -0.854   0.379  1.00  0.00     0.145 A 
HETATM   17  C6  UNL     1       0.216  -0.651  -0.497  1.00  0.00     0.090 A 
HETATM   18  N11 UNL     1      -0.367  -0.468  -1.694  1.00  0.00    -0.285 N 
HETATM   19  N12 UNL     1      -1.700  -0.555  -1.550  1.00  0.00    -0.238 N 
ATOM     20  H11 UNL     1       0.124  -0.291  -2.571  1.00  0.00     0.188 HD
ATOM     21  H12 UNL     1      -2.375  -0.453  -2.308  1.00  0.00     0.208 HD
BRANCH  17  22
HETATM   22  C7  UNL     1       1.659  -0.646  -0.137  1.00  0.00     0.292 C 
HETATM   23  O1  UNL     1       2.240   0.430  -0.765  1.00  0.00    -0.317 OA
HETATM   24  C8  UNL     1       3.613   0.303  -0.958  1.00  0.00     0.379 C 
HETATM   25  N7  UNL     1       4.003  -0.972  -1.450  1.00  0.00    -0.070 NA
HETATM   26  N8  UNL     1       3.619  -1.933  -0.478  1.00  0.00    -0.030 NA
HETATM   27  N9  UNL     1       2.219  -1.919  -0.490  1.00  0.00    -0.097 NA
BRANCH  24  28
HETATM   28  O2  UNL     1       3.945   1.278  -1.889  1.00  0.00    -0.346 OA
BRANCH  28  29
HETATM   29  C9  UNL     1       4.769   2.270  -1.463  1.00  0.00     0.174 C 
BRANCH  29  30
HETATM   30  C10 UNL     1       6.125   1.770  -1.104  1.00  0.00     0.052 C 
BRANCH  30  31
HETATM   31  C11 UNL     1       6.805   1.176  -2.320  1.00  0.00     0.166 C 
BRANCH  31  32
HETATM   32  O3  UNL     1       6.929   2.177  -3.314  1.00  0.00    -0.401 OA
ATOM     33  H3  UNL     1       7.356   1.804  -4.077  1.00  0.00     0.209 HD
ENDBRANCH  31  32
ENDBRANCH  30  31
ENDBRANCH  29  30
ENDBRANCH  28  29
ENDBRANCH  24  28
BRANCH  27  34
HETATM   34  N10 UNL     1       1.811  -2.863   0.480  1.00  0.00    -0.345 NA
ATOM     35 2H10 UNL     1       0.791  -2.853   0.471  1.00  0.00     0.172 HD
ATOM     36 1H10 UNL     1       2.209  -3.768   0.229  1.00  0.00     0.172 HD
ENDBRANCH  27  34
ENDBRANCH  17  22
ENDBRANCH   9  15
BRANCH   6  37
HETATM   37  N4  UNL     1      -2.623  -3.745   0.171  1.00  0.00    -0.233 N 
ATOM     38  H42 UNL     1      -2.692  -3.246  -0.716  1.00  0.00     0.174 HD
ATOM     39  H41 UNL     1      -2.356  -4.729   0.151  1.00  0.00     0.174 HD
ENDBRANCH   6  37
BRANCH  11  40
HETATM   40  C14 UNL     1      -4.465   2.812   0.247  1.00  0.00     0.134 A 
HETATM   41  N13 UNL     1      -4.842   3.999   0.757  1.00  0.00    -0.236 N 
HETATM   42  O4  UNL     1      -5.026   4.832  -0.224  1.00  0.00    -0.155 OA
ATOM     43  H13 UNL     1      -4.963   4.210   1.748  1.00  0.00     0.197 HD
HETATM   44  N14 UNL     1      -4.797   4.283  -1.374  1.00  0.00    -0.222 N 
HETATM   45  C15 UNL     1      -4.441   3.007  -1.105  1.00  0.00     0.178 A 
ATOM     46  H14 UNL     1      -4.870   4.722  -2.292  1.00  0.00     0.198 HD
HETATM   47  N15 UNL     1      -4.136   2.119  -1.981  1.00  0.00    -0.249 N 
ATOM     48  H15 UNL     1      -3.890   1.188  -1.643  1.00  0.00     0.196 HD
BRANCH  47  49
HETATM   49  O5  UNL     1      -4.116   2.325  -3.321  1.00  0.00    -0.288 OA
ATOM     50  H5  UNL     1      -3.890   1.668  -3.969  1.00  0.00     0.244 HD
ENDBRANCH  47  49
ENDBRANCH  11  40
BRANCH   1  51
HETATM   51  N1  UNL     1      -2.889  -3.968   4.723  1.00  0.00    -0.234 N 
ATOM     52  H12 UNL     1      -3.077  -3.521   5.620  1.00  0.00     0.174 HD
ATOM     53  H11 UNL     1      -2.623  -4.953   4.738  1.00  0.00     0.174 HD
ENDBRANCH   1  51
TORSDOF 12
