REMARK  13 active torsions:
REMARK  status: ('A' for Active; 'I' for Inactive)
REMARK    1  A    between atoms: C2_2  and  C4_4 
REMARK    2  A    between atoms: C4_4  and  C5_5 
REMARK    3  A    between atoms: C5_5  and  C6_6 
REMARK    4  A    between atoms: C5_5  and  N1_9 
REMARK    5  A    between atoms: C6_6  and  O1_7 
REMARK    6  A    between atoms: N1_9  and  C7_11 
REMARK    7  A    between atoms: C8_12  and  N2_13 
REMARK    8  A    between atoms: C9_16  and  N4_17 
REMARK    9  A    between atoms: N4_17  and  C10_19 
REMARK   10  A    between atoms: C13_28  and  N9_29 
REMARK   11  A    between atoms: C16_38  and  C17_39 
REMARK       I    between atoms: C17_39  and  N12_41 
REMARK   12  A    between atoms: N12_41  and  N13_43 
REMARK   13  A    between atoms: N15_49  and  N16_50 
ROOT
HETATM    1  C7  UNL     1      -1.885   0.862  -0.928  1.00  0.00     0.194 A 
HETATM    2  C8  UNL     1      -0.583   1.005  -0.570  1.00  0.00     0.209 A 
HETATM    3  N10 UNL     1      -0.365   2.359  -0.448  1.00  0.00    -0.061 N 
HETATM    4  N11 UNL     1       0.565   3.257  -0.152  1.00  0.00    -0.257 N 
ATOM      5  H11 UNL     1       1.528   3.037   0.100  1.00  0.00     0.190 HD
HETATM    6  C16 UNL     1       0.057   4.497  -0.232  1.00  0.00     0.206 A 
HETATM    7  N14 UNL     1      -1.239   4.330  -0.594  1.00  0.00    -0.166 N 
ATOM      8  H14 UNL     1      -1.915   5.079  -0.743  1.00  0.00     0.186 HD
HETATM    9  C18 UNL     1      -1.490   2.998  -0.726  1.00  0.00     0.730 A 
HETATM   10  N15 UNL     1      -2.445   2.118  -1.025  1.00  0.00    -0.070 N 
ENDROOT
BRANCH   2  11
HETATM   11  N2  UNL     1       0.498   0.066  -0.370  1.00  0.00    -0.267 N 
HETATM   12  N3  UNL     1       0.825  -0.444   0.857  1.00  0.00    -0.308 N 
HETATM   13  C9  UNL     1       1.295  -1.783   0.951  1.00  0.00     0.216 C 
ATOM     14  H3  UNL     1       0.733   0.130   1.695  1.00  0.00     0.182 HD
HETATM   15  C12 UNL     1       1.753  -2.391  -0.356  1.00  0.00     0.083 C 
HETATM   16  C13 UNL     1       2.301  -1.330  -1.287  1.00  0.00     0.211 C 
HETATM   17  C14 UNL     1       1.282  -0.281  -1.545  1.00  0.00     0.136 C 
HETATM   18  C15 UNL     1       2.011   0.945  -2.095  1.00  0.00     0.036 C 
BRANCH  13  19
HETATM   19  N4  UNL     1       2.327  -1.887   1.968  1.00  0.00    -0.203 N 
ATOM     20  H4  UNL     1       2.106  -2.400   2.822  1.00  0.00     0.180 HD
BRANCH  19  21
HETATM   21  C10 UNL     1       3.606  -1.329   1.852  1.00  0.00     0.689 C 
HETATM   22  N5  UNL     1       3.825  -0.071   2.018  1.00  0.00    -0.211 N 
HETATM   23  C11 UNL     1       5.192   0.387   1.872  1.00  0.00     0.271 C 
ATOM     24  H5  UNL     1       3.069   0.575   2.243  1.00  0.00     0.179 HD
HETATM   25  N6  UNL     1       6.049  -0.538   2.563  1.00  0.00    -0.106 NA
HETATM   26  N7  UNL     1       6.029  -1.812   1.981  1.00  0.00    -0.015 NA
HETATM   27  N8  UNL     1       4.732  -2.145   1.541  1.00  0.00    -0.120 N 
ATOM     28  H8  UNL     1       4.596  -2.990   0.987  1.00  0.00     0.202 HD
ENDBRANCH  19  21
ENDBRANCH  13  19
BRANCH  16  29
HETATM   29  N9  UNL     1       2.578  -2.012  -2.561  1.00  0.00    -0.073 N 
ATOM     30  H93 UNL     1       3.189  -2.823  -2.464  1.00  0.00     0.274 HD
ATOM     31  H92 UNL     1       1.772  -2.509  -2.940  1.00  0.00     0.274 HD
ATOM     32  H91 UNL     1       2.947  -1.297  -3.188  1.00  0.00     0.274 HD
ENDBRANCH  16  29
ENDBRANCH   2  11
BRANCH   1  33
HETATM   33  N1  UNL     1      -2.677  -0.270  -1.120  1.00  0.00    -0.339 N 
ATOM     34  H1  UNL     1      -3.582  -0.098  -1.557  1.00  0.00     0.167 HD
BRANCH  33  35
HETATM   35  C5  UNL     1      -2.406  -1.646  -0.793  1.00  0.00     0.031 C 
BRANCH  35  36
HETATM   36  C4  UNL     1      -2.569  -2.049   0.592  1.00  0.00     0.004 C 
BRANCH  36  37
HETATM   37  C2  UNL     1      -3.840  -2.307   1.257  1.00  0.00     0.002 C 
HETATM   38  C1  UNL     1      -4.698  -3.421   0.722  1.00  0.00     0.013 C 
HETATM   39  C3  UNL     1      -4.706  -1.088   1.508  1.00  0.00     0.013 C 
ENDBRANCH  36  37
ENDBRANCH  35  36
BRANCH  35  40
HETATM   40  C6  UNL     1      -2.904  -2.496  -1.912  1.00  0.00     0.220 C 
BRANCH  40  41
HETATM   41  O1  UNL     1      -4.255  -2.335  -2.184  1.00  0.00    -0.395 OA
ATOM     42  H1  UNL     1      -4.572  -2.877  -2.897  1.00  0.00     0.209 HD
ENDBRANCH  40  41
ENDBRANCH  35  40
ENDBRANCH  33  35
ENDBRANCH   1  33
BRANCH  10  43
HETATM   43  N16 UNL     1      -3.765   2.448  -1.369  1.00  0.00    -0.322 N 
ATOM     44 2H16 UNL     1      -4.496   1.774  -1.598  1.00  0.00     0.178 HD
ATOM     45 1H16 UNL     1      -4.179   3.377  -1.441  1.00  0.00     0.178 HD
ENDBRANCH  10  43
BRANCH   6  46
HETATM   46  C17 UNL     1       0.724   5.771   0.011  1.00  0.00     0.305 C 
HETATM   47  O2  UNL     1       1.928   5.760   0.338  1.00  0.00    -0.263 OA
HETATM   48  N12 UNL     1       0.018   6.998  -0.121  1.00  0.00    -0.270 N 
ATOM     49  H12 UNL     1      -0.966   6.980  -0.389  1.00  0.00     0.189 HD
BRANCH  48  50
HETATM   50  N13 UNL     1       0.639   8.227   0.108  1.00  0.00    -0.342 N 
ATOM     51 2H13 UNL     1       1.623   8.227   0.376  1.00  0.00     0.176 HD
ATOM     52 1H13 UNL     1       0.132   9.107   0.013  1.00  0.00     0.176 HD
ENDBRANCH  48  50
ENDBRANCH   6  46
TORSDOF 13
