REMARK  10 active torsions:
REMARK  status: ('A' for Active; 'I' for Inactive)
REMARK    1  A    between atoms: N1_1  and  C1_4 
REMARK    2  A    between atoms: C2_7  and  C3_8 
REMARK       I    between atoms: C3_8  and  N3_10 
REMARK    3  A    between atoms: N3_10  and  C4_12 
REMARK    4  A    between atoms: C4_12  and  C5_13 
REMARK    5  A    between atoms: C4_12  and  N12_34 
REMARK    6  A    between atoms: C5_13  and  C6_14 
REMARK    7  A    between atoms: C6_14  and  C7_15 
REMARK    8  A    between atoms: C7_15  and  O2_16 
REMARK    9  A    between atoms: C10_26  and  C11_27 
REMARK   10  A    between atoms: C14_39  and  O3_40 
ROOT
HETATM    1  C4  UNL     1       0.995  -0.997  -0.877  1.00  0.00     0.197 C 
ENDROOT
BRANCH   1   2
HETATM    2  N3  UNL     1       1.994  -0.151  -0.309  1.00  0.00    -0.334 N 
HETATM    3  C3  UNL     1       2.370   1.093  -0.853  1.00  0.00     0.270 C 
HETATM    4  O1  UNL     1       1.755   1.447  -1.917  1.00  0.00    -0.266 OA
ATOM      5  H3  UNL     1       2.463  -0.465   0.540  1.00  0.00     0.165 HD
BRANCH   3   6
HETATM    6  C2  UNL     1       3.387   1.960  -0.285  1.00  0.00     0.122 A 
HETATM    7  N2  UNL     1       4.079   1.641   0.817  1.00  0.00    -0.186 N 
HETATM    8  C1  UNL     1       5.028   2.478   1.327  1.00  0.00     0.679 A 
ATOM      9  H2  UNL     1       3.892   0.754   1.284  1.00  0.00     0.184 HD
HETATM   10  N17 UNL     1       5.329   3.661   0.765  1.00  0.00    -0.156 N 
HETATM   11  C16 UNL     1       4.656   4.020  -0.344  1.00  0.00     0.261 A 
ATOM     12  H17 UNL     1       6.044   4.267   1.166  1.00  0.00     0.187 HD
HETATM   13  C15 UNL     1       3.680   3.169  -0.875  1.00  0.00     0.110 A 
HETATM   14  O4  UNL     1       4.929   5.120  -0.872  1.00  0.00    -0.268 OA
BRANCH   8  15
HETATM   15  N1  UNL     1       5.663   2.117   2.389  1.00  0.00    -0.234 N 
ATOM     16  H12 UNL     1       5.435   1.219   2.816  1.00  0.00     0.174 HD
ATOM     17  H11 UNL     1       6.373   2.743   2.770  1.00  0.00     0.174 HD
ENDBRANCH   8  15
ENDBRANCH   3   6
ENDBRANCH   1   2
BRANCH   1  18
HETATM   18  C5  UNL     1      -0.346  -0.919  -0.111  1.00  0.00     0.052 C 
BRANCH  18  19
HETATM   19  C6  UNL     1      -0.832   0.478  -0.147  1.00  0.00     0.066 C 
BRANCH  19  20
HETATM   20  C7  UNL     1      -2.157   0.709   0.562  1.00  0.00     0.150 A 
HETATM   21  N4  UNL     1      -2.029   0.513   1.971  1.00  0.00    -0.332 N 
HETATM   22  C8  UNL     1      -2.769  -0.224   2.704  1.00  0.00     0.191 A 
ATOM     23  H4  UNL     1      -1.271   1.011   2.437  1.00  0.00     0.165 HD
HETATM   24  N5  UNL     1      -2.536  -0.339   4.123  1.00  0.00    -0.063 NA
HETATM   25  N6  UNL     1      -3.833  -0.939   2.096  1.00  0.00    -0.322 N 
HETATM   26  C9  UNL     1      -4.060  -0.859   0.839  1.00  0.00     0.111 A 
ATOM     27  H6  UNL     1      -4.431  -1.530   2.674  1.00  0.00     0.169 HD
HETATM   28  N7  UNL     1      -5.172  -1.633   0.339  1.00  0.00    -0.086 NA
HETATM   29  C10 UNL     1      -3.264  -0.042  -0.099  1.00  0.00     0.175 A 
BRANCH  20  30
HETATM   30  O2  UNL     1      -2.387   2.105   0.389  1.00  0.00    -0.370 OA
ATOM     31  H2  UNL     1      -3.215   2.249   0.832  1.00  0.00     0.212 HD
ENDBRANCH  20  30
BRANCH  29  32
HETATM   32  C11 UNL     1      -4.171   0.852  -0.883  1.00  0.00     0.122 A 
HETATM   33  N8  UNL     1      -4.354   0.913  -2.218  1.00  0.00    -0.273 N 
HETATM   34  N9  UNL     1      -5.246   1.841  -2.513  1.00  0.00    -0.007 NA
ATOM     35  H8  UNL     1      -3.873   0.327  -2.901  1.00  0.00     0.185 HD
HETATM   36  N10 UNL     1      -5.640   2.381  -1.359  1.00  0.00    -0.007 NA
HETATM   37  N11 UNL     1      -4.978   1.772  -0.368  1.00  0.00    -0.273 N 
ATOM     38  H11 UNL     1      -5.078   1.981   0.625  1.00  0.00     0.185 HD
ENDBRANCH  29  32
ENDBRANCH  19  20
ENDBRANCH  18  19
ENDBRANCH   1  18
BRANCH   1  39
HETATM   39  N12 UNL     1       1.329  -2.356  -0.917  1.00  0.00    -0.277 N 
HETATM   40  C12 UNL     1       1.409  -2.961  -2.077  1.00  0.00     0.202 A 
HETATM   41  N13 UNL     1       1.690  -3.958  -1.598  1.00  0.00    -0.334 N 
HETATM   42  N16 UNL     1       1.496  -3.639  -3.420  1.00  0.00    -0.259 N 
HETATM   43  C13 UNL     1       1.898  -4.571  -0.736  1.00  0.00     0.276 A 
ATOM     44  H13 UNL     1       1.801  -4.593  -2.389  1.00  0.00     0.164 HD
HETATM   45  C14 UNL     1       1.648  -3.387   0.030  1.00  0.00     0.164 A 
HETATM   46  N14 UNL     1       2.083  -5.594  -1.891  1.00  0.00    -0.091 NA
HETATM   47  N15 UNL     1       1.854  -4.992  -3.138  1.00  0.00    -0.242 N 
ATOM     48  H15 UNL     1       1.957  -5.601  -3.950  1.00  0.00     0.204 HD
ATOM     49  H16 UNL     1       1.334  -3.220  -4.336  1.00  0.00     0.191 HD
BRANCH  45  50
HETATM   50  O3  UNL     1       1.724  -3.364   1.338  1.00  0.00    -0.346 OA
ATOM     51  H3  UNL     1       1.935  -4.046   1.965  1.00  0.00     0.219 HD
ENDBRANCH  45  50
ENDBRANCH   1  39
TORSDOF 10
