REMARK  16 active torsions:
REMARK  status: ('A' for Active; 'I' for Inactive)
REMARK    1  A    between atoms: C2_3  and  N2_4 
REMARK    2  A    between atoms: C4_11  and  C5_12 
REMARK    3  A    between atoms: N5_13  and  N6_15 
REMARK    4  A    between atoms: C6_19  and  C7_20 
REMARK    5  A    between atoms: C7_20  and  N9_21 
REMARK    6  A    between atoms: C7_20  and  C12_32 
REMARK    7  A    between atoms: N9_21  and  C8_23 
REMARK    8  A    between atoms: C8_23  and  C9_24 
REMARK    9  A    between atoms: C9_24  and  N10_25 
REMARK       I    between atoms: N10_25  and  C10_27 
REMARK   10  A    between atoms: C10_27  and  C11_29 
REMARK   11  A    between atoms: C11_29  and  O2_30 
REMARK   12  A    between atoms: C14_34  and  O3_35 
REMARK   13  A    between atoms: C15_37  and  O4_38 
REMARK   14  A    between atoms: N11_40  and  N12_41 
REMARK   15  A    between atoms: C16_44  and  N13_45 
REMARK   16  A    between atoms: N13_45  and  O5_47 
ROOT
HETATM    1  C7  UNL     1      -1.497   0.405  -0.021  1.00  0.00     0.185 C 
ENDROOT
BRANCH   1   2
HETATM    2  C6  UNL     1      -0.089   0.924  -0.148  1.00  0.00     0.139 A 
HETATM    3  N8  UNL     1       0.267   2.181  -0.436  1.00  0.00    -0.267 N 
HETATM    4  N7  UNL     1       1.602   2.267  -0.467  1.00  0.00     0.019 NA
ATOM      5  H8  UNL     1      -0.378   2.953  -0.605  1.00  0.00     0.185 HD
HETATM    6  N6  UNL     1       2.090   1.070  -0.199  1.00  0.00    -0.114 N 
HETATM    7  N14 UNL     1       1.058   0.240  -0.002  1.00  0.00    -0.251 N 
ATOM      8  H14 UNL     1       1.131  -0.752   0.223  1.00  0.00     0.191 HD
BRANCH   6   9
HETATM    9  N5  UNL     1       3.411   0.630  -0.109  1.00  0.00    -0.276 N 
HETATM   10  C5  UNL     1       4.040   0.497   0.993  1.00  0.00     0.131 C 
ATOM     11  H5  UNL     1       3.902   0.402  -0.974  1.00  0.00     0.189 HD
BRANCH  10  12
HETATM   12  C4  UNL     1       5.418   0.029   0.975  1.00  0.00     0.091 A 
HETATM   13  C3  UNL     1       6.072  -0.105   2.185  1.00  0.00     0.149 A 
HETATM   14  N3  UNL     1       7.329  -0.532   2.197  1.00  0.00    -0.178 N 
HETATM   15  N4  UNL     1       5.397   0.210   3.379  1.00  0.00    -0.081 NA
HETATM   16  C2  UNL     1       7.935  -0.822   1.039  1.00  0.00     0.681 A 
ATOM     17  H3  UNL     1       7.828  -0.638   3.080  1.00  0.00     0.185 HD
HETATM   18  N1  UNL     1       7.310  -0.696  -0.146  1.00  0.00    -0.151 N 
HETATM   19  C1  UNL     1       7.984  -1.017  -1.407  1.00  0.00     0.179 C 
HETATM   20  C17 UNL     1       6.051  -0.271  -0.187  1.00  0.00     0.276 A 
HETATM   21  O6  UNL     1       5.453  -0.148  -1.295  1.00  0.00    -0.266 OA
BRANCH  16  22
HETATM   22  N2  UNL     1       9.144  -1.231   1.058  1.00  0.00    -0.234 N 
ATOM     23  H22 UNL     1       9.606  -1.452   0.176  1.00  0.00     0.174 HD
ATOM     24  H21 UNL     1       9.618  -1.327   1.956  1.00  0.00     0.174 HD
ENDBRANCH  16  22
ENDBRANCH  10  12
ENDBRANCH   6   9
ENDBRANCH   1   2
BRANCH   1  25
HETATM   25  N9  UNL     1      -1.537  -0.830  -0.715  1.00  0.00    -0.405 N 
ATOM     26  H9  UNL     1      -0.707  -1.197  -1.181  1.00  0.00     0.154 HD
BRANCH  25  27
HETATM   27  C8  UNL     1      -2.764  -1.540  -0.743  1.00  0.00     0.134 C 
BRANCH  27  28
HETATM   28  C9  UNL     1      -3.184  -2.092   0.600  1.00  0.00     0.142 C 
BRANCH  28  29
HETATM   29  N10 UNL     1      -4.424  -2.803   0.451  1.00  0.00    -0.358 N 
HETATM   30  C10 UNL     1      -5.032  -3.416   1.574  1.00  0.00     0.241 C 
HETATM   31  O1  UNL     1      -4.486  -3.334   2.693  1.00  0.00    -0.271 OA
ATOM     32  H10 UNL     1      -4.867  -2.866  -0.465  1.00  0.00     0.162 HD
BRANCH  30  33
HETATM   33  C11 UNL     1      -6.300  -4.151   1.449  1.00  0.00     0.266 C 
BRANCH  33  34
HETATM   34  O2  UNL     1      -6.754  -4.152   0.130  1.00  0.00    -0.392 OA
ATOM     35  H2  UNL     1      -7.573  -4.627   0.049  1.00  0.00     0.210 HD
ENDBRANCH  33  34
ENDBRANCH  30  33
ENDBRANCH  28  29
ENDBRANCH  27  28
ENDBRANCH  25  27
ENDBRANCH   1  25
BRANCH   1  36
HETATM   36  C12 UNL     1      -2.476   1.419  -0.421  1.00  0.00     0.022 A 
HETATM   37  C13 UNL     1      -3.323   2.019   0.500  1.00  0.00     0.054 A 
HETATM   38  C14 UNL     1      -4.254   2.980   0.145  1.00  0.00     0.119 A 
HETATM   39  C15 UNL     1      -4.334   3.347  -1.183  1.00  0.00     0.197 A 
HETATM   40  N11 UNL     1      -3.521   2.776  -2.089  1.00  0.00    -0.219 N 
HETATM   41  C16 UNL     1      -2.620   1.842  -1.726  1.00  0.00     0.157 A 
BRANCH  38  42
HETATM   42  O3  UNL     1      -5.102   3.577   1.088  1.00  0.00    -0.357 OA
ATOM     43  H3  UNL     1      -5.741   4.236   0.844  1.00  0.00     0.218 HD
ENDBRANCH  38  42
BRANCH  39  44
HETATM   44  O4  UNL     1      -5.275   4.318  -1.548  1.00  0.00    -0.343 OA
ATOM     45  H4  UNL     1      -5.330   4.571  -2.462  1.00  0.00     0.219 HD
ENDBRANCH  39  44
BRANCH  40  46
HETATM   46  N12 UNL     1      -3.653   3.192  -3.418  1.00  0.00    -0.335 N 
ATOM     47 2H12 UNL     1      -4.335   3.899  -3.693  1.00  0.00     0.177 HD
ATOM     48 1H12 UNL     1      -3.036   2.759  -4.105  1.00  0.00     0.177 HD
ENDBRANCH  40  46
BRANCH  41  49
HETATM   49  N13 UNL     1      -1.884   1.350  -2.641  1.00  0.00    -0.251 N 
ATOM     50  H13 UNL     1      -1.199   0.645  -2.370  1.00  0.00     0.196 HD
BRANCH  49  51
HETATM   51  O5  UNL     1      -1.946   1.697  -3.953  1.00  0.00    -0.288 OA
ATOM     52  H5  UNL     1      -1.397   1.330  -4.636  1.00  0.00     0.244 HD
ENDBRANCH  49  51
ENDBRANCH  41  49
ENDBRANCH   1  36
TORSDOF 16
