REMARK  16 active torsions:
REMARK  status: ('A' for Active; 'I' for Inactive)
REMARK    1  A    between atoms: N1_1  and  C1_4 
REMARK    2  A    between atoms: C2_7  and  N3_8 
REMARK    3  A    between atoms: N3_8  and  C3_10 
REMARK    4  A    between atoms: C4_13  and  N5_14 
REMARK    5  A    between atoms: C6_23  and  C7_24 
REMARK    6  A    between atoms: N11_29  and  C8_30 
REMARK    7  A    between atoms: C10_34  and  C11_35 
REMARK    8  A    between atoms: C11_35  and  N13_36 
REMARK    9  A    between atoms: N13_36  and  C12_38 
REMARK   10  A    between atoms: C12_38  and  C13_39 
REMARK   11  A    between atoms: C12_38  and  N14_46 
REMARK   12  A    between atoms: C13_39  and  C14_40 
REMARK   13  A    between atoms: C14_40  and  O1_41 
REMARK   14  A    between atoms: C14_40  and  C15_43 
REMARK   15  A    between atoms: C15_43  and  O2_44 
REMARK   16  A    between atoms: N14_46  and  N15_48 
ROOT
HETATM    1  C7  UNL     1       1.995  -1.277  -2.028  1.00  0.00     0.165 A 
HETATM    2  N9  UNL     1       1.431  -1.806  -3.127  1.00  0.00    -0.266 N 
ATOM      3  H9  UNL     1       1.914  -2.075  -3.984  1.00  0.00     0.190 HD
HETATM    4  N10 UNL     1       0.142  -1.913  -2.894  1.00  0.00    -0.219 N 
ATOM      5  H10 UNL     1      -0.536  -2.286  -3.558  1.00  0.00     0.210 HD
HETATM    6  N11 UNL     1      -0.158  -1.474  -1.686  1.00  0.00    -0.178 N 
HETATM    7  N17 UNL     1       0.990  -1.085  -1.160  1.00  0.00    -0.260 N 
ATOM      8  H17 UNL     1       1.097  -0.693  -0.224  1.00  0.00     0.191 HD
ENDROOT
BRANCH   1   9
HETATM    9  C6  UNL     1       3.427  -0.973  -1.823  1.00  0.00     0.099 A 
HETATM   10  C5  UNL     1       3.864  -0.429  -0.637  1.00  0.00     0.083 A 
HETATM   11  C2  UNL     1       5.204  -0.157  -0.477  1.00  0.00     0.139 A 
HETATM   12  N2  UNL     1       6.039  -0.430  -1.479  1.00  0.00    -0.176 N 
HETATM   13  C1  UNL     1       5.649  -0.962  -2.654  1.00  0.00     0.678 A 
ATOM     14  H2  UNL     1       7.030  -0.225  -1.349  1.00  0.00     0.186 HD
HETATM   15  N18 UNL     1       4.329  -1.218  -2.782  1.00  0.00    -0.188 N 
ATOM     16  H18 UNL     1       4.000  -1.621  -3.659  1.00  0.00     0.184 HD
BRANCH  11  17
HETATM   17  N3  UNL     1       5.660   0.412   0.765  1.00  0.00    -0.175 N 
ATOM     18  H3  UNL     1       5.004   0.613   1.520  1.00  0.00     0.186 HD
BRANCH  17  19
HETATM   19  C3  UNL     1       7.050   0.687   0.912  1.00  0.00     0.695 C 
HETATM   20  N4  UNL     1       7.962  -0.170   0.607  1.00  0.00    -0.181 N 
HETATM   21  C4  UNL     1       9.344   0.258   0.813  1.00  0.00     0.409 C 
ATOM     22  H4  UNL     1       7.733  -1.095   0.242  1.00  0.00     0.181 HD
HETATM   23  N6  UNL     1       9.474   1.631   0.320  1.00  0.00    -0.071 NA
HETATM   24  N7  UNL     1       8.700   2.507   1.071  1.00  0.00    -0.013 NA
HETATM   25  N8  UNL     1       7.473   1.948   1.414  1.00  0.00    -0.119 N 
ATOM     26  H8  UNL     1       6.857   2.459   2.046  1.00  0.00     0.202 HD
BRANCH  21  27
HETATM   27  N5  UNL     1       9.568   0.265   2.240  1.00  0.00    -0.042 N 
ATOM     28  H53 UNL     1       8.891   0.831   2.751  1.00  0.00     0.278 HD
ATOM     29  H52 UNL     1       9.352  -0.627   2.686  1.00  0.00     0.278 HD
ATOM     30  H51 UNL     1      10.533   0.564   2.384  1.00  0.00     0.278 HD
ENDBRANCH  21  27
ENDBRANCH  17  19
ENDBRANCH  11  17
BRANCH  13  31
HETATM   31  N1  UNL     1       6.496  -1.204  -3.582  1.00  0.00    -0.234 N 
ATOM     32  H12 UNL     1       7.493  -1.011  -3.485  1.00  0.00     0.174 HD
ATOM     33  H11 UNL     1       6.201  -1.607  -4.471  1.00  0.00     0.174 HD
ENDBRANCH  13  31
ENDBRANCH   1   9
BRANCH   6  34
HETATM   34  C8  UNL     1      -1.463  -1.445  -1.109  1.00  0.00     0.107 A 
HETATM   35  C9  UNL     1      -2.568  -1.117  -1.868  1.00  0.00     0.124 A 
HETATM   36  N12 UNL     1      -3.788  -1.106  -1.266  1.00  0.00    -0.352 N 
HETATM   37  C10 UNL     1      -3.946  -1.401   0.031  1.00  0.00     0.099 A 
ATOM     38  H12 UNL     1      -4.609  -0.865  -1.821  1.00  0.00     0.166 HD
HETATM   39  N16 UNL     1      -2.885  -1.724   0.792  1.00  0.00    -0.352 N 
HETATM   40  C16 UNL     1      -1.670  -1.741   0.218  1.00  0.00     0.124 A 
ATOM     41  H16 UNL     1      -3.000  -1.950   1.780  1.00  0.00     0.166 HD
BRANCH  37  42
HETATM   42  C11 UNL     1      -5.278  -1.379   0.648  1.00  0.00     0.197 C 
BRANCH  42  43
HETATM   43  N13 UNL     1      -5.552  -0.052   1.177  1.00  0.00    -0.372 N 
ATOM     44  H13 UNL     1      -4.854   0.686   1.082  1.00  0.00     0.161 HD
BRANCH  43  45
HETATM   45  C12 UNL     1      -6.783   0.222   1.824  1.00  0.00     0.094 C 
BRANCH  45  46
HETATM   46  C13 UNL     1      -8.041  -0.187   1.164  1.00  0.00     0.111 C 
BRANCH  46  47
HETATM   47  C14 UNL     1      -8.187   0.482  -0.181  1.00  0.00     0.148 C 
BRANCH  47  48
HETATM   48  O1  UNL     1      -9.395   0.043  -0.733  1.00  0.00    -0.393 OA
ATOM     49  H1  UNL     1      -9.487   0.464  -1.580  1.00  0.00     0.210 HD
ENDBRANCH  47  48
BRANCH  47  50
HETATM   50  C15 UNL     1      -8.350   1.976   0.064  1.00  0.00     0.196 C 
BRANCH  50  51
HETATM   51  O2  UNL     1      -8.609   2.610  -1.134  1.00  0.00    -0.398 OA
ATOM     52  H2  UNL     1      -8.711   3.542  -0.981  1.00  0.00     0.209 HD
ENDBRANCH  50  51
ENDBRANCH  47  50
ENDBRANCH  46  47
ENDBRANCH  45  46
BRANCH  45  53
HETATM   53  N14 UNL     1      -6.779   0.815   2.962  1.00  0.00    -0.296 N 
ATOM     54  H14 UNL     1      -7.675   1.003   3.412  1.00  0.00     0.187 HD
BRANCH  53  55
HETATM   55  N15 UNL     1      -5.616   1.216   3.615  1.00  0.00    -0.344 N 
ATOM     56 2H15 UNL     1      -4.729   1.020   3.151  1.00  0.00     0.176 HD
ATOM     57 1H15 UNL     1      -5.613   1.687   4.520  1.00  0.00     0.176 HD
ENDBRANCH  53  55
ENDBRANCH  45  53
ENDBRANCH  43  45
ENDBRANCH  42  43
ENDBRANCH  37  42
ENDBRANCH   6  34
TORSDOF 16
