REMARK  10 active torsions:
REMARK  status: ('A' for Active; 'I' for Inactive)
REMARK    1  A    between atoms: C2_2  and  N1_3 
REMARK    2  A    between atoms: N1_3  and  C4_5 
REMARK    3  A    between atoms: C5_8  and  N3_9 
REMARK    4  A    between atoms: C6_14  and  N5_15 
REMARK    5  A    between atoms: N5_15  and  C7_17 
REMARK    6  A    between atoms: C7_17  and  C8_18 
REMARK    7  A    between atoms: C8_18  and  N6_19 
REMARK    8  A    between atoms: N6_19  and  C9_21 
REMARK    9  A    between atoms: N8_26  and  N9_27 
REMARK   10  A    between atoms: C12_33  and  N11_34 
ROOT
HETATM    1  N6  UNL     1       2.527   0.832   0.260  1.00  0.00    -0.222 N 
ATOM      2  H6  UNL     1       2.129   0.806  -0.679  1.00  0.00     0.177 HD
ENDROOT
BRANCH   1   3
HETATM    3  C8  UNL     1       1.839   1.554   1.277  1.00  0.00     0.158 C 
BRANCH   3   4
HETATM    4  C7  UNL     1       0.430   1.939   0.905  1.00  0.00     0.158 C 
BRANCH   4   5
HETATM    5  N5  UNL     1      -0.430   0.834   0.615  1.00  0.00    -0.224 N 
ATOM      6  H5  UNL     1      -0.070  -0.119   0.658  1.00  0.00     0.177 HD
BRANCH   5   7
HETATM    7  C6  UNL     1      -1.652   1.044   0.301  1.00  0.00     0.707 A 
HETATM    8  N4  UNL     1      -2.094   2.308   0.255  1.00  0.00    -0.022 N 
HETATM    9  C5  UNL     1      -3.393   2.538  -0.073  1.00  0.00     0.705 A 
ATOM     10  H4  UNL     1      -1.466   3.085   0.463  1.00  0.00     0.203 HD
HETATM   11  N2  UNL     1      -4.220   1.510  -0.346  1.00  0.00    -0.022 N 
HETATM   12  C4  UNL     1      -3.793   0.235  -0.304  1.00  0.00     0.709 A 
ATOM     13  H2  UNL     1      -5.191   1.703  -0.590  1.00  0.00     0.203 HD
HETATM   14  N14 UNL     1      -2.501   0.030   0.024  1.00  0.00    -0.021 N 
ATOM     15  H14 UNL     1      -2.151  -0.927   0.065  1.00  0.00     0.203 HD
BRANCH   9  16
HETATM   16  N3  UNL     1      -3.794   3.762  -0.110  1.00  0.00    -0.234 N 
ATOM     17  H32 UNL     1      -4.769   3.935  -0.356  1.00  0.00     0.174 HD
ATOM     18  H31 UNL     1      -3.168   4.540   0.097  1.00  0.00     0.174 HD
ENDBRANCH   9  16
BRANCH  12  19
HETATM   19  N1  UNL     1      -4.701  -0.812  -0.591  1.00  0.00    -0.221 N 
HETATM   20  C3  UNL     1      -4.875  -1.265  -1.943  1.00  0.00     0.168 C 
BRANCH  19  21
HETATM   21  C2  UNL     1      -5.456  -1.414   0.479  1.00  0.00     0.136 C 
HETATM   22  C1  UNL     1      -6.939  -1.088   0.413  1.00  0.00     0.027 C 
ENDBRANCH  19  21
ENDBRANCH  12  19
ENDBRANCH   5   7
ENDBRANCH   4   5
ENDBRANCH   3   4
ENDBRANCH   1   3
BRANCH   1  23
HETATM   23  C9  UNL     1       3.631   0.212   0.481  1.00  0.00     0.719 A 
HETATM   24  N7  UNL     1       4.226   0.196   1.694  1.00  0.00    -0.137 N 
HETATM   25  C10 UNL     1       5.378  -0.471   1.868  1.00  0.00     0.374 A 
ATOM     26  H7  UNL     1       3.800   0.691   2.478  1.00  0.00     0.189 HD
HETATM   27  O1  UNL     1       5.934  -0.493   2.976  1.00  0.00    -0.244 OA
HETATM   28  N8  UNL     1       5.935  -1.121   0.826  1.00  0.00    -0.035 N 
HETATM   29  C11 UNL     1       5.343  -1.106  -0.385  1.00  0.00     0.758 A 
HETATM   30  N10 UNL     1       5.676  -1.659  -1.567  1.00  0.00    -0.017 N 
HETATM   31  N13 UNL     1       4.188  -0.443  -0.577  1.00  0.00     0.107 N 
HETATM   32  C12 UNL     1       4.743  -1.347  -2.493  1.00  0.00     0.706 A 
ATOM     33  H10 UNL     1       6.506  -2.227  -1.737  1.00  0.00     0.203 HD
HETATM   34  N12 UNL     1       3.838  -0.595  -1.843  1.00  0.00    -0.096 N 
ATOM     35  H12 UNL     1       3.000  -0.198  -2.267  1.00  0.00     0.207 HD
BRANCH  28  36
HETATM   36  N9  UNL     1       7.141  -1.841   0.935  1.00  0.00    -0.320 N 
ATOM     37  H92 UNL     1       7.589  -1.852   1.851  1.00  0.00     0.178 HD
ATOM     38  H91 UNL     1       7.562  -2.333   0.147  1.00  0.00     0.178 HD
ENDBRANCH  28  36
BRANCH  32  39
HETATM   39  N11 UNL     1       4.744  -1.714  -3.753  1.00  0.00    -0.233 N 
ATOM     40 2H11 UNL     1       5.431  -2.285  -4.246  1.00  0.00     0.174 HD
ATOM     41 1H11 UNL     1       4.040  -1.478  -4.452  1.00  0.00     0.174 HD
ENDBRANCH  32  39
ENDBRANCH   1  23
TORSDOF 10
