REMARK  8 active torsions:
REMARK  status: ('A' for Active; 'I' for Inactive)
REMARK    1  A    between atoms: C3_4  and  C4_5 
REMARK       I    between atoms: C4_5  and  N2_7 
REMARK    2  A    between atoms: N2_7  and  N3_9 
REMARK    3  A    between atoms: C5_11  and  C6_12 
REMARK    4  A    between atoms: C6_12  and  O2_13 
REMARK    5  A    between atoms: C6_12  and  C7_15 
REMARK    6  A    between atoms: C7_15  and  N4_16 
REMARK    7  A    between atoms: C8_17  and  N5_18 
REMARK    8  A    between atoms: C11_32  and  N10_33 
ROOT
HETATM    1  C4  UNL     1       1.198  -0.273   1.415  1.00  0.00     0.289 C 
HETATM    2  O1  UNL     1       1.305  -0.995   2.427  1.00  0.00    -0.264 OA
HETATM    3  N2  UNL     1      -0.115   0.298   1.237  1.00  0.00    -0.265 N 
ATOM      4  H2  UNL     1      -0.278   0.900   0.430  1.00  0.00     0.190 HD
ENDROOT
BRANCH   3   5
HETATM    5  N3  UNL     1      -1.169   0.066   2.116  1.00  0.00    -0.310 N 
HETATM    6  C5  UNL     1      -2.259  -0.539   1.860  1.00  0.00     0.113 C 
ATOM      7  H3  UNL     1      -1.056   0.418   3.066  1.00  0.00     0.185 HD
BRANCH   6   8
HETATM    8  C6  UNL     1      -2.524  -1.087   0.518  1.00  0.00     0.177 C 
BRANCH   8   9
HETATM    9  O2  UNL     1      -1.286  -1.458  -0.016  1.00  0.00    -0.389 OA
ATOM     10  H2  UNL     1      -1.457  -1.811  -0.881  1.00  0.00     0.210 HD
ENDBRANCH   8   9
BRANCH   8  11
HETATM   11  C7  UNL     1      -3.142  -0.119  -0.433  1.00  0.00     0.189 C 
BRANCH  11  12
HETATM   12  N4  UNL     1      -4.405   0.429  -0.073  1.00  0.00    -0.128 N 
HETATM   13  C8  UNL     1      -5.656   0.005  -0.311  1.00  0.00     0.697 A 
HETATM   14  N6  UNL     1      -6.567   0.863   0.228  1.00  0.00    -0.128 N 
HETATM   15  N7  UNL     1      -5.855   1.813   0.796  1.00  0.00    -0.236 N 
ATOM     16  H6  UNL     1      -7.584   0.786   0.198  1.00  0.00     0.205 HD
HETATM   17  C9  UNL     1      -4.534   1.571   0.626  1.00  0.00     0.355 A 
ATOM     18  H7  UNL     1      -6.242   2.615   1.292  1.00  0.00     0.192 HD
HETATM   19  O3  UNL     1      -3.653   2.354   1.088  1.00  0.00    -0.244 OA
BRANCH  13  20
HETATM   20  N5  UNL     1      -5.959  -1.043  -0.945  1.00  0.00    -0.233 N 
ATOM     21  H52 UNL     1      -5.277  -1.685  -1.348  1.00  0.00     0.174 HD
ATOM     22  H51 UNL     1      -6.910  -1.365  -1.126  1.00  0.00     0.174 HD
ENDBRANCH  13  20
ENDBRANCH  11  12
ENDBRANCH   8  11
ENDBRANCH   6   8
ENDBRANCH   3   5
BRANCH   1  23
HETATM   23  C3  UNL     1       2.237   0.015   0.461  1.00  0.00     0.147 A 
HETATM   24  C2  UNL     1       2.038   0.833  -0.644  1.00  0.00     0.145 A 
HETATM   25  N1  UNL     1       3.201   0.881  -1.307  1.00  0.00    -0.194 N 
HETATM   26  C1  UNL     1       3.452   1.623  -2.530  1.00  0.00     0.175 C 
HETATM   27  C12 UNL     1       4.120   0.136  -0.676  1.00  0.00     0.709 A 
HETATM   28  N8  UNL     1       3.534  -0.404   0.420  1.00  0.00    -0.088 N 
HETATM   29  N11 UNL     1       5.417  -0.127  -0.948  1.00  0.00    -0.021 N 
HETATM   30  C10 UNL     1       4.274  -1.193   1.208  1.00  0.00     0.360 A 
HETATM   31  O4  UNL     1       3.765  -1.709   2.228  1.00  0.00    -0.245 OA
HETATM   32  N9  UNL     1       5.586  -1.464   0.939  1.00  0.00    -0.140 N 
HETATM   33  C11 UNL     1       6.146  -0.921  -0.147  1.00  0.00     0.694 A 
ATOM     34  H9  UNL     1       6.128  -2.069   1.555  1.00  0.00     0.189 HD
ATOM     35  H11 UNL     1       5.850   0.284  -1.775  1.00  0.00     0.203 HD
BRANCH  33  36
HETATM   36  N10 UNL     1       7.387  -1.184  -0.390  1.00  0.00    -0.234 N 
ATOM     37 2H10 UNL     1       7.941  -1.787   0.218  1.00  0.00     0.174 HD
ATOM     38 1H10 UNL     1       7.814  -0.770  -1.218  1.00  0.00     0.174 HD
ENDBRANCH  33  36
ENDBRANCH   1  23
TORSDOF 8
