REMARK  7 active torsions:
REMARK  status: ('A' for Active; 'I' for Inactive)
REMARK    1  A    between atoms: N1_2  and  C2_3 
REMARK    2  A    between atoms: N1_2  and  C10_24 
REMARK    3  A    between atoms: C2_3  and  C3_4 
REMARK    4  A    between atoms: C3_4  and  N2_5 
REMARK    5  A    between atoms: C7_13  and  N4_14 
REMARK    6  A    between atoms: N4_14  and  N5_15 
REMARK    7  A    between atoms: N10_31  and  O4_32 
ROOT
HETATM    1  N2  UNL     1       0.915   0.418  -0.735  1.00  0.00    -0.283 N 
HETATM    2  C4  UNL     1       1.340   1.310  -1.628  1.00  0.00     0.331 A 
HETATM    3  O1  UNL     1       0.531   1.959  -2.345  1.00  0.00    -0.246 OA
HETATM    4  N3  UNL     1       2.662   1.567  -1.816  1.00  0.00    -0.274 N 
ATOM      5  H3  UNL     1       2.941   2.258  -2.512  1.00  0.00     0.173 HD
HETATM    6  C5  UNL     1       3.620   0.925  -1.099  1.00  0.00     0.268 A 
HETATM    7  O2  UNL     1       4.829   1.151  -1.262  1.00  0.00    -0.267 OA
HETATM    8  C6  UNL     1       3.196   0.001  -0.170  1.00  0.00     0.137 A 
HETATM    9  C7  UNL     1       4.177  -0.658   0.592  1.00  0.00     0.223 A 
HETATM   10  N6  UNL     1       3.668  -1.548   1.504  1.00  0.00    -0.325 N 
ATOM     11  H6  UNL     1       4.323  -2.063   2.093  1.00  0.00     0.169 HD
HETATM   12  C8  UNL     1       2.371  -1.775   1.661  1.00  0.00     0.184 A 
HETATM   13  N7  UNL     1       1.471  -1.128   0.917  1.00  0.00    -0.337 N 
ATOM     14  H7  UNL     1       0.478  -1.318   1.055  1.00  0.00     0.168 HD
HETATM   15  C9  UNL     1       1.846  -0.233  -0.009  1.00  0.00     0.133 A 
ENDROOT
BRANCH   1  16
HETATM   16  C3  UNL     1      -0.489   0.172  -0.553  1.00  0.00     0.155 C 
BRANCH  16  17
HETATM   17  C2  UNL     1      -1.091   1.006   0.534  1.00  0.00     0.144 C 
BRANCH  17  18
HETATM   18  N1  UNL     1      -2.490   0.817   0.757  1.00  0.00    -0.365 N 
HETATM   19  C1  UNL     1      -3.135   1.454   1.878  1.00  0.00     0.151 C 
BRANCH  18  20
HETATM   20  C10 UNL     1      -3.292   0.048  -0.110  1.00  0.00     0.177 A 
HETATM   21  C11 UNL     1      -3.550  -1.308  -0.111  1.00  0.00     0.167 A 
HETATM   22  N8  UNL     1      -3.044  -2.301   0.778  1.00  0.00    -0.078 NA
HETATM   23  N9  UNL     1      -4.406  -1.576  -1.141  1.00  0.00    -0.292 N 
HETATM   24  C12 UNL     1      -4.687  -0.429  -1.778  1.00  0.00     0.353 A 
ATOM     25  H9  UNL     1      -4.771  -2.496  -1.386  1.00  0.00     0.172 HD
HETATM   26  O3  UNL     1      -5.434  -0.212  -2.783  1.00  0.00    -0.244 OA
HETATM   27  N10 UNL     1      -4.018   0.550  -1.160  1.00  0.00    -0.152 N 
BRANCH  27  28
HETATM   28  O4  UNL     1      -4.021   1.876  -1.473  1.00  0.00    -0.277 OA
ATOM     29  H4  UNL     1      -4.524   2.224  -2.200  1.00  0.00     0.245 HD
ENDBRANCH  27  28
ENDBRANCH  18  20
ENDBRANCH  17  18
ENDBRANCH  16  17
ENDBRANCH   1  16
BRANCH   9  30
HETATM   30  N4  UNL     1       5.356  -0.534   0.515  1.00  0.00    -0.313 NA
BRANCH  30  31
HETATM   31  N5  UNL     1       6.619  -0.398   0.429  1.00  0.00    -0.278 N 
ATOM     32  H52 UNL     1       5.602  -0.380   0.357  1.00  0.00     0.191 HD
ATOM     33  H51 UNL     1       7.631  -0.292   0.363  1.00  0.00     0.191 HD
ENDBRANCH  30  31
ENDBRANCH   9  30
TORSDOF 7
