REMARK  9 active torsions:
REMARK  status: ('A' for Active; 'I' for Inactive)
REMARK    1  A    between atoms: N1_1  and  N2_4 
REMARK       I    between atoms: N2_4  and  C1_6 
REMARK    2  A    between atoms: C1_6  and  C2_8 
REMARK    3  A    between atoms: C4_12  and  C5_13 
REMARK       I    between atoms: C5_13  and  N4_15 
REMARK    4  A    between atoms: N4_15  and  C6_17 
REMARK    5  A    between atoms: C6_17  and  C7_18 
REMARK    6  A    between atoms: C6_17  and  C8_20 
REMARK    7  A    between atoms: C8_20  and  N5_21 
REMARK    8  A    between atoms: C8_20  and  O4_25 
REMARK    9  A    between atoms: N6_28  and  C10_29 
ROOT
HETATM    1  C2  UNL     1      -2.887   0.959   0.502  1.00  0.00     0.178 A 
HETATM    2  N3  UNL     1      -1.584   1.244   0.670  1.00  0.00    -0.334 N 
ATOM      3  H3  UNL     1      -1.169   2.167   0.800  1.00  0.00     0.168 HD
HETATM    4  C3  UNL     1      -0.935   0.059   0.631  1.00  0.00     0.096 A 
HETATM    5  C4  UNL     1       0.300  -0.525   0.724  1.00  0.00     0.078 A 
HETATM    6  C9  UNL     1       0.107  -1.894   0.588  1.00  0.00     0.120 A 
HETATM    7  N6  UNL     1      -1.206  -2.117   0.416  1.00  0.00    -0.285 N 
HETATM    8  C12 UNL     1      -1.852  -0.948   0.438  1.00  0.00     0.143 A 
HETATM    9  N9  UNL     1      -3.047  -0.390   0.358  1.00  0.00    -0.322 N 
ATOM     10  H9  UNL     1      -3.931  -0.879   0.214  1.00  0.00     0.169 HD
ENDROOT
BRANCH   5  11
HETATM   11  C5  UNL     1       1.634   0.067   0.866  1.00  0.00     0.256 C 
HETATM   12  O2  UNL     1       2.259  -0.096   1.941  1.00  0.00    -0.268 OA
HETATM   13  N4  UNL     1       2.187   0.792  -0.201  1.00  0.00    -0.342 N 
ATOM     14  H4  UNL     1       1.641   0.889  -1.057  1.00  0.00     0.163 HD
BRANCH  13  15
HETATM   15  C6  UNL     1       3.503   1.412  -0.143  1.00  0.00     0.202 C 
BRANCH  15  16
HETATM   16  C7  UNL     1       3.598   2.447  -1.169  1.00  0.00     0.260 C 
HETATM   17  O3  UNL     1       2.634   2.648  -1.905  1.00  0.00    -0.304 OA
ENDBRANCH  15  16
BRANCH  15  18
HETATM   18  C8  UNL     1       4.579   0.322  -0.370  1.00  0.00     0.346 C 
BRANCH  18  19
HETATM   19  N5  UNL     1       5.875   0.970  -0.370  1.00  0.00    -0.051 N 
ATOM     20  H53 UNL     1       5.936   1.732  -1.045  1.00  0.00     0.277 HD
ATOM     21  H52 UNL     1       6.042   1.521   0.472  1.00  0.00     0.277 HD
ATOM     22  H51 UNL     1       6.584   0.252  -0.520  1.00  0.00     0.277 HD
ENDBRANCH  18  19
BRANCH  18  23
HETATM   23  O4  UNL     1       4.402  -0.291  -1.601  1.00  0.00    -0.368 OA
ATOM     24  H4  UNL     1       5.062  -0.960  -1.740  1.00  0.00     0.212 HD
ENDBRANCH  18  23
ENDBRANCH  15  18
ENDBRANCH  13  15
ENDBRANCH   5  11
BRANCH   7  25
HETATM   25  C10 UNL     1      -1.752  -3.434   0.226  1.00  0.00     0.206 A 
HETATM   26  N7  UNL     1      -1.663  -4.478   1.058  1.00  0.00    -0.220 N 
HETATM   27  O5  UNL     1      -2.277  -5.524   0.522  1.00  0.00    -0.152 OA
ATOM     28  H7  UNL     1      -1.195  -4.470   1.964  1.00  0.00     0.198 HD
HETATM   29  N8  UNL     1      -2.774  -5.222  -0.634  1.00  0.00    -0.203 N 
HETATM   30  C11 UNL     1      -2.472  -3.919  -0.869  1.00  0.00     0.313 A 
ATOM     31  H8  UNL     1      -3.294  -5.845  -1.252  1.00  0.00     0.200 HD
HETATM   32  O6  UNL     1      -2.795  -3.309  -1.884  1.00  0.00    -0.262 OA
ENDBRANCH   7  25
BRANCH   1  33
HETATM   33  C1  UNL     1      -4.004   1.884   0.507  1.00  0.00     0.303 C 
HETATM   34  N2  UNL     1      -3.778   3.246   0.808  1.00  0.00    -0.270 N 
ATOM     35  H2  UNL     1      -2.833   3.573   1.012  1.00  0.00     0.189 HD
HETATM   36  O1  UNL     1      -5.162   1.499   0.254  1.00  0.00    -0.263 OA
BRANCH  34  37
HETATM   37  N1  UNL     1      -4.842   4.141   0.827  1.00  0.00    -0.342 N 
ATOM     38  H12 UNL     1      -5.780   3.798   0.621  1.00  0.00     0.176 HD
ATOM     39  H11 UNL     1      -4.679   5.124   1.044  1.00  0.00     0.176 HD
ENDBRANCH  34  37
ENDBRANCH   1  33
TORSDOF 9
