REMARK  3 active torsions:
REMARK  status: ('A' for Active; 'I' for Inactive)
REMARK    1  A    between atoms: O1_2  and  C2_3 
REMARK    2  A    between atoms: C2_3  and  C3_5 
REMARK    3  A    between atoms: C5_10  and  N3_11 
ROOT
HETATM    1  C3  UNL     1       0.018  -0.028  -0.017  1.00  0.00     0.149 A 
HETATM    2  C4  UNL     1      -1.040   0.766   0.405  1.00  0.00     0.153 A 
HETATM    3  N1  UNL     1      -0.711   1.932   1.155  1.00  0.00    -0.081 NA
HETATM    4  N2  UNL     1      -2.328   0.470   0.130  1.00  0.00    -0.178 N 
ATOM      5  H2  UNL     1      -3.084   1.073   0.454  1.00  0.00     0.185 HD
HETATM    6  C5  UNL     1      -2.588  -0.641  -0.582  1.00  0.00     0.680 A 
HETATM    7  N4  UNL     1      -1.582  -1.430  -1.003  1.00  0.00    -0.155 N 
ATOM      8  H4  UNL     1      -1.808  -2.267  -1.540  1.00  0.00     0.187 HD
HETATM    9  C6  UNL     1      -0.291  -1.157  -0.743  1.00  0.00     0.279 A 
HETATM   10  O3  UNL     1       0.656  -1.882  -1.129  1.00  0.00    -0.266 OA
ENDROOT
BRANCH   1  11
HETATM   11  C2  UNL     1       1.384   0.350   0.314  1.00  0.00     0.301 C 
HETATM   12  O2  UNL     1       1.640   1.384   0.978  1.00  0.00    -0.259 OA
BRANCH  11  13
HETATM   13  O1  UNL     1       2.458  -0.420  -0.091  1.00  0.00    -0.322 OA
HETATM   14  C1  UNL     1       3.805  -0.110   0.197  1.00  0.00     0.213 C 
ENDBRANCH  11  13
ENDBRANCH   1  11
BRANCH   6  15
HETATM   15  N3  UNL     1      -3.838  -0.929  -0.849  1.00  0.00    -0.234 N 
ATOM     16  H32 UNL     1      -4.600  -0.331  -0.530  1.00  0.00     0.174 HD
ATOM     17  H31 UNL     1      -4.035  -1.772  -1.389  1.00  0.00     0.174 HD
ENDBRANCH   6  15
TORSDOF 3
