REMARK  4 active torsions:
REMARK  status: ('A' for Active; 'I' for Inactive)
REMARK    1  A    between atoms: N1_1  and  N2_4 
REMARK    2  A    between atoms: N2_4  and  C1_5 
REMARK    3  A    between atoms: C1_5  and  O1_6 
REMARK    4  A    between atoms: C1_5  and  C2_8 
ROOT
HETATM    1  C2  UNL     1      -0.094  -0.066   0.185  1.00  0.00     0.140 A 
HETATM    2  C3  UNL     1      -1.236  -0.805   0.191  1.00  0.00     0.139 A 
HETATM    3  N3  UNL     1      -1.235  -2.166   0.587  1.00  0.00    -0.081 NA
HETATM    4  N4  UNL     1      -2.394  -0.236  -0.175  1.00  0.00    -0.320 N 
ATOM      5  H4  UNL     1      -3.250  -0.791  -0.168  1.00  0.00     0.169 HD
HETATM    6  C4  UNL     1      -2.447   1.073  -0.557  1.00  0.00     0.179 A 
HETATM    7  S1  UNL     1      -3.876   1.755  -1.004  1.00  0.00    -0.040 SA
HETATM    8  N5  UNL     1      -1.317   1.796  -0.562  1.00  0.00    -0.299 N 
ATOM      9  H5  UNL     1      -1.350   2.775  -0.847  1.00  0.00     0.171 HD
HETATM   10  C5  UNL     1      -0.143   1.254  -0.199  1.00  0.00     0.266 A 
HETATM   11  O2  UNL     1       0.921   1.901  -0.194  1.00  0.00    -0.267 OA
ENDROOT
BRANCH   1  12
HETATM   12  C1  UNL     1       1.193  -0.700   0.570  1.00  0.00     0.257 C 
BRANCH  12  13
HETATM   13  N2  UNL     1       2.349  -0.034   0.623  1.00  0.00    -0.306 NA
BRANCH  13  14
HETATM   14  N1  UNL     1       3.479   0.618   0.675  1.00  0.00    -0.278 N 
ATOM     15  H12 UNL     1       2.580   0.138   0.641  1.00  0.00     0.191 HD
ATOM     16  H11 UNL     1       4.362   1.127   0.715  1.00  0.00     0.191 HD
ENDBRANCH  13  14
ENDBRANCH  12  13
BRANCH  12  17
HETATM   17  O1  UNL     1       1.052  -1.971   0.843  1.00  0.00    -0.333 OA
ATOM     18  H1  UNL     1       0.229  -2.445   0.805  1.00  0.00     0.220 HD
ENDBRANCH  12  17
ENDBRANCH   1  12
TORSDOF 4
