REMARK  5 active torsions:
REMARK  status: ('A' for Active; 'I' for Inactive)
REMARK    1  A    between atoms: C3_4  and  C4_5 
REMARK    2  A    between atoms: C4_5  and  O1_6 
REMARK    3  A    between atoms: C4_5  and  N2_8 
REMARK    4  A    between atoms: N2_8  and  N3_10 
REMARK    5  A    between atoms: C5_14  and  N4_15 
ROOT
HETATM    1  N1  UNL     1      -1.370   2.831   0.995  1.00  0.00    -0.191 NA
HETATM    2  C1  UNL     1      -0.623   1.986   0.736  1.00  0.00     0.106 C 
HETATM    3  C2  UNL     1       0.359   0.949   0.425  1.00  0.00     0.134 A 
HETATM    4  C3  UNL     1      -0.100  -0.232  -0.076  1.00  0.00     0.086 A 
HETATM    5  S1  UNL     1       1.220  -1.340  -0.383  1.00  0.00    -0.048 SA
HETATM    6  C5  UNL     1       2.747  -0.736  -0.007  1.00  0.00     0.145 A 
HETATM    7  N5  UNL     1       2.754   0.509   0.477  1.00  0.00    -0.303 N 
ATOM      8  H5  UNL     1       3.660   0.912   0.717  1.00  0.00     0.171 HD
HETATM    9  C6  UNL     1       1.678   1.268   0.672  1.00  0.00     0.269 A 
HETATM   10  O2  UNL     1       1.902   2.438   1.147  1.00  0.00    -0.266 OA
ENDROOT
BRANCH   4  11
HETATM   11  C4  UNL     1      -1.460  -0.624  -0.355  1.00  0.00     0.173 C 
BRANCH  11  12
HETATM   12  O1  UNL     1      -1.497  -1.853  -0.835  1.00  0.00    -0.344 OA
ATOM     13  H1  UNL     1      -2.393  -2.111  -1.019  1.00  0.00     0.219 HD
ENDBRANCH  11  12
BRANCH  11  14
HETATM   14  N2  UNL     1      -2.691  -0.013  -0.232  1.00  0.00    -0.286 N 
ATOM     15  H2  UNL     1      -2.786   0.936   0.128  1.00  0.00     0.188 HD
BRANCH  14  16
HETATM   16  N3  UNL     1      -3.834  -0.789  -0.640  1.00  0.00    -0.343 N 
ATOM     17  H32 UNL     1      -3.722  -1.737  -0.998  1.00  0.00     0.176 HD
ATOM     18  H31 UNL     1      -4.744  -0.337  -0.549  1.00  0.00     0.176 HD
ENDBRANCH  14  16
ENDBRANCH  11  14
ENDBRANCH   4  11
BRANCH   6  19
HETATM   19  N4  UNL     1       3.860  -1.369  -0.149  1.00  0.00    -0.380 N 
ATOM     20  H42 UNL     1       3.855  -2.320  -0.519  1.00  0.00     0.158 HD
ATOM     21  H41 UNL     1       4.785  -1.003   0.079  1.00  0.00     0.158 HD
ENDBRANCH   6  19
TORSDOF 5
