REMARK  2 active torsions:
REMARK  status: ('A' for Active; 'I' for Inactive)
REMARK    1  A    between atoms: N1_1  and  C1_5 
REMARK    2  A    between atoms: C1_5  and  N2_6 
ROOT
HETATM    1  N2  UNL     1      -1.081   0.755  -0.094  1.00  0.00    -0.252 N 
HETATM    2  N3  UNL     1      -1.089   2.006   0.320  1.00  0.00    -0.239 N 
ATOM      3  H3  UNL     1      -1.981   2.499   0.368  1.00  0.00     0.208 HD
HETATM    4  N4  UNL     1       0.012   2.650   0.677  1.00  0.00    -0.296 N 
ATOM      5  H4  UNL     1      -0.053   3.619   0.989  1.00  0.00     0.187 HD
HETATM    6  C2  UNL     1       1.204   2.053   0.635  1.00  0.00     0.122 A 
HETATM    7  C3  UNL     1       1.280   0.745   0.212  1.00  0.00     0.009 A 
HETATM    8  C4  UNL     1       2.481   0.084   0.154  1.00  0.00     0.015 A 
HETATM    9  C5  UNL     1       2.505  -1.223  -0.272  1.00  0.00     0.001 A 
HETATM   10  C6  UNL     1       1.364  -1.896  -0.643  1.00  0.00     0.002 A 
HETATM   11  C7  UNL     1       0.165  -1.215  -0.578  1.00  0.00     0.032 A 
HETATM   12  C8  UNL     1       0.087   0.107  -0.155  1.00  0.00     0.065 A 
ENDROOT
BRANCH   1  13
HETATM   13  C1  UNL     1      -2.303   0.103  -0.482  1.00  0.00     0.379 C 
BRANCH  13  14
HETATM   14  N1  UNL     1      -2.871  -0.582   0.691  1.00  0.00    -0.062 N 
ATOM     15  H13 UNL     1      -2.208  -1.224   1.125  1.00  0.00     0.276 HD
ATOM     16  H12 UNL     1      -3.000   0.047   1.484  1.00  0.00     0.276 HD
ATOM     17  H11 UNL     1      -3.738  -1.044   0.416  1.00  0.00     0.276 HD
ENDBRANCH  13  14
ENDBRANCH   1  13
TORSDOF 2
