REMARK  1 active torsions:
REMARK  status: ('A' for Active; 'I' for Inactive)
REMARK    1  A    between atoms: N1_5  and  C5_6 
ROOT
HETATM    1  C5  UNL     1       1.917  -0.002  -0.211  1.00  0.00     0.703 A 
HETATM    2  N2  UNL     1       2.759  -1.044  -0.090  1.00  0.00    -0.185 N 
ATOM      3  H2  UNL     1       2.471  -2.008   0.076  1.00  0.00     0.185 HD
HETATM    4  C6  UNL     1       4.018  -0.641  -0.217  1.00  0.00     0.215 A 
HETATM    5  N3  UNL     1       3.976   0.691  -0.424  1.00  0.00    -0.281 N 
ATOM      6  H3  UNL     1       4.784   1.298  -0.560  1.00  0.00     0.188 HD
HETATM    7  N4  UNL     1       2.710   1.079  -0.421  1.00  0.00    -0.131 N 
ATOM      8  H4  UNL     1       2.384   2.036  -0.555  1.00  0.00     0.205 HD
ENDROOT
BRANCH   1   9
HETATM    9  N1  UNL     1       0.484  -0.008  -0.138  1.00  0.00    -0.167 N 
HETATM   10  C4  UNL     1      -0.287   0.131  -1.218  1.00  0.00     0.115 A 
HETATM   11  C3  UNL     1      -1.666   0.125  -1.143  1.00  0.00     0.025 A 
HETATM   12  C2  UNL     1      -2.312  -0.028   0.069  1.00  0.00    -0.059 A 
HETATM   13  C1  UNL     1      -3.800  -0.037   0.171  1.00  0.00     0.048 C 
HETATM   14  C8  UNL     1      -1.504  -0.172   1.181  1.00  0.00     0.025 A 
HETATM   15  C7  UNL     1      -0.130  -0.158   1.050  1.00  0.00     0.115 A 
ENDBRANCH   1   9
TORSDOF 1
