REMARK  4 active torsions:
REMARK  status: ('A' for Active; 'I' for Inactive)
REMARK    1  A    between atoms: C2_2  and  C3_3 
REMARK    2  A    between atoms: C4_4  and  C5_5 
REMARK    3  A    between atoms: C8_9  and  C9_10 
REMARK    4  A    between atoms: N1_11  and  O2_13 
ROOT
HETATM    1  C5  UNL     1      -1.182  -0.774   0.078  1.00  0.00     0.054 A 
HETATM    2  C6  UNL     1      -1.750  -2.041   0.135  1.00  0.00     0.048 A 
HETATM    3  C7  UNL     1      -3.068  -1.909  -0.238  1.00  0.00     0.144 A 
HETATM    4  O1  UNL     1      -3.297  -0.672  -0.502  1.00  0.00    -0.320 OA
HETATM    5  C8  UNL     1      -2.185   0.067  -0.328  1.00  0.00     0.111 A 
ENDROOT
BRANCH   5   6
HETATM    6  C9  UNL     1      -2.224   1.486  -0.572  1.00  0.00     0.152 C 
HETATM    7  N1  UNL     1      -1.279   2.305  -0.455  1.00  0.00    -0.278 N 
ATOM      8  H1  UNL     1      -0.362   1.974  -0.155  1.00  0.00     0.193 HD
BRANCH   7   9
HETATM    9  O2  UNL     1      -1.465   3.667  -0.730  1.00  0.00    -0.290 OA
ATOM     10  H2  UNL     1      -0.750   4.286  -0.642  1.00  0.00     0.244 HD
ENDBRANCH   7   9
ENDBRANCH   5   6
BRANCH   1  11
HETATM   11  C4  UNL     1       0.165  -0.445   0.382  1.00  0.00    -0.064 C 
HETATM   12  C3  UNL     1       1.305  -0.197   0.645  1.00  0.00    -0.101 C 
BRANCH  12  13
HETATM   13  C2  UNL     1       2.698   0.126   0.984  1.00  0.00     0.090 C 
HETATM   14  C1  UNL     1       3.622  -0.114  -0.191  1.00  0.00     0.018 C 
ENDBRANCH  12  13
ENDBRANCH   1  11
TORSDOF 4
