REMARK  2 active torsions:
REMARK  status: ('A' for Active; 'I' for Inactive)
REMARK    1  A    between atoms: C3_3  and  N1_4 
REMARK    2  A    between atoms: N1_4  and  C4_6 
ROOT
HETATM    1  C1  UNL     1      -3.338  -0.338   1.759  1.00  0.00     0.018 C 
HETATM    2  C2  UNL     1      -2.872  -0.078   0.678  1.00  0.00    -0.072 C 
HETATM    3  C3  UNL     1      -2.281   0.261  -0.649  1.00  0.00     0.153 C 
ENDROOT
BRANCH   3   4
HETATM    4  N1  UNL     1      -1.048  -0.327  -0.758  1.00  0.00    -0.344 N 
ATOM      5  H1  UNL     1      -1.207  -1.197  -1.267  1.00  0.00     0.167 HD
BRANCH   4   6
HETATM    6  C4  UNL     1       0.152  -0.299  -0.532  1.00  0.00     0.126 A 
HETATM    7  N2  UNL     1       0.955  -1.343  -0.967  1.00  0.00    -0.351 N 
HETATM    8  C5  UNL     1       2.244  -1.327  -0.732  1.00  0.00     0.090 A 
ATOM      9  H2  UNL     1       0.540  -2.126  -1.472  1.00  0.00     0.166 HD
HETATM   10  C6  UNL     1       2.916  -0.329  -0.062  1.00  0.00     0.019 A 
HETATM   11  C7  UNL     1       2.162   0.728   0.390  1.00  0.00     0.028 A 
HETATM   12  C8  UNL     1       0.780   0.716   0.140  1.00  0.00     0.088 A 
HETATM   13  C9  UNL     1       0.058   1.854   0.643  1.00  0.00     0.103 C 
HETATM   14  N3  UNL     1      -0.500   2.793   1.066  1.00  0.00    -0.191 NA
ENDBRANCH   4   6
ENDBRANCH   3   4
TORSDOF 2
