REMARK  1 active torsions:
REMARK  status: ('A' for Active; 'I' for Inactive)
REMARK    1  A    between atoms: C5_6  and  C6_7 
ROOT
HETATM    1  C1  UNL     1      -2.937   1.599   0.107  1.00  0.00     0.177 C 
HETATM    2  N1  UNL     1      -1.996   0.497   0.311  1.00  0.00    -0.307 N 
HETATM    3  C2  UNL     1      -2.489  -0.687   0.775  1.00  0.00     0.110 A 
HETATM    4  C3  UNL     1      -1.630  -1.718   0.969  1.00  0.00     0.021 A 
HETATM    5  C4  UNL     1      -0.302  -1.539   0.694  1.00  0.00     0.035 A 
HETATM    6  C5  UNL     1       0.170  -0.333   0.226  1.00  0.00     0.076 A 
HETATM    7  N4  UNL     1      -0.716   0.657   0.050  1.00  0.00    -0.297 N 
ATOM      8  H4  UNL     1      -0.389   1.559  -0.296  1.00  0.00     0.187 HD
ENDROOT
BRANCH   6   9
HETATM    9  C6  UNL     1       1.600  -0.159  -0.063  1.00  0.00     0.077 A 
HETATM   10  C7  UNL     1       2.243   0.958  -0.531  1.00  0.00     0.120 A 
HETATM   11  N2  UNL     1       3.558   0.643  -0.643  1.00  0.00    -0.360 N 
HETATM   12  C8  UNL     1       3.749  -0.637  -0.260  1.00  0.00     0.180 A 
ATOM     13  H2  UNL     1       4.289   1.276  -0.967  1.00  0.00     0.166 HD
HETATM   14  N3  UNL     1       2.532  -1.092   0.087  1.00  0.00    -0.349 N 
ATOM     15  H3  UNL     1       2.348  -2.037   0.424  1.00  0.00     0.166 HD
ENDBRANCH   6   9
TORSDOF 1
