REMARK  1 active torsions:
REMARK  status: ('A' for Active; 'I' for Inactive)
REMARK    1  A    between atoms: N2_5  and  C4_7 
ROOT
HETATM    1  C1  UNL     1      -2.350   0.566   1.894  1.00  0.00     0.020 C 
HETATM    2  C2  UNL     1      -2.256   0.427   0.698  1.00  0.00    -0.044 C 
HETATM    3  C3  UNL     1      -2.161   0.245  -0.724  1.00  0.00     0.171 C 
HETATM    4  N1  UNL     1      -3.234   0.682  -1.549  1.00  0.00    -0.072 NA
HETATM    5  N2  UNL     1      -1.146  -0.299  -1.305  1.00  0.00    -0.322 N 
ATOM      6  H2  UNL     1      -1.149  -0.394  -2.321  1.00  0.00     0.169 HD
ENDROOT
BRANCH   5   7
HETATM    7  C4  UNL     1      -0.015  -0.773  -0.566  1.00  0.00     0.142 A 
HETATM    8  N3  UNL     1       0.091  -2.049  -0.172  1.00  0.00    -0.292 N 
HETATM    9  C5  UNL     1       1.166  -2.454   0.518  1.00  0.00     0.327 A 
ATOM     10  H3  UNL     1      -0.649  -2.714  -0.398  1.00  0.00     0.172 HD
HETATM   11  O1  UNL     1       1.263  -3.667   0.890  1.00  0.00    -0.247 OA
HETATM   12  N4  UNL     1       2.170  -1.632   0.847  1.00  0.00    -0.292 N 
HETATM   13  C6  UNL     1       2.107  -0.338   0.472  1.00  0.00     0.144 A 
ATOM     14  H4  UNL     1       2.971  -1.979   1.374  1.00  0.00     0.172 HD
HETATM   15  N5  UNL     1       2.939   0.701   0.650  1.00  0.00    -0.292 N 
HETATM   16  C8  UNL     1       1.007   0.089  -0.237  1.00  0.00     0.125 A 
HETATM   17  C7  UNL     1       2.363   1.754   0.061  1.00  0.00     0.326 A 
ATOM     18  H5  UNL     1       3.834   0.689   1.139  1.00  0.00     0.172 HD
HETATM   19  O2  UNL     1       2.851   2.909   0.021  1.00  0.00    -0.247 OA
HETATM   20  N6  UNL     1       1.182   1.403  -0.488  1.00  0.00    -0.302 N 
ATOM     21  H6  UNL     1       0.543   2.014  -0.996  1.00  0.00     0.171 HD
ENDBRANCH   5   7
TORSDOF 1
