REMARK  5 active torsions:
REMARK  status: ('A' for Active; 'I' for Inactive)
REMARK    1  A    between atoms: N2_6  and  C3_7 
REMARK    2  A    between atoms: C4_10  and  N4_11 
REMARK    3  A    between atoms: C5_14  and  N5_15 
REMARK    4  A    between atoms: C6_20  and  C7_21 
REMARK    5  A    between atoms: N10_32  and  C11_33 
ROOT
HETATM    1  C3  UNL     1      -1.221   0.548   0.584  1.00  0.00     0.136 A 
HETATM    2  N3  UNL     1      -1.085   1.783   1.180  1.00  0.00    -0.324 N 
ATOM      3  H3  UNL     1      -0.146   2.169   1.280  1.00  0.00     0.169 HD
HETATM    4  C4  UNL     1      -2.115   2.502   1.634  1.00  0.00     0.151 A 
HETATM    5  C5  UNL     1      -3.364   1.937   1.476  1.00  0.00     0.218 A 
HETATM    6  N6  UNL     1      -3.553   0.744   0.906  1.00  0.00    -0.328 N 
ATOM      7  H6  UNL     1      -4.497   0.368   0.813  1.00  0.00     0.168 HD
HETATM    8  C6  UNL     1      -2.482   0.025   0.447  1.00  0.00     0.124 A 
ENDROOT
BRANCH   1   9
HETATM    9  N2  UNL     1      -0.028  -0.082   0.156  1.00  0.00    -0.357 N 
HETATM   10  C2  UNL     1       0.480   0.296  -1.147  1.00  0.00     0.200 C 
HETATM   11  C1  UNL     1       1.968   0.410  -1.177  1.00  0.00     0.091 C 
HETATM   12  N1  UNL     1       2.609   1.305  -1.797  1.00  0.00    -0.388 N 
HETATM   13  N10 UNL     1       2.680  -0.577  -0.454  1.00  0.00    -0.363 N 
ATOM     14  H12 UNL     1       2.096   2.016  -2.318  1.00  0.00     0.157 HD
ATOM     15  H11 UNL     1       3.626   1.383  -1.818  1.00  0.00     0.157 HD
HETATM   16  C10 UNL     1       1.806  -1.694  -0.029  1.00  0.00     0.144 C 
HETATM   17  C9  UNL     1       0.763  -1.024   0.872  1.00  0.00     0.145 C 
BRANCH  13  18
HETATM   18  C11 UNL     1       4.063  -0.528  -0.151  1.00  0.00     0.085 A 
HETATM   19  C12 UNL     1       5.120  -0.417  -1.181  1.00  0.00     0.027 A 
HETATM   20  C13 UNL     1       4.913   0.652  -0.059  1.00  0.00     0.027 A 
ENDBRANCH  13  18
ENDBRANCH   1   9
BRANCH   8  21
HETATM   21  C7  UNL     1      -2.700  -1.277  -0.168  1.00  0.00     0.155 A 
HETATM   22  N7  UNL     1      -1.869  -2.180  -0.683  1.00  0.00    -0.279 N 
HETATM   23  N8  UNL     1      -2.526  -3.231  -1.130  1.00  0.00    -0.250 N 
ATOM     24  H7  UNL     1      -0.856  -2.072  -0.726  1.00  0.00     0.189 HD
HETATM   25  C8  UNL     1      -3.830  -3.007  -0.899  1.00  0.00     0.340 A 
ATOM     26  H8  UNL     1      -2.121  -4.058  -1.568  1.00  0.00     0.192 HD
HETATM   27  O3  UNL     1      -4.800  -3.797  -1.190  1.00  0.00    -0.245 OA
HETATM   28  N9  UNL     1      -3.913  -1.810  -0.312  1.00  0.00    -0.290 N 
ATOM     29  H9  UNL     1      -4.782  -1.366  -0.016  1.00  0.00     0.172 HD
ENDBRANCH   8  21
BRANCH   4  30
HETATM   30  N4  UNL     1      -1.988   3.658   2.191  1.00  0.00    -0.382 N 
ATOM     31  H42 UNL     1      -1.065   4.076   2.308  1.00  0.00     0.157 HD
ATOM     32  H41 UNL     1      -2.775   4.207   2.538  1.00  0.00     0.157 HD
ENDBRANCH   4  30
BRANCH   5  33
HETATM   33  N5  UNL     1      -4.474   2.716   1.968  1.00  0.00    -0.094 N 
HETATM   34  O1  UNL     1      -5.567   2.550   1.435  1.00  0.00    -0.530 OA
HETATM   35  O2  UNL     1      -4.314   3.609   2.996  1.00  0.00    -0.530 OA
ENDBRANCH   5  33
TORSDOF 5
