REMARK  7 active torsions:
REMARK  status: ('A' for Active; 'I' for Inactive)
REMARK    1  A    between atoms: N1_2  and  C2_5 
REMARK    2  A    between atoms: N2_7  and  C4_8 
REMARK    3  A    between atoms: C5_11  and  N4_12 
REMARK    4  A    between atoms: N4_12  and  C6_14 
REMARK    5  A    between atoms: C12_22  and  N6_23 
REMARK    6  A    between atoms: N6_23  and  N7_25 
REMARK    7  A    between atoms: C13_30  and  N9_31 
ROOT
HETATM    1  C4  UNL     1      -1.117  -0.169  -0.041  1.00  0.00     0.149 A 
HETATM    2  N3  UNL     1       0.117   0.460  -0.249  1.00  0.00    -0.174 N 
ATOM      3  H3  UNL     1       0.137   1.477  -0.320  1.00  0.00     0.186 HD
HETATM    4  C5  UNL     1       1.265  -0.206  -0.358  1.00  0.00     0.680 A 
HETATM    5  N5  UNL     1       1.285  -1.537  -0.270  1.00  0.00    -0.186 N 
ATOM      6  H5  UNL     1       2.160  -2.054  -0.352  1.00  0.00     0.184 HD
HETATM    7  C11 UNL     1       0.113  -2.183  -0.069  1.00  0.00     0.126 A 
HETATM    8  C12 UNL     1       0.165  -3.551   0.023  1.00  0.00     0.165 A 
HETATM    9  N8  UNL     1      -0.977  -4.215   0.226  1.00  0.00    -0.173 N 
ATOM     10  H8  UNL     1      -0.969  -5.232   0.300  1.00  0.00     0.186 HD
HETATM   11  C13 UNL     1      -2.124  -3.549   0.332  1.00  0.00     0.680 A 
HETATM   12  N10 UNL     1      -2.245  -2.188   0.249  1.00  0.00    -0.182 N 
HETATM   13  C14 UNL     1      -3.498  -1.553   0.353  1.00  0.00     0.176 C 
HETATM   14  C15 UNL     1      -1.102  -1.508   0.047  1.00  0.00     0.126 A 
ENDROOT
BRANCH   1  15
HETATM   15  N2  UNL     1      -2.145   0.747   0.066  1.00  0.00    -0.361 N 
HETATM   16  C3  UNL     1      -2.891   1.566  -0.926  1.00  0.00     0.159 C 
HETATM   17  C2  UNL     1      -2.817   2.735   0.060  1.00  0.00     0.221 C 
HETATM   18  C16 UNL     1      -2.873   1.532   1.021  1.00  0.00     0.159 C 
BRANCH  17  19
HETATM   19  N1  UNL     1      -3.986   3.538   0.191  1.00  0.00    -0.072 N 
HETATM   20  C1  UNL     1      -4.327   4.214  -1.042  1.00  0.00     0.267 C 
ATOM     21  H12 UNL     1      -3.894   4.200   0.961  1.00  0.00     0.277 HD
ATOM     22  H11 UNL     1      -4.772   2.990   0.541  1.00  0.00     0.277 HD
ENDBRANCH  17  19
ENDBRANCH   1  15
BRANCH   4  23
HETATM   23  N4  UNL     1       2.333   0.492  -0.556  1.00  0.00    -0.221 N 
ATOM     24  H4  UNL     1       2.211   1.503  -0.612  1.00  0.00     0.178 HD
BRANCH  23  25
HETATM   25  C6  UNL     1       3.658   0.006  -0.704  1.00  0.00     0.099 C 
HETATM   26  C7  UNL     1       4.338  -0.120   0.639  1.00  0.00     0.026 C 
HETATM   27  C8  UNL     1       4.936   1.257   0.894  1.00  0.00     0.002 C 
HETATM   28  C9  UNL     1       5.483   1.606  -0.466  1.00  0.00     0.002 C 
HETATM   29  C10 UNL     1       4.468   1.068  -1.418  1.00  0.00     0.026 C 
ENDBRANCH  23  25
ENDBRANCH   4  23
BRANCH   8  30
HETATM   30  N6  UNL     1       1.292  -4.203  -0.062  1.00  0.00    -0.290 N 
ATOM     31  H6  UNL     1       1.243  -5.219   0.018  1.00  0.00     0.188 HD
BRANCH  30  32
HETATM   32  N7  UNL     1       2.540  -3.656  -0.249  1.00  0.00    -0.344 N 
ATOM     33  H72 UNL     1       2.570  -2.639  -0.327  1.00  0.00     0.176 HD
ATOM     34  H71 UNL     1       3.421  -4.166  -0.315  1.00  0.00     0.176 HD
ENDBRANCH  30  32
ENDBRANCH   8  30
BRANCH  11  35
HETATM   35  N9  UNL     1      -3.227  -4.200   0.534  1.00  0.00    -0.234 N 
ATOM     36  H92 UNL     1      -3.137  -5.214   0.596  1.00  0.00     0.174 HD
ATOM     37  H91 UNL     1      -4.106  -3.689   0.615  1.00  0.00     0.174 HD
ENDBRANCH  11  35
TORSDOF 7
