REMARK  7 active torsions:
REMARK  status: ('A' for Active; 'I' for Inactive)
REMARK    1  A    between atoms: C4_7  and  N3_8 
REMARK    2  A    between atoms: C5_11  and  N4_12 
REMARK    3  A    between atoms: N4_12  and  C6_14 
REMARK    4  A    between atoms: C7_17  and  N6_18 
REMARK    5  A    between atoms: N6_18  and  C8_20 
REMARK    6  A    between atoms: C8_20  and  C9_21 
REMARK    7  A    between atoms: C9_21  and  N7_22 
ROOT
HETATM    1  N1  UNL     1      -1.534   4.630   2.584  1.00  0.00    -0.190 NA
HETATM    2  C1  UNL     1      -2.165   3.817   2.093  1.00  0.00     0.119 C 
HETATM    3  C2  UNL     1      -2.953   2.796   1.453  1.00  0.00     0.131 A 
HETATM    4  C3  UNL     1      -4.017   3.094   0.621  1.00  0.00     0.131 A 
HETATM    5  N2  UNL     1      -4.745   2.128   0.030  1.00  0.00    -0.347 N 
ATOM      6  H2  UNL     1      -5.526   2.370  -0.580  1.00  0.00     0.167 HD
HETATM    7  C4  UNL     1      -4.430   0.845   0.254  1.00  0.00     0.144 A 
HETATM    8  C5  UNL     1      -3.364   0.494   1.086  1.00  0.00     0.152 A 
HETATM    9  N11 UNL     1      -2.676   1.495   1.646  1.00  0.00    -0.330 N 
ATOM     10  H11 UNL     1      -1.894   1.257   2.256  1.00  0.00     0.168 HD
ENDROOT
BRANCH   8  11
HETATM   11  N4  UNL     1      -3.075  -0.880   1.287  1.00  0.00    -0.324 N 
ATOM     12  H4  UNL     1      -3.712  -1.431   1.862  1.00  0.00     0.169 HD
BRANCH  11  13
HETATM   13  C6  UNL     1      -2.048  -1.464   0.778  1.00  0.00     0.147 A 
HETATM   14  N5  UNL     1      -1.173  -0.788   0.011  1.00  0.00    -0.175 N 
HETATM   15  C7  UNL     1      -0.095  -1.446  -0.509  1.00  0.00     0.681 A 
ATOM     16  H5  UNL     1      -1.313   0.204  -0.180  1.00  0.00     0.186 HD
HETATM   17  N8  UNL     1       0.104  -2.742  -0.272  1.00  0.00    -0.177 N 
HETATM   18  C14 UNL     1      -0.767  -3.436   0.497  1.00  0.00     0.156 A 
ATOM     19  H8  UNL     1       0.916  -3.213  -0.672  1.00  0.00     0.185 HD
HETATM   20  N9  UNL     1      -0.567  -4.811   0.756  1.00  0.00    -0.080 NA
HETATM   21  C15 UNL     1      -1.853  -2.797   1.029  1.00  0.00     0.130 A 
HETATM   22  C16 UNL     1      -2.770  -3.549   1.844  1.00  0.00     0.107 C 
HETATM   23  N10 UNL     1      -3.499  -4.162   2.520  1.00  0.00    -0.191 NA
BRANCH  15  24
HETATM   24  N6  UNL     1       0.697  -0.760  -1.224  1.00  0.00    -0.224 N 
ATOM     25  H6  UNL     1       0.451   0.223  -1.342  1.00  0.00     0.177 HD
BRANCH  24  26
HETATM   26  C8  UNL     1       1.878  -1.184  -1.879  1.00  0.00     0.168 C 
BRANCH  26  27
HETATM   27  C9  UNL     1       3.169  -0.892  -1.176  1.00  0.00     0.292 C 
BRANCH  27  28
HETATM   28  N7  UNL     1       3.380   0.492  -1.000  1.00  0.00     0.090 N 
HETATM   29  C10 UNL     1       4.623   0.804  -0.322  1.00  0.00     0.272 C 
HETATM   30  C11 UNL     1       4.547   2.335  -0.299  1.00  0.00     0.032 C 
HETATM   31  C12 UNL     1       3.073   2.577  -0.044  1.00  0.00     0.032 C 
HETATM   32  C13 UNL     1       2.358   1.302  -0.489  1.00  0.00     0.272 C 
ENDBRANCH  27  28
ENDBRANCH  26  27
ENDBRANCH  24  26
ENDBRANCH  15  24
ENDBRANCH  11  13
ENDBRANCH   8  11
BRANCH   7  33
HETATM   33  N3  UNL     1      -5.121  -0.077  -0.307  1.00  0.00    -0.382 N 
ATOM     34  H32 UNL     1      -5.899   0.179  -0.914  1.00  0.00     0.157 HD
ATOM     35  H31 UNL     1      -4.881  -1.054  -0.136  1.00  0.00     0.157 HD
ENDBRANCH   7  33
TORSDOF 7
