REMARK  7 active torsions:
REMARK  status: ('A' for Active; 'I' for Inactive)
REMARK    1  A    between atoms: C2_3  and  N2_4 
REMARK    2  A    between atoms: C4_9  and  N4_10 
REMARK    3  A    between atoms: C5_13  and  N5_14 
REMARK    4  A    between atoms: N5_14  and  C6_16 
REMARK    5  A    between atoms: C7_19  and  N7_20 
REMARK    6  A    between atoms: C8_25  and  N9_26 
REMARK    7  A    between atoms: N9_26  and  C9_28 
ROOT
HETATM    1  N1  UNL     1      -4.694  -2.744   3.183  1.00  0.00    -0.195 NA
HETATM    2  C1  UNL     1      -4.332  -2.470   2.119  1.00  0.00     0.081 C 
HETATM    3  C2  UNL     1      -3.870  -2.149   0.768  1.00  0.00     0.274 C 
ENDROOT
BRANCH   3   4
HETATM    4  N2  UNL     1      -4.282  -0.797   0.430  1.00  0.00    -0.258 N 
HETATM    5  N3  UNL     1      -5.410  -0.450  -0.153  1.00  0.00    -0.260 N 
HETATM    6  C3  UNL     1      -5.402   0.886  -0.285  1.00  0.00     0.297 A 
ATOM      7  H3  UNL     1      -6.154  -1.081  -0.450  1.00  0.00     0.190 HD
HETATM    8  O1  UNL     1      -6.316   1.602  -0.802  1.00  0.00    -0.264 OA
HETATM    9  C4  UNL     1      -4.219   1.388   0.237  1.00  0.00     0.217 A 
HETATM   10  C5  UNL     1      -3.520   0.289   0.688  1.00  0.00     0.177 A 
BRANCH   9  11
HETATM   11  N4  UNL     1      -3.806   2.748   0.299  1.00  0.00    -0.106 N 
HETATM   12  O2  UNL     1      -3.440   3.300  -0.748  1.00  0.00    -0.531 OA
HETATM   13  O3  UNL     1      -3.798   3.462   1.461  1.00  0.00    -0.531 OA
ENDBRANCH   9  11
BRANCH  10  14
HETATM   14  N5  UNL     1      -2.219   0.288   1.317  1.00  0.00    -0.171 N 
ATOM     15  H5  UNL     1      -2.121   0.406   2.325  1.00  0.00     0.186 HD
BRANCH  14  16
HETATM   16  C6  UNL     1      -1.186   0.133   0.562  1.00  0.00     0.713 A 
HETATM   17  N6  UNL     1      -1.306  -0.026  -0.777  1.00  0.00    -0.021 N 
HETATM   18  C7  UNL     1      -0.237  -0.193  -1.578  1.00  0.00     0.705 A 
ATOM     19  H6  UNL     1      -2.237  -0.019  -1.193  1.00  0.00     0.203 HD
HETATM   20  N8  UNL     1       0.969  -0.196  -0.988  1.00  0.00    -0.022 N 
HETATM   21  C8  UNL     1       1.164  -0.045   0.331  1.00  0.00     0.707 A 
ATOM     22  H8  UNL     1       1.790  -0.321  -1.580  1.00  0.00     0.203 HD
HETATM   23  N10 UNL     1       0.049   0.121   1.093  1.00  0.00    -0.021 N 
ATOM     24  H10 UNL     1       0.154   0.240   2.101  1.00  0.00     0.203 HD
BRANCH  18  25
HETATM   25  N7  UNL     1      -0.372  -0.344  -2.870  1.00  0.00    -0.234 N 
ATOM     26  H72 UNL     1      -1.288  -0.342  -3.318  1.00  0.00     0.174 HD
ATOM     27  H71 UNL     1       0.438  -0.471  -3.477  1.00  0.00     0.174 HD
ENDBRANCH  18  25
BRANCH  21  28
HETATM   28  N9  UNL     1       2.330  -0.053   0.876  1.00  0.00    -0.220 N 
ATOM     29  H9  UNL     1       2.391   0.070   1.887  1.00  0.00     0.178 HD
BRANCH  28  30
HETATM   30  C9  UNL     1       3.539  -0.225   0.143  1.00  0.00     0.099 C 
HETATM   31  C10 UNL     1       4.645  -0.648   1.119  1.00  0.00     0.026 C 
HETATM   32  C11 UNL     1       5.852  -0.506   0.182  1.00  0.00     0.002 C 
HETATM   33  C12 UNL     1       5.630   0.931  -0.298  1.00  0.00     0.002 C 
HETATM   34  C13 UNL     1       4.127   1.010  -0.451  1.00  0.00     0.026 C 
ENDBRANCH  28  30
ENDBRANCH  21  28
ENDBRANCH  14  16
ENDBRANCH  10  14
ENDBRANCH   3   4
TORSDOF 7
