REMARK  6 active torsions:
REMARK  status: ('A' for Active; 'I' for Inactive)
REMARK    1  A    between atoms: C2_2  and  C3_3 
REMARK    2  A    between atoms: C3_3  and  N2_6 
REMARK    3  A    between atoms: N3_9  and  C7_10 
REMARK    4  A    between atoms: C10_13  and  C11_14 
REMARK    5  A    between atoms: C13_19  and  N6_20 
REMARK    6  A    between atoms: C14_25  and  N8_26 
ROOT
HETATM    1  C3  UNL     1      -5.440   0.343   0.747  1.00  0.00     0.351 C 
HETATM    2  C4  UNL     1      -5.800  -0.565   1.863  1.00  0.00     0.099 C 
HETATM    3  N1  UNL     1      -6.062  -1.285   2.733  1.00  0.00    -0.195 NA
ENDROOT
BRANCH   1   4
HETATM    4  C2  UNL     1      -6.187   0.011  -0.476  1.00  0.00     0.013 C 
HETATM    5  C1  UNL     1      -6.673   0.945  -1.307  1.00  0.00     0.010 C 
ENDBRANCH   1   4
BRANCH   1   6
HETATM    6  N2  UNL     1      -4.018   0.272   0.598  1.00  0.00     0.113 N 
HETATM    7  C5  UNL     1      -3.568  -1.060   0.279  1.00  0.00     0.294 C 
HETATM    8  C6  UNL     1      -2.207  -1.104  -0.371  1.00  0.00     0.154 C 
HETATM    9  N3  UNL     1      -1.401   0.054  -0.158  1.00  0.00    -0.363 N 
HETATM   10  C15 UNL     1      -1.996   1.373  -0.021  1.00  0.00     0.154 C 
HETATM   11  C16 UNL     1      -3.467   1.262  -0.307  1.00  0.00     0.294 C 
BRANCH   9  12
HETATM   12  C7  UNL     1       0.036  -0.015  -0.069  1.00  0.00     0.117 A 
HETATM   13  C8  UNL     1       0.748  -1.172  -0.279  1.00  0.00     0.052 A 
HETATM   14  C9  UNL     1       2.141  -1.197  -0.175  1.00  0.00     0.036 A 
HETATM   15  C10 UNL     1       2.799  -0.030   0.145  1.00  0.00     0.065 A 
HETATM   16  N9  UNL     1       2.068   1.058   0.337  1.00  0.00    -0.298 N 
HETATM   17  N10 UNL     1       0.754   1.100   0.243  1.00  0.00    -0.285 N 
ATOM     18  H9  UNL     1       2.555   1.922   0.574  1.00  0.00     0.187 HD
ATOM     19  H10 UNL     1       0.267   1.981   0.406  1.00  0.00     0.188 HD
BRANCH  15  20
HETATM   20  C11 UNL     1       4.249  -0.003   0.268  1.00  0.00     0.078 A 
HETATM   21  C12 UNL     1       5.082   0.276  -0.801  1.00  0.00     0.148 A 
HETATM   22  N4  UNL     1       4.459   0.545  -2.060  1.00  0.00    -0.081 NA
HETATM   23  N5  UNL     1       6.392   0.277  -0.594  1.00  0.00    -0.178 N 
HETATM   24  C13 UNL     1       6.940   0.020   0.604  1.00  0.00     0.678 A 
ATOM     25  H5  UNL     1       7.010   0.482  -1.379  1.00  0.00     0.185 HD
HETATM   26  N7  UNL     1       6.152  -0.254   1.657  1.00  0.00    -0.176 N 
HETATM   27  C14 UNL     1       4.819  -0.269   1.510  1.00  0.00     0.130 A 
ATOM     28  H7  UNL     1       6.567  -0.450   2.568  1.00  0.00     0.186 HD
BRANCH  24  29
HETATM   29  N6  UNL     1       8.219   0.038   0.732  1.00  0.00    -0.234 N 
ATOM     30  H62 UNL     1       8.817   0.246  -0.067  1.00  0.00     0.174 HD
ATOM     31  H61 UNL     1       8.635  -0.157   1.642  1.00  0.00     0.174 HD
ENDBRANCH  24  29
BRANCH  27  32
HETATM   32  N8  UNL     1       4.038  -0.529   2.510  1.00  0.00    -0.384 N 
ATOM     33  H82 UNL     1       3.024  -0.540   2.398  1.00  0.00     0.157 HD
ATOM     34  H81 UNL     1       4.456  -0.724   3.420  1.00  0.00     0.157 HD
ENDBRANCH  27  32
ENDBRANCH  15  20
ENDBRANCH   9  12
ENDBRANCH   1   6
TORSDOF 6
