REMARK  6 active torsions:
REMARK  status: ('A' for Active; 'I' for Inactive)
REMARK    1  A    between atoms: C4_7  and  S1_8 
REMARK    2  A    between atoms: S1_8  and  C5_9 
REMARK    3  A    between atoms: C5_9  and  C6_10 
REMARK    4  A    between atoms: C6_10  and  N3_11 
REMARK    5  A    between atoms: N3_11  and  C7_13 
REMARK    6  A    between atoms: C13_31  and  N9_32 
ROOT
HETATM    1  N1  UNL     1       7.776  -1.865   1.408  1.00  0.00    -0.191 NA
HETATM    2  C1  UNL     1       6.854  -1.413   0.864  1.00  0.00     0.104 C 
HETATM    3  C2  UNL     1       5.710  -0.868   0.174  1.00  0.00     0.103 A 
HETATM    4  C3  UNL     1       4.421  -1.284   0.487  1.00  0.00     0.116 A 
HETATM    5  N2  UNL     1       3.348  -0.770  -0.162  1.00  0.00    -0.345 N 
ATOM      6  H2  UNL     1       2.414  -1.094   0.089  1.00  0.00     0.167 HD
HETATM    7  C4  UNL     1       3.482   0.152  -1.124  1.00  0.00     0.145 A 
HETATM    8  N8  UNL     1       4.722   0.563  -1.437  1.00  0.00    -0.322 N 
ATOM      9  H8  UNL     1       4.838   1.265  -2.168  1.00  0.00     0.169 HD
HETATM   10  C13 UNL     1       5.819   0.081  -0.819  1.00  0.00     0.123 A 
ENDROOT
BRANCH  10  11
HETATM   11  N9  UNL     1       7.015   0.488  -1.132  1.00  0.00    -0.384 N 
ATOM     12  H92 UNL     1       7.845   0.123  -0.664  1.00  0.00     0.157 HD
ATOM     13  H91 UNL     1       7.096   1.191  -1.867  1.00  0.00     0.157 HD
ENDBRANCH  10  11
BRANCH   7  14
HETATM   14  S1  UNL     1       2.104   0.863  -1.993  1.00  0.00    -0.092 SA
BRANCH  14  15
HETATM   15  C5  UNL     1       0.507   0.306  -1.441  1.00  0.00     0.102 C 
BRANCH  15  16
HETATM   16  C6  UNL     1       0.112   0.756  -0.058  1.00  0.00     0.132 C 
BRANCH  16  17
HETATM   17  N3  UNL     1      -1.185   0.214   0.233  1.00  0.00    -0.374 N 
ATOM     18  H3  UNL     1      -1.202  -0.744   0.584  1.00  0.00     0.161 HD
BRANCH  17  19
HETATM   19  C7  UNL     1      -2.315   0.782   0.107  1.00  0.00     0.132 A 
HETATM   20  N4  UNL     1      -2.519   2.030  -0.333  1.00  0.00    -0.337 N 
HETATM   21  C8  UNL     1      -3.736   2.586  -0.443  1.00  0.00     0.182 A 
ATOM     22  H4  UNL     1      -1.707   2.588  -0.599  1.00  0.00     0.168 HD
HETATM   23  N5  UNL     1      -4.823   1.894  -0.107  1.00  0.00    -0.346 N 
HETATM   24  C9  UNL     1      -4.725   0.636   0.344  1.00  0.00     0.133 A 
ATOM     25  H5  UNL     1      -5.742   2.327  -0.194  1.00  0.00     0.167 HD
HETATM   26  C10 UNL     1      -5.855  -0.079   0.691  1.00  0.00     0.278 A 
HETATM   27  C12 UNL     1      -3.477   0.078   0.453  1.00  0.00     0.113 A 
HETATM   28  O1  UNL     1      -6.994   0.434   0.591  1.00  0.00    -0.265 OA
HETATM   29  N6  UNL     1      -5.650  -1.334   1.134  1.00  0.00    -0.274 N 
HETATM   30  C11 UNL     1      -4.426  -1.877   1.239  1.00  0.00     0.327 A 
ATOM     31  H6  UNL     1      -6.458  -1.896   1.401  1.00  0.00     0.173 HD
HETATM   32  O2  UNL     1      -4.260  -3.047   1.654  1.00  0.00    -0.247 OA
HETATM   33  N7  UNL     1      -3.329  -1.178   0.900  1.00  0.00    -0.303 N 
ATOM     34  H7  UNL     1      -2.402  -1.595   0.981  1.00  0.00     0.171 HD
ENDBRANCH  17  19
ENDBRANCH  16  17
ENDBRANCH  15  16
ENDBRANCH  14  15
ENDBRANCH   7  14
TORSDOF 6
