REMARK  7 active torsions:
REMARK  status: ('A' for Active; 'I' for Inactive)
REMARK    1  A    between atoms: C2_3  and  N2_4 
REMARK    2  A    between atoms: C2_3  and  C10_24 
REMARK    3  A    between atoms: N2_4  and  C3_6 
REMARK    4  A    between atoms: C6_15  and  C7_16 
REMARK    5  A    between atoms: C7_16  and  C8_17 
REMARK    6  A    between atoms: C8_17  and  N6_18 
REMARK    7  A    between atoms: C13_30  and  N8_31 
ROOT
HETATM    1  N1  UNL     1       2.994  -3.002   2.390  1.00  0.00    -0.195 NA
HETATM    2  C1  UNL     1       2.577  -1.951   2.176  1.00  0.00     0.091 C 
HETATM    3  C2  UNL     1       2.040  -0.619   1.882  1.00  0.00     0.242 C 
ENDROOT
BRANCH   3   4
HETATM    4  N2  UNL     1       0.734  -0.647   1.361  1.00  0.00    -0.353 N 
ATOM      5  H2  UNL     1       0.061  -0.092   1.889  1.00  0.00     0.162 HD
BRANCH   4   6
HETATM    6  C3  UNL     1       0.249  -1.233   0.363  1.00  0.00     0.124 A 
HETATM    7  N3  UNL     1       0.906  -2.027  -0.503  1.00  0.00    -0.338 N 
HETATM    8  C4  UNL     1       0.171  -2.548  -1.501  1.00  0.00     0.183 A 
ATOM      9  H3  UNL     1       1.903  -2.222  -0.408  1.00  0.00     0.168 HD
HETATM   10  N4  UNL     1      -1.114  -2.357  -1.710  1.00  0.00    -0.337 N 
HETATM   11  C5  UNL     1      -1.843  -1.556  -0.860  1.00  0.00     0.128 A 
ATOM     12  H4  UNL     1      -1.572  -2.804  -2.505  1.00  0.00     0.168 HD
HETATM   13  N5  UNL     1      -3.121  -1.273  -0.937  1.00  0.00    -0.339 N 
HETATM   14  C9  UNL     1      -1.133  -1.009   0.165  1.00  0.00     0.094 A 
HETATM   15  C6  UNL     1      -3.674  -0.485  -0.043  1.00  0.00     0.054 A 
ATOM     16  H5  UNL     1      -3.686  -1.665  -1.691  1.00  0.00     0.168 HD
HETATM   17  S1  UNL     1      -2.358  -0.104   0.975  1.00  0.00    -0.069 SA
BRANCH  15  18
HETATM   18  C7  UNL     1      -5.090  -0.023   0.079  1.00  0.00     0.092 C 
BRANCH  18  19
HETATM   19  C8  UNL     1      -5.213   1.277  -0.714  1.00  0.00     0.236 C 
BRANCH  19  20
HETATM   20  N6  UNL     1      -4.306   2.229  -0.148  1.00  0.00    -0.079 N 
ATOM     21  H63 UNL     1      -4.449   2.363   0.853  1.00  0.00     0.274 HD
ATOM     22  H62 UNL     1      -3.348   1.883  -0.104  1.00  0.00     0.274 HD
ATOM     23  H61 UNL     1      -4.388   3.097  -0.677  1.00  0.00     0.274 HD
ENDBRANCH  19  20
ENDBRANCH  18  19
ENDBRANCH  15  18
ENDBRANCH   4   6
ENDBRANCH   3   4
BRANCH   3  24
HETATM   24  C10 UNL     1       2.951   0.086   0.932  1.00  0.00     0.068 A 
HETATM   25  C11 UNL     1       4.205  -0.349   0.630  1.00  0.00     0.103 A 
HETATM   26  C12 UNL     1       4.989   0.357  -0.258  1.00  0.00     0.261 A 
HETATM   27  O1  UNL     1       6.159  -0.049  -0.539  1.00  0.00    -0.268 OA
HETATM   28  N7  UNL     1       4.535   1.476  -0.838  1.00  0.00    -0.156 N 
HETATM   29  C13 UNL     1       3.311   1.902  -0.545  1.00  0.00     0.679 A 
ATOM     30  H7  UNL     1       5.120   1.993  -1.494  1.00  0.00     0.187 HD
HETATM   31  N9  UNL     1       2.535   1.226   0.318  1.00  0.00    -0.193 N 
ATOM     32  H9  UNL     1       1.600   1.580   0.520  1.00  0.00     0.184 HD
BRANCH  29  33
HETATM   33  N8  UNL     1       2.860   2.975  -1.094  1.00  0.00    -0.234 N 
ATOM     34  H82 UNL     1       3.449   3.488  -1.749  1.00  0.00     0.174 HD
ATOM     35  H81 UNL     1       1.920   3.302  -0.869  1.00  0.00     0.174 HD
ENDBRANCH  29  33
ENDBRANCH   3  24
TORSDOF 7
