REMARK  6 active torsions:
REMARK  status: ('A' for Active; 'I' for Inactive)
REMARK    1  A    between atoms: C2_2  and  N1_4 
REMARK    2  A    between atoms: N1_4  and  C4_6 
REMARK    3  A    between atoms: C6_13  and  N4_14 
REMARK    4  A    between atoms: N5_17  and  C9_18 
REMARK    5  A    between atoms: C9_18  and  C10_19 
REMARK    6  A    between atoms: C10_19  and  O1_20 
ROOT
HETATM    1  C4  UNL     1      -2.887   0.156   0.304  1.00  0.00     0.134 C 
HETATM    2  N2  UNL     1      -1.913  -0.705   0.595  1.00  0.00    -0.324 N 
ATOM      3  H2  UNL     1      -2.212  -1.678   0.658  1.00  0.00     0.169 HD
HETATM    4  C5  UNL     1      -0.571  -0.503   0.825  1.00  0.00     0.145 C 
HETATM    5  N3  UNL     1       0.080  -1.492   1.273  1.00  0.00    -0.382 N 
ATOM      6  H31 UNL     1       1.074  -1.342   1.443  1.00  0.00     0.157 HD
ATOM      7  H32 UNL     1      -0.460  -2.347   1.410  1.00  0.00     0.157 HD
HETATM    8  C6  UNL     1       0.152   0.642   0.641  1.00  0.00     0.149 C 
HETATM    9  N6  UNL     1      -0.342   1.908   0.714  1.00  0.00    -0.324 N 
ATOM     10  H6  UNL     1       0.318   2.623   1.020  1.00  0.00     0.169 HD
HETATM   11  C13 UNL     1      -1.600   2.347   0.433  1.00  0.00     0.140 A 
HETATM   12  N7  UNL     1      -1.940   3.650   0.289  1.00  0.00    -0.318 N 
ATOM     13  H7  UNL     1      -1.318   4.455   0.368  1.00  0.00     0.169 HD
HETATM   14  C14 UNL     1      -3.250   3.676   0.023  1.00  0.00     0.190 A 
HETATM   15  C15 UNL     1      -4.111   4.819  -0.214  1.00  0.00     0.137 C 
HETATM   16  N8  UNL     1      -4.808   5.745  -0.383  1.00  0.00    -0.188 NA
HETATM   17  N9  UNL     1      -3.718   2.420   0.001  1.00  0.00    -0.327 N 
ATOM     18  H9  UNL     1      -4.687   2.156  -0.180  1.00  0.00     0.168 HD
HETATM   19  C16 UNL     1      -2.705   1.554   0.256  1.00  0.00     0.123 A 
ENDROOT
BRANCH   1  20
HETATM   20  N1  UNL     1      -4.052  -0.171   0.055  1.00  0.00    -0.370 N 
ATOM     21  H1  UNL     1      -4.566   0.691  -0.129  1.00  0.00     0.161 HD
BRANCH  20  22
HETATM   22  C2  UNL     1      -4.943  -1.196  -0.078  1.00  0.00     0.075 C 
HETATM   23  C1  UNL     1      -5.530  -1.381  -1.475  1.00  0.00     0.031 C 
HETATM   24  C3  UNL     1      -4.589  -2.566   0.436  1.00  0.00     0.031 C 
ENDBRANCH  20  22
ENDBRANCH   1  20
BRANCH   8  25
HETATM   25  N4  UNL     1       1.526   0.522   0.337  1.00  0.00    -0.361 N 
HETATM   26  C7  UNL     1       2.009   0.961  -0.977  1.00  0.00     0.154 C 
HETATM   27  C8  UNL     1       3.076   0.164  -1.571  1.00  0.00     0.292 C 
HETATM   28  N5  UNL     1       3.946  -0.598  -0.733  1.00  0.00     0.093 N 
HETATM   29  C11 UNL     1       3.360  -1.022   0.497  1.00  0.00     0.292 C 
HETATM   30  C12 UNL     1       2.558   0.022   1.182  1.00  0.00     0.154 C 
BRANCH  28  31
HETATM   31  C9  UNL     1       5.268  -0.034  -0.641  1.00  0.00     0.298 C 
BRANCH  31  32
HETATM   32  C10 UNL     1       6.229  -1.041  -0.081  1.00  0.00     0.194 C 
BRANCH  32  33
HETATM   33  O1  UNL     1       6.279  -2.181  -0.907  1.00  0.00    -0.399 OA
ATOM     34  H1  UNL     1       6.887  -2.819  -0.552  1.00  0.00     0.209 HD
ENDBRANCH  32  33
ENDBRANCH  31  32
ENDBRANCH  28  31
ENDBRANCH   8  25
TORSDOF 6
