REMARK  5 active torsions:
REMARK  status: ('A' for Active; 'I' for Inactive)
REMARK    1  A    between atoms: C3_4  and  C4_5 
REMARK       I    between atoms: C4_5  and  N2_7 
REMARK    2  A    between atoms: N2_7  and  C5_9 
REMARK    3  A    between atoms: C5_9  and  C6_10 
REMARK    4  A    between atoms: C11_19  and  N5_20 
REMARK    5  A    between atoms: C16_30  and  N9_31 
ROOT
HETATM    1  N1  UNL     1      -0.175   0.240  -5.690  1.00  0.00    -0.191 NA
HETATM    2  C1  UNL     1      -0.628   0.157  -4.627  1.00  0.00     0.106 C 
HETATM    3  C2  UNL     1      -1.212   0.040  -3.323  1.00  0.00     0.121 A 
HETATM    4  C3  UNL     1      -0.503   0.117  -2.148  1.00  0.00     0.141 A 
HETATM    5  N4  UNL     1      -1.149  -0.010  -0.952  1.00  0.00    -0.184 N 
ATOM      6  H4  UNL     1      -0.602   0.050  -0.093  1.00  0.00     0.184 HD
HETATM    7  C11 UNL     1      -2.469  -0.210  -0.857  1.00  0.00     0.689 A 
HETATM    8  N8  UNL     1      -3.183  -0.289  -2.012  1.00  0.00    -0.175 N 
ATOM      9  H8  UNL     1      -4.191  -0.442  -1.970  1.00  0.00     0.186 HD
HETATM   10  C16 UNL     1      -2.583  -0.169  -3.206  1.00  0.00     0.138 A 
ENDROOT
BRANCH   4  11
HETATM   11  C4  UNL     1       0.933   0.346  -2.189  1.00  0.00     0.270 C 
HETATM   12  O1  UNL     1       1.500   0.547  -3.302  1.00  0.00    -0.266 OA
HETATM   13  N2  UNL     1       1.731   0.349  -1.005  1.00  0.00    -0.355 N 
ATOM     14  H2  UNL     1       1.304   0.188  -0.093  1.00  0.00     0.162 HD
BRANCH  13  15
HETATM   15  C5  UNL     1       3.138   0.582  -1.118  1.00  0.00     0.129 C 
BRANCH  15  16
HETATM   16  C6  UNL     1       3.871   0.558   0.170  1.00  0.00     0.021 C 
HETATM   17  C7  UNL     1       3.435   1.558   1.193  1.00  0.00     0.009 C 
HETATM   18  C8  UNL     1       4.556   1.640   2.221  1.00  0.00     0.020 C 
HETATM   19  C9  UNL     1       5.051   0.321   2.693  1.00  0.00     0.113 C 
HETATM   20  N3  UNL     1       5.029  -0.754   1.763  1.00  0.00    -0.421 N 
HETATM   21  C10 UNL     1       3.907  -0.788   0.861  1.00  0.00     0.120 C 
ATOM     22  H3  UNL     1       5.765  -1.460   1.736  1.00  0.00     0.153 HD
ENDBRANCH  15  16
ENDBRANCH  13  15
ENDBRANCH   4  11
BRANCH  10  23
HETATM   23  N9  UNL     1      -3.268  -0.242  -4.304  1.00  0.00    -0.384 N 
ATOM     24  H92 UNL     1      -2.812  -0.151  -5.212  1.00  0.00     0.157 HD
ATOM     25  H91 UNL     1      -4.273  -0.395  -4.218  1.00  0.00     0.157 HD
ENDBRANCH  10  23
BRANCH   7  26
HETATM   26  N5  UNL     1      -3.161  -0.322   0.373  1.00  0.00    -0.155 N 
HETATM   27  C12 UNL     1      -3.916   0.790   0.944  1.00  0.00     0.152 C 
HETATM   28  C13 UNL     1      -5.305   0.223   1.231  1.00  0.00     0.041 C 
HETATM   29  C14 UNL     1      -5.207  -0.946   2.193  1.00  0.00     0.124 C 
HETATM   30  N6  UNL     1      -4.101  -1.809   1.955  1.00  0.00    -0.364 N 
HETATM   31  C15 UNL     1      -3.137  -1.536   1.110  1.00  0.00     0.205 C 
ATOM     32  H6  UNL     1      -4.056  -2.688   2.470  1.00  0.00     0.162 HD
HETATM   33  N7  UNL     1      -2.055  -2.421   0.908  1.00  0.00    -0.063 NA
ENDBRANCH   7  26
TORSDOF 5
