REMARK  5 active torsions:
REMARK  status: ('A' for Active; 'I' for Inactive)
REMARK    1  A    between atoms: C3_5  and  N2_6 
REMARK    2  A    between atoms: C5_13  and  C6_14 
REMARK    3  A    between atoms: C6_14  and  N4_15 
REMARK    4  A    between atoms: N4_15  and  C7_17 
REMARK    5  A    between atoms: C7_17  and  N5_18 
ROOT
HETATM    1  N4  UNL     1       0.984   1.015   0.832  1.00  0.00    -0.381 N 
ATOM      2  H4  UNL     1       0.568   1.738   1.419  1.00  0.00     0.160 HD
ENDROOT
BRANCH   1   3
HETATM    3  C6  UNL     1       2.038   1.372  -0.051  1.00  0.00     0.166 C 
BRANCH   3   4
HETATM    4  C5  UNL     1       3.195   0.500  -0.157  1.00  0.00     0.051 A 
HETATM    5  C2  UNL     1       4.410   0.857   0.442  1.00  0.00     0.036 A 
HETATM    6  C1  UNL     1       4.544   2.226   1.042  1.00  0.00     0.069 C 
HETATM    7  N1  UNL     1       5.394   0.001   0.310  1.00  0.00    -0.195 N 
HETATM    8  C3  UNL     1       5.409  -1.136  -0.306  1.00  0.00     0.678 A 
ATOM      9  H1  UNL     1       6.271   0.269   0.756  1.00  0.00     0.184 HD
HETATM   10  N3  UNL     1       4.219  -1.544  -0.931  1.00  0.00    -0.156 N 
HETATM   11  C4  UNL     1       3.132  -0.715  -0.852  1.00  0.00     0.269 A 
ATOM     12  H3  UNL     1       4.166  -2.432  -1.429  1.00  0.00     0.187 HD
HETATM   13  O1  UNL     1       2.114  -1.142  -1.456  1.00  0.00    -0.267 OA
BRANCH   8  14
HETATM   14  N2  UNL     1       6.363  -1.937  -0.352  1.00  0.00    -0.234 N 
ATOM     15  H22 UNL     1       7.227  -1.641   0.102  1.00  0.00     0.174 HD
ATOM     16  H21 UNL     1       6.375  -2.834  -0.838  1.00  0.00     0.174 HD
ENDBRANCH   8  14
ENDBRANCH   3   4
ENDBRANCH   1   3
BRANCH   1  17
HETATM   17  C7  UNL     1       0.500  -0.285   0.925  1.00  0.00     0.195 C 
BRANCH  17  18
HETATM   18  N5  UNL     1      -0.971  -0.400   1.061  1.00  0.00    -0.243 N 
HETATM   19  S1  UNL     1      -2.089  -0.829   2.126  1.00  0.00     0.001 SA
HETATM   20  C8  UNL     1      -3.507  -0.799   1.184  1.00  0.00     0.083 A 
HETATM   21  C9  UNL     1      -2.989  -0.399  -0.033  1.00  0.00     0.063 A 
HETATM   22  C14 UNL     1      -4.946  -1.155   1.286  1.00  0.00     0.194 C 
HETATM   23  C10 UNL     1      -1.681  -0.202  -0.094  1.00  0.00     0.268 A 
HETATM   24  C11 UNL     1      -4.066  -0.110  -1.075  1.00  0.00     0.222 C 
HETATM   25  O2  UNL     1      -1.080   0.165  -1.186  1.00  0.00    -0.266 OA
HETATM   26  C12 UNL     1      -4.753   1.221  -0.720  1.00  0.00     0.045 C 
HETATM   27  N6  UNL     1      -4.969  -1.187  -1.119  1.00  0.00    -0.060 N 
HETATM   28  C13 UNL     1      -5.791  -1.317   0.056  1.00  0.00     0.317 C 
ATOM     29  H62 UNL     1      -5.549  -1.132  -1.956  1.00  0.00     0.278 HD
ATOM     30  H61 UNL     1      -4.475  -2.059  -1.307  1.00  0.00     0.278 HD
HETATM   31  O3  UNL     1      -5.362  -1.319   2.442  1.00  0.00    -0.290 OA
ENDBRANCH  17  18
ENDBRANCH   1  17
TORSDOF 5
