REMARK  6 active torsions:
REMARK  status: ('A' for Active; 'I' for Inactive)
REMARK    1  A    between atoms: N1_2  and  C2_3 
REMARK    2  A    between atoms: N1_2  and  C6_14 
REMARK    3  A    between atoms: C4_7  and  N3_8 
REMARK    4  A    between atoms: C7_17  and  N6_18 
REMARK    5  A    between atoms: N6_18  and  C8_20 
REMARK    6  A    between atoms: C12_27  and  N8_28 
ROOT
HETATM    1  C6  UNL     1      -1.146  -0.099  -0.138  1.00  0.00     0.687 A 
HETATM    2  N5  UNL     1      -1.248   1.167  -0.583  1.00  0.00    -0.176 N 
ATOM      3  H5  UNL     1      -2.181   1.570  -0.672  1.00  0.00     0.186 HD
HETATM    4  C7  UNL     1      -0.210   1.923  -0.913  1.00  0.00     0.120 A 
HETATM    5  C11 UNL     1       1.060   1.399  -0.803  1.00  0.00     0.097 A 
HETATM    6  C12 UNL     1       1.213   0.100  -0.350  1.00  0.00     0.122 A 
HETATM    7  N10 UNL     1       0.104  -0.588  -0.039  1.00  0.00    -0.176 N 
ATOM      8  H10 UNL     1       0.216  -1.545   0.295  1.00  0.00     0.186 HD
ENDROOT
BRANCH   1   9
HETATM    9  N1  UNL     1      -2.303  -0.838   0.189  1.00  0.00    -0.185 N 
HETATM   10  C1  UNL     1      -3.619  -0.227  -0.071  1.00  0.00     0.175 C 
BRANCH   9  11
HETATM   11  C2  UNL     1      -2.312  -2.129   0.765  1.00  0.00     0.083 A 
HETATM   12  C3  UNL     1      -2.797  -2.279   2.036  1.00  0.00     0.137 A 
HETATM   13  N2  UNL     1      -2.830  -3.474   2.649  1.00  0.00    -0.200 N 
HETATM   14  C4  UNL     1      -2.376  -4.588   2.019  1.00  0.00     0.675 A 
ATOM     15  H2  UNL     1      -3.200  -3.545   3.597  1.00  0.00     0.183 HD
HETATM   16  N4  UNL     1      -1.897  -4.476   0.782  1.00  0.00    -0.200 N 
HETATM   17  C5  UNL     1      -1.852  -3.280   0.137  1.00  0.00     0.137 A 
ATOM     18  H4  UNL     1      -1.554  -5.310   0.305  1.00  0.00     0.183 HD
BRANCH  14  19
HETATM   19  N3  UNL     1      -2.431  -5.743   2.651  1.00  0.00    -0.234 N 
ATOM     20  H32 UNL     1      -2.798  -5.829   3.599  1.00  0.00     0.174 HD
ATOM     21  H31 UNL     1      -2.090  -6.580   2.178  1.00  0.00     0.174 HD
ENDBRANCH  14  19
ENDBRANCH   9  11
ENDBRANCH   1   9
BRANCH   4  22
HETATM   22  N6  UNL     1      -0.357   3.132  -1.332  1.00  0.00    -0.368 N 
ATOM     23  H6  UNL     1       0.465   3.684  -1.576  1.00  0.00     0.161 HD
BRANCH  22  24
HETATM   24  C8  UNL     1      -1.654   3.709  -1.459  1.00  0.00     0.134 C 
HETATM   25  C9  UNL     1      -1.577   5.045  -2.167  1.00  0.00     0.259 C 
HETATM   26  N7  UNL     1      -2.310   5.653  -1.093  1.00  0.00    -0.071 N 
HETATM   27  C10 UNL     1      -2.200   4.468  -0.297  1.00  0.00     0.259 C 
ATOM     28  H72 UNL     1      -1.991   6.543  -0.711  1.00  0.00     0.277 HD
ATOM     29  H71 UNL     1      -3.232   6.048  -1.278  1.00  0.00     0.277 HD
ENDBRANCH  22  24
ENDBRANCH   4  22
BRANCH   6  30
HETATM   30  N8  UNL     1       2.524  -0.423  -0.243  1.00  0.00    -0.364 N 
HETATM   31  C13 UNL     1       3.211  -1.040  -1.361  1.00  0.00     0.143 C 
HETATM   32  C14 UNL     1       4.633  -0.458  -1.394  1.00  0.00     0.133 C 
HETATM   33  N9  UNL     1       5.348  -0.770  -0.194  1.00  0.00    -0.418 N 
HETATM   34  C15 UNL     1       4.530  -1.163   0.921  1.00  0.00     0.133 C 
ATOM     35  H9  UNL     1       6.365  -0.717  -0.134  1.00  0.00     0.153 HD
HETATM   36  C16 UNL     1       3.258  -0.364   1.005  1.00  0.00     0.143 C 
ENDBRANCH   6  30
TORSDOF 6
