REMARK  2 active torsions:
REMARK  status: ('A' for Active; 'I' for Inactive)
REMARK    1  A    between atoms: N1_1  and  C1_4 
REMARK    2  A    between atoms: N5_19  and  C7_20 
ROOT
HETATM    1  C1  UNL     1       1.874   0.355   0.483  1.00  0.00     0.122 A 
HETATM    2  N2  UNL     1       2.274  -0.924   0.507  1.00  0.00    -0.294 N 
ATOM      3  H2  UNL     1       3.248  -1.123   0.736  1.00  0.00     0.172 HD
HETATM    4  C2  UNL     1       1.464  -1.948   0.247  1.00  0.00     0.327 A 
HETATM    5  O1  UNL     1       1.856  -3.161   0.273  1.00  0.00    -0.247 OA
HETATM    6  N3  UNL     1       0.164  -1.679  -0.058  1.00  0.00    -0.293 N 
ATOM      7  H3  UNL     1      -0.460  -2.460  -0.258  1.00  0.00     0.172 HD
HETATM    8  C3  UNL     1      -0.333  -0.434  -0.108  1.00  0.00     0.141 A 
HETATM    9  C4  UNL     1       0.562   0.610   0.174  1.00  0.00     0.120 A 
HETATM   10  C5  UNL     1       0.112   1.908   0.139  1.00  0.00     0.267 A 
HETATM   11  O2  UNL     1       0.932   2.835   0.396  1.00  0.00    -0.267 OA
HETATM   12  N4  UNL     1      -1.166   2.180  -0.160  1.00  0.00    -0.274 N 
ATOM     13  H4  UNL     1      -1.498   3.144  -0.185  1.00  0.00     0.173 HD
HETATM   14  C6  UNL     1      -1.999   1.168  -0.425  1.00  0.00     0.337 A 
HETATM   15  O3  UNL     1      -3.191   1.430  -0.703  1.00  0.00    -0.246 OA
HETATM   16  N5  UNL     1      -1.609  -0.151  -0.406  1.00  0.00    -0.224 N 
ENDROOT
BRANCH   1  17
HETATM   17  N1  UNL     1       2.640   1.357   0.731  1.00  0.00    -0.384 N 
ATOM     18  H12 UNL     1       3.616   1.167   0.961  1.00  0.00     0.157 HD
ATOM     19  H11 UNL     1       2.336   2.330   0.713  1.00  0.00     0.157 HD
ENDBRANCH   1  17
BRANCH  16  20
HETATM   20  C7  UNL     1      -2.541  -1.140  -0.694  1.00  0.00     0.365 C 
HETATM   21  O4  UNL     1      -2.450  -2.365  -0.743  1.00  0.00    -0.283 OA
ENDBRANCH  16  20
TORSDOF 2
