REMARK  2 active torsions:
REMARK  status: ('A' for Active; 'I' for Inactive)
REMARK    1  A    between atoms: N1_1  and  C1_5 
REMARK    2  A    between atoms: C1_5  and  N2_6 
ROOT
HETATM    1  C1  UNL     1      -0.868  -0.458  -0.571  1.00  0.00     0.355 C 
HETATM    2  C6  UNL     1      -1.373   0.802  -1.122  1.00  0.00     0.292 C 
HETATM    3  O1  UNL     1      -0.639   1.431  -1.961  1.00  0.00    -0.268 OA
HETATM    4  N4  UNL     1      -2.616   1.345  -0.774  1.00  0.00    -0.275 N 
ATOM      5  H4  UNL     1      -2.951   2.190  -1.236  1.00  0.00     0.173 HD
HETATM    6  C7  UNL     1      -3.409   0.719   0.221  1.00  0.00     0.329 C 
HETATM    7  O2  UNL     1      -4.549   1.227   0.534  1.00  0.00    -0.247 OA
HETATM    8  N5  UNL     1      -2.936  -0.448   0.851  1.00  0.00    -0.275 N 
ATOM      9  H5  UNL     1      -3.508  -0.897   1.566  1.00  0.00     0.173 HD
HETATM   10  C8  UNL     1      -1.695  -1.004   0.515  1.00  0.00     0.292 C 
HETATM   11  O3  UNL     1      -1.257  -2.014   1.163  1.00  0.00    -0.268 OA
ENDROOT
BRANCH   1  12
HETATM   12  N1  UNL     1      -0.982  -1.439  -1.671  1.00  0.00    -0.034 N 
ATOM     13  H13 UNL     1      -0.317  -1.253  -2.422  1.00  0.00     0.278 HD
ATOM     14  H12 UNL     1      -0.643  -2.362  -1.399  1.00  0.00     0.278 HD
ATOM     15  H11 UNL     1      -1.944  -1.467  -2.009  1.00  0.00     0.278 HD
ENDBRANCH   1  12
BRANCH   1  16
HETATM   16  N2  UNL     1       0.490  -0.418  -0.094  1.00  0.00    -0.363 N 
HETATM   17  C2  UNL     1       1.494  -0.151  -1.063  1.00  0.00     0.139 C 
HETATM   18  C3  UNL     1       2.796  -0.640  -0.397  1.00  0.00     0.133 C 
HETATM   19  N3  UNL     1       3.091   0.313   0.619  1.00  0.00    -0.418 N 
HETATM   20  C4  UNL     1       2.016   0.843   1.364  1.00  0.00     0.133 C 
ATOM     21  H3  UNL     1       4.051   0.604   0.803  1.00  0.00     0.153 HD
HETATM   22  C5  UNL     1       0.655   0.289   1.139  1.00  0.00     0.139 C 
ENDBRANCH   1  16
TORSDOF 2
