REMARK  4 active torsions:
REMARK  status: ('A' for Active; 'I' for Inactive)
REMARK    1  A    between atoms: N1_1  and  C1_4 
REMARK    2  A    between atoms: C2_7  and  N3_8 
REMARK    3  A    between atoms: N3_8  and  S1_10 
REMARK    4  A    between atoms: S1_10  and  N4_11 
ROOT
HETATM    1  C1  UNL     1      -1.865  -1.177  -0.051  1.00  0.00     0.679 A 
HETATM    2  N2  UNL     1      -0.510  -1.100  -0.139  1.00  0.00    -0.174 N 
ATOM      3  H2  UNL     1       0.028  -1.958  -0.263  1.00  0.00     0.186 HD
HETATM    4  C2  UNL     1       0.141   0.075  -0.067  1.00  0.00     0.163 A 
HETATM    5  C3  UNL     1      -0.630   1.208   0.099  1.00  0.00     0.137 A 
HETATM    6  N5  UNL     1      -0.331   2.524   0.210  1.00  0.00    -0.277 N 
ATOM      7  H5  UNL     1       0.610   2.917   0.184  1.00  0.00     0.184 HD
HETATM    8  N6  UNL     1      -1.447   3.225   0.358  1.00  0.00    -0.020 NA
HETATM    9  N7  UNL     1      -2.476   2.391   0.347  1.00  0.00    -0.267 N 
ATOM     10  H7  UNL     1      -3.456   2.659   0.442  1.00  0.00     0.186 HD
HETATM   11  C4  UNL     1      -2.020   1.127   0.189  1.00  0.00     0.165 A 
HETATM   12  N8  UNL     1      -2.609  -0.084   0.110  1.00  0.00    -0.173 N 
ATOM     13  H8  UNL     1      -3.624  -0.163   0.174  1.00  0.00     0.186 HD
ENDROOT
BRANCH   4  14
HETATM   14  N3  UNL     1       1.411   0.206  -0.144  1.00  0.00    -0.251 N 
ATOM     15  H3  UNL     1       1.790   1.151  -0.077  1.00  0.00     0.182 HD
BRANCH  14  16
HETATM   16  S1  UNL     1       2.520  -1.070  -0.349  1.00  0.00     0.318 S 
HETATM   17  O1  UNL     1       2.523  -1.610  -1.771  1.00  0.00    -0.183 OA
HETATM   18  O2  UNL     1       2.322  -2.185   0.644  1.00  0.00    -0.183 OA
BRANCH  16  19
HETATM   19  N4  UNL     1       4.120  -0.434  -0.044  1.00  0.00    -0.311 N 
ATOM     20  H42 UNL     1       4.334   0.530   0.210  1.00  0.00     0.170 HD
ATOM     21  H41 UNL     1       4.784  -1.198  -0.167  1.00  0.00     0.170 HD
ENDBRANCH  16  19
ENDBRANCH  14  16
ENDBRANCH   4  14
BRANCH   1  22
HETATM   22  N1  UNL     1      -2.479  -2.312  -0.121  1.00  0.00    -0.234 N 
ATOM     23  H12 UNL     1      -1.909  -3.149  -0.244  1.00  0.00     0.174 HD
ATOM     24  H11 UNL     1      -3.495  -2.370  -0.055  1.00  0.00     0.174 HD
ENDBRANCH   1  22
TORSDOF 4
