REMARK  0 active torsions:
REMARK  status: ('A' for Active; 'I' for Inactive)
REMARK       I    between atoms: N1_1  and  C1_5 
REMARK       I    between atoms: C1_5  and  N2_6 
REMARK       I    between atoms: C1_5  and  N3_10 
ROOT
HETATM    1  N1  UNL     1       2.805   0.572   1.361  1.00  0.00    -0.036 N 
ATOM      2  H11 UNL     1       2.372   0.389   2.266  1.00  0.00     0.278 HD
ATOM      3  H12 UNL     1       2.770   1.557   1.097  1.00  0.00     0.278 HD
ATOM      4  H13 UNL     1       3.820   0.473   1.380  1.00  0.00     0.278 HD
HETATM    5  C1  UNL     1       2.177  -0.290   0.391  1.00  0.00     0.470 C 
HETATM    6  N2  UNL     1       2.794  -0.029  -0.900  1.00  0.00    -0.036 N 
ATOM      7  H21 UNL     1       2.350  -0.639  -1.586  1.00  0.00     0.278 HD
ATOM      8  H22 UNL     1       3.809  -0.128  -0.881  1.00  0.00     0.278 HD
ATOM      9  H23 UNL     1       2.759   0.956  -1.164  1.00  0.00     0.278 HD
HETATM   10  N3  UNL     1       0.752  -0.102   0.370  1.00  0.00    -0.140 NA
HETATM   11  C2  UNL     1       0.036  -1.116  -0.320  1.00  0.00     0.115 C 
HETATM   12  C3  UNL     1      -1.222  -1.426   0.463  1.00  0.00     0.035 C 
HETATM   13  C4  UNL     1      -2.387  -1.274  -0.469  1.00  0.00     0.125 C 
HETATM   14  N4  UNL     1      -3.017   0.008  -0.310  1.00  0.00    -0.342 N 
ATOM     15  H4  UNL     1      -4.024  -0.023  -0.468  1.00  0.00     0.164 HD
HETATM   16  C5  UNL     1      -2.554   1.298   0.015  1.00  0.00     0.330 C 
HETATM   17  O1  UNL     1      -3.489   2.044   0.369  1.00  0.00    -0.246 OA
HETATM   18  N5  UNL     1      -1.260   1.901   0.016  1.00  0.00    -0.223 N 
ATOM     19  H5  UNL     1      -1.355   2.913   0.105  1.00  0.00     0.184 HD
HETATM   20  S1  UNL     1       0.381   1.491  -0.082  1.00  0.00     0.309 S 
HETATM   21  O2  UNL     1       1.140   2.426   0.838  1.00  0.00    -0.188 OA
HETATM   22  O3  UNL     1       0.897   1.794  -1.480  1.00  0.00    -0.188 OA
ENDROOT
TORSDOF 0
