REMARK  2 active torsions:
REMARK  status: ('A' for Active; 'I' for Inactive)
REMARK    1  A    between atoms: N1_1  and  N2_4 
REMARK       I    between atoms: N2_4  and  C1_6 
REMARK    2  A    between atoms: C1_6  and  C2_8 
ROOT
HETATM    1  C2  UNL     1       1.069  -0.613   0.022  1.00  0.00     0.050 A 
HETATM    2  C3  UNL     1       0.470  -1.838   0.310  1.00  0.00     0.106 A 
HETATM    3  N3  UNL     1      -0.861  -2.026   0.302  1.00  0.00    -0.350 N 
ATOM      4  H3  UNL     1      -1.245  -2.945   0.520  1.00  0.00     0.166 HD
HETATM    5  C4  UNL     1      -1.675  -1.023   0.013  1.00  0.00     0.124 A 
HETATM    6  N4  UNL     1      -3.022  -1.176  -0.004  1.00  0.00    -0.294 N 
ATOM      7  H4  UNL     1      -3.444  -2.080   0.209  1.00  0.00     0.172 HD
HETATM    8  C5  UNL     1      -3.786  -0.123  -0.304  1.00  0.00     0.328 A 
HETATM    9  O2  UNL     1      -5.051  -0.253  -0.324  1.00  0.00    -0.247 OA
HETATM   10  N5  UNL     1      -3.294   1.100  -0.596  1.00  0.00    -0.275 N 
ATOM     11  H5  UNL     1      -3.923   1.871  -0.819  1.00  0.00     0.173 HD
HETATM   12  C6  UNL     1      -1.962   1.287  -0.588  1.00  0.00     0.263 A 
HETATM   13  O3  UNL     1      -1.446   2.397  -0.849  1.00  0.00    -0.267 OA
HETATM   14  C7  UNL     1      -1.155   0.218  -0.282  1.00  0.00     0.077 A 
HETATM   15  C8  UNL     1       0.230   0.435  -0.280  1.00  0.00     0.039 A 
ENDROOT
BRANCH   1  16
HETATM   16  C1  UNL     1       2.514  -0.451   0.041  1.00  0.00     0.271 C 
HETATM   17  N2  UNL     1       3.188   0.758  -0.239  1.00  0.00    -0.272 N 
ATOM     18  H2  UNL     1       2.641   1.587  -0.473  1.00  0.00     0.189 HD
HETATM   19  O1  UNL     1       3.212  -1.487   0.334  1.00  0.00    -0.266 OA
BRANCH  17  20
HETATM   20  N1  UNL     1       4.574   0.852  -0.205  1.00  0.00    -0.342 N 
ATOM     21  H12 UNL     1       5.105   0.014   0.031  1.00  0.00     0.176 HD
ATOM     22  H11 UNL     1       5.061   1.725  -0.407  1.00  0.00     0.176 HD
ENDBRANCH  17  20
ENDBRANCH   1  16
TORSDOF 2
