REMARK  7 active torsions:
REMARK  status: ('A' for Active; 'I' for Inactive)
REMARK    1  A    between atoms: C2_2  and  C3_3 
REMARK    2  A    between atoms: C2_2  and  N3_13 
REMARK    3  A    between atoms: C3_3  and  C4_4 
REMARK    4  A    between atoms: C6_8  and  N2_9 
REMARK    5  A    between atoms: C7_14  and  S2_15 
REMARK    6  A    between atoms: S2_15  and  N4_16 
REMARK    7  A    between atoms: C9_24  and  N6_25 
ROOT
HETATM    1  N3  UNL     1      -0.728   0.215  -0.728  1.00  0.00    -0.301 N 
HETATM    2  C7  UNL     1      -1.328   1.338  -0.295  1.00  0.00     0.228 A 
HETATM    3  N5  UNL     1      -2.122   0.993   0.747  1.00  0.00    -0.325 N 
ATOM      4  H5  UNL     1      -2.701   1.647   1.274  1.00  0.00     0.168 HD
HETATM    5  C8  UNL     1      -2.046  -0.321   0.993  1.00  0.00     0.123 A 
HETATM    6  C9  UNL     1      -2.655  -1.128   1.931  1.00  0.00     0.131 A 
HETATM    7  N7  UNL     1      -2.356  -2.446   1.910  1.00  0.00    -0.337 N 
ATOM      8  H7  UNL     1      -2.787  -3.073   2.589  1.00  0.00     0.168 HD
HETATM    9  C10 UNL     1      -1.498  -2.935   1.004  1.00  0.00     0.183 A 
HETATM   10  N8  UNL     1      -0.919  -2.123   0.102  1.00  0.00    -0.336 N 
ATOM     11  H8  UNL     1      -0.271  -2.532  -0.571  1.00  0.00     0.168 HD
HETATM   12  C11 UNL     1      -1.149  -0.803   0.040  1.00  0.00     0.142 A 
ENDROOT
BRANCH   1  13
HETATM   13  C2  UNL     1       0.181   0.157  -1.805  1.00  0.00     0.094 C 
HETATM   14  C1  UNL     1      -0.508  -0.155  -3.142  1.00  0.00     0.033 C 
BRANCH  13  15
HETATM   15  C3  UNL     1       1.285  -0.843  -1.686  1.00  0.00     0.073 C 
BRANCH  15  16
HETATM   16  C4  UNL     1       2.042  -0.640  -0.409  1.00  0.00     0.003 A 
HETATM   17  C5  UNL     1       3.107  -1.355   0.046  1.00  0.00     0.105 A 
HETATM   18  N1  UNL     1       3.633  -1.022   1.189  1.00  0.00    -0.346 N 
HETATM   19  C6  UNL     1       3.105   0.003   1.858  1.00  0.00     0.142 A 
ATOM     20  H1  UNL     1       4.431  -1.534   1.564  1.00  0.00     0.167 HD
HETATM   21  S1  UNL     1       1.829   0.510   0.846  1.00  0.00    -0.058 SA
BRANCH  19  22
HETATM   22  N2  UNL     1       3.498   0.481   3.019  1.00  0.00    -0.380 N 
ATOM     23  H22 UNL     1       4.261   0.178   3.624  1.00  0.00     0.158 HD
ATOM     24  H21 UNL     1       3.094   1.265   3.531  1.00  0.00     0.158 HD
ENDBRANCH  19  22
ENDBRANCH  15  16
ENDBRANCH  13  15
ENDBRANCH   1  13
BRANCH   2  25
HETATM   25  S2  UNL     1      -1.213   2.969  -0.844  1.00  0.00     0.289 S 
HETATM   26  O1  UNL     1      -2.500   3.681  -0.546  1.00  0.00    -0.198 OA
HETATM   27  O2  UNL     1      -0.958   3.113  -2.300  1.00  0.00    -0.198 OA
BRANCH  25  28
HETATM   28  N4  UNL     1       0.044   3.815   0.000  1.00  0.00    -0.322 N 
ATOM     29  H42 UNL     1       0.628   3.391   0.721  1.00  0.00     0.169 HD
ATOM     30  H41 UNL     1       0.112   4.780  -0.325  1.00  0.00     0.169 HD
ENDBRANCH  25  28
ENDBRANCH   2  25
BRANCH   6  31
HETATM   31  N6  UNL     1      -3.481  -0.651   2.800  1.00  0.00    -0.383 N 
ATOM     32  H62 UNL     1      -3.707   0.344   2.816  1.00  0.00     0.157 HD
ATOM     33  H61 UNL     1      -3.931  -1.248   3.494  1.00  0.00     0.157 HD
ENDBRANCH   6  31
TORSDOF 7
