REMARK  7 active torsions:
REMARK  status: ('A' for Active; 'I' for Inactive)
REMARK    1  A    between atoms: N1_1  and  C1_4 
REMARK    2  A    between atoms: C3_9  and  C4_10 
REMARK    3  A    between atoms: C4_10  and  N4_12 
REMARK    4  A    between atoms: C7_16  and  C8_17 
REMARK    5  A    between atoms: C8_17  and  C9_18 
REMARK    6  A    between atoms: C9_18  and  N5_19 
REMARK    7  A    between atoms: C13_27  and  N8_28 
ROOT
HETATM    1  C4  UNL     1      -1.428  -0.715   0.714  1.00  0.00     0.116 C 
HETATM    2  S1  UNL     1      -0.924  -2.171   1.235  1.00  0.00    -0.059 SA
ENDROOT
BRANCH   1   3
HETATM    3  C3  UNL     1      -2.760  -0.582   0.181  1.00  0.00     0.087 A 
HETATM    4  C2  UNL     1      -3.809  -0.498   1.089  1.00  0.00     0.148 A 
HETATM    5  N2  UNL     1      -5.066  -0.373   0.635  1.00  0.00    -0.178 N 
HETATM    6  N3  UNL     1      -3.537  -0.544   2.483  1.00  0.00    -0.081 NA
HETATM    7  C1  UNL     1      -5.332  -0.329  -0.683  1.00  0.00     0.678 A 
ATOM      8  H2  UNL     1      -5.835  -0.310   1.303  1.00  0.00     0.185 HD
HETATM    9  N9  UNL     1      -4.308  -0.411  -1.551  1.00  0.00    -0.176 N 
HETATM   10  C13 UNL     1      -3.024  -0.537  -1.186  1.00  0.00     0.131 A 
ATOM     11  H9  UNL     1      -4.521  -0.375  -2.548  1.00  0.00     0.186 HD
BRANCH   7  12
HETATM   12  N1  UNL     1      -6.572  -0.206  -1.092  1.00  0.00    -0.234 N 
ATOM     13  H12 UNL     1      -7.349  -0.144  -0.434  1.00  0.00     0.174 HD
ATOM     14  H11 UNL     1      -6.774  -0.173  -2.091  1.00  0.00     0.174 HD
ENDBRANCH   7  12
BRANCH  10  15
HETATM   15  N8  UNL     1      -2.049  -0.616  -2.004  1.00  0.00    -0.384 N 
ATOM     16  H82 UNL     1      -1.072  -0.712  -1.726  1.00  0.00     0.157 HD
ATOM     17  H81 UNL     1      -2.242  -0.583  -3.005  1.00  0.00     0.157 HD
ENDBRANCH  10  15
ENDBRANCH   1   3
BRANCH   1  18
HETATM   18  N4  UNL     1      -0.552   0.395   0.792  1.00  0.00    -0.367 N 
HETATM   19  C5  UNL     1      -0.941   1.719   0.344  1.00  0.00     0.150 C 
HETATM   20  C6  UNL     1       0.084   2.226  -0.650  1.00  0.00     0.188 C 
HETATM   21  O1  UNL     1       1.159   1.349  -0.772  1.00  0.00    -0.383 OA
HETATM   22  C7  UNL     1       1.682   1.166   0.510  1.00  0.00     0.141 C 
HETATM   23  C12 UNL     1       0.789   0.260   1.329  1.00  0.00     0.155 C 
BRANCH  22  24
HETATM   24  C8  UNL     1       3.106   0.722   0.497  1.00  0.00     0.055 C 
BRANCH  24  25
HETATM   25  C9  UNL     1       3.307  -0.592  -0.222  1.00  0.00     0.152 C 
BRANCH  25  26
HETATM   26  N5  UNL     1       4.707  -0.966  -0.199  1.00  0.00    -0.287 N 
HETATM   27  C10 UNL     1       5.382  -1.695   0.702  1.00  0.00     0.201 A 
HETATM   28  N6  UNL     1       6.672  -1.805   0.345  1.00  0.00    -0.346 N 
HETATM   29  C11 UNL     1       6.810  -1.128  -0.810  1.00  0.00     0.198 A 
ATOM     30  H6  UNL     1       7.404  -2.304   0.850  1.00  0.00     0.167 HD
HETATM   31  N7  UNL     1       5.616  -0.632  -1.119  1.00  0.00    -0.293 N 
ATOM     32  H7  UNL     1       5.420  -0.071  -1.948  1.00  0.00     0.188 HD
ENDBRANCH  25  26
ENDBRANCH  24  25
ENDBRANCH  22  24
ENDBRANCH   1  18
TORSDOF 7
