REMARK  5 active torsions:
REMARK  status: ('A' for Active; 'I' for Inactive)
REMARK    1  A    between atoms: C5_8  and  C6_9 
REMARK    2  A    between atoms: C6_9  and  N3_10 
REMARK    3  A    between atoms: C10_17  and  C11_18 
REMARK    4  A    between atoms: C11_18  and  N5_19 
REMARK    5  A    between atoms: C14_27  and  N8_28 
ROOT
HETATM    1  N1  UNL     1       6.998   3.442  -1.843  1.00  0.00    -0.191 NA
HETATM    2  C1  UNL     1       6.306   2.685  -1.306  1.00  0.00     0.099 C 
HETATM    3  C2  UNL     1       5.439   1.764  -0.625  1.00  0.00     0.048 A 
HETATM    4  C3  UNL     1       5.988   0.954   0.346  1.00  0.00     0.039 A 
HETATM    5  C4  UNL     1       5.159   0.070   1.000  1.00  0.00     0.090 A 
HETATM    6  N2  UNL     1       3.875   0.030   0.675  1.00  0.00    -0.365 N 
ATOM      7  H2  UNL     1       3.294  -0.638   1.181  1.00  0.00     0.165 HD
HETATM    8  C5  UNL     1       3.268   0.773  -0.244  1.00  0.00     0.049 A 
HETATM    9  C17 UNL     1       4.099   1.680  -0.922  1.00  0.00     0.053 A 
ENDROOT
BRANCH   8  10
HETATM   10  C6  UNL     1       1.825   0.689  -0.570  1.00  0.00     0.120 C 
BRANCH  10  11
HETATM   11  N3  UNL     1       1.263  -0.454   0.012  1.00  0.00    -0.358 N 
HETATM   12  C7  UNL     1       1.700  -1.733  -0.337  1.00  0.00     0.091 C 
HETATM   13  C8  UNL     1       1.565  -2.637   0.887  1.00  0.00     0.277 C 
HETATM   14  N4  UNL     1       0.250  -2.616   1.425  1.00  0.00    -0.069 N 
HETATM   15  C9  UNL     1      -0.309  -1.322   1.555  1.00  0.00     0.259 C 
ATOM     16  H42 UNL     1      -0.367  -3.217   0.879  1.00  0.00     0.277 HD
ATOM     17  H41 UNL     1       0.224  -3.106   2.319  1.00  0.00     0.277 HD
HETATM   18  C10 UNL     1      -0.099  -0.378   0.407  1.00  0.00     0.133 C 
BRANCH  18  19
HETATM   19  C11 UNL     1      -1.015  -0.584  -0.769  1.00  0.00     0.176 C 
BRANCH  19  20
HETATM   20  N5  UNL     1      -2.419  -0.511  -0.477  1.00  0.00    -0.164 N 
HETATM   21  C12 UNL     1      -3.248  -1.521  -0.197  1.00  0.00     0.680 A 
HETATM   22  N6  UNL     1      -3.020  -2.782  -0.153  1.00  0.00    -0.234 N 
HETATM   23  N7  UNL     1      -4.500  -1.022   0.042  1.00  0.00    -0.184 N 
ATOM     24  H62 UNL     1      -2.087  -3.154  -0.331  1.00  0.00     0.174 HD
ATOM     25  H61 UNL     1      -3.653  -3.553   0.061  1.00  0.00     0.174 HD
HETATM   26  C13 UNL     1      -4.468   0.307  -0.086  1.00  0.00     0.137 A 
ATOM     27  H7  UNL     1      -5.323  -1.575   0.279  1.00  0.00     0.184 HD
HETATM   28  C14 UNL     1      -5.432   1.287   0.043  1.00  0.00     0.131 A 
HETATM   29  C16 UNL     1      -3.166   0.618  -0.410  1.00  0.00     0.155 A 
HETATM   30  N9  UNL     1      -5.045   2.551  -0.160  1.00  0.00    -0.337 N 
HETATM   31  C15 UNL     1      -3.766   2.864  -0.479  1.00  0.00     0.183 A 
ATOM     32  H9  UNL     1      -5.732   3.300  -0.072  1.00  0.00     0.168 HD
HETATM   33  N10 UNL     1      -2.846   1.905  -0.600  1.00  0.00    -0.336 N 
ATOM     34  H10 UNL     1      -1.887   2.155  -0.840  1.00  0.00     0.168 HD
BRANCH  28  35
HETATM   35  N8  UNL     1      -6.652   1.027   0.344  1.00  0.00    -0.383 N 
ATOM     36  H82 UNL     1      -6.947   0.063   0.499  1.00  0.00     0.157 HD
ATOM     37  H81 UNL     1      -7.364   1.751   0.439  1.00  0.00     0.157 HD
ENDBRANCH  28  35
ENDBRANCH  19  20
ENDBRANCH  18  19
ENDBRANCH  10  11
ENDBRANCH   8  10
TORSDOF 5
