REMARK  6 active torsions:
REMARK  status: ('A' for Active; 'I' for Inactive)
REMARK    1  A    between atoms: C3_3  and  S1_4 
REMARK    2  A    between atoms: S1_4  and  C4_5 
REMARK    3  A    between atoms: N3_12  and  C7_13 
REMARK    4  A    between atoms: C10_19  and  C11_20 
REMARK    5  A    between atoms: C15_28  and  N7_29 
REMARK    6  A    between atoms: N7_29  and  N8_30 
ROOT
HETATM    1  C1  UNL     1       8.576   1.177   0.012  1.00  0.00     0.013 C 
HETATM    2  C2  UNL     1       7.467   0.714   0.105  1.00  0.00    -0.107 C 
HETATM    3  C3  UNL     1       6.127   0.141   0.213  1.00  0.00     0.175 C 
ENDROOT
BRANCH   3   4
HETATM    4  S1  UNL     1       4.920   1.192  -0.668  1.00  0.00    -0.082 SA
BRANCH   4   5
HETATM    5  C4  UNL     1       3.276   0.488  -0.534  1.00  0.00     0.149 A 
HETATM    6  N1  UNL     1       2.815  -0.378  -1.432  1.00  0.00    -0.321 N 
HETATM    7  C5  UNL     1       1.582  -0.908  -1.334  1.00  0.00     0.141 A 
ATOM      8  H1  UNL     1       3.411  -0.647  -2.215  1.00  0.00     0.169 HD
HETATM    9  N2  UNL     1       0.911  -1.771  -2.078  1.00  0.00    -0.336 N 
HETATM   10  C14 UNL     1       0.737  -0.557  -0.271  1.00  0.00     0.145 A 
HETATM   11  C6  UNL     1      -0.262  -1.967  -1.552  1.00  0.00     0.190 A 
ATOM     12  H2  UNL     1       1.258  -2.213  -2.929  1.00  0.00     0.168 HD
HETATM   13  N3  UNL     1      -0.426  -1.210  -0.389  1.00  0.00    -0.305 N 
HETATM   14  C15 UNL     1       1.192   0.342   0.677  1.00  0.00     0.236 A 
HETATM   15  N9  UNL     1       2.503   0.827   0.464  1.00  0.00    -0.308 N 
ATOM     16  H9  UNL     1       2.874   1.493   1.142  1.00  0.00     0.170 HD
BRANCH  13  17
HETATM   17  C7  UNL     1      -1.584  -1.300   0.290  1.00  0.00     0.035 C 
HETATM   18  C8  UNL     1      -2.283  -0.818   1.392  1.00  0.00     0.083 C 
HETATM   19  C9  UNL     1      -3.616  -1.570   1.357  1.00  0.00     0.239 C 
HETATM   20  N4  UNL     1      -3.890  -1.702  -0.026  1.00  0.00    -0.059 N 
HETATM   21  C10 UNL     1      -2.757  -1.137  -0.739  1.00  0.00     0.298 C 
ATOM     22  H42 UNL     1      -4.100  -2.661  -0.303  1.00  0.00     0.278 HD
ATOM     23  H41 UNL     1      -4.782  -1.289  -0.299  1.00  0.00     0.278 HD
BRANCH  21  24
HETATM   24  C11 UNL     1      -3.091   0.252  -1.022  1.00  0.00     0.118 A 
HETATM   25  N5  UNL     1      -4.322   0.549  -1.572  1.00  0.00    -0.352 N 
HETATM   26  C12 UNL     1      -4.391   1.860  -1.734  1.00  0.00     0.106 A 
ATOM     27  H5  UNL     1      -5.050  -0.124  -1.811  1.00  0.00     0.166 HD
HETATM   28  C13 UNL     1      -3.233   2.424  -1.302  1.00  0.00     0.106 A 
HETATM   29  N6  UNL     1      -2.447   1.409  -0.867  1.00  0.00    -0.352 N 
ATOM     30  H6  UNL     1      -1.509   1.514  -0.481  1.00  0.00     0.166 HD
ENDBRANCH  21  24
ENDBRANCH  13  17
BRANCH  14  31
HETATM   31  N7  UNL     1       0.623   0.744   1.625  1.00  0.00    -0.312 NA
BRANCH  31  32
HETATM   32  N8  UNL     1      -0.000   1.183   2.662  1.00  0.00    -0.278 N 
ATOM     33  H82 UNL     1       0.471   0.805   1.840  1.00  0.00     0.191 HD
ATOM     34  H81 UNL     1      -0.493   1.532   3.484  1.00  0.00     0.191 HD
ENDBRANCH  31  32
ENDBRANCH  14  31
ENDBRANCH   4   5
ENDBRANCH   3   4
TORSDOF 6
