REMARK  6 active torsions:
REMARK  status: ('A' for Active; 'I' for Inactive)
REMARK    1  A    between atoms: N1_1  and  C1_4 
REMARK    2  A    between atoms: C3_6  and  C4_7 
REMARK    3  A    between atoms: C4_7  and  C5_8 
REMARK    4  A    between atoms: C5_8  and  N2_9 
REMARK    5  A    between atoms: C9_18  and  N5_19 
REMARK    6  A    between atoms: C11_27  and  N8_28 
ROOT
HETATM    1  C4  UNL     1      -1.014  -0.052  -0.707  1.00  0.00     0.078 C 
ENDROOT
BRANCH   1   2
HETATM    2  C3  UNL     1       0.276   0.589  -0.346  1.00  0.00     0.031 A 
HETATM    3  C2  UNL     1       0.278   1.951  -0.118  1.00  0.00     0.074 A 
HETATM    4  C1  UNL     1       1.454   2.584   0.219  1.00  0.00     0.116 A 
HETATM    5  N9  UNL     1       2.554   1.830   0.310  1.00  0.00    -0.177 N 
HETATM    6  C11 UNL     1       2.579   0.512   0.094  1.00  0.00     0.683 A 
ATOM      7  H9  UNL     1       3.429   2.290   0.560  1.00  0.00     0.185 HD
HETATM    8  N7  UNL     1       1.424  -0.093  -0.235  1.00  0.00    -0.195 N 
ATOM      9  H7  UNL     1       1.422  -1.099  -0.405  1.00  0.00     0.184 HD
BRANCH   4  10
HETATM   10  N1  UNL     1       1.418   3.857   0.426  1.00  0.00    -0.385 N 
ATOM     11  H12 UNL     1       0.579   4.432   0.357  1.00  0.00     0.157 HD
ATOM     12  H11 UNL     1       2.289   4.326   0.676  1.00  0.00     0.157 HD
ENDBRANCH   4  10
BRANCH   6  13
HETATM   13  N8  UNL     1       3.802  -0.246   0.208  1.00  0.00    -0.196 N 
HETATM   14  C12 UNL     1       3.850  -1.653  -0.019  1.00  0.00     0.145 C 
HETATM   15  C13 UNL     1       4.999  -1.944  -0.957  1.00  0.00     0.047 C 
HETATM   16  C14 UNL     1       6.111  -0.928  -0.837  1.00  0.00     0.171 C 
HETATM   17  O2  UNL     1       6.103  -0.404   0.446  1.00  0.00    -0.371 OA
HETATM   18  C15 UNL     1       5.016   0.457   0.564  1.00  0.00     0.311 C 
ENDBRANCH   6  13
ENDBRANCH   1   2
BRANCH   1  19
HETATM   19  C5  UNL     1      -1.742  -0.510   0.559  1.00  0.00     0.137 C 
BRANCH  19  20
HETATM   20  N2  UNL     1      -2.995  -1.134   0.239  1.00  0.00    -0.326 N 
HETATM   21  C6  UNL     1      -3.210  -2.439  -0.003  1.00  0.00     0.185 A 
HETATM   22  N3  UNL     1      -4.505  -2.685  -0.270  1.00  0.00    -0.345 N 
HETATM   23  C7  UNL     1      -5.141  -1.505  -0.198  1.00  0.00     0.147 A 
ATOM     24  H3  UNL     1      -4.922  -3.591  -0.485  1.00  0.00     0.167 HD
HETATM   25  C8  UNL     1      -6.472  -1.156  -0.379  1.00  0.00     0.290 A 
HETATM   26  C10 UNL     1      -4.202  -0.542   0.119  1.00  0.00     0.156 A 
HETATM   27  O1  UNL     1      -7.327  -2.031  -0.668  1.00  0.00    -0.265 OA
HETATM   28  N4  UNL     1      -6.795   0.142  -0.233  1.00  0.00    -0.154 N 
HETATM   29  C9  UNL     1      -5.858   1.070   0.078  1.00  0.00     0.680 A 
ATOM     30  H4  UNL     1      -7.764   0.433  -0.359  1.00  0.00     0.187 HD
HETATM   31  N6  UNL     1      -4.573   0.728   0.252  1.00  0.00    -0.174 N 
ATOM     32  H6  UNL     1      -3.882   1.441   0.486  1.00  0.00     0.186 HD
BRANCH  29  33
HETATM   33  N5  UNL     1      -6.231   2.279   0.201  1.00  0.00    -0.234 N 
ATOM     34  H52 UNL     1      -7.208   2.539   0.069  1.00  0.00     0.174 HD
ATOM     35  H51 UNL     1      -5.526   2.978   0.435  1.00  0.00     0.174 HD
ENDBRANCH  29  33
ENDBRANCH  19  20
ENDBRANCH   1  19
TORSDOF 6
