REMARK  8 active torsions:
REMARK  status: ('A' for Active; 'I' for Inactive)
REMARK    1  A    between atoms: C1_4  and  C2_5 
REMARK    2  A    between atoms: C1_4  and  N2_8 
REMARK    3  A    between atoms: C2_5  and  O1_6 
REMARK    4  A    between atoms: N2_8  and  N3_10 
REMARK    5  A    between atoms: N3_10  and  C3_12 
REMARK    6  A    between atoms: C4_15  and  N5_16 
REMARK    7  A    between atoms: C10_24  and  N7_25 
REMARK    8  A    between atoms: C14_29  and  N8_30 
ROOT
HETATM    1  C3  UNL     1      -0.010   1.945  -0.160  1.00  0.00     0.726 A 
HETATM    2  N4  UNL     1       1.082   1.162  -0.153  1.00  0.00    -0.020 N 
ATOM      3  H4  UNL     1       2.001   1.599  -0.219  1.00  0.00     0.203 HD
HETATM    4  C4  UNL     1       1.006  -0.179  -0.062  1.00  0.00     0.709 A 
HETATM    5  N6  UNL     1      -0.209  -0.737   0.024  1.00  0.00    -0.021 N 
ATOM      6  H6  UNL     1      -0.278  -1.752   0.094  1.00  0.00     0.203 HD
HETATM    7  C10 UNL     1      -1.356  -0.001   0.022  1.00  0.00     0.709 A 
HETATM    8  N9  UNL     1      -1.203   1.333  -0.071  1.00  0.00    -0.020 N 
ATOM      9  H9  UNL     1      -2.042   1.913  -0.074  1.00  0.00     0.203 HD
ENDROOT
BRANCH   1  10
HETATM   10  N3  UNL     1       0.066   3.249  -0.248  1.00  0.00    -0.130 N 
ATOM     11  H3  UNL     1      -0.783   3.814  -0.250  1.00  0.00     0.205 HD
BRANCH  10  12
HETATM   12  N2  UNL     1       1.316   3.861  -0.339  1.00  0.00    -0.273 N 
ATOM     13  H2  UNL     1       2.160   3.315  -0.514  1.00  0.00     0.189 HD
BRANCH  12  14
HETATM   14  C1  UNL     1       1.373   5.278  -0.178  1.00  0.00     0.113 C 
HETATM   15  N1  UNL     1       0.455   6.061  -0.628  1.00  0.00    -0.386 N 
ATOM     16  H12 UNL     1       0.496   7.074  -0.513  1.00  0.00     0.157 HD
ATOM     17  H11 UNL     1      -0.345   5.661  -1.119  1.00  0.00     0.157 HD
BRANCH  14  18
HETATM   18  C2  UNL     1       2.526   5.854   0.530  1.00  0.00     0.241 C 
BRANCH  18  19
HETATM   19  O1  UNL     1       2.534   5.304   1.831  1.00  0.00    -0.393 OA
ATOM     20  H1  UNL     1       3.279   5.676   2.288  1.00  0.00     0.209 HD
ENDBRANCH  18  19
ENDBRANCH  14  18
ENDBRANCH  12  14
ENDBRANCH  10  12
ENDBRANCH   1  10
BRANCH   4  21
HETATM   21  N5  UNL     1       2.146  -1.030  -0.053  1.00  0.00    -0.217 N 
HETATM   22  C5  UNL     1       2.671  -1.543  -1.304  1.00  0.00     0.141 C 
HETATM   23  C6  UNL     1       4.172  -1.328  -1.308  1.00  0.00     0.020 C 
HETATM   24  C7  UNL     1       4.769  -2.176  -0.196  1.00  0.00     0.003 C 
HETATM   25  C8  UNL     1       3.711  -2.606   0.806  1.00  0.00     0.020 C 
HETATM   26  C9  UNL     1       2.825  -1.421   1.163  1.00  0.00     0.141 C 
ENDBRANCH   4  21
BRANCH   7  27
HETATM   27  N7  UNL     1      -2.643  -0.622   0.115  1.00  0.00    -0.215 N 
HETATM   28  C11 UNL     1      -3.795   0.239   0.106  1.00  0.00     0.141 C 
HETATM   29  C12 UNL     1      -5.063  -0.417  -0.289  1.00  0.00     0.022 C 
HETATM   30  C13 UNL     1      -4.936  -1.850  -0.703  1.00  0.00     0.036 C 
HETATM   31  C14 UNL     1      -4.094  -2.545   0.374  1.00  0.00     0.202 C 
HETATM   32  C15 UNL     1      -2.693  -2.055   0.211  1.00  0.00     0.173 C 
BRANCH  31  33
HETATM   33  N8  UNL     1      -4.230  -3.955   0.174  1.00  0.00    -0.073 N 
ATOM     34  H83 UNL     1      -5.202  -4.265   0.165  1.00  0.00     0.274 HD
ATOM     35  H82 UNL     1      -3.989  -4.249  -0.773  1.00  0.00     0.274 HD
ATOM     36  H81 UNL     1      -3.670  -4.417   0.890  1.00  0.00     0.274 HD
ENDBRANCH  31  33
ENDBRANCH   7  27
TORSDOF 8
