REMARK  6 active torsions:
REMARK  status: ('A' for Active; 'I' for Inactive)
REMARK    1  A    between atoms: O1_2  and  C2_3 
REMARK    2  A    between atoms: C2_3  and  C3_5 
REMARK    3  A    between atoms: C3_5  and  S1_6 
REMARK    4  A    between atoms: S1_6  and  C4_7 
REMARK    5  A    between atoms: C7_12  and  N2_13 
REMARK    6  A    between atoms: C14_28  and  N6_29 
ROOT
HETATM    1  C4  UNL     1       2.812  -1.467   1.041  1.00  0.00     0.146 A 
HETATM    2  N1  UNL     1       1.852  -0.532   0.963  1.00  0.00    -0.336 N 
ATOM      3  H1  UNL     1       2.040   0.412   1.301  1.00  0.00     0.168 HD
HETATM    4  C5  UNL     1       0.657  -0.822   0.450  1.00  0.00     0.055 A 
HETATM    5  C6  UNL     1      -0.359   0.126   0.355  1.00  0.00     0.079 A 
HETATM    6  C7  UNL     1      -1.554  -0.264  -0.186  1.00  0.00     0.106 A 
HETATM    7  N4  UNL     1      -1.777  -1.524  -0.626  1.00  0.00    -0.328 N 
ATOM      8  H4  UNL     1      -2.684  -1.771  -1.022  1.00  0.00     0.169 HD
HETATM    9  C12 UNL     1      -0.821  -2.437  -0.544  1.00  0.00     0.116 A 
HETATM   10  N5  UNL     1      -0.983  -3.670  -0.955  1.00  0.00    -0.385 N 
ATOM     11  H51 UNL     1      -0.247  -4.373  -0.892  1.00  0.00     0.157 HD
ATOM     12  H52 UNL     1      -1.889  -3.920  -1.352  1.00  0.00     0.157 HD
HETATM   13  C13 UNL     1       0.398  -2.101  -0.009  1.00  0.00     0.078 A 
HETATM   14  C14 UNL     1       1.386  -3.077   0.068  1.00  0.00     0.117 A 
HETATM   15  N7  UNL     1       2.562  -2.713   0.595  1.00  0.00    -0.322 N 
ATOM     16  H7  UNL     1       3.302  -3.411   0.662  1.00  0.00     0.169 HD
ENDROOT
BRANCH   6  17
HETATM   17  N2  UNL     1      -2.623   0.653  -0.304  1.00  0.00    -0.364 N 
HETATM   18  C8  UNL     1      -3.906   0.261  -0.907  1.00  0.00     0.152 C 
HETATM   19  C9  UNL     1      -4.652   1.531  -1.241  1.00  0.00     0.252 C 
HETATM   20  N3  UNL     1      -4.939   2.325  -0.078  1.00  0.00    -0.072 N 
HETATM   21  C10 UNL     1      -3.886   2.253   0.912  1.00  0.00     0.252 C 
ATOM     22  H32 UNL     1      -5.139   3.292  -0.333  1.00  0.00     0.277 HD
ATOM     23  H31 UNL     1      -5.841   2.073   0.326  1.00  0.00     0.277 HD
HETATM   24  C11 UNL     1      -2.573   2.030   0.143  1.00  0.00     0.152 C 
ENDBRANCH   6  17
BRANCH   1  25
HETATM   25  S1  UNL     1       4.440  -1.178   1.713  1.00  0.00    -0.084 SA
BRANCH  25  26
HETATM   26  C3  UNL     1       5.592  -0.646   0.431  1.00  0.00     0.193 C 
BRANCH  26  27
HETATM   27  C2  UNL     1       5.187   0.695  -0.065  1.00  0.00     0.268 C 
HETATM   28  O2  UNL     1       5.845   1.283  -0.984  1.00  0.00    -0.264 OA
BRANCH  27  29
HETATM   29  O1  UNL     1       4.091   1.399   0.414  1.00  0.00    -0.326 OA
HETATM   30  C1  UNL     1       3.750   2.661  -0.086  1.00  0.00     0.213 C 
ENDBRANCH  27  29
ENDBRANCH  26  27
ENDBRANCH  25  26
ENDBRANCH   1  25
BRANCH  14  31
HETATM   31  N6  UNL     1       1.158  -4.285  -0.360  1.00  0.00    -0.385 N 
ATOM     32  H62 UNL     1       0.262  -4.562  -0.761  1.00  0.00     0.157 HD
ATOM     33  H61 UNL     1       1.883  -5.001  -0.304  1.00  0.00     0.157 HD
ENDBRANCH  14  31
TORSDOF 6
