REMARK  6 active torsions:
REMARK  status: ('A' for Active; 'I' for Inactive)
REMARK    1  A    between atoms: N2_5  and  C4_6 
REMARK    2  A    between atoms: C5_9  and  N4_10 
REMARK    3  A    between atoms: C7_19  and  C8_20 
REMARK    4  A    between atoms: C8_20  and  C9_21 
REMARK    5  A    between atoms: C10_24  and  N8_25 
REMARK    6  A    between atoms: C13_28  and  O1_29 
ROOT
HETATM    1  C4  UNL     1       1.101   0.035   0.661  1.00  0.00     0.129 A 
HETATM    2  N3  UNL     1       1.453  -0.190   1.979  1.00  0.00    -0.176 N 
ATOM      3  H3  UNL     1       2.191  -0.867   2.173  1.00  0.00     0.186 HD
HETATM    4  C5  UNL     1       0.883   0.426   3.004  1.00  0.00     0.679 A 
HETATM    5  N5  UNL     1      -0.092   1.322   2.805  1.00  0.00    -0.177 N 
ATOM      6  H5  UNL     1      -0.529   1.795   3.597  1.00  0.00     0.185 HD
HETATM    7  C6  UNL     1      -0.484   1.588   1.562  1.00  0.00     0.125 A 
HETATM    8  N6  UNL     1      -1.425   2.431   1.386  1.00  0.00    -0.384 N 
ATOM      9  H61 UNL     1      -1.726   2.635   0.433  1.00  0.00     0.157 HD
ATOM     10  H62 UNL     1      -1.851   2.897   2.187  1.00  0.00     0.157 HD
HETATM   11  C7  UNL     1       0.101   0.949   0.463  1.00  0.00     0.038 A 
ENDROOT
BRANCH  11  12
HETATM   12  C8  UNL     1      -0.548   1.205  -0.816  1.00  0.00     0.131 C 
BRANCH  12  13
HETATM   13  C9  UNL     1      -2.037   0.896  -0.812  1.00  0.00     0.132 A 
HETATM   14  N7  UNL     1      -2.721  -0.192  -0.564  1.00  0.00    -0.322 N 
HETATM   15  C10 UNL     1      -4.028   0.077  -0.703  1.00  0.00     0.165 A 
ATOM     16  H7  UNL     1      -2.325  -1.096  -0.307  1.00  0.00     0.169 HD
HETATM   17  C13 UNL     1      -4.123   1.426  -1.060  1.00  0.00     0.230 A 
HETATM   18  O2  UNL     1      -2.917   1.853  -1.106  1.00  0.00    -0.272 OA
BRANCH  15  19
HETATM   19  N8  UNL     1      -5.161  -0.767  -0.524  1.00  0.00    -0.360 N 
HETATM   20  C11 UNL     1      -6.389  -1.434  -1.051  1.00  0.00     0.144 A 
HETATM   21  C12 UNL     1      -6.011  -1.608   0.326  1.00  0.00     0.144 A 
ENDBRANCH  15  19
BRANCH  17  22
HETATM   22  O1  UNL     1      -5.301   2.096  -1.300  1.00  0.00    -0.338 OA
ATOM     23  H1  UNL     1      -5.366   3.012  -1.542  1.00  0.00     0.220 HD
ENDBRANCH  17  22
ENDBRANCH  12  13
ENDBRANCH  11  12
BRANCH   1  24
HETATM   24  N2  UNL     1       1.830  -0.620  -0.344  1.00  0.00    -0.363 N 
HETATM   25  C3  UNL     1       2.567  -1.862   0.013  1.00  0.00     0.154 C 
HETATM   26  C2  UNL     1       4.071  -1.490   0.065  1.00  0.00     0.291 C 
HETATM   27  N1  UNL     1       4.226  -0.270  -0.713  1.00  0.00     0.087 N 
HETATM   28  C1  UNL     1       5.532   0.263  -0.797  1.00  0.00     0.310 C 
HETATM   29  C15 UNL     1       3.565  -0.511  -1.985  1.00  0.00     0.291 C 
HETATM   30  C14 UNL     1       2.074  -0.197  -1.693  1.00  0.00     0.154 C 
ENDBRANCH   1  24
BRANCH   4  31
HETATM   31  N4  UNL     1       1.217   0.203   4.240  1.00  0.00    -0.234 N 
ATOM     32  H42 UNL     1       1.960  -0.480   4.392  1.00  0.00     0.174 HD
ATOM     33  H41 UNL     1       0.778   0.677   5.029  1.00  0.00     0.174 HD
ENDBRANCH   4  31
TORSDOF 6
