REMARK  9 active torsions:
REMARK  status: ('A' for Active; 'I' for Inactive)
REMARK    1  A    between atoms: C2_2  and  N1_3 
REMARK    2  A    between atoms: N2_5  and  C4_6 
REMARK    3  A    between atoms: C4_6  and  C5_7 
REMARK    4  A    between atoms: C5_7  and  C6_8 
REMARK    5  A    between atoms: C11_17  and  O1_18 
REMARK    6  A    between atoms: C12_20  and  N5_21 
REMARK    7  A    between atoms: N5_21  and  O2_22 
REMARK    8  A    between atoms: N5_21  and  O3_24 
REMARK    9  A    between atoms: C13_26  and  N6_27 
ROOT
HETATM    1  C6  UNL     1      -2.862   1.606   2.679  1.00  0.00     0.041 A 
HETATM    2  C7  UNL     1      -4.187   1.779   3.013  1.00  0.00     0.082 A 
HETATM    3  S1  UNL     1      -4.071   2.806   4.372  1.00  0.00    -0.071 SA
HETATM    4  C8  UNL     1      -2.373   2.955   4.438  1.00  0.00     0.156 A 
HETATM    5  C9  UNL     1      -1.545   3.710   5.379  1.00  0.00     0.125 C 
HETATM    6  N3  UNL     1      -0.909   4.313   6.125  1.00  0.00    -0.189 NA
HETATM    7  N4  UNL     1      -1.985   2.212   3.418  1.00  0.00    -0.342 N 
ATOM      8  H4  UNL     1      -0.991   2.114   3.210  1.00  0.00     0.167 HD
ENDROOT
BRANCH   1   9
HETATM    9  C5  UNL     1      -2.486   0.758   1.520  1.00  0.00     0.047 C 
BRANCH   9  10
HETATM   10  C4  UNL     1      -1.183   0.612   1.224  1.00  0.00     0.100 C 
BRANCH  10  11
HETATM   11  N2  UNL     1      -0.756  -0.174   0.144  1.00  0.00    -0.312 N 
HETATM   12  C3  UNL     1      -1.564  -0.853  -0.697  1.00  0.00     0.192 A 
HETATM   13  N1  UNL     1      -0.837  -1.499  -1.614  1.00  0.00    -0.327 N 
HETATM   14  C14 UNL     1       0.478  -1.241  -1.373  1.00  0.00     0.140 A 
HETATM   15  C10 UNL     1       0.486  -0.399  -0.252  1.00  0.00     0.120 A 
HETATM   16  N7  UNL     1       1.612  -1.628  -1.979  1.00  0.00    -0.325 N 
HETATM   17  C11 UNL     1       1.733  -0.000   0.181  1.00  0.00     0.126 A 
HETATM   18  C12 UNL     1       2.882  -0.419  -0.466  1.00  0.00     0.144 A 
HETATM   19  C13 UNL     1       2.832  -1.249  -1.568  1.00  0.00     0.129 A 
ATOM     20  H7  UNL     1       1.543  -2.240  -2.792  1.00  0.00     0.169 HD
BRANCH  13  21
HETATM   21  C2  UNL     1      -1.308  -2.349  -2.710  1.00  0.00     0.127 C 
HETATM   22  C1  UNL     1      -1.512  -1.424  -3.901  1.00  0.00     0.027 C 
ENDBRANCH  13  21
BRANCH  17  23
HETATM   23  O1  UNL     1       1.828   0.821   1.267  1.00  0.00    -0.356 OA
ATOM     24  H1  UNL     1       2.687   1.096   1.565  1.00  0.00     0.218 HD
ENDBRANCH  17  23
BRANCH  18  25
HETATM   25  N5  UNL     1       4.168  -0.004  -0.015  1.00  0.00    -0.030 NA
BRANCH  25  26
HETATM   26  O2  UNL     1       5.095  -0.787  -0.606  1.00  0.00    -0.284 OA
ATOM     27  H2  UNL     1       5.953  -0.510  -0.305  1.00  0.00     0.240 HD
ENDBRANCH  25  26
BRANCH  25  28
HETATM   28  O3  UNL     1       4.331   1.298  -0.373  1.00  0.00    -0.284 OA
ATOM     29  H3  UNL     1       5.189   1.575  -0.072  1.00  0.00     0.240 HD
ENDBRANCH  25  28
ENDBRANCH  18  25
BRANCH  19  30
HETATM   30  N6  UNL     1       3.910  -1.638  -2.170  1.00  0.00    -0.384 N 
ATOM     31  H62 UNL     1       4.837  -1.350  -1.858  1.00  0.00     0.157 HD
ATOM     32  H61 UNL     1       3.873  -2.251  -2.984  1.00  0.00     0.157 HD
ENDBRANCH  19  30
ENDBRANCH  10  11
ENDBRANCH   9  10
ENDBRANCH   1   9
TORSDOF 9
