REMARK  8 active torsions:
REMARK  status: ('A' for Active; 'I' for Inactive)
REMARK    1  A    between atoms: S1_2  and  C2_3 
REMARK    2  A    between atoms: C3_6  and  N2_7 
REMARK    3  A    between atoms: N2_7  and  C4_9 
REMARK    4  A    between atoms: C4_9  and  C5_10 
REMARK    5  A    between atoms: C5_10  and  N3_11 
REMARK    6  A    between atoms: C6_17  and  N5_18 
REMARK    7  A    between atoms: N5_18  and  N6_20 
REMARK    8  A    between atoms: N6_20  and  C7_22 
ROOT
HETATM    1  C2  UNL     1      -3.031  -2.305   1.146  1.00  0.00     0.174 A 
HETATM    2  N1  UNL     1      -3.443  -1.116   0.683  1.00  0.00    -0.169 N 
ATOM      3  H1  UNL     1      -4.444  -0.957   0.571  1.00  0.00     0.186 HD
HETATM    4  C3  UNL     1      -2.598  -0.126   0.361  1.00  0.00     0.694 A 
HETATM    5  N4  UNL     1      -1.280  -0.326   0.505  1.00  0.00    -0.021 N 
ATOM      6  H4  UNL     1      -0.612   0.407   0.268  1.00  0.00     0.203 HD
HETATM    7  C6  UNL     1      -0.861  -1.514   0.968  1.00  0.00     0.713 A 
HETATM    8  N10 UNL     1      -1.715  -2.511   1.293  1.00  0.00    -0.168 N 
ATOM      9  H10 UNL     1      -1.364  -3.402   1.643  1.00  0.00     0.186 HD
ENDROOT
BRANCH   7  10
HETATM   10  N5  UNL     1       0.417  -1.688   1.101  1.00  0.00    -0.130 N 
ATOM     11  H5  UNL     1       0.772  -2.578   1.450  1.00  0.00     0.205 HD
BRANCH  10  12
HETATM   12  N6  UNL     1       1.296  -0.686   0.776  1.00  0.00    -0.269 N 
ATOM     13  H6  UNL     1       0.973   0.275   0.883  1.00  0.00     0.189 HD
BRANCH  12  14
HETATM   14  C7  UNL     1       2.486  -0.861   0.350  1.00  0.00     0.150 A 
HETATM   15  N7  UNL     1       2.943  -2.111   0.198  1.00  0.00    -0.336 N 
HETATM   16  C8  UNL     1       4.186  -2.339  -0.245  1.00  0.00     0.182 A 
ATOM     17  H7  UNL     1       2.336  -2.900   0.423  1.00  0.00     0.168 HD
HETATM   18  N8  UNL     1       4.991  -1.277  -0.544  1.00  0.00    -0.354 N 
HETATM   19  C9  UNL     1       4.575  -0.016  -0.407  1.00  0.00     0.040 A 
ATOM     20  H8  UNL     1       5.937  -1.452  -0.882  1.00  0.00     0.166 HD
HETATM   21  C10 UNL     1       3.296   0.211   0.050  1.00  0.00     0.097 A 
HETATM   22  C13 UNL     1       5.470   1.096  -0.739  1.00  0.00     0.061 C 
HETATM   23  N9  UNL     1       2.862   1.538   0.193  1.00  0.00    -0.385 N 
HETATM   24  C11 UNL     1       3.724   2.700   0.078  1.00  0.00     0.120 C 
ATOM     25  H9  UNL     1       1.874   1.696   0.391  1.00  0.00     0.159 HD
HETATM   26  C12 UNL     1       5.182   2.346   0.051  1.00  0.00     0.026 C 
ENDBRANCH  12  14
ENDBRANCH  10  12
ENDBRANCH   7  10
BRANCH   4  27
HETATM   27  N2  UNL     1      -2.991   1.012  -0.082  1.00  0.00    -0.224 N 
ATOM     28  H2  UNL     1      -2.277   1.707  -0.301  1.00  0.00     0.177 HD
BRANCH  27  29
HETATM   29  C4  UNL     1      -4.357   1.375  -0.290  1.00  0.00     0.165 C 
BRANCH  29  30
HETATM   30  C5  UNL     1      -4.592   2.861  -0.108  1.00  0.00     0.249 C 
BRANCH  30  31
HETATM   31  N3  UNL     1      -3.827   3.656  -1.013  1.00  0.00    -0.078 N 
ATOM     32  H33 UNL     1      -2.834   3.432  -0.947  1.00  0.00     0.274 HD
ATOM     33  H32 UNL     1      -3.996   3.375  -1.979  1.00  0.00     0.274 HD
ATOM     34  H31 UNL     1      -3.985   4.656  -0.891  1.00  0.00     0.274 HD
ENDBRANCH  30  31
ENDBRANCH  29  30
ENDBRANCH  27  29
ENDBRANCH   4  27
BRANCH   1  35
HETATM   35  S1  UNL     1      -4.226  -3.599   1.562  1.00  0.00    -0.097 SA
HETATM   36  C1  UNL     1      -4.481  -4.577   0.044  1.00  0.00     0.099 C 
ENDBRANCH   1  35
TORSDOF 8
