REMARK  7 active torsions:
REMARK  status: ('A' for Active; 'I' for Inactive)
REMARK    1  A    between atoms: S1_2  and  C2_3 
REMARK    2  A    between atoms: C2_3  and  C3_4 
REMARK    3  A    between atoms: C3_4  and  O1_5 
REMARK    4  A    between atoms: N1_8  and  C5_9 
REMARK    5  A    between atoms: C5_9  and  C6_10 
REMARK    6  A    between atoms: C10_18  and  N4_19 
REMARK    7  A    between atoms: C14_29  and  N7_30 
ROOT
HETATM    1  C6  UNL     1      -1.954   0.855  -0.018  1.00  0.00     0.100 A 
HETATM    2  C7  UNL     1      -2.154   2.083  -0.611  1.00  0.00     0.052 A 
HETATM    3  C8  UNL     1      -1.059   2.964  -1.103  1.00  0.00     0.071 C 
HETATM    4  N2  UNL     1      -3.447   2.363  -0.771  1.00  0.00    -0.192 N 
ATOM      5  H2  UNL     1      -3.859   3.203  -1.176  1.00  0.00     0.184 HD
HETATM    6  C9  UNL     1      -4.095   1.270  -0.270  1.00  0.00     0.708 A 
HETATM    7  N3  UNL     1      -5.417   1.121  -0.143  1.00  0.00    -0.022 N 
ATOM      8  H3  UNL     1      -6.035   1.844  -0.511  1.00  0.00     0.203 HD
HETATM    9  C10 UNL     1      -5.965   0.023   0.469  1.00  0.00     0.694 A 
HETATM   10  N5  UNL     1      -5.063  -0.889   0.932  1.00  0.00    -0.140 N 
ATOM     11  H5  UNL     1      -5.399  -1.731   1.400  1.00  0.00     0.189 HD
HETATM   12  C11 UNL     1      -3.716  -0.699   0.782  1.00  0.00     0.360 A 
HETATM   13  O2  UNL     1      -2.963  -1.569   1.231  1.00  0.00    -0.245 OA
HETATM   14  N6  UNL     1      -3.191   0.368   0.182  1.00  0.00    -0.092 N 
ENDROOT
BRANCH   1  15
HETATM   15  C5  UNL     1      -0.706   0.394   0.518  1.00  0.00     0.123 C 
BRANCH  15  16
HETATM   16  N1  UNL     1       0.109  -0.558  -0.024  1.00  0.00    -0.365 N 
HETATM   17  C4  UNL     1       1.206   0.073  -0.765  1.00  0.00     0.168 C 
HETATM   18  C3  UNL     1       2.571  -0.382  -0.252  1.00  0.00     0.111 C 
HETATM   19  C14 UNL     1       2.682  -1.819  -0.086  1.00  0.00     0.224 C 
HETATM   20  C13 UNL     1       1.439  -2.488  -0.596  1.00  0.00     0.080 C 
HETATM   21  C12 UNL     1       0.262  -1.902   0.161  1.00  0.00     0.066 C 
BRANCH  18  22
HETATM   22  C2  UNL     1       2.869   0.345   1.068  1.00  0.00     0.115 C 
BRANCH  22  23
HETATM   23  S1  UNL     1       4.647   0.044   1.453  1.00  0.00    -0.170 SA
HETATM   24  C1  UNL     1       5.642   1.012   0.271  1.00  0.00     0.089 C 
ENDBRANCH  22  23
ENDBRANCH  18  22
BRANCH  18  25
HETATM   25  O1  UNL     1       3.469   0.138  -1.181  1.00  0.00    -0.385 OA
ATOM     26  H1  UNL     1       3.285  -0.312  -1.997  1.00  0.00     0.210 HD
ENDBRANCH  18  25
BRANCH  19  27
HETATM   27  N7  UNL     1       3.853  -2.388  -0.708  1.00  0.00    -0.072 N 
ATOM     28  H73 UNL     1       3.894  -2.136  -1.696  1.00  0.00     0.274 HD
ATOM     29  H72 UNL     1       4.698  -1.922  -0.378  1.00  0.00     0.274 HD
ATOM     30  H71 UNL     1       3.931  -3.398  -0.591  1.00  0.00     0.274 HD
ENDBRANCH  19  27
ENDBRANCH  15  16
ENDBRANCH   1  15
BRANCH   9  31
HETATM   31  N4  UNL     1      -7.181  -0.097   0.589  1.00  0.00    -0.234 N 
ATOM     32  H42 UNL     1      -7.856   0.585   0.243  1.00  0.00     0.174 HD
ATOM     33  H41 UNL     1      -7.589  -0.914   1.044  1.00  0.00     0.174 HD
ENDBRANCH   9  31
TORSDOF 7
