REMARK  4 active torsions:
REMARK  status: ('A' for Active; 'I' for Inactive)
REMARK    1  A    between atoms: N1_2  and  C2_4 
REMARK    2  A    between atoms: C2_4  and  S2_6 
REMARK    3  A    between atoms: S2_6  and  C3_7 
REMARK    4  A    between atoms: C4_8  and  S3_10 
ROOT
HETATM    1  S2  UNL     1       0.704  -1.724  -0.721  1.00  0.00    -0.072 SA
ENDROOT
BRANCH   1   2
HETATM    2  C2  UNL     1       1.938  -0.597  -0.085  1.00  0.00     0.138 C 
HETATM    3  S1  UNL     1       1.747   1.029  -0.213  1.00  0.00    -0.053 SA
BRANCH   2   4
HETATM    4  N1  UNL     1       3.101  -1.105   0.540  1.00  0.00    -0.380 N 
HETATM    5  C1  UNL     1       4.087  -0.189   1.048  1.00  0.00     0.147 C 
ATOM      6  H1  UNL     1       3.239  -2.112   0.630  1.00  0.00     0.160 HD
ENDBRANCH   2   4
ENDBRANCH   1   2
BRANCH   1   7
HETATM    7  C3  UNL     1      -0.640  -0.780  -1.449  1.00  0.00     0.066 C 
HETATM    8  C4  UNL     1      -1.533  -0.161  -0.696  1.00  0.00    -0.020 C 
HETATM    9  C5  UNL     1      -1.471  -0.216   0.786  1.00  0.00     0.056 C 
BRANCH   8  10
HETATM   10  S3  UNL     1      -2.852   0.766  -1.455  1.00  0.00    -0.139 SA
HETATM   11  C6  UNL     1      -3.916   1.500  -0.185  1.00  0.00     0.095 C 
ENDBRANCH   8  10
ENDBRANCH   1   7
TORSDOF 4
