REMARK  2 active torsions:
REMARK  status: ('A' for Active; 'I' for Inactive)
REMARK    1  A    between atoms: N1_2  and  C2_5 
REMARK    2  A    between atoms: C2_5  and  C3_6 
ROOT
HETATM    1  C3  UNL     1       1.364  -1.115   0.027  1.00  0.00     0.186 C 
HETATM    2  C4  UNL     1       0.335  -0.908   1.150  1.00  0.00     0.040 C 
HETATM    3  C5  UNL     1      -0.553   0.214   0.629  1.00  0.00     0.044 C 
HETATM    4  C6  UNL     1      -1.389  -0.439  -0.477  1.00  0.00     0.096 C 
HETATM    5  C7  UNL     1      -1.915   0.667  -1.344  1.00  0.00     0.041 C 
HETATM    6  C8  UNL     1      -3.041   1.238  -0.515  1.00  0.00     0.003 C 
HETATM    7  C9  UNL     1      -3.481   0.147   0.410  1.00  0.00     0.003 C 
HETATM    8  C10 UNL     1      -2.580  -1.044   0.164  1.00  0.00     0.041 C 
HETATM    9  O1  UNL     1      -0.556  -1.314  -1.131  1.00  0.00    -0.229 OA
HETATM   10  O2  UNL     1       0.710  -0.888  -1.155  1.00  0.00    -0.233 OA
ENDROOT
BRANCH   1  11
HETATM   11  C2  UNL     1       2.455  -0.112   0.309  1.00  0.00     0.266 C 
BRANCH  11  12
HETATM   12  N1  UNL     1       3.481  -0.088  -0.691  1.00  0.00    -0.076 N 
HETATM   13  C1  UNL     1       4.444   0.934  -0.253  1.00  0.00     0.267 C 
ATOM     14  H12 UNL     1       3.127   0.063  -1.635  1.00  0.00     0.276 HD
ATOM     15  H11 UNL     1       3.904  -1.000  -0.864  1.00  0.00     0.276 HD
ENDBRANCH  11  12
ENDBRANCH   1  11
TORSDOF 2
