REMARK  3 active torsions:
REMARK  status: ('A' for Active; 'I' for Inactive)
REMARK    1  A    between atoms: C2_2  and  C3_3 
REMARK    2  A    between atoms: C3_3  and  C4_4 
REMARK    3  A    between atoms: C4_4  and  O1_5 
ROOT
HETATM    1  C4  UNL     1       0.036  -0.279   0.269  1.00  0.00     0.138 C 
HETATM    2  S1  UNL     1       0.373  -1.328  -1.187  1.00  0.00    -0.097 SA
HETATM    3  C5  UNL     1       1.948  -0.459  -1.562  1.00  0.00     0.183 C 
HETATM    4  C6  UNL     1       3.039  -1.507  -1.293  1.00  0.00     0.051 C 
HETATM    5  O2  UNL     1       2.071   0.506  -0.638  1.00  0.00    -0.362 OA
HETATM    6  C7  UNL     1       0.983   0.841   0.036  1.00  0.00     0.096 C 
HETATM    7  C8  UNL     1       0.297   2.025  -0.663  1.00  0.00     0.050 C 
HETATM    8  C9  UNL     1       1.378   1.375   1.409  1.00  0.00     0.050 C 
ENDROOT
BRANCH   1   9
HETATM    9  C3  UNL     1      -1.417   0.140   0.295  1.00  0.00     0.052 C 
BRANCH   9  10
HETATM   10  C2  UNL     1      -2.283  -1.086   0.367  1.00  0.00    -0.001 C 
HETATM   11  C1  UNL     1      -3.744  -0.763   0.397  1.00  0.00     0.005 C 
ENDBRANCH   9  10
ENDBRANCH   1   9
BRANCH   1  12
HETATM   12  O1  UNL     1       0.384  -1.000   1.408  1.00  0.00    -0.376 OA
ATOM     13  H1  UNL     1       1.297  -1.263   1.392  1.00  0.00     0.211 HD
ENDBRANCH   1  12
TORSDOF 3
