REMARK  3 active torsions:
REMARK  status: ('A' for Active; 'I' for Inactive)
REMARK    1  A    between atoms: C6_6  and  C7_7 
REMARK    2  A    between atoms: N1_8  and  N2_10 
REMARK    3  A    between atoms: N2_10  and  O1_12 
ROOT
HETATM    1  C1  UNL     1      -3.743   1.240  -0.612  1.00  0.00     0.010 C 
HETATM    2  C2  UNL     1      -2.375   0.560  -0.450  1.00  0.00    -0.019 C 
HETATM    3  C3  UNL     1      -2.623  -0.736   0.250  1.00  0.00     0.004 C 
HETATM    4  C4  UNL     1      -1.525  -1.739   0.086  1.00  0.00     0.001 C 
HETATM    5  C5  UNL     1      -0.181  -1.228   0.513  1.00  0.00     0.010 C 
HETATM    6  C6  UNL     1       0.311  -0.089  -0.331  1.00  0.00     0.025 C 
HETATM    7  C9  UNL     1      -0.072   1.197   0.330  1.00  0.00     0.010 C 
HETATM    8  C10 UNL     1      -1.532   1.454   0.401  1.00  0.00     0.005 C 
ENDROOT
BRANCH   6   9
HETATM    9  C7  UNL     1       1.811  -0.102  -0.427  1.00  0.00     0.086 C 
HETATM   10  N1  UNL     1       2.523  -0.834   0.353  1.00  0.00    -0.294 N 
ATOM     11  H1  UNL     1       2.091  -1.428   1.060  1.00  0.00     0.187 HD
BRANCH  10  12
HETATM   12  N2  UNL     1       3.908  -0.787   0.198  1.00  0.00    -0.207 N 
HETATM   13  C8  UNL     1       4.575   0.488   0.267  1.00  0.00     0.207 C 
BRANCH  12  14
HETATM   14  O1  UNL     1       4.618  -1.906  -0.015  1.00  0.00    -0.273 OA
ATOM     15  H1  UNL     1       5.562  -1.874  -0.121  1.00  0.00     0.246 HD
ENDBRANCH  12  14
ENDBRANCH  10  12
ENDBRANCH   6   9
TORSDOF 3
