REMARK  3 active torsions:
REMARK  status: ('A' for Active; 'I' for Inactive)
REMARK    1  A    between atoms: C8_8  and  N1_9 
REMARK    2  A    between atoms: C8_8  and  N2_13 
REMARK    3  A    between atoms: N2_13  and  O1_14 
ROOT
HETATM    1  C1  UNL     1       1.725  -1.819  -1.236  1.00  0.00     0.010 C 
HETATM    2  C2  UNL     1       0.759  -0.701  -0.976  1.00  0.00    -0.010 C 
HETATM    3  C3  UNL     1      -0.404  -1.230  -0.214  1.00  0.00     0.013 C 
HETATM    4  C4  UNL     1      -1.426  -0.169  -0.011  1.00  0.00    -0.044 C 
HETATM    5  C5  UNL     1      -2.162  -0.486   1.296  1.00  0.00     0.015 C 
HETATM    6  C6  UNL     1      -2.500  -0.279  -1.102  1.00  0.00     0.015 C 
HETATM    7  C7  UNL     1      -0.927   1.221  -0.010  1.00  0.00     0.068 C 
HETATM    8  C8  UNL     1       0.498   1.427   0.331  1.00  0.00     0.222 C 
HETATM    9  C9  UNL     1       1.454   0.417  -0.186  1.00  0.00     0.040 C 
HETATM   10  C10 UNL     1       2.331  -0.205   0.875  1.00  0.00     0.014 C 
ENDROOT
BRANCH   8  11
HETATM   11  N1  UNL     1       0.601   1.619   1.787  1.00  0.00    -0.053 N 
ATOM     12  H13 UNL     1       0.003   2.372   2.127  1.00  0.00     0.276 HD
ATOM     13  H12 UNL     1       0.177   0.856   2.315  1.00  0.00     0.276 HD
ATOM     14  H11 UNL     1       1.583   1.761   2.022  1.00  0.00     0.276 HD
ENDBRANCH   8  11
BRANCH   8  15
HETATM   15  N2  UNL     1       0.878   2.724  -0.222  1.00  0.00    -0.063 NA
BRANCH  15  16
HETATM   16  O1  UNL     1       0.876   2.754  -1.434  1.00  0.00    -0.294 OA
ATOM     17  H1  UNL     1       1.123   3.598  -1.794  1.00  0.00     0.238 HD
ENDBRANCH  15  16
ENDBRANCH   8  15
TORSDOF 3
