REMARK  6 active torsions:
REMARK  status: ('A' for Active; 'I' for Inactive)
REMARK    1  A    between atoms: C2_2  and  C4_4 
REMARK    2  A    between atoms: C4_4  and  C5_5 
REMARK    3  A    between atoms: C4_4  and  N1_11 
REMARK    4  A    between atoms: C5_5  and  C6_6 
REMARK    5  A    between atoms: C6_6  and  C7_7 
REMARK    6  A    between atoms: N1_11  and  O1_13 
ROOT
HETATM    1  C4  UNL     1      -0.822   0.042   0.300  1.00  0.00     0.035 C 
ENDROOT
BRANCH   1   2
HETATM    2  C2  UNL     1      -2.291  -0.173   0.518  1.00  0.00     0.029 C 
HETATM    3  C1  UNL     1      -3.088   1.092   0.577  1.00  0.00     0.016 C 
HETATM    4  C3  UNL     1      -2.878  -1.030  -0.584  1.00  0.00     0.016 C 
ENDBRANCH   1   2
BRANCH   1   5
HETATM    5  C5  UNL     1      -0.035  -1.181   0.241  1.00  0.00     0.028 C 
BRANCH   5   6
HETATM    6  C6  UNL     1       1.378  -1.189   0.038  1.00  0.00     0.016 C 
BRANCH   6   7
HETATM    7  C7  UNL     1       2.326  -0.327  -0.137  1.00  0.00    -0.021 C 
HETATM    8  C8  UNL     1       3.830  -0.482  -0.346  1.00  0.00     0.056 C 
HETATM    9  C9  UNL     1       4.227   0.847   0.264  1.00  0.00     0.084 C 
HETATM   10  S1  UNL     1       2.594   1.410  -0.255  1.00  0.00    -0.134 SA
ENDBRANCH   6   7
ENDBRANCH   5   6
ENDBRANCH   1   5
BRANCH   1  11
HETATM   11  N1  UNL     1      -0.400   1.209   0.189  1.00  0.00    -0.273 N 
ATOM     12  H1  UNL     1       0.609   1.235   0.043  1.00  0.00     0.193 HD
BRANCH  11  13
HETATM   13  O1  UNL     1      -0.925   2.421   0.212  1.00  0.00    -0.290 OA
ATOM     14  H1  UNL     1      -0.603   3.311   0.127  1.00  0.00     0.244 HD
ENDBRANCH  11  13
ENDBRANCH   1  11
TORSDOF 6
