REMARK  3 active torsions:
REMARK  status: ('A' for Active; 'I' for Inactive)
REMARK    1  A    between atoms: C2_2  and  N1_3 
REMARK    2  A    between atoms: N1_3  and  C3_4 
REMARK    3  A    between atoms: N1_3  and  C5_6 
ROOT
HETATM    1  C5  UNL     1       0.294  -0.024  -0.040  1.00  0.00     0.286 C 
HETATM    2  C6  UNL     1       1.220   1.151   0.124  1.00  0.00     0.055 C 
HETATM    3  C7  UNL     1       2.631   0.777   0.398  1.00  0.00     0.014 C 
HETATM    4  C8  UNL     1       3.191  -0.310  -0.457  1.00  0.00     0.075 C 
HETATM    5  S1  UNL     1       2.970  -1.875   0.461  1.00  0.00    -0.142 SA
HETATM    6  C9  UNL     1       1.189  -2.209   0.466  1.00  0.00     0.308 C 
HETATM    7  N2  UNL     1       0.456  -1.047   0.953  1.00  0.00    -0.046 N 
ATOM      8  H21 UNL     1      -0.446  -1.323   1.340  1.00  0.00     0.280 HD
ATOM      9  H22 UNL     1       0.891  -0.670   1.795  1.00  0.00     0.280 HD
ENDROOT
BRANCH   1  10
HETATM   10  N1  UNL     1      -1.039   0.281  -0.272  1.00  0.00    -0.367 N 
BRANCH  10  11
HETATM   11  C2  UNL     1      -1.878   0.986   0.566  1.00  0.00     0.056 C 
HETATM   12  C1  UNL     1      -1.478   1.242   1.976  1.00  0.00     0.054 C 
ENDBRANCH  10  11
BRANCH  10  13
HETATM   13  C3  UNL     1      -1.498   0.104  -1.629  1.00  0.00     0.119 C 
HETATM   14  C4  UNL     1      -2.692  -0.818  -1.640  1.00  0.00     0.026 C 
ENDBRANCH  10  13
ENDBRANCH   1  10
TORSDOF 3
