REMARK  18 active torsions:
REMARK  status: ('A' for Active; 'I' for Inactive)
REMARK    1  A    between atoms: N1_2  and  C3_4 
REMARK    2  A    between atoms: C4_6  and  C5_7 
REMARK    3  A    between atoms: C5_7  and  O2_8 
REMARK    4  A    between atoms: C6_10  and  O3_11 
REMARK    5  A    between atoms: O3_11  and  C7_12 
REMARK    6  A    between atoms: C7_12  and  C8_14 
REMARK    7  A    between atoms: C8_14  and  O5_16 
REMARK    8  A    between atoms: C8_14  and  O6_18 
REMARK    9  A    between atoms: C10_20  and  N2_21 
REMARK       I    between atoms: N2_21  and  C11_23 
REMARK   10  A    between atoms: C11_23  and  C12_25 
REMARK   11  A    between atoms: C12_25  and  C13_27 
REMARK       I    between atoms: C13_27  and  N3_29 
REMARK   12  A    between atoms: N3_29  and  N4_31 
REMARK   13  A    between atoms: C14_33  and  C15_34 
REMARK   14  A    between atoms: C16_35  and  O10_36 
REMARK   15  A    between atoms: C17_39  and  C18_40 
REMARK   16  A    between atoms: C18_40  and  O12_41 
REMARK   17  A    between atoms: C19_43  and  O13_44 
REMARK   18  A    between atoms: C20_46  and  O14_47 
ROOT
HETATM    1  N2  UNL     1      -1.129  -0.239  -0.251  1.00  0.00    -0.344 N 
ATOM      2  H2  UNL     1      -1.338   0.235  -1.130  1.00  0.00     0.163 HD
HETATM    3  C11 UNL     1       0.212  -0.308   0.187  1.00  0.00     0.298 C 
HETATM    4  O7  UNL     1       0.518  -0.877   1.257  1.00  0.00    -0.264 OA
ENDROOT
BRANCH   1   5
HETATM    5  C10 UNL     1      -2.222  -0.824   0.514  1.00  0.00     0.150 C 
HETATM    6  C6  UNL     1      -3.269   0.227   0.877  1.00  0.00     0.188 C 
HETATM    7  C4  UNL     1      -4.587  -0.374   1.199  1.00  0.00     0.179 C 
HETATM    8  O1  UNL     1      -4.466  -1.697   1.567  1.00  0.00    -0.345 OA
HETATM    9  C3  UNL     1      -3.981  -2.525   0.578  1.00  0.00     0.389 C 
HETATM   10  C20 UNL     1      -2.872  -1.964  -0.237  1.00  0.00     0.202 C 
BRANCH   6  11
HETATM   11  O3  UNL     1      -3.311   1.279  -0.048  1.00  0.00    -0.307 OA
BRANCH  11  12
HETATM   12  C7  UNL     1      -2.950   2.580   0.191  1.00  0.00     0.322 C 
HETATM   13  O4  UNL     1      -2.549   2.847   1.332  1.00  0.00    -0.259 OA
BRANCH  12  14
HETATM   14  C8  UNL     1      -3.019   3.660  -0.839  1.00  0.00     0.247 C 
HETATM   15  C9  UNL     1      -4.053   4.666  -0.322  1.00  0.00     0.090 C 
BRANCH  14  16
HETATM   16  O5  UNL     1      -3.490   3.174  -2.048  1.00  0.00    -0.358 OA
ATOM     17  H5  UNL     1      -3.534   3.861  -2.703  1.00  0.00     0.213 HD
ENDBRANCH  14  16
BRANCH  14  18
HETATM   18  O6  UNL     1      -1.794   4.272  -1.022  1.00  0.00    -0.358 OA
ATOM     19  H6  UNL     1      -1.838   4.959  -1.677  1.00  0.00     0.213 HD
ENDBRANCH  14  18
ENDBRANCH  12  14
ENDBRANCH  11  12
ENDBRANCH   6  11
BRANCH   7  20
HETATM   20  C5  UNL     1      -5.188   0.373   2.372  1.00  0.00     0.198 C 
BRANCH  20  21
HETATM   21  O2  UNL     1      -4.312   0.219   3.455  1.00  0.00    -0.398 OA
ATOM     22  H2  UNL     1      -4.689   0.687   4.191  1.00  0.00     0.209 HD
ENDBRANCH  20  21
ENDBRANCH   7  20
BRANCH   9  23
HETATM   23  N1  UNL     1      -5.014  -2.971  -0.337  1.00  0.00     0.111 N 
HETATM   24  C1  UNL     1      -4.573  -4.021  -1.205  1.00  0.00     0.312 C 
HETATM   25  C2  UNL     1      -6.270  -3.260   0.274  1.00  0.00     0.312 C 
ENDBRANCH   9  23
BRANCH  10  26
HETATM   26  O14 UNL     1      -1.886  -2.942  -0.386  1.00  0.00    -0.389 OA
ATOM     27  H14 UNL     1      -1.177  -2.583  -0.907  1.00  0.00     0.210 HD
ENDBRANCH  10  26
ENDBRANCH   1   5
BRANCH   3  28
HETATM   28  C12 UNL     1       1.257   0.298  -0.627  1.00  0.00     0.307 C 
HETATM   29  O8  UNL     1       0.962   0.881  -1.724  1.00  0.00    -0.276 OA
BRANCH  28  30
HETATM   30  C13 UNL     1       2.658   0.266  -0.237  1.00  0.00     0.315 C 
HETATM   31  O9  UNL     1       3.028  -0.287   0.830  1.00  0.00    -0.262 OA
HETATM   32  N3  UNL     1       3.624   0.868  -1.068  1.00  0.00    -0.263 N 
ATOM     33  H3  UNL     1       3.329   1.319  -1.934  1.00  0.00     0.190 HD
BRANCH  32  34
HETATM   34  N4  UNL     1       4.988   0.857  -0.724  1.00  0.00    -0.308 N 
HETATM   35  C14 UNL     1       5.519  -0.288  -0.477  1.00  0.00     0.126 C 
ATOM     36  H4  UNL     1       5.532   1.719  -0.673  1.00  0.00     0.186 HD
BRANCH  35  37
HETATM   37  C15 UNL     1       6.940  -0.330  -0.114  1.00  0.00     0.075 A 
HETATM   38  C16 UNL     1       7.693  -1.446   0.185  1.00  0.00     0.198 A 
HETATM   39  O11 UNL     1       8.915  -1.050   0.455  1.00  0.00    -0.287 OA
HETATM   40  C17 UNL     1       9.046   0.234   0.363  1.00  0.00     0.113 A 
HETATM   41  C19 UNL     1       7.817   0.738   0.003  1.00  0.00     0.114 A 
BRANCH  38  42
HETATM   42  O10 UNL     1       7.256  -2.772   0.203  1.00  0.00    -0.340 OA
ATOM     43  H10 UNL     1       7.775  -3.541   0.409  1.00  0.00     0.220 HD
ENDBRANCH  38  42
BRANCH  40  44
HETATM   44  C18 UNL     1      10.254   1.083   0.585  1.00  0.00     0.232 C 
BRANCH  44  45
HETATM   45  O12 UNL     1      11.355   0.299   0.939  1.00  0.00    -0.394 OA
ATOM     46  H12 UNL     1      12.124   0.839   1.080  1.00  0.00     0.209 HD
ENDBRANCH  44  45
ENDBRANCH  40  44
BRANCH  41  47
HETATM   47  O13 UNL     1       7.437   2.045  -0.220  1.00  0.00    -0.357 OA
ATOM     48  H13 UNL     1       8.038   2.777  -0.140  1.00  0.00     0.217 HD
ENDBRANCH  41  47
ENDBRANCH  35  37
ENDBRANCH  32  34
ENDBRANCH  28  30
ENDBRANCH   3  28
TORSDOF 18
