REMARK  19 active torsions:
REMARK  status: ('A' for Active; 'I' for Inactive)
REMARK    1  A    between atoms: O1_2  and  C2_3 
REMARK    2  A    between atoms: C2_3  and  C3_5 
REMARK    3  A    between atoms: C4_7  and  S1_8 
REMARK    4  A    between atoms: S1_8  and  C5_9 
REMARK    5  A    between atoms: C6_11  and  C7_12 
REMARK    6  A    between atoms: C7_12  and  O5_13 
REMARK    7  A    between atoms: C7_12  and  C8_15 
REMARK    8  A    between atoms: C9_18  and  C10_19 
REMARK    9  A    between atoms: C10_19  and  O8_20 
REMARK   10  A    between atoms: C11_23  and  N1_24 
REMARK   11  A    between atoms: N1_24  and  C12_26 
REMARK   12  A    between atoms: C12_26  and  O10_27 
REMARK   13  A    between atoms: C12_26  and  C13_29 
REMARK   14  A    between atoms: C13_29  and  O11_30 
REMARK   15  A    between atoms: C13_29  and  C14_32 
REMARK   16  A    between atoms: C14_32  and  O12_34 
REMARK   17  A    between atoms: C17_37  and  N2_38 
REMARK   18  A    between atoms: C18_42  and  O13_43 
REMARK   19  A    between atoms: C19_45  and  O14_46 
ROOT
HETATM    1  C5  UNL     1       1.097  -1.022   0.062  1.00  0.00     0.216 C 
HETATM    2  O4  UNL     1       0.393  -0.118  -0.724  1.00  0.00    -0.363 OA
HETATM    3  C6  UNL     1      -0.860   0.199  -0.275  1.00  0.00     0.179 C 
HETATM    4  C11 UNL     1      -1.843  -0.982  -0.279  1.00  0.00     0.113 C 
HETATM    5  C16 UNL     1      -0.978  -2.201  -0.261  1.00  0.00     0.063 C 
HETATM    6  C17 UNL     1       0.092  -1.889   0.795  1.00  0.00     0.224 C 
ENDROOT
BRANCH   1   7
HETATM    7  S1  UNL     1       2.296  -0.297   1.165  1.00  0.00    -0.101 SA
BRANCH   7   8
HETATM    8  C4  UNL     1       3.718   0.434   0.391  1.00  0.00     0.217 C 
HETATM    9  O3  UNL     1       4.547  -0.485  -0.241  1.00  0.00    -0.355 OA
HETATM   10  C3  UNL     1       5.324   0.163  -1.154  1.00  0.00     0.253 C 
HETATM   11  C19 UNL     1       4.780   1.560  -1.350  1.00  0.00     0.189 C 
HETATM   12  C18 UNL     1       3.447   1.482  -0.634  1.00  0.00     0.189 C 
BRANCH  10  13
HETATM   13  C2  UNL     1       6.764   0.215  -0.759  1.00  0.00     0.290 C 
HETATM   14  O2  UNL     1       7.618   0.775  -1.492  1.00  0.00    -0.262 OA
BRANCH  13  15
HETATM   15  O1  UNL     1       7.212  -0.346   0.422  1.00  0.00    -0.324 OA
HETATM   16  C1  UNL     1       8.595  -0.290   0.793  1.00  0.00     0.213 C 
ENDBRANCH  13  15
ENDBRANCH  10  13
BRANCH  11  17
HETATM   17  O14 UNL     1       4.621   1.887  -2.695  1.00  0.00    -0.390 OA
ATOM     18  H14 UNL     1       4.279   2.765  -2.818  1.00  0.00     0.210 HD
ENDBRANCH  11  17
BRANCH  12  19
HETATM   19  O13 UNL     1       3.158   2.728  -0.098  1.00  0.00    -0.389 OA
ATOM     20  H13 UNL     1       2.985   3.396  -0.751  1.00  0.00     0.210 HD
ENDBRANCH  12  19
ENDBRANCH   7   8
ENDBRANCH   1   7
BRANCH   6  21
HETATM   21  N2  UNL     1       0.655  -3.081   1.354  1.00  0.00    -0.072 N 
ATOM     22  H23 UNL     1       1.139  -3.621   0.636  1.00  0.00     0.274 HD
ATOM     23  H22 UNL     1       1.444  -2.856   1.960  1.00  0.00     0.274 HD
ATOM     24  H21 UNL     1      -0.021  -3.664   1.847  1.00  0.00     0.274 HD
ENDBRANCH   6  21
BRANCH   3  25
HETATM   25  C7  UNL     1      -1.420   1.325  -1.115  1.00  0.00     0.207 C 
BRANCH  25  26
HETATM   26  O5  UNL     1      -1.474   0.904  -2.432  1.00  0.00    -0.388 OA
ATOM     27  H5  UNL     1      -1.826   1.611  -2.960  1.00  0.00     0.210 HD
ENDBRANCH  25  26
BRANCH  25  28
HETATM   28  C8  UNL     1      -0.540   2.533  -1.028  1.00  0.00     0.331 C 
HETATM   29  O6  UNL     1      -0.984   3.600  -1.786  1.00  0.00    -0.203 OA
HETATM   30  O7  UNL     1      -0.441   4.633  -1.133  1.00  0.00    -0.203 OA
HETATM   31  C9  UNL     1      -0.833   4.342   0.179  1.00  0.00     0.323 C 
HETATM   32  O9  UNL     1      -0.603   2.985   0.298  1.00  0.00    -0.321 OA
BRANCH  31  33
HETATM   33  C10 UNL     1      -2.312   4.692   0.284  1.00  0.00     0.227 C 
BRANCH  33  34
HETATM   34  O8  UNL     1      -2.732   4.414   1.562  1.00  0.00    -0.396 OA
ATOM     35  H8  UNL     1      -3.654   4.632   1.627  1.00  0.00     0.209 HD
ENDBRANCH  33  34
ENDBRANCH  31  33
ENDBRANCH  25  28
ENDBRANCH   3  25
BRANCH   4  36
HETATM   36  N1  UNL     1      -2.693  -0.791   0.835  1.00  0.00    -0.388 N 
ATOM     37  H1  UNL     1      -2.674   0.088   1.352  1.00  0.00     0.156 HD
BRANCH  36  38
HETATM   38  C12 UNL     1      -3.568  -1.827   1.224  1.00  0.00     0.245 C 
BRANCH  38  39
HETATM   39  O10 UNL     1      -3.002  -2.962   1.755  1.00  0.00    -0.374 OA
ATOM     40  H10 UNL     1      -3.591  -3.660   2.017  1.00  0.00     0.212 HD
ENDBRANCH  38  39
BRANCH  38  41
HETATM   41  C13 UNL     1      -4.609  -2.222   0.197  1.00  0.00     0.194 C 
BRANCH  41  42
HETATM   42  O11 UNL     1      -5.445  -1.154  -0.137  1.00  0.00    -0.389 OA
ATOM     43  H11 UNL     1      -6.098  -1.402  -0.781  1.00  0.00     0.210 HD
ENDBRANCH  41  42
BRANCH  41  44
HETATM   44  C14 UNL     1      -5.516  -3.304   0.783  1.00  0.00     0.147 C 
HETATM   45  C15 UNL     1      -6.580  -3.629  -0.242  1.00  0.00     0.042 C 
BRANCH  44  46
HETATM   46  O12 UNL     1      -6.162  -2.809   1.913  1.00  0.00    -0.393 OA
ATOM     47  H12 UNL     1      -6.726  -3.481   2.277  1.00  0.00     0.210 HD
ENDBRANCH  44  46
ENDBRANCH  41  44
ENDBRANCH  38  41
ENDBRANCH  36  38
ENDBRANCH   4  36
TORSDOF 19
