REMARK  20 active torsions:
REMARK  status: ('A' for Active; 'I' for Inactive)
REMARK    1  A    between atoms: O1_2  and  C2_3 
REMARK    2  A    between atoms: C2_3  and  C3_5 
REMARK    3  A    between atoms: C3_5  and  O3_6 
REMARK    4  A    between atoms: C5_9  and  O4_10 
REMARK    5  A    between atoms: O4_10  and  C6_11 
REMARK    6  A    between atoms: C6_11  and  O5_12 
REMARK    7  A    between atoms: O5_12  and  C7_13 
REMARK    8  A    between atoms: C7_13  and  C8_15 
REMARK    9  A    between atoms: C10_18  and  C11_19 
REMARK   10  A    between atoms: C11_19  and  N1_20 
REMARK   11  A    between atoms: C11_19  and  C12_24 
REMARK   12  A    between atoms: C12_24  and  O7_25 
REMARK   13  A    between atoms: C12_24  and  O8_27 
REMARK   14  A    between atoms: C12_24  and  C13_29 
REMARK   15  A    between atoms: C15_33  and  O11_34 
REMARK   16  A    between atoms: C15_33  and  C16_36 
REMARK   17  A    between atoms: C17_39  and  N2_40 
REMARK   18  A    between atoms: C17_39  and  C18_44 
REMARK   19  A    between atoms: C18_44  and  O14_45 
REMARK   20  A    between atoms: C19_47  and  O15_48 
ROOT
HETATM    1  C3  UNL     1      -4.026   0.489   0.992  1.00  0.00     0.176 C 
HETATM    2  C4  UNL     1      -2.770   0.866   0.312  1.00  0.00     0.087 C 
HETATM    3  C5  UNL     1      -2.073  -0.256  -0.438  1.00  0.00     0.175 C 
HETATM    4  C15 UNL     1      -2.470  -1.610   0.081  1.00  0.00     0.210 C 
HETATM    5  C17 UNL     1      -3.937  -1.862   0.046  1.00  0.00     0.216 C 
HETATM    6  C19 UNL     1      -4.768  -0.662   0.426  1.00  0.00     0.204 C 
ENDROOT
BRANCH   3   7
HETATM    7  O4  UNL     1      -0.696  -0.137  -0.343  1.00  0.00    -0.357 OA
BRANCH   7   8
HETATM    8  C6  UNL     1      -0.041   0.140  -1.512  1.00  0.00     0.348 C 
BRANCH   8   9
HETATM    9  O5  UNL     1       1.356   0.218  -1.185  1.00  0.00    -0.292 OA
BRANCH   9  10
HETATM   10  C7  UNL     1       1.793   1.157  -0.270  1.00  0.00     0.295 C 
HETATM   11  O6  UNL     1       0.953   1.911   0.247  1.00  0.00    -0.259 OA
BRANCH  10  12
HETATM   12  C8  UNL     1       3.225   1.298   0.118  1.00  0.00     0.047 A 
HETATM   13  C9  UNL     1       3.632   2.236   1.029  1.00  0.00     0.067 A 
HETATM   14  S1  UNL     1       5.312   1.997   1.119  1.00  0.00    -0.103 SA
HETATM   15  C10 UNL     1       5.478   0.726   0.015  1.00  0.00     0.020 A 
HETATM   16  C14 UNL     1       4.191   0.510  -0.411  1.00  0.00     0.035 A 
BRANCH  15  17
HETATM   17  C11 UNL     1       6.695  -0.059  -0.472  1.00  0.00     0.296 C 
BRANCH  17  18
HETATM   18  N1  UNL     1       6.640   0.136  -1.941  1.00  0.00    -0.065 N 
ATOM     19  H13 UNL     1       5.757  -0.131  -2.375  1.00  0.00     0.275 HD
ATOM     20  H12 UNL     1       6.610   1.110  -2.243  1.00  0.00     0.275 HD
ATOM     21  H11 UNL     1       7.452  -0.388  -2.266  1.00  0.00     0.275 HD
ENDBRANCH  17  18
BRANCH  17  22
HETATM   22  C12 UNL     1       7.922   0.545   0.103  1.00  0.00     0.285 C 
BRANCH  22  23
HETATM   23  O7  UNL     1       9.039   0.021  -0.617  1.00  0.00    -0.355 OA
ATOM     24  H7  UNL     1       9.825   0.408  -0.249  1.00  0.00     0.213 HD
ENDBRANCH  22  23
BRANCH  22  25
HETATM   25  O8  UNL     1       8.020   1.904   0.084  1.00  0.00    -0.355 OA
ATOM     26  H8  UNL     1       8.806   2.291   0.452  1.00  0.00     0.213 HD
ENDBRANCH  22  25
BRANCH  22  27
HETATM   27  C13 UNL     1       8.117   0.017   1.495  1.00  0.00     0.241 C 
HETATM   28  O9  UNL     1       9.137  -0.717   1.748  1.00  0.00    -0.644 OA
HETATM   29  O10 UNL     1       7.264   0.275   2.517  1.00  0.00    -0.644 OA
ENDBRANCH  22  27
ENDBRANCH  17  22
ENDBRANCH  15  17
ENDBRANCH  10  12
ENDBRANCH   9  10
ENDBRANCH   8   9
ENDBRANCH   7   8
ENDBRANCH   3   7
BRANCH   4  30
HETATM   30  O11 UNL     1      -2.050  -1.736   1.446  1.00  0.00    -0.374 OA
ATOM     31  H11 UNL     1      -2.301  -2.592   1.774  1.00  0.00     0.211 HD
ENDBRANCH   4  30
BRANCH   4  32
HETATM   32  C16 UNL     1      -1.721  -2.664  -0.629  1.00  0.00     0.214 C 
HETATM   33  O12 UNL     1      -1.757  -2.861  -1.869  1.00  0.00    -0.646 OA
HETATM   34  O13 UNL     1      -0.876  -3.565   0.058  1.00  0.00    -0.646 OA
ENDBRANCH   4  32
BRANCH   1  35
HETATM   35  C2  UNL     1      -4.945   1.684   0.881  1.00  0.00     0.296 C 
HETATM   36  O2  UNL     1      -5.326   2.066  -0.255  1.00  0.00    -0.262 OA
BRANCH  35  37
HETATM   37  O1  UNL     1      -5.393   2.388   1.984  1.00  0.00    -0.324 OA
HETATM   38  C1  UNL     1      -6.251   3.494   1.786  1.00  0.00     0.213 C 
ENDBRANCH  35  37
ENDBRANCH   1  35
BRANCH   1  39
HETATM   39  O3  UNL     1      -3.790   0.344   2.369  1.00  0.00    -0.377 OA
ATOM     40  H3  UNL     1      -3.212  -0.407   2.439  1.00  0.00     0.211 HD
ENDBRANCH   1  39
BRANCH   5  41
HETATM   41  N2  UNL     1      -4.179  -2.899   1.073  1.00  0.00    -0.062 N 
ATOM     42  H23 UNL     1      -3.614  -3.739   0.950  1.00  0.00     0.275 HD
ATOM     43  H22 UNL     1      -3.826  -2.653   1.998  1.00  0.00     0.275 HD
ATOM     44  H21 UNL     1      -5.184  -3.072   1.049  1.00  0.00     0.275 HD
ENDBRANCH   5  41
BRANCH   5  45
HETATM   45  C18 UNL     1      -4.425  -2.492  -1.235  1.00  0.00     0.209 C 
BRANCH  45  46
HETATM   46  O14 UNL     1      -4.297  -1.691  -2.351  1.00  0.00    -0.398 OA
ATOM     47  H14 UNL     1      -4.604  -2.088  -3.158  1.00  0.00     0.209 HD
ENDBRANCH  45  46
ENDBRANCH   5  45
BRANCH   6  48
HETATM   48  O15 UNL     1      -5.502  -0.252  -0.711  1.00  0.00    -0.389 OA
ATOM     49  H15 UNL     1      -5.978  -0.990  -1.074  1.00  0.00     0.210 HD
ENDBRANCH   6  48
TORSDOF 20
