REMARK  5 active torsions:
REMARK  status: ('A' for Active; 'I' for Inactive)
REMARK    1  A    between atoms: N1_1  and  N2_4 
REMARK    2  A    between atoms: N2_4  and  N3_6 
REMARK    3  A    between atoms: C1_8  and  C2_9 
REMARK    4  A    between atoms: C1_8  and  C3_16 
REMARK       I    between atoms: C2_9  and  N4_11 
REMARK    5  A    between atoms: N4_11  and  N5_13 
ROOT
HETATM    1  N3  UNL     1      -0.333   0.893  -0.528  1.00  0.00    -0.280 N 
ATOM      2  H3  UNL     1       0.342   1.657  -0.491  1.00  0.00     0.189 HD
HETATM    3  C1  UNL     1       0.111  -0.186  -0.038  1.00  0.00     0.148 C 
ENDROOT
BRANCH   3   4
HETATM    4  C2  UNL     1       1.468  -0.141   0.475  1.00  0.00     0.289 C 
HETATM    5  O1  UNL     1       2.064  -1.095   0.987  1.00  0.00    -0.264 OA
HETATM    6  N4  UNL     1       2.195   1.087   0.396  1.00  0.00    -0.271 N 
ATOM      7  H4  UNL     1       1.754   1.909  -0.017  1.00  0.00     0.189 HD
BRANCH   6   8
HETATM    8  N5  UNL     1       3.499   1.174   0.877  1.00  0.00    -0.342 N 
ATOM      9  H52 UNL     1       3.925   0.343   1.287  1.00  0.00     0.176 HD
ATOM     10  H51 UNL     1       4.018   2.050   0.821  1.00  0.00     0.176 HD
ENDBRANCH   6   8
ENDBRANCH   3   4
BRANCH   3  11
HETATM   11  C3  UNL     1      -0.639  -1.447   0.041  1.00  0.00     0.100 A 
HETATM   12  C4  UNL     1      -0.221  -2.635   0.553  1.00  0.00     0.142 A 
HETATM   13  N6  UNL     1      -1.246  -3.524   0.417  1.00  0.00    -0.295 N 
HETATM   14  N7  UNL     1      -2.228  -2.880  -0.154  1.00  0.00    -0.243 N 
ATOM     15  H6  UNL     1      -1.246  -4.502   0.705  1.00  0.00     0.187 HD
HETATM   16  N8  UNL     1      -1.905  -1.633  -0.395  1.00  0.00    -0.283 N 
ATOM     17  H7  UNL     1      -3.131  -3.295  -0.383  1.00  0.00     0.208 HD
ATOM     18  H8  UNL     1      -2.501  -0.930  -0.832  1.00  0.00     0.188 HD
ENDBRANCH   3  11
BRANCH   1  19
HETATM   19  N2  UNL     1      -1.512   1.252  -1.091  1.00  0.00    -0.249 N 
ATOM     20  H2  UNL     1      -1.732   0.942  -2.037  1.00  0.00     0.207 HD
BRANCH  19  21
HETATM   21  N1  UNL     1      -2.429   2.040  -0.395  1.00  0.00    -0.331 N 
ATOM     22  H12 UNL     1      -2.193   2.342   0.550  1.00  0.00     0.178 HD
ATOM     23  H11 UNL     1      -3.317   2.310  -0.819  1.00  0.00     0.178 HD
ENDBRANCH  19  21
ENDBRANCH   1  19
TORSDOF 5
