REMARK  3 active torsions:
REMARK  status: ('A' for Active; 'I' for Inactive)
REMARK    1  A    between atoms: N1_1  and  C1_4 
REMARK    2  A    between atoms: C2_7  and  C3_8 
REMARK       I    between atoms: N5_13  and  C4_14 
REMARK       I    between atoms: C4_14  and  N6_16 
REMARK    3  A    between atoms: N6_16  and  N7_18 
ROOT
HETATM    1  C1  UNL     1       0.064  -1.912   0.636  1.00  0.00     0.703 A 
HETATM    2  N2  UNL     1       1.401  -1.826   0.392  1.00  0.00    -0.169 N 
ATOM      3  H2  UNL     1       2.053  -2.607   0.469  1.00  0.00     0.186 HD
HETATM    4  C2  UNL     1       1.749  -0.581   0.038  1.00  0.00     0.202 A 
HETATM    5  N4  UNL     1       0.609   0.117   0.064  1.00  0.00    -0.255 N 
ATOM      6  H4  UNL     1       0.524   1.109  -0.157  1.00  0.00     0.190 HD
HETATM    7  N5  UNL     1      -0.411  -0.685   0.425  1.00  0.00    -0.029 N 
HETATM    8  C4  UNL     1      -1.749  -0.230   0.542  1.00  0.00     0.374 C 
HETATM    9  O2  UNL     1      -2.713  -0.975   0.881  1.00  0.00    -0.243 OA
HETATM   10  N6  UNL     1      -2.061   1.126   0.274  1.00  0.00    -0.256 N 
ATOM     11  H6  UNL     1      -1.321   1.771  -0.002  1.00  0.00     0.191 HD
ENDROOT
BRANCH   1  12
HETATM   12  N1  UNL     1      -0.562  -2.969   0.992  1.00  0.00    -0.233 N 
ATOM     13  H12 UNL     1      -0.198  -3.908   1.154  1.00  0.00     0.174 HD
ATOM     14  H11 UNL     1      -1.563  -3.033   1.175  1.00  0.00     0.174 HD
ENDBRANCH   1  12
BRANCH   4  15
HETATM   15  C3  UNL     1       3.085  -0.075  -0.306  1.00  0.00     0.300 C 
HETATM   16  N3  UNL     1       3.278   1.275  -0.658  1.00  0.00    -0.054 NA
HETATM   17  O1  UNL     1       4.091  -0.826  -0.297  1.00  0.00    -0.268 OA
ENDBRANCH   4  15
BRANCH  10  18
HETATM   18  N7  UNL     1      -3.370   1.584   0.385  1.00  0.00    -0.341 N 
ATOM     19  H72 UNL     1      -4.098   0.926   0.662  1.00  0.00     0.177 HD
ATOM     20  H71 UNL     1      -3.595   2.560   0.192  1.00  0.00     0.177 HD
ENDBRANCH  10  18
TORSDOF 3
