REMARK  4 active torsions:
REMARK  status: ('A' for Active; 'I' for Inactive)
REMARK    1  A    between atoms: N1_2  and  N2_3 
REMARK    2  A    between atoms: N1_2  and  S1_6 
REMARK    3  A    between atoms: S1_6  and  N3_7 
REMARK    4  A    between atoms: N3_7  and  N4_9 
ROOT
HETATM    1  N4  UNL     1       1.284  -0.449   0.143  1.00  0.00    -0.143 N 
HETATM    2  C2  UNL     1       2.289  -1.267  -0.217  1.00  0.00     0.365 A 
HETATM    3  O1  UNL     1       2.140  -2.450  -0.639  1.00  0.00    -0.243 OA
HETATM    4  N5  UNL     1       3.488  -0.662  -0.075  1.00  0.00    -0.246 N 
ATOM      5  H5  UNL     1       4.408  -1.056  -0.275  1.00  0.00     0.192 HD
HETATM    6  N6  UNL     1       3.214   0.555   0.380  1.00  0.00    -0.246 N 
ATOM      7  H6  UNL     1       3.906   1.273   0.595  1.00  0.00     0.192 HD
HETATM    8  C3  UNL     1       1.883   0.695   0.514  1.00  0.00     0.365 A 
HETATM    9  O2  UNL     1       1.257   1.707   0.918  1.00  0.00    -0.243 OA
ENDROOT
BRANCH   1  10
HETATM   10  N3  UNL     1      -0.099  -0.738   0.129  1.00  0.00    -0.244 N 
ATOM     11  H3  UNL     1      -0.524  -1.250  -0.644  1.00  0.00     0.197 HD
BRANCH  10  12
HETATM   12  S1  UNL     1      -1.065  -0.182   1.498  1.00  0.00     0.074 SA
BRANCH  12  13
HETATM   13  N1  UNL     1      -2.609   0.405   0.946  1.00  0.00    -0.161 NA
HETATM   14  C1  UNL     1      -2.488   1.422  -0.078  1.00  0.00     0.152 C 
BRANCH  13  15
HETATM   15  N2  UNL     1      -3.406  -0.645   0.555  1.00  0.00    -0.353 NA
ATOM     16  H22 UNL     1      -4.310  -0.301   0.232  1.00  0.00     0.172 HD
ATOM     17  H21 UNL     1      -3.491  -1.361   1.276  1.00  0.00     0.172 HD
ENDBRANCH  13  15
ENDBRANCH  12  13
ENDBRANCH  10  12
ENDBRANCH   1  10
TORSDOF 4
