REMARK  5 active torsions:
REMARK  status: ('A' for Active; 'I' for Inactive)
REMARK    1  A    between atoms: N1_1  and  C1_4 
REMARK    2  A    between atoms: C2_7  and  N3_8 
REMARK    3  A    between atoms: N3_8  and  O1_9 
REMARK    4  A    between atoms: N3_8  and  N4_11 
REMARK    5  A    between atoms: N4_11  and  N5_13 
ROOT
HETATM    1  C1  UNL     1      -1.836   0.880  -0.198  1.00  0.00     0.692 A 
HETATM    2  N2  UNL     1      -0.505   0.725  -0.053  1.00  0.00    -0.166 N 
ATOM      3  H2  UNL     1       0.077   1.549   0.100  1.00  0.00     0.186 HD
HETATM    4  C2  UNL     1       0.077  -0.486  -0.105  1.00  0.00     0.237 A 
HETATM    5  C3  UNL     1      -0.768  -1.563  -0.315  1.00  0.00     0.309 A 
HETATM    6  O2  UNL     1      -0.276  -2.700  -0.370  1.00  0.00    -0.262 OA
HETATM    7  N6  UNL     1      -2.112  -1.403  -0.460  1.00  0.00    -0.249 N 
ATOM      8  H6  UNL     1      -2.713  -2.213  -0.613  1.00  0.00     0.191 HD
HETATM    9  N7  UNL     1      -2.636  -0.179  -0.400  1.00  0.00    -0.129 N 
ATOM     10  H7  UNL     1      -3.642  -0.047  -0.507  1.00  0.00     0.205 HD
ENDROOT
BRANCH   4  11
HETATM   11  N3  UNL     1       1.480  -0.667   0.045  1.00  0.00    -0.126 N 
BRANCH  11  12
HETATM   12  O1  UNL     1       1.977  -1.807  -0.010  1.00  0.00    -0.265 OA
ATOM     13  H1  UNL     1       2.914  -1.928   0.090  1.00  0.00     0.247 HD
ENDBRANCH  11  12
BRANCH  11  14
HETATM   14  N4  UNL     1       2.307   0.427   0.254  1.00  0.00    -0.221 N 
ATOM     15  H4  UNL     1       2.278   0.900   1.157  1.00  0.00     0.210 HD
BRANCH  14  16
HETATM   16  N5  UNL     1       3.172   0.901  -0.720  1.00  0.00    -0.329 N 
ATOM     17  H52 UNL     1       3.189   0.416  -1.617  1.00  0.00     0.178 HD
ATOM     18  H51 UNL     1       3.780   1.705  -0.566  1.00  0.00     0.178 HD
ENDBRANCH  14  16
ENDBRANCH  11  14
ENDBRANCH   4  11
BRANCH   1  19
HETATM   19  N1  UNL     1      -2.387   2.068  -0.144  1.00  0.00    -0.233 N 
ATOM     20  H12 UNL     1      -1.779   2.873   0.009  1.00  0.00     0.174 HD
ATOM     21  H11 UNL     1      -3.394   2.185  -0.254  1.00  0.00     0.174 HD
ENDBRANCH   1  19
TORSDOF 5
