REMARK  7 active torsions:
REMARK  status: ('A' for Active; 'I' for Inactive)
REMARK    1  A    between atoms: C1_4  and  N2_5 
REMARK    2  A    between atoms: C1_4  and  C3_16 
REMARK       I    between atoms: N2_5  and  C2_7 
REMARK       I    between atoms: C2_7  and  N3_8 
REMARK       I    between atoms: C2_7  and  N4_12 
REMARK    3  A    between atoms: C5_20  and  N6_21 
REMARK    4  A    between atoms: N6_21  and  C6_23 
REMARK    5  A    between atoms: C6_23  and  C7_24 
REMARK    6  A    between atoms: C11_32  and  N9_33 
REMARK    7  A    between atoms: N9_33  and  C12_35 
ROOT
HETATM    1  C3  UNL     1      -1.221   0.463   0.293  1.00  0.00     0.151 A 
HETATM    2  N5  UNL     1       0.081   0.424   0.049  1.00  0.00    -0.336 N 
ATOM      3  H5  UNL     1       0.549   1.285  -0.235  1.00  0.00     0.168 HD
HETATM    4  C4  UNL     1       0.813  -0.699   0.159  1.00  0.00     0.091 A 
HETATM    5  C5  UNL     1       2.165  -0.727  -0.097  1.00  0.00     0.059 A 
HETATM    6  C8  UNL     1       2.816  -1.932   0.048  1.00  0.00     0.048 A 
HETATM    7  C9  UNL     1       2.161  -3.083   0.435  1.00  0.00     0.091 A 
HETATM    8  N8  UNL     1       0.845  -3.037   0.680  1.00  0.00    -0.361 N 
ATOM      9  H8  UNL     1       0.348  -3.881   0.966  1.00  0.00     0.165 HD
HETATM   10  C10 UNL     1       0.182  -1.879   0.548  1.00  0.00     0.106 A 
HETATM   11  C11 UNL     1      -1.171  -1.839   0.802  1.00  0.00     0.138 A 
HETATM   12  N10 UNL     1      -1.846  -0.657   0.667  1.00  0.00    -0.324 N 
ATOM     13  H10 UNL     1      -2.848  -0.630   0.856  1.00  0.00     0.169 HD
ENDROOT
BRANCH   1  14
HETATM   14  C1  UNL     1      -2.016   1.686   0.172  1.00  0.00     0.142 C 
HETATM   15  N1  UNL     1      -1.433   2.766  -0.185  1.00  0.00    -0.383 N 
ATOM     16  H12 UNL     1      -1.987   3.618  -0.269  1.00  0.00     0.157 HD
ATOM     17  H11 UNL     1      -0.431   2.751  -0.377  1.00  0.00     0.157 HD
BRANCH  14  18
HETATM   18  N2  UNL     1      -3.407   1.707   0.438  1.00  0.00    -0.324 N 
HETATM   19  C2  UNL     1      -4.369   1.363  -0.583  1.00  0.00     0.481 C 
HETATM   20  N3  UNL     1      -5.706   1.471  -0.033  1.00  0.00    -0.033 N 
HETATM   21  N4  UNL     1      -4.227   2.143  -1.784  1.00  0.00    -0.033 N 
ATOM     22  H33 UNL     1      -5.823   0.914   0.813  1.00  0.00     0.278 HD
ATOM     23  H32 UNL     1      -5.885   2.389   0.374  1.00  0.00     0.278 HD
ATOM     24  H31 UNL     1      -6.385   1.228  -0.754  1.00  0.00     0.278 HD
ATOM     25  H43 UNL     1      -4.262   3.141  -1.575  1.00  0.00     0.278 HD
ATOM     26  H42 UNL     1      -3.276   2.080  -2.147  1.00  0.00     0.278 HD
ATOM     27  H41 UNL     1      -4.906   1.900  -2.505  1.00  0.00     0.278 HD
ATOM     28  H2  UNL     1      -3.735   1.970   1.367  1.00  0.00     0.165 HD
ENDBRANCH  14  18
ENDBRANCH   1  14
BRANCH  11  29
HETATM   29  N9  UNL     1      -1.782  -2.904   1.161  1.00  0.00    -0.318 N 
ATOM     30  H9  UNL     1      -2.783  -2.821   1.337  1.00  0.00     0.169 HD
BRANCH  29  31
HETATM   31  C12 UNL     1      -1.219  -4.164   1.336  1.00  0.00     0.354 C 
HETATM   32  O2  UNL     1      -1.329  -5.074   0.451  1.00  0.00    -0.283 OA
ENDBRANCH  29  31
ENDBRANCH  11  29
BRANCH   5  33
HETATM   33  N6  UNL     1       2.846   0.464  -0.498  1.00  0.00    -0.380 N 
ATOM     34  H6  UNL     1       2.346   1.347  -0.599  1.00  0.00     0.160 HD
BRANCH  33  35
HETATM   35  C6  UNL     1       4.253   0.378  -0.753  1.00  0.00     0.219 C 
BRANCH  35  36
HETATM   36  C7  UNL     1       4.873   1.633  -1.156  1.00  0.00     0.248 C 
HETATM   37  N7  UNL     1       6.254   1.692  -1.438  1.00  0.00    -0.061 NA
HETATM   38  O1  UNL     1       4.188   2.669  -1.257  1.00  0.00    -0.275 OA
ENDBRANCH  35  36
ENDBRANCH  33  35
ENDBRANCH   5  33
TORSDOF 7
