REMARK  11 active torsions:
REMARK  status: ('A' for Active; 'I' for Inactive)
REMARK    1  A    between atoms: C3_4  and  C4_5 
REMARK    2  A    between atoms: C5_8  and  C6_9 
REMARK    3  A    between atoms: C6_9  and  C7_10 
REMARK    4  A    between atoms: C7_10  and  C8_11 
REMARK    5  A    between atoms: C9_14  and  N4_15 
REMARK    6  A    between atoms: N4_15  and  C10_17 
REMARK    7  A    between atoms: C10_17  and  C11_18 
REMARK    8  A    between atoms: C10_17  and  C12_23 
REMARK    9  A    between atoms: C11_18  and  N5_19 
REMARK   10  A    between atoms: C12_23  and  N6_24 
REMARK   11  A    between atoms: C13_30  and  N8_31 
ROOT
HETATM    1  C8  UNL     1       0.161   1.231   0.177  1.00  0.00     0.077 A 
HETATM    2  N3  UNL     1      -0.723   0.222   0.203  1.00  0.00    -0.190 N 
ATOM      3  H3  UNL     1      -0.382  -0.737   0.135  1.00  0.00     0.184 HD
HETATM    4  C9  UNL     1      -2.049   0.438   0.316  1.00  0.00     0.680 A 
HETATM    5  N7  UNL     1      -2.464   1.712   0.402  1.00  0.00    -0.175 N 
ATOM      6  H7  UNL     1      -3.465   1.890   0.488  1.00  0.00     0.186 HD
HETATM    7  C13 UNL     1      -1.632   2.759   0.381  1.00  0.00     0.141 A 
HETATM    8  C14 UNL     1      -0.292   2.556   0.268  1.00  0.00     0.117 A 
HETATM    9  N9  UNL     1       0.652   3.615   0.240  1.00  0.00    -0.096 NA
ENDROOT
BRANCH   4  10
HETATM   10  N4  UNL     1      -2.888  -0.562   0.339  1.00  0.00    -0.218 N 
ATOM     11  H4  UNL     1      -2.515  -1.509   0.270  1.00  0.00     0.178 HD
BRANCH  10  12
HETATM   12  C10 UNL     1      -4.299  -0.398   0.455  1.00  0.00     0.150 C 
BRANCH  12  13
HETATM   13  C11 UNL     1      -4.870  -1.740   0.932  1.00  0.00     0.256 C 
BRANCH  13  14
HETATM   14  N5  UNL     1      -6.307  -1.672   1.081  1.00  0.00    -0.077 N 
ATOM     15  H53 UNL     1      -6.585  -0.906   1.695  1.00  0.00     0.274 HD
ATOM     16  H52 UNL     1      -6.759  -1.356   0.223  1.00  0.00     0.274 HD
ATOM     17  H51 UNL     1      -6.687  -2.564   1.398  1.00  0.00     0.274 HD
ENDBRANCH  13  14
ENDBRANCH  12  13
BRANCH  12  18
HETATM   18  C12 UNL     1      -4.976  -0.109  -0.870  1.00  0.00     0.256 C 
BRANCH  18  19
HETATM   19  N6  UNL     1      -4.757  -1.191  -1.814  1.00  0.00    -0.077 N 
ATOM     20  H63 UNL     1      -3.764  -1.390  -1.935  1.00  0.00     0.274 HD
ATOM     21  H62 UNL     1      -5.049  -2.090  -1.430  1.00  0.00     0.274 HD
ATOM     22  H61 UNL     1      -5.213  -0.997  -2.706  1.00  0.00     0.274 HD
ENDBRANCH  18  19
ENDBRANCH  12  18
ENDBRANCH  10  12
ENDBRANCH   4  10
BRANCH   1  23
HETATM   23  C7  UNL     1       1.588   1.018   0.057  1.00  0.00     0.034 C 
BRANCH  23  24
HETATM   24  C6  UNL     1       2.154  -0.170  -0.037  1.00  0.00     0.034 C 
BRANCH  24  25
HETATM   25  C5  UNL     1       3.614  -0.316  -0.156  1.00  0.00     0.065 A 
HETATM   26  C3  UNL     1       4.320  -1.474  -0.260  1.00  0.00     0.074 A 
HETATM   27  C2  UNL     1       5.668  -1.093  -0.349  1.00  0.00     0.128 A 
HETATM   28  N1  UNL     1       5.729   0.244  -0.297  1.00  0.00    -0.306 N 
HETATM   29  C1  UNL     1       6.976   1.027  -0.361  1.00  0.00     0.177 C 
HETATM   30  N10 UNL     1       4.509   0.688  -0.184  1.00  0.00    -0.298 N 
ATOM     31  H10 UNL     1       4.263   1.676  -0.124  1.00  0.00     0.187 HD
BRANCH  26  32
HETATM   32  C4  UNL     1       3.871  -2.843  -0.283  1.00  0.00     0.268 C 
HETATM   33  N2  UNL     1       4.808  -3.894  -0.401  1.00  0.00    -0.057 NA
HETATM   34  O1  UNL     1       2.664  -3.115  -0.201  1.00  0.00    -0.271 OA
ENDBRANCH  26  32
ENDBRANCH  24  25
ENDBRANCH  23  24
ENDBRANCH   1  23
BRANCH   7  35
HETATM   35  N8  UNL     1      -2.073   3.990   0.467  1.00  0.00    -0.383 N 
ATOM     36  H82 UNL     1      -3.078   4.142   0.552  1.00  0.00     0.157 HD
ATOM     37  H81 UNL     1      -1.438   4.788   0.451  1.00  0.00     0.157 HD
ENDBRANCH   7  35
TORSDOF 11
