REMARK  11 active torsions:
REMARK  status: ('A' for Active; 'I' for Inactive)
REMARK    1  A    between atoms: O1_2  and  N1_3 
REMARK    2  A    between atoms: N1_3  and  C2_5 
REMARK    3  A    between atoms: C3_8  and  N3_9 
REMARK    4  A    between atoms: N5_15  and  C5_17 
REMARK    5  A    between atoms: C5_17  and  C6_18 
REMARK    6  A    between atoms: N6_20  and  C8_21 
REMARK    7  A    between atoms: C8_21  and  C9_22 
REMARK    8  A    between atoms: C9_22  and  C10_23 
REMARK    9  A    between atoms: C13_26  and  C14_27 
REMARK   10  A    between atoms: C14_27  and  N8_31 
REMARK   11  A    between atoms: N8_31  and  N9_33 
ROOT
HETATM    1  C6  UNL     1      -0.128  -1.186   0.868  1.00  0.00     0.045 A 
HETATM    2  C7  UNL     1      -0.175  -0.173  -0.027  1.00  0.00     0.119 A 
HETATM    3  N6  UNL     1      -1.397  -0.261  -0.657  1.00  0.00    -0.338 N 
HETATM    4  C13 UNL     1      -2.102  -1.286  -0.186  1.00  0.00     0.153 A 
HETATM    5  N10 UNL     1      -1.265  -1.837   0.771  1.00  0.00    -0.340 N 
ATOM      6  H10 UNL     1      -1.504  -2.653   1.335  1.00  0.00     0.167 HD
ENDROOT
BRANCH   1   7
HETATM    7  C5  UNL     1       0.956  -1.570   1.824  1.00  0.00     0.196 C 
BRANCH   7   8
HETATM    8  N5  UNL     1       2.101  -0.745   1.716  1.00  0.00    -0.219 N 
HETATM    9  C4  UNL     1       2.970  -0.827   0.783  1.00  0.00     0.707 A 
HETATM   10  N4  UNL     1       2.852  -1.737  -0.196  1.00  0.00    -0.022 N 
HETATM   11  N11 UNL     1       4.038   0.023   0.778  1.00  0.00    -0.020 N 
HETATM   12  C3  UNL     1       3.798  -1.775  -1.148  1.00  0.00     0.705 A 
ATOM     13  H4  UNL     1       2.063  -2.384  -0.216  1.00  0.00     0.203 HD
HETATM   14  N2  UNL     1       4.849  -0.937  -1.150  1.00  0.00    -0.020 N 
HETATM   15  C2  UNL     1       4.984  -0.017  -0.177  1.00  0.00     0.731 A 
ATOM     16  H2  UNL     1       5.547  -0.999  -1.892  1.00  0.00     0.203 HD
ATOM     17  H11 UNL     1       4.122   0.713   1.525  1.00  0.00     0.203 HD
ATOM     18  H5  UNL     1       2.242  -0.035   2.434  1.00  0.00     0.178 HD
BRANCH  12  19
HETATM   19  N3  UNL     1       3.653  -2.676  -2.089  1.00  0.00    -0.234 N 
ATOM     20  H32 UNL     1       4.372  -2.705  -2.812  1.00  0.00     0.174 HD
ATOM     21  H31 UNL     1       2.855  -3.312  -2.087  1.00  0.00     0.174 HD
ENDBRANCH  12  19
BRANCH  15  22
HETATM   22  N1  UNL     1       6.002   0.763  -0.218  1.00  0.00    -0.096 N 
ATOM     23  H1  UNL     1       6.663   0.651  -0.987  1.00  0.00     0.213 HD
BRANCH  22  24
HETATM   24  O1  UNL     1       6.251   1.736   0.710  1.00  0.00    -0.271 OA
HETATM   25  C1  UNL     1       6.059   3.114   0.398  1.00  0.00     0.238 C 
ENDBRANCH  22  24
ENDBRANCH  15  22
ENDBRANCH   7   8
ENDBRANCH   1   7
BRANCH   3  26
HETATM   26  C8  UNL     1      -1.776   0.714  -1.631  1.00  0.00     0.130 C 
BRANCH  26  27
HETATM   27  C9  UNL     1      -2.228   2.024  -1.054  1.00  0.00     0.025 C 
BRANCH  27  28
HETATM   28  C10 UNL     1      -3.391   1.890  -0.131  1.00  0.00    -0.013 A 
HETATM   29  C11 UNL     1      -3.910   3.192   0.478  1.00  0.00     0.005 A 
HETATM   30  C12 UNL     1      -4.730   2.454  -0.527  1.00  0.00     0.005 A 
ENDBRANCH  27  28
ENDBRANCH  26  27
ENDBRANCH   3  26
BRANCH   4  31
HETATM   31  C14 UNL     1      -3.385  -1.862  -0.493  1.00  0.00     0.158 C 
HETATM   32  N7  UNL     1      -4.206  -1.470  -1.316  1.00  0.00    -0.381 N 
ATOM     33  H72 UNL     1      -3.936  -0.637  -1.838  1.00  0.00     0.157 HD
ATOM     34  H71 UNL     1      -5.115  -1.878  -1.534  1.00  0.00     0.157 HD
BRANCH  31  35
HETATM   35  N8  UNL     1      -3.770  -3.052   0.253  1.00  0.00    -0.289 N 
ATOM     36  H8  UNL     1      -3.312  -3.938   0.038  1.00  0.00     0.188 HD
BRANCH  35  37
HETATM   37  N9  UNL     1      -4.740  -3.021   1.247  1.00  0.00    -0.344 N 
ATOM     38  H92 UNL     1      -5.188  -2.127   1.449  1.00  0.00     0.176 HD
ATOM     39  H91 UNL     1      -5.010  -3.854   1.769  1.00  0.00     0.176 HD
ENDBRANCH  35  37
ENDBRANCH  31  35
ENDBRANCH   4  31
TORSDOF 11
