REMARK  1 active torsions:
REMARK  status: ('A' for Active; 'I' for Inactive)
REMARK    1  A    between atoms: C7_7  and  O1_8 
ROOT
HETATM    1  C1  UNL     1       2.330   0.474  -0.377  1.00  0.00     0.012 C 
HETATM    2  C2  UNL     1       1.225   0.079   0.553  1.00  0.00     0.012 A 
HETATM    3  C3  UNL     1       0.119   1.121   0.549  1.00  0.00     0.018 A 
HETATM    4  C4  UNL     1      -0.799   0.062  -0.009  1.00  0.00    -0.021 A 
HETATM    5  C5  UNL     1      -1.221   0.309  -1.437  1.00  0.00     0.017 C 
HETATM    6  C6  UNL     1      -1.939  -0.183   0.958  1.00  0.00     0.017 C 
HETATM    7  C7  UNL     1       0.287  -0.989   0.029  1.00  0.00     0.129 A 
ENDROOT
BRANCH   7   8
HETATM    8  O1  UNL     1       0.052  -2.044   0.891  1.00  0.00    -0.394 OA
ATOM      9  H1  UNL     1      -0.536  -2.714   0.562  1.00  0.00     0.210 HD
ENDBRANCH   7   8
TORSDOF 1
