REMARK  3 active torsions:
REMARK  status: ('A' for Active; 'I' for Inactive)
REMARK    1  A    between atoms: C2_2  and  C4_4 
REMARK    2  A    between atoms: C4_4  and  C7_7 
REMARK    3  A    between atoms: C8_8  and  N1_9 
ROOT
HETATM    1  C4  UNL     1       0.021   0.564   0.225  1.00  0.00     0.040 C 
HETATM    2  C5  UNL     1       0.464   1.081   1.577  1.00  0.00     0.034 C 
HETATM    3  C6  UNL     1      -0.439   1.749  -0.581  1.00  0.00     0.034 C 
ENDROOT
BRANCH   1   4
HETATM    4  C2  UNL     1      -1.064  -0.433   0.433  1.00  0.00    -0.073 C 
HETATM    5  C1  UNL     1      -1.515  -0.762   1.632  1.00  0.00     0.015 C 
HETATM    6  C3  UNL     1      -1.707  -1.123  -0.744  1.00  0.00     0.044 C 
ENDBRANCH   1   4
BRANCH   1   7
HETATM    7  C7  UNL     1       1.123  -0.107  -0.469  1.00  0.00    -0.070 C 
HETATM    8  C8  UNL     1       2.030  -0.679  -1.030  1.00  0.00     0.004 C 
BRANCH   8   9
HETATM    9  N1  UNL     1       3.082  -1.342  -1.659  1.00  0.00    -0.359 N 
ATOM     10  H12 UNL     1       2.682  -1.076  -0.759  1.00  0.00     0.166 HD
ATOM     11  H11 UNL     1       3.846  -1.824  -2.132  1.00  0.00     0.166 HD
ENDBRANCH   8   9
ENDBRANCH   1   7
TORSDOF 3
