REMARK  2 active torsions:
REMARK  status: ('A' for Active; 'I' for Inactive)
REMARK    1  A    between atoms: O1_1  and  C1_3 
REMARK    2  A    between atoms: C1_3  and  C2_4 
ROOT
HETATM    1  C2  UNL     1       0.646   0.018   0.037  1.00  0.00    -0.018 C 
HETATM    2  C3  UNL     1       0.085   1.397  -0.131  1.00  0.00     0.012 C 
HETATM    3  C4  UNL     1      -1.340   1.299  -0.635  1.00  0.00     0.001 C 
HETATM    4  C5  UNL     1      -2.067   0.148  -0.027  1.00  0.00     0.005 C 
HETATM    5  C6  UNL     1      -1.153  -1.017   0.247  1.00  0.00    -0.013 C 
HETATM    6  C7  UNL     1      -0.082  -0.988  -0.853  1.00  0.00     0.016 C 
HETATM    7  C8  UNL     1      -0.037  -0.632   1.211  1.00  0.00     0.016 C 
ENDROOT
BRANCH   1   8
HETATM    8  C1  UNL     1       2.147  -0.083   0.006  1.00  0.00     0.173 C 
BRANCH   8   9
HETATM    9  O1  UNL     1       2.605  -1.370   0.165  1.00  0.00    -0.400 OA
ATOM     10  H1  UNL     1       3.553  -1.434   0.145  1.00  0.00     0.209 HD
ENDBRANCH   8   9
ENDBRANCH   1   8
TORSDOF 2
