REMARK  1 active torsions:
REMARK  status: ('A' for Active; 'I' for Inactive)
REMARK    1  A    between atoms: O1_1  and  C1_3 
ROOT
HETATM    1  C1  UNL     1      -1.006   0.970   0.189  1.00  0.00     0.122 C 
HETATM    2  C2  UNL     1      -1.447  -0.442  -0.225  1.00  0.00     0.036 C 
HETATM    3  C3  UNL     1      -0.240  -1.293   0.045  1.00  0.00    -0.012 C 
HETATM    4  C4  UNL     1       0.831  -0.907  -0.934  1.00  0.00     0.005 C 
HETATM    5  C5  UNL     1       1.338   0.463  -0.460  1.00  0.00     0.007 C 
HETATM    6  C6  UNL     1       0.407   0.789   0.684  1.00  0.00     0.015 C 
HETATM    7  C7  UNL     1       0.284  -0.609   1.318  1.00  0.00     0.012 C 
ENDROOT
BRANCH   1   8
HETATM    8  O1  UNL     1      -1.109   1.854  -0.855  1.00  0.00    -0.395 OA
ATOM      9  H1  UNL     1      -0.836   2.727  -0.599  1.00  0.00     0.210 HD
ENDBRANCH   1   8
TORSDOF 1
