REMARK  3 active torsions:
REMARK  status: ('A' for Active; 'I' for Inactive)
REMARK    1  A    between atoms: C3_3  and  C4_4 
REMARK    2  A    between atoms: C8_8  and  C9_9 
REMARK    3  A    between atoms: C11_13  and  C12_14 
ROOT
HETATM    1  C1  UNL     1       4.125  -0.803   1.064  1.00  0.00     0.096 C 
HETATM    2  C2  UNL     1       3.257  -0.008   0.475  1.00  0.00    -0.187 C 
HETATM    3  C3  UNL     1       2.362   0.697  -0.156  1.00  0.00     0.084 C 
ENDROOT
BRANCH   3   4
HETATM    4  C4  UNL     1       1.219  -0.016  -0.699  1.00  0.00     0.002 C 
HETATM    5  C5  UNL     1       0.344   0.904  -1.568  1.00  0.00     0.011 C 
HETATM    6  C6  UNL     1      -0.830   1.256  -0.728  1.00  0.00     0.001 C 
HETATM    7  C7  UNL     1      -1.823   0.100  -0.738  1.00  0.00     0.021 C 
HETATM    8  C11 UNL     1      -0.275   1.000   0.694  1.00  0.00     0.096 C 
HETATM    9  C8  UNL     1      -0.907  -1.065  -0.324  1.00  0.00     0.092 C 
HETATM   10  C10 UNL     1       0.194  -0.409   0.411  1.00  0.00     0.019 C 
BRANCH   9  11
HETATM   11  C9  UNL     1      -1.604  -2.161   0.333  1.00  0.00     0.177 C 
HETATM   12  O1  UNL     1      -1.179  -2.676   1.368  1.00  0.00    -0.648 OA
HETATM   13  O2  UNL     1      -2.787  -2.669  -0.199  1.00  0.00    -0.648 OA
ENDBRANCH   9  11
BRANCH   8  14
HETATM   14  C12 UNL     1      -1.345   1.187   1.633  1.00  0.00     0.177 C 
HETATM   15  O3  UNL     1      -1.682   0.362   2.493  1.00  0.00    -0.648 OA
HETATM   16  O4  UNL     1      -2.066   2.382   1.586  1.00  0.00    -0.648 OA
ENDBRANCH   8  14
ENDBRANCH   3   4
TORSDOF 3
