REMARK  3 active torsions:
REMARK  status: ('A' for Active; 'I' for Inactive)
REMARK    1  A    between atoms: C3_3  and  N1_4 
REMARK    2  A    between atoms: N1_4  and  C5_6 
REMARK    3  A    between atoms: C5_6  and  C6_7 
REMARK       I    between atoms: N2_12  and  C11_13 
ROOT
HETATM    1  C1  UNL     1       5.195  -0.236   1.951  1.00  0.00     0.013 C 
HETATM    2  C2  UNL     1       4.579   0.313   1.075  1.00  0.00    -0.087 C 
HETATM    3  C3  UNL     1       3.852   1.002   0.042  1.00  0.00     0.364 C 
ENDROOT
BRANCH   3   4
HETATM    4  N1  UNL     1       2.767   0.278  -0.555  1.00  0.00     0.095 N 
HETATM    5  C4  UNL     1       3.242  -0.832  -1.364  1.00  0.00     0.310 C 
BRANCH   4   6
HETATM    6  C5  UNL     1       1.764  -0.175   0.393  1.00  0.00     0.278 C 
BRANCH   6   7
HETATM    7  C6  UNL     1       0.597  -0.667  -0.449  1.00  0.00     0.025 A 
HETATM    8  C7  UNL     1       0.053   0.484  -1.310  1.00  0.00     0.018 A 
HETATM    9  C8  UNL     1      -0.753  -0.138  -0.207  1.00  0.00    -0.017 A 
HETATM   10  C9  UNL     1      -1.064   0.598   1.070  1.00  0.00     0.031 C 
HETATM   11  C12 UNL     1      -2.014  -0.784  -0.653  1.00  0.00     0.135 C 
HETATM   12  C10 UNL     1      -2.475   0.200   1.448  1.00  0.00     0.126 C 
HETATM   13  N2  UNL     1      -3.067  -0.247   0.182  1.00  0.00    -0.355 N 
HETATM   14  C11 UNL     1      -4.429  -0.148  -0.144  1.00  0.00     0.183 C 
HETATM   15  N3  UNL     1      -5.155  -1.089  -0.632  1.00  0.00    -0.374 N 
HETATM   16  N4  UNL     1      -5.040   1.114   0.088  1.00  0.00    -0.064 NA
ATOM     17  H32 UNL     1      -4.716  -1.995  -0.799  1.00  0.00     0.158 HD
ATOM     18  H31 UNL     1      -6.145  -1.017  -0.869  1.00  0.00     0.158 HD
ENDBRANCH   6   7
ENDBRANCH   4   6
ENDBRANCH   3   4
TORSDOF 3
