REMARK  6 active torsions:
REMARK  status: ('A' for Active; 'I' for Inactive)
REMARK    1  A    between atoms: N1_1  and  N2_4 
REMARK    2  A    between atoms: C1_6  and  C2_7 
REMARK    3  A    between atoms: C2_7  and  N3_8 
REMARK    4  A    between atoms: N3_8  and  C3_10 
REMARK    5  A    between atoms: C3_10  and  N4_12 
REMARK    6  A    between atoms: N4_12  and  C4_14 
ROOT
HETATM    1  C3  UNL     1       1.296  -0.487  -0.322  1.00  0.00     0.168 C 
HETATM    2  S1  UNL     1       1.288   1.111  -0.634  1.00  0.00    -0.041 SA
ENDROOT
BRANCH   1   3
HETATM    3  N3  UNL     1       2.558  -1.136  -0.440  1.00  0.00    -0.362 N 
ATOM      4  H3  UNL     1       2.596  -2.138  -0.255  1.00  0.00     0.162 HD
BRANCH   3   5
HETATM    5  C2  UNL     1       3.773  -0.479  -0.800  1.00  0.00     0.168 C 
BRANCH   5   6
HETATM    6  C1  UNL     1       4.280   0.467   0.221  1.00  0.00     0.099 C 
HETATM    7  N2  UNL     1       5.240   0.159   0.997  1.00  0.00    -0.321 N 
ATOM      8  H2  UNL     1       4.775  -0.361   1.741  1.00  0.00     0.185 HD
BRANCH   7   9
HETATM    9  N1  UNL     1       6.435   0.143   1.348  1.00  0.00    -0.346 N 
ATOM     10  H12 UNL     1       6.861   0.668   0.584  1.00  0.00     0.176 HD
ATOM     11  H11 UNL     1       7.205  -0.104   1.970  1.00  0.00     0.176 HD
ENDBRANCH   7   9
ENDBRANCH   5   6
ENDBRANCH   3   5
ENDBRANCH   1   3
BRANCH   1  12
HETATM   12  N4  UNL     1       0.137  -1.207   0.042  1.00  0.00    -0.363 N 
ATOM     13  H4  UNL     1       0.275  -2.204   0.209  1.00  0.00     0.162 HD
BRANCH  12  14
HETATM   14  C4  UNL     1      -1.184  -0.743   0.207  1.00  0.00     0.083 C 
HETATM   15  C5  UNL     1      -1.314   0.314   1.258  1.00  0.00     0.025 C 
HETATM   16  C6  UNL     1      -2.781   0.768   1.383  1.00  0.00     0.002 C 
HETATM   17  C7  UNL     1      -3.148   1.331   0.024  1.00  0.00     0.000 C 
HETATM   18  C8  UNL     1      -3.211   0.162  -0.935  1.00  0.00     0.002 C 
HETATM   19  C9  UNL     1      -1.774  -0.318  -1.119  1.00  0.00     0.025 C 
ENDBRANCH  12  14
ENDBRANCH   1  12
TORSDOF 6
