REMARK  0 active torsions:
REMARK  status: ('A' for Active; 'I' for Inactive)
ROOT
HETATM    1  C1  UNL     1       1.076  -1.638   0.028  1.00  0.00     0.000 C 
HETATM    2  C2  UNL     1      -0.077  -2.228   0.745  1.00  0.00     0.000 C 
HETATM    3  C3  UNL     1      -1.484  -1.760   0.311  1.00  0.00     0.002 C 
HETATM    4  C4  UNL     1      -1.280  -0.347  -0.001  1.00  0.00     0.020 C 
HETATM    5  C5  UNL     1      -2.247   0.682  -0.318  1.00  0.00     0.118 C 
HETATM    6  N1  UNL     1      -1.458   1.936  -0.292  1.00  0.00    -0.402 N 
ATOM      7  H1  UNL     1      -1.840   2.794   0.107  1.00  0.00     0.158 HD
HETATM    8  C6  UNL     1      -0.160   1.898  -0.839  1.00  0.00     0.055 C 
HETATM    9  C7  UNL     1       1.013   1.824   0.086  1.00  0.00     0.044 C 
HETATM   10  C8  UNL     1       2.026   0.725  -0.204  1.00  0.00     0.005 C 
HETATM   11  C9  UNL     1       1.821  -0.512   0.667  1.00  0.00     0.000 C 
ENDROOT
TORSDOF 0
