REMARK  1 active torsions:
REMARK  status: ('A' for Active; 'I' for Inactive)
REMARK    1  A    between atoms: C2_2  and  C3_3 
ROOT
HETATM    1  C3  UNL     1       1.147   0.166   0.626  1.00  0.00     0.014 C 
HETATM    2  C4  UNL     1       0.937   1.629   0.436  1.00  0.00     0.052 C 
HETATM    3  C5  UNL     1      -0.392   2.012  -0.125  1.00  0.00     0.057 C 
HETATM    4  N1  UNL     1      -1.440   1.089   0.064  1.00  0.00    -0.394 N 
ATOM      5  H1  UNL     1      -2.364   1.410   0.354  1.00  0.00     0.159 HD
HETATM    6  C6  UNL     1      -1.197  -0.284  -0.152  1.00  0.00     0.022 C 
HETATM    7  C7  UNL     1      -1.862  -0.829  -1.409  1.00  0.00     0.038 C 
HETATM    8  C8  UNL     1      -1.877  -1.032   1.009  1.00  0.00     0.038 C 
HETATM    9  C9  UNL     1       0.225  -0.701  -0.177  1.00  0.00     0.039 C 
ENDROOT
BRANCH   1  10
HETATM   10  C2  UNL     1       2.576  -0.161   0.379  1.00  0.00    -0.032 C 
HETATM   11  C1  UNL     1       2.989  -1.110  -0.447  1.00  0.00     0.007 C 
ENDBRANCH   1  10
TORSDOF 1
