REMARK  1 active torsions:
REMARK  status: ('A' for Active; 'I' for Inactive)
REMARK    1  A    between atoms: C9_9  and  N1_10 
ROOT
HETATM    1  C1  UNL     1       2.992  -0.309   0.134  1.00  0.00     0.012 C 
HETATM    2  C2  UNL     1       1.508  -0.223  -0.243  1.00  0.00     0.012 C 
HETATM    3  C3  UNL     1       0.829  -1.465   0.245  1.00  0.00     0.007 C 
HETATM    4  C4  UNL     1      -0.624  -1.378   0.435  1.00  0.00     0.009 C 
HETATM    5  C5  UNL     1      -1.327  -0.168  -0.030  1.00  0.00    -0.046 C 
HETATM    6  C6  UNL     1      -2.038  -0.447  -1.359  1.00  0.00     0.015 C 
HETATM    7  C7  UNL     1      -2.442   0.161   0.973  1.00  0.00     0.015 C 
HETATM    8  C8  UNL     1      -0.530   1.062  -0.204  1.00  0.00     0.041 C 
HETATM    9  C9  UNL     1       0.866   0.993   0.371  1.00  0.00     0.188 C 
ENDROOT
BRANCH   9  10
HETATM   10  N1  UNL     1       1.547   2.200  -0.080  1.00  0.00    -0.075 N 
ATOM     11  H13 UNL     1       2.550   2.164   0.104  1.00  0.00     0.274 HD
ATOM     12  H12 UNL     1       1.583   2.260  -1.098  1.00  0.00     0.274 HD
ATOM     13  H11 UNL     1       1.112   3.024   0.336  1.00  0.00     0.274 HD
ENDBRANCH   9  10
TORSDOF 1
