REMARK  1 active torsions:
REMARK  status: ('A' for Active; 'I' for Inactive)
REMARK    1  A    between atoms: N1_1  and  C1_5 
ROOT
HETATM    1  C1  UNL     1      -1.997  -0.823   0.035  1.00  0.00     0.184 C 
HETATM    2  C2  UNL     1      -1.998   0.453  -0.815  1.00  0.00     0.033 C 
HETATM    3  C3  UNL     1      -0.534   0.878  -0.890  1.00  0.00     0.011 C 
HETATM    4  C4  UNL     1       0.255  -0.220  -0.228  1.00  0.00    -0.038 C 
HETATM    5  C5  UNL     1       1.586  -0.416  -0.960  1.00  0.00     0.010 C 
HETATM    6  C6  UNL     1       2.361   0.781  -0.410  1.00  0.00     0.001 C 
HETATM    7  C7  UNL     1       2.123   0.601   1.085  1.00  0.00     0.001 C 
HETATM    8  C8  UNL     1       0.704   0.100   1.152  1.00  0.00     0.010 C 
HETATM    9  C9  UNL     1      -0.641  -1.403  -0.350  1.00  0.00     0.042 C 
ENDROOT
BRANCH   1  10
HETATM   10  N1  UNL     1      -2.062  -0.472   1.426  1.00  0.00    -0.075 N 
ATOM     11  H13 UNL     1      -1.318   0.172   1.696  1.00  0.00     0.274 HD
ATOM     12  H12 UNL     1      -2.859   0.130   1.635  1.00  0.00     0.274 HD
ATOM     13  H11 UNL     1      -2.061  -1.321   1.991  1.00  0.00     0.274 HD
ENDBRANCH   1  10
TORSDOF 1
