REMARK  0 active torsions:
REMARK  status: ('A' for Active; 'I' for Inactive)
ROOT
HETATM    1  C1  UNL     1      -2.797  -0.300   0.413  1.00  0.00     0.010 C 
HETATM    2  C2  UNL     1      -1.379  -0.352  -0.116  1.00  0.00    -0.018 C 
HETATM    3  C3  UNL     1      -0.597  -1.482   0.484  1.00  0.00     0.005 C 
HETATM    4  C4  UNL     1       0.736  -1.552  -0.266  1.00  0.00     0.017 C 
HETATM    5  C5  UNL     1       1.448  -0.239   0.086  1.00  0.00     0.062 C 
HETATM    6  S1  UNL     1       3.150  -0.373  -0.460  1.00  0.00    -0.092 SA
HETATM    7  C6  UNL     1       0.681   0.859  -0.576  1.00  0.00    -0.004 C 
HETATM    8  C7  UNL     1       1.393   2.178  -0.582  1.00  0.00     0.011 C 
HETATM    9  C8  UNL     1      -0.661   0.961   0.164  1.00  0.00     0.009 C 
ENDROOT
TORSDOF 0
