REMARK  0 active torsions:
REMARK  status: ('A' for Active; 'I' for Inactive)
ROOT
HETATM    1  C1  UNL     1      -3.102   0.845   0.019  1.00  0.00     0.040 C 
HETATM    2  C2  UNL     1      -1.745   0.254  -0.251  1.00  0.00     0.182 C 
HETATM    3  C3  UNL     1      -1.606  -1.121   0.269  1.00  0.00     0.033 C 
HETATM    4  C4  UNL     1      -0.231  -1.619   0.496  1.00  0.00     0.008 C 
HETATM    5  C5  UNL     1       0.833  -0.590   0.555  1.00  0.00     0.016 C 
HETATM    6  C6  UNL     1       2.144  -0.975  -0.030  1.00  0.00     0.007 C 
HETATM    7  C7  UNL     1       2.833   0.350  -0.294  1.00  0.00     0.002 C 
HETATM    8  C8  UNL     1       1.743   1.418  -0.131  1.00  0.00     0.033 C 
HETATM    9  C9  UNL     1       0.512   0.632  -0.320  1.00  0.00     0.190 C 
HETATM   10  N1  UNL     1      -0.696   1.167   0.193  1.00  0.00    -0.067 N 
ATOM     11  H11 UNL     1      -0.683   1.317   1.202  1.00  0.00     0.278 HD
ATOM     12  H12 UNL     1      -0.859   2.139  -0.071  1.00  0.00     0.278 HD
ENDROOT
TORSDOF 0
