REMARK  0 active torsions:
REMARK  status: ('A' for Active; 'I' for Inactive)
ROOT
HETATM    1  C1  UNL     1      -1.145   1.067  -1.251  1.00  0.00     0.046 C 
HETATM    2  C2  UNL     1      -0.952  -0.190  -0.460  1.00  0.00     0.058 C 
HETATM    3  C3  UNL     1      -2.343  -0.823  -0.296  1.00  0.00     0.046 C 
HETATM    4  O1  UNL     1      -0.160  -1.131  -1.069  1.00  0.00    -0.375 OA
HETATM    5  C4  UNL     1       0.981  -1.306  -0.293  1.00  0.00     0.123 C 
HETATM    6  C5  UNL     1       1.919  -0.192  -0.568  1.00  0.00     0.032 C 
HETATM    7  C6  UNL     1       1.783   1.013   0.275  1.00  0.00     0.003 C 
HETATM    8  C7  UNL     1       0.536   1.164   1.044  1.00  0.00     0.008 C 
HETATM    9  C8  UNL     1      -0.441   0.039   0.930  1.00  0.00     0.022 C 
HETATM   10  C9  UNL     1       0.381  -1.248   1.116  1.00  0.00     0.039 C 
ENDROOT
TORSDOF 0
