REMARK  1 active torsions:
REMARK  status: ('A' for Active; 'I' for Inactive)
REMARK    1  A    between atoms: C6_6  and  N1_7 
ROOT
HETATM    1  C1  UNL     1      -2.483  -0.277   0.272  1.00  0.00     0.015 C 
HETATM    2  C2  UNL     1      -1.056  -0.033  -0.130  1.00  0.00    -0.042 C 
HETATM    3  C3  UNL     1      -0.827   1.368  -0.568  1.00  0.00     0.009 C 
HETATM    4  C4  UNL     1       0.521   1.916  -0.295  1.00  0.00     0.003 C 
HETATM    5  C5  UNL     1       1.604   0.934  -0.085  1.00  0.00     0.038 C 
HETATM    6  C6  UNL     1       1.184  -0.408   0.393  1.00  0.00     0.124 C 
HETATM    7  C7  UNL     1       0.906  -1.275  -0.831  1.00  0.00     0.039 C 
HETATM    8  C8  UNL     1      -0.568  -1.061  -1.153  1.00  0.00     0.011 C 
HETATM    9  C9  UNL     1      -0.171  -0.410   1.066  1.00  0.00     0.047 C 
ENDROOT
BRANCH   6  10
HETATM   10  N1  UNL     1       2.148  -1.009   1.273  1.00  0.00    -0.070 N 
ATOM     11  H13 UNL     1       3.069  -1.048   0.836  1.00  0.00     0.275 HD
ATOM     12  H12 UNL     1       2.363  -0.392   2.056  1.00  0.00     0.275 HD
ATOM     13  H11 UNL     1       1.860  -1.931   1.601  1.00  0.00     0.275 HD
ENDBRANCH   6  10
TORSDOF 1
