REMARK  1 active torsions:
REMARK  status: ('A' for Active; 'I' for Inactive)
REMARK    1  A    between atoms: N1_9  and  O1_11 
ROOT
HETATM    1  C1  UNL     1       1.677  -1.768   0.118  1.00  0.00     0.016 C 
HETATM    2  C2  UNL     1       1.076  -0.595   0.858  1.00  0.00     0.030 C 
HETATM    3  C3  UNL     1      -0.425  -0.805   0.909  1.00  0.00     0.019 C 
HETATM    4  C4  UNL     1      -1.011   0.063  -0.165  1.00  0.00    -0.042 C 
HETATM    5  C5  UNL     1      -2.295   0.700   0.362  1.00  0.00     0.015 C 
HETATM    6  C6  UNL     1      -1.354  -0.675  -1.416  1.00  0.00     0.015 C 
HETATM    7  C7  UNL     1       0.025   1.122  -0.487  1.00  0.00     0.063 C 
HETATM    8  C8  UNL     1       1.275   0.682   0.179  1.00  0.00     0.014 C 
HETATM    9  N1  UNL     1       2.374   1.344   0.154  1.00  0.00    -0.277 N 
ATOM     10  H1  UNL     1       3.182   0.958   0.643  1.00  0.00     0.193 HD
ENDROOT
BRANCH   9  11
HETATM   11  O1  UNL     1       2.519   2.544  -0.496  1.00  0.00    -0.290 OA
ATOM     12  H1  UNL     1       3.333   3.034  -0.515  1.00  0.00     0.244 HD
ENDBRANCH   9  11
TORSDOF 1
