REMARK  2 active torsions:
REMARK  status: ('A' for Active; 'I' for Inactive)
REMARK    1  A    between atoms: C2_2  and  N1_5 
REMARK       I    between atoms: N1_5  and  C5_7 
REMARK    2  A    between atoms: C5_7  and  S1_9 
ROOT
HETATM    1  S1  UNL     1       2.990   0.287  -1.568  1.00  0.00     0.050 SA
HETATM    2  C6  UNL     1       3.507   1.494  -0.395  1.00  0.00     0.143 C 
HETATM    3  N2  UNL     1       3.851   2.290   0.377  1.00  0.00    -0.184 NA
ENDROOT
BRANCH   1   4
HETATM    4  C5  UNL     1       1.364  -0.257  -1.159  1.00  0.00     0.294 C 
HETATM    5  N1  UNL     1       0.711   0.274  -0.049  1.00  0.00    -0.343 N 
ATOM      6  H1  UNL     1       1.213   0.974   0.497  1.00  0.00     0.164 HD
HETATM    7  O1  UNL     1       0.805  -1.115  -1.863  1.00  0.00    -0.259 OA
BRANCH   5   8
HETATM    8  C2  UNL     1      -0.617  -0.082   0.396  1.00  0.00     0.022 C 
HETATM    9  C1  UNL     1      -1.680   0.189  -0.626  1.00  0.00     0.037 C 
HETATM   10  C3  UNL     1      -0.590  -1.593   0.618  1.00  0.00     0.037 C 
HETATM   11  C4  UNL     1      -0.944   0.550   1.703  1.00  0.00     0.037 C 
ENDBRANCH   5   8
ENDBRANCH   1   4
TORSDOF 2
