REMARK  0 active torsions:
REMARK  status: ('A' for Active; 'I' for Inactive)
ROOT
HETATM    1  C1  UNL     1      -3.542   0.077  -0.915  1.00  0.00     0.172 C 
HETATM    2  N1  UNL     1      -2.269  -0.400  -0.364  1.00  0.00    -0.318 N 
HETATM    3  C2  UNL     1      -1.778   0.087   0.894  1.00  0.00     0.146 C 
HETATM    4  C3  UNL     1      -0.306   0.311   0.941  1.00  0.00     0.054 C 
HETATM    5  C4  UNL     1       0.482  -0.380  -0.104  1.00  0.00     0.048 C 
HETATM    6  C5  UNL     1       1.155   0.691  -0.973  1.00  0.00     0.032 C 
HETATM    7  C6  UNL     1       2.356   1.026  -0.087  1.00  0.00     0.002 C 
HETATM    8  C7  UNL     1       2.890  -0.369   0.191  1.00  0.00     0.002 C 
HETATM    9  C8  UNL     1       1.647  -1.147   0.511  1.00  0.00     0.032 C 
HETATM   10  N2  UNL     1      -0.257  -1.308  -0.909  1.00  0.00    -0.312 N 
ATOM     11  H2  UNL     1       0.283  -2.007  -1.418  1.00  0.00     0.182 HD
HETATM   12  N3  UNL     1      -1.497  -1.344  -1.048  1.00  0.00    -0.249 N 
ATOM     13  H3  UNL     1      -1.936  -2.044  -1.646  1.00  0.00     0.207 HD
ENDROOT
TORSDOF 0
