REMARK  0 active torsions:
REMARK  status: ('A' for Active; 'I' for Inactive)
ROOT
HETATM    1  C1  UNL     1       2.158   0.612  -0.194  1.00  0.00     0.022 C 
HETATM    2  C2  UNL     1       1.044  -0.128   0.550  1.00  0.00     0.054 C 
HETATM    3  C3  UNL     1       0.090  -0.641  -0.470  1.00  0.00     0.016 C 
HETATM    4  C4  UNL     1      -1.310  -0.855   0.061  1.00  0.00     0.012 C 
HETATM    5  C5  UNL     1      -2.091   0.418  -0.194  1.00  0.00     0.086 C 
HETATM    6  S1  UNL     1      -1.696   1.501   1.240  1.00  0.00    -0.097 SA
HETATM    7  S2  UNL     1       0.323   0.980   1.756  1.00  0.00    -0.093 SA
ENDROOT
TORSDOF 0
