REMARK  3 active torsions:
REMARK  status: ('A' for Active; 'I' for Inactive)
REMARK    1  A    between atoms: C2_2  and  C3_3 
REMARK    2  A    between atoms: C7_7  and  O1_8 
REMARK    3  A    between atoms: C7_7  and  C8_10 
ROOT
HETATM    1  C8  UNL     1       2.419  -0.030  -0.040  1.00  0.00    -0.052 C 
HETATM    2  C9  UNL     1       3.597   0.153   0.202  1.00  0.00     0.016 C 
HETATM    3  C10 UNL     1       4.971   0.367   0.482  1.00  0.00     0.152 C 
HETATM    4  N1  UNL     1       6.095   0.546   0.695  1.00  0.00    -0.182 NA
ENDROOT
BRANCH   1   5
HETATM    5  C7  UNL     1       0.997  -0.248  -0.319  1.00  0.00     0.122 C 
HETATM    6  C6  UNL     1       0.633  -1.654   0.079  1.00  0.00     0.051 C 
HETATM    7  C5  UNL     1      -0.817  -1.945   0.027  1.00  0.00     0.004 C 
HETATM    8  C4  UNL     1      -1.721  -0.782  -0.161  1.00  0.00     0.009 C 
HETATM    9  C3  UNL     1      -1.273   0.509   0.431  1.00  0.00     0.011 C 
HETATM   10  C11 UNL     1       0.204   0.667   0.580  1.00  0.00     0.059 C 
BRANCH   9  11
HETATM   11  C2  UNL     1      -1.748   1.646  -0.408  1.00  0.00    -0.032 C 
HETATM   12  C1  UNL     1      -2.630   2.519   0.030  1.00  0.00     0.007 C 
ENDBRANCH   9  11
BRANCH   5  13
HETATM   13  O1  UNL     1       0.740  -0.063  -1.653  1.00  0.00    -0.378 OA
ATOM     14  H1  UNL     1       0.970   0.824  -1.904  1.00  0.00     0.211 HD
ENDBRANCH   5  13
ENDBRANCH   1   5
TORSDOF 3
