REMARK  1 active torsions:
REMARK  status: ('A' for Active; 'I' for Inactive)
REMARK    1  A    between atoms: C4_4  and  C5_5 
ROOT
HETATM    1  C5  UNL     1       0.873   0.096  -0.038  1.00  0.00     0.151 C 
HETATM    2  C6  UNL     1       1.682  -0.876   0.790  1.00  0.00     0.264 C 
HETATM    3  N1  UNL     1       2.934  -1.156   0.084  1.00  0.00    -0.071 N 
ATOM      4  H11 UNL     1       2.794  -1.617  -0.815  1.00  0.00     0.277 HD
ATOM      5  H12 UNL     1       3.486  -1.893   0.522  1.00  0.00     0.277 HD
HETATM    6  C7  UNL     1       3.645   0.104  -0.024  1.00  0.00     0.258 C 
HETATM    7  C8  UNL     1       2.756   1.008  -0.880  1.00  0.00     0.195 C 
HETATM    8  O1  UNL     1       1.615   1.273  -0.125  1.00  0.00    -0.382 OA
ENDROOT
BRANCH   1   9
HETATM    9  C4  UNL     1      -0.447   0.318   0.653  1.00  0.00     0.016 C 
HETATM   10  C3  UNL     1      -1.347   1.262  -0.054  1.00  0.00     0.007 C 
HETATM   11  C2  UNL     1      -2.410   0.606  -0.910  1.00  0.00     0.000 C 
HETATM   12  C1  UNL     1      -3.264  -0.344  -0.099  1.00  0.00     0.000 C 
HETATM   13  C10 UNL     1      -2.597  -0.613   1.260  1.00  0.00     0.000 C 
HETATM   14  C9  UNL     1      -1.154  -0.986   0.886  1.00  0.00     0.007 C 
ENDBRANCH   1   9
TORSDOF 1
