REMARK  1 active torsions:
REMARK  status: ('A' for Active; 'I' for Inactive)
REMARK    1  A    between atoms: C4_4  and  C5_5 
ROOT
HETATM    1  C1  UNL     1       0.835   2.544  -0.887  1.00  0.00     0.043 C 
HETATM    2  C2  UNL     1       0.740   1.497   0.226  1.00  0.00     0.220 C 
HETATM    3  C3  UNL     1       1.952   0.585   0.177  1.00  0.00     0.047 C 
HETATM    4  C4  UNL     1       1.418  -0.819   0.479  1.00  0.00     0.059 C 
HETATM    5  C6  UNL     1      -0.044  -0.659   0.545  1.00  0.00     0.232 C 
HETATM    6  C7  UNL     1      -0.840  -1.638  -0.263  1.00  0.00     0.036 C 
HETATM    7  C8  UNL     1      -2.301  -1.351   0.045  1.00  0.00     0.004 C 
HETATM    8  C9  UNL     1      -2.660   0.081  -0.040  1.00  0.00     0.030 C 
HETATM    9  C10 UNL     1      -1.613   1.032   0.459  1.00  0.00     0.273 C 
HETATM   10  N2  UNL     1      -0.346   0.643  -0.072  1.00  0.00     0.098 N 
ENDROOT
BRANCH   4  11
HETATM   11  C5  UNL     1       1.909  -1.766  -0.521  1.00  0.00     0.059 C 
HETATM   12  N1  UNL     1       3.123  -2.152  -0.474  1.00  0.00    -0.411 N 
ATOM     13  H12 UNL     1       3.733  -1.794   0.261  1.00  0.00     0.155 HD
ATOM     14  H11 UNL     1       3.466  -2.813  -1.172  1.00  0.00     0.155 HD
ENDBRANCH   4  11
TORSDOF 1
