REMARK  1 active torsions:
REMARK  status: ('A' for Active; 'I' for Inactive)
REMARK    1  A    between atoms: N1_1  and  C1_5 
ROOT
HETATM    1  C1  UNL     1       1.305  -0.242  -0.308  1.00  0.00     0.188 C 
HETATM    2  C2  UNL     1       0.705  -0.999   0.849  1.00  0.00     0.037 C 
HETATM    3  C3  UNL     1      -0.789  -0.916   0.794  1.00  0.00    -0.013 C 
HETATM    4  C4  UNL     1      -1.170   0.493   1.269  1.00  0.00     0.005 C 
HETATM    5  C5  UNL     1      -0.404   1.454   0.404  1.00  0.00     0.007 C 
HETATM    6  C6  UNL     1       0.288   0.776  -0.757  1.00  0.00     0.016 C 
HETATM    7  C7  UNL     1      -0.733  -0.044  -1.562  1.00  0.00     0.007 C 
HETATM    8  C8  UNL     1      -1.342  -1.028  -0.607  1.00  0.00     0.005 C 
ENDROOT
BRANCH   1   9
HETATM    9  N1  UNL     1       2.595   0.307  -0.037  1.00  0.00    -0.075 N 
ATOM     10  H13 UNL     1       2.567   0.893   0.798  1.00  0.00     0.274 HD
ATOM     11  H12 UNL     1       3.233  -0.421   0.284  1.00  0.00     0.274 HD
ATOM     12  H11 UNL     1       3.001   0.819  -0.820  1.00  0.00     0.274 HD
ENDBRANCH   1   9
TORSDOF 1
