REMARK  1 active torsions:
REMARK  status: ('A' for Active; 'I' for Inactive)
REMARK    1  A    between atoms: C2_2  and  N1_3 
ROOT
HETATM    1  C1  UNL     1      -1.762  -0.108  -0.911  1.00  0.00     0.046 C 
HETATM    2  C2  UNL     1      -1.006  -0.055   0.419  1.00  0.00     0.120 C 
HETATM    3  C3  UNL     1      -0.270  -1.293   0.674  1.00  0.00     0.038 C 
HETATM    4  C4  UNL     1       1.101  -1.451   0.207  1.00  0.00     0.002 C 
HETATM    5  C5  UNL     1       2.002  -0.265   0.237  1.00  0.00     0.000 C 
HETATM    6  C6  UNL     1       1.714   0.584  -0.975  1.00  0.00     0.000 C 
HETATM    7  C7  UNL     1       0.567   1.505  -0.765  1.00  0.00     0.002 C 
HETATM    8  C8  UNL     1      -0.250   1.222   0.454  1.00  0.00     0.038 C 
ENDROOT
BRANCH   2   9
HETATM    9  N1  UNL     1      -2.052   0.087   1.443  1.00  0.00    -0.071 N 
ATOM     10  H13 UNL     1      -2.676   0.879   1.290  1.00  0.00     0.275 HD
ATOM     11  H12 UNL     1      -2.770  -0.636   1.404  1.00  0.00     0.275 HD
ATOM     12  H11 UNL     1      -1.548   0.122   2.329  1.00  0.00     0.275 HD
ENDBRANCH   2   9
TORSDOF 1
