REMARK  1 active torsions:
REMARK  status: ('A' for Active; 'I' for Inactive)
REMARK    1  A    between atoms: C8_8  and  N1_9 
ROOT
HETATM    1  C1  UNL     1      -1.649  -0.784   1.072  1.00  0.00     0.017 C 
HETATM    2  C2  UNL     1      -0.648  -0.430  -0.039  1.00  0.00    -0.020 C 
HETATM    3  C3  UNL     1      -1.350  -0.848  -1.341  1.00  0.00     0.017 C 
HETATM    4  C4  UNL     1       0.512  -1.337   0.143  1.00  0.00     0.011 C 
HETATM    5  C5  UNL     1       1.797  -0.852  -0.446  1.00  0.00     0.001 C 
HETATM    6  C6  UNL     1       2.076   0.507   0.213  1.00  0.00     0.002 C 
HETATM    7  C7  UNL     1       1.026   1.436  -0.298  1.00  0.00     0.033 C 
HETATM    8  C8  UNL     1      -0.372   1.017  -0.037  1.00  0.00     0.191 C 
ENDROOT
BRANCH   8   9
HETATM    9  N1  UNL     1      -0.805   1.680   1.204  1.00  0.00    -0.074 N 
ATOM     10  H13 UNL     1      -1.791   1.496   1.391  1.00  0.00     0.274 HD
ATOM     11  H12 UNL     1      -0.394   1.229   2.021  1.00  0.00     0.274 HD
ATOM     12  H11 UNL     1      -0.614   2.682   1.205  1.00  0.00     0.274 HD
ENDBRANCH   8   9
TORSDOF 1
