REMARK  0 active torsions:
REMARK  status: ('A' for Active; 'I' for Inactive)
ROOT
HETATM    1  C1  UNL     1      -1.145   0.257  -1.032  1.00  0.00     0.005 C 
HETATM    2  C2  UNL     1      -1.434  -0.825  -0.022  1.00  0.00     0.005 C 
HETATM    3  C3  UNL     1      -0.141  -1.020   0.775  1.00  0.00    -0.010 C 
HETATM    4  C4  UNL     1       0.889  -1.512  -0.250  1.00  0.00     0.005 C 
HETATM    5  C5  UNL     1       1.627  -0.294  -0.713  1.00  0.00     0.006 C 
HETATM    6  C6  UNL     1       1.059   0.886  -0.002  1.00  0.00    -0.006 C 
HETATM    7  C7  UNL     1      -0.303   1.345  -0.435  1.00  0.00    -0.010 C 
HETATM    8  C8  UNL     1      -0.647   1.425   1.059  1.00  0.00     0.010 C 
HETATM    9  C9  UNL     1       0.375   0.298   1.240  1.00  0.00    -0.006 C 
ENDROOT
TORSDOF 0
