REMARK  1 active torsions:
REMARK  status: ('A' for Active; 'I' for Inactive)
REMARK    1  A    between atoms: N1_1  and  C1_5 
ROOT
HETATM    1  C1  UNL     1      -1.978   0.513  -0.238  1.00  0.00     0.188 C 
HETATM    2  C2  UNL     1      -1.804  -1.012  -0.324  1.00  0.00     0.038 C 
HETATM    3  C3  UNL     1      -0.317  -0.688  -0.440  1.00  0.00    -0.007 C 
HETATM    4  C4  UNL     1       0.612  -1.655   0.196  1.00  0.00     0.005 C 
HETATM    5  C5  UNL     1       2.020  -1.256  -0.273  1.00  0.00     0.000 C 
HETATM    6  C6  UNL     1       2.283   0.127   0.237  1.00  0.00     0.000 C 
HETATM    7  C7  UNL     1       1.554   1.201  -0.497  1.00  0.00     0.000 C 
HETATM    8  C8  UNL     1       0.269   1.630   0.220  1.00  0.00     0.007 C 
HETATM    9  C9  UNL     1      -0.644   0.496   0.485  1.00  0.00     0.020 C 
ENDROOT
BRANCH   1  10
HETATM   10  N1  UNL     1      -3.099   0.947   0.522  1.00  0.00    -0.075 N 
ATOM     11  H13 UNL     1      -3.953   0.514   0.169  1.00  0.00     0.274 HD
ATOM     12  H12 UNL     1      -3.068   0.542   1.458  1.00  0.00     0.274 HD
ATOM     13  H11 UNL     1      -3.214   1.959   0.579  1.00  0.00     0.274 HD
ENDBRANCH   1  10
TORSDOF 1
