REMARK  6 active torsions:
REMARK  status: ('A' for Active; 'I' for Inactive)
REMARK    1  A    between atoms: C3_3  and  S1_6 
REMARK    2  A    between atoms: S1_6  and  N1_9 
REMARK    3  A    between atoms: N1_9  and  C6_11 
REMARK    4  A    between atoms: C6_11  and  C7_12 
REMARK    5  A    between atoms: C7_12  and  C8_13 
REMARK       I    between atoms: C8_13  and  N2_15 
REMARK    6  A    between atoms: N2_15  and  C9_17 
ROOT
HETATM    1  C1  UNL     1       2.328   2.189   1.651  1.00  0.00     0.014 C 
HETATM    2  C2  UNL     1       2.623   1.057   1.354  1.00  0.00    -0.090 C 
HETATM    3  C3  UNL     1       2.962  -0.331   0.978  1.00  0.00     0.137 C 
HETATM    4  C4  UNL     1       4.508  -0.412   1.074  1.00  0.00     0.048 C 
HETATM    5  C5  UNL     1       2.429  -1.262   1.985  1.00  0.00     0.048 C 
ENDROOT
BRANCH   3   6
HETATM    6  S1  UNL     1       2.565  -0.585  -0.688  1.00  0.00     0.245 S 
HETATM    7  O1  UNL     1       2.946  -2.000  -1.131  1.00  0.00    -0.204 OA
HETATM    8  O2  UNL     1       3.427   0.304  -1.581  1.00  0.00    -0.204 OA
BRANCH   6   9
HETATM    9  N1  UNL     1       0.958  -0.355  -1.177  1.00  0.00    -0.318 N 
ATOM     10  H1  UNL     1       0.650   0.337  -1.860  1.00  0.00     0.172 HD
BRANCH   9  11
HETATM   11  C6  UNL     1       0.108  -1.259  -0.504  1.00  0.00     0.141 C 
BRANCH  11  12
HETATM   12  C7  UNL     1      -1.353  -1.152  -0.866  1.00  0.00     0.123 C 
BRANCH  12  13
HETATM   13  C8  UNL     1      -1.981   0.123  -0.590  1.00  0.00     0.219 C 
HETATM   14  O3  UNL     1      -1.364   1.070  -0.052  1.00  0.00    -0.274 OA
HETATM   15  N2  UNL     1      -3.346   0.335  -0.931  1.00  0.00    -0.361 N 
ATOM     16  H2  UNL     1      -3.866  -0.425  -1.370  1.00  0.00     0.162 HD
BRANCH  15  17
HETATM   17  C9  UNL     1      -4.023   1.586  -0.678  1.00  0.00     0.118 C 
HETATM   18  C10 UNL     1      -5.449   1.459  -1.162  1.00  0.00     0.026 C 
ENDBRANCH  15  17
ENDBRANCH  12  13
ENDBRANCH  11  12
ENDBRANCH   9  11
ENDBRANCH   6   9
ENDBRANCH   3   6
TORSDOF 6
