REMARK  9 active torsions:
REMARK  status: ('A' for Active; 'I' for Inactive)
REMARK       I    between atoms: C2_2  and  N1_4 
REMARK    1  A    between atoms: N1_4  and  C3_6 
REMARK    2  A    between atoms: C3_6  and  C5_8 
REMARK    3  A    between atoms: C3_6  and  C9_18 
REMARK    4  A    between atoms: C5_8  and  C6_9 
REMARK    5  A    between atoms: C6_9  and  C7_10 
REMARK    6  A    between atoms: C7_10  and  C8_11 
REMARK    7  A    between atoms: C8_11  and  N2_12 
REMARK    8  A    between atoms: N2_12  and  N3_14 
REMARK    9  A    between atoms: N3_14  and  N4_15 
REMARK       I    between atoms: C9_18  and  N5_20 
ROOT
HETATM    1  C3  UNL     1      -0.919   0.528  -0.448  1.00  0.00     0.110 C 
HETATM    2  C4  UNL     1      -1.222   0.070  -1.827  1.00  0.00     0.049 C 
ENDROOT
BRANCH   1   3
HETATM    3  N1  UNL     1      -0.663   1.928  -0.281  1.00  0.00    -0.344 N 
HETATM    4  C2  UNL     1       0.291   2.658  -1.048  1.00  0.00     0.214 C 
HETATM    5  C1  UNL     1       0.509   4.111  -0.797  1.00  0.00     0.117 C 
HETATM    6  O1  UNL     1       0.999   2.162  -1.961  1.00  0.00    -0.274 OA
ATOM      7  H1  UNL     1      -1.195   2.432   0.429  1.00  0.00     0.163 HD
ENDBRANCH   1   3
BRANCH   1   8
HETATM    8  C5  UNL     1       0.015  -0.294   0.363  1.00  0.00     0.041 C 
BRANCH   8   9
HETATM    9  C6  UNL     1       1.467  -0.146   0.105  1.00  0.00     0.004 C 
BRANCH   9  10
HETATM   10  C7  UNL     1       2.194  -1.101   1.069  1.00  0.00     0.022 C 
BRANCH  10  11
HETATM   11  C8  UNL     1       3.685  -1.002   0.849  1.00  0.00     0.155 C 
BRANCH  11  12
HETATM   12  N2  UNL     1       4.077  -1.354  -0.501  1.00  0.00    -0.253 N 
ATOM     13  H2  UNL     1       3.452  -1.873  -1.118  1.00  0.00     0.196 HD
BRANCH  12  14
HETATM   14  N3  UNL     1       5.198  -1.000  -0.872  1.00  0.00    -0.249 NA
BRANCH  14  15
HETATM   15  N4  UNL     1       6.314  -0.615  -1.206  1.00  0.00    -0.261 N 
ATOM     16  H42 UNL     1       5.901  -0.134  -0.407  1.00  0.00     0.193 HD
ATOM     17  H41 UNL     1       7.242  -0.322  -1.513  1.00  0.00     0.193 HD
ENDBRANCH  14  15
ENDBRANCH  12  14
ENDBRANCH  11  12
ENDBRANCH  10  11
ENDBRANCH   9  10
ENDBRANCH   8   9
ENDBRANCH   1   8
BRANCH   1  18
HETATM   18  C9  UNL     1      -2.269   0.323   0.274  1.00  0.00     0.251 C 
HETATM   19  O2  UNL     1      -2.622   1.173   1.141  1.00  0.00    -0.270 OA
HETATM   20  N5  UNL     1      -3.111  -0.739   0.010  1.00  0.00    -0.301 N 
HETATM   21  C10 UNL     1      -3.422  -1.784   0.623  1.00  0.00     0.203 C 
ATOM     22  H5  UNL     1      -3.587  -0.652  -0.888  1.00  0.00     0.171 HD
HETATM   23  N6  UNL     1      -2.921  -2.166   1.884  1.00  0.00    -0.066 NA
HETATM   24  N7  UNL     1      -4.388  -2.641  -0.029  1.00  0.00    -0.066 NA
ENDBRANCH   1  18
TORSDOF 9
