REMARK  2 active torsions:
REMARK  status: ('A' for Active; 'I' for Inactive)
REMARK    1  A    between atoms: N1_1  and  C1_5 
REMARK    2  A    between atoms: C1_5  and  C2_6 
ROOT
HETATM    1  C1  UNL     1       1.344  -0.267  -0.326  1.00  0.00     0.261 C 
ENDROOT
BRANCH   1   2
HETATM    2  N1  UNL     1       2.294   0.682   0.161  1.00  0.00    -0.077 N 
ATOM      3  H13 UNL     1       2.205   1.568  -0.337  1.00  0.00     0.274 HD
ATOM      4  H12 UNL     1       2.045   0.989   1.101  1.00  0.00     0.274 HD
ATOM      5  H11 UNL     1       3.258   0.350   0.134  1.00  0.00     0.274 HD
ENDBRANCH   1   2
BRANCH   1   6
HETATM    6  C2  UNL     1      -0.074   0.222  -0.287  1.00  0.00     0.148 C 
HETATM    7  C3  UNL     1      -1.124  -0.871  -0.304  1.00  0.00     0.059 C 
HETATM    8  C4  UNL     1      -1.829   0.246   0.478  1.00  0.00     0.170 C 
HETATM    9  O1  UNL     1      -0.549   0.558   0.988  1.00  0.00    -0.384 OA
ENDBRANCH   1   6
TORSDOF 2
