REMARK  1 active torsions:
REMARK  status: ('A' for Active; 'I' for Inactive)
REMARK    1  A    between atoms: C2_2  and  C3_3 
ROOT
HETATM    1  C3  UNL     1       0.153   0.283  -0.619  1.00  0.00     0.113 A 
HETATM    2  C4  UNL     1      -0.219  -1.117  -0.879  1.00  0.00     0.078 A 
HETATM    3  N1  UNL     1      -1.483  -0.904  -0.948  1.00  0.00    -0.358 N 
ATOM      4  H1  UNL     1      -2.298  -1.495  -1.112  1.00  0.00     0.166 HD
HETATM    5  C5  UNL     1      -1.295   0.475  -0.707  1.00  0.00     0.087 A 
HETATM    6  N2  UNL     1      -2.174   1.442  -0.621  1.00  0.00    -0.388 N 
ATOM      7  H21 UNL     1      -3.183   1.576  -0.682  1.00  0.00     0.157 HD
ATOM      8  H22 UNL     1      -2.038   2.438  -0.447  1.00  0.00     0.157 HD
ENDROOT
BRANCH   1   9
HETATM    9  C2  UNL     1       0.691   0.471   0.765  1.00  0.00    -0.020 C 
HETATM   10  C1  UNL     1       1.316  -0.508   1.381  1.00  0.00     0.008 C 
ENDBRANCH   1   9
TORSDOF 1
