REMARK  2 active torsions:
REMARK  status: ('A' for Active; 'I' for Inactive)
REMARK    1  A    between atoms: N1_1  and  S1_4 
REMARK    2  A    between atoms: S1_4  and  N2_5 
ROOT
HETATM    1  S1  UNL     1       1.244   0.804  -0.789  1.00  0.00     0.031 SA
ENDROOT
BRANCH   1   2
HETATM    2  N1  UNL     1       2.175   0.030   0.146  1.00  0.00    -0.361 N 
ATOM      3  H12 UNL     1       1.820  -0.704   0.759  1.00  0.00     0.165 HD
ATOM      4  H11 UNL     1       3.158   0.298   0.110  1.00  0.00     0.165 HD
ENDBRANCH   1   2
BRANCH   1   5
HETATM    5  N2  UNL     1      -0.419   0.350  -0.728  1.00  0.00    -0.239 NA
HETATM    6  C1  UNL     1      -0.805  -0.964  -0.306  1.00  0.00     0.119 A 
HETATM    7  C2  UNL     1      -1.117   0.255   0.518  1.00  0.00     0.119 A 
ENDBRANCH   1   5
TORSDOF 2
