REMARK  1 active torsions:
REMARK  status: ('A' for Active; 'I' for Inactive)
REMARK    1  A    between atoms: C2_2  and  C3_3 
ROOT
HETATM    1  C3  UNL     1       0.007   0.126   0.595  1.00  0.00     0.089 A 
HETATM    2  C4  UNL     1       0.241  -1.346   0.648  1.00  0.00     0.136 A 
HETATM    3  N1  UNL     1      -1.067  -1.472   0.056  1.00  0.00    -0.380 N 
ATOM      4  H1  UNL     1      -1.620  -2.284  -0.220  1.00  0.00     0.160 HD
HETATM    5  C5  UNL     1      -1.294  -0.222  -0.004  1.00  0.00     0.098 A 
HETATM    6  N2  UNL     1      -2.385   0.551  -0.469  1.00  0.00    -0.087 NA
ENDROOT
BRANCH   1   7
HETATM    7  C2  UNL     1       0.921   0.891  -0.268  1.00  0.00    -0.024 C 
HETATM    8  C1  UNL     1       2.115   0.431  -0.565  1.00  0.00     0.008 C 
ENDBRANCH   1   7
TORSDOF 1
