REMARK  2 active torsions:
REMARK  status: ('A' for Active; 'I' for Inactive)
REMARK    1  A    between atoms: C2_2  and  N1_3 
REMARK    2  A    between atoms: N1_3  and  C3_5 
ROOT
HETATM    1  C3  UNL     1      -0.378   0.524  -0.323  1.00  0.00     0.227 A 
HETATM    2  N2  UNL     1      -0.985  -0.487   0.314  1.00  0.00    -0.330 N 
ATOM      3  H2  UNL     1      -0.520  -1.325   0.663  1.00  0.00     0.168 HD
HETATM    4  C4  UNL     1      -2.315  -0.225   0.424  1.00  0.00     0.116 A 
HETATM    5  C5  UNL     1      -2.481   1.001  -0.182  1.00  0.00     0.162 A 
HETATM    6  O1  UNL     1      -1.310   1.397  -0.605  1.00  0.00    -0.290 OA
ENDROOT
BRANCH   1   7
HETATM    7  N1  UNL     1       0.893   0.619  -0.607  1.00  0.00    -0.333 N 
ATOM      8  H1  UNL     1       1.235   1.445  -1.099  1.00  0.00     0.168 HD
BRANCH   7   9
HETATM    9  C2  UNL     1       1.809  -0.403  -0.245  1.00  0.00     0.081 C 
HETATM   10  C1  UNL     1       3.082  -0.181  -0.038  1.00  0.00     0.030 C 
ENDBRANCH   7   9
ENDBRANCH   1   7
TORSDOF 2
