REMARK  3 active torsions:
REMARK  status: ('A' for Active; 'I' for Inactive)
REMARK    1  A    between atoms: N1_1  and  O1_4 
REMARK    2  A    between atoms: O1_4  and  N2_5 
REMARK    3  A    between atoms: C1_7  and  C2_8 
ROOT
HETATM    1  N2  UNL     1       1.234   0.741   0.569  1.00  0.00    -0.257 N 
ATOM      2  H2  UNL     1       1.023   0.967   1.541  1.00  0.00     0.195 HD
HETATM    3  C1  UNL     1       0.280   0.313  -0.199  1.00  0.00     0.094 C 
ENDROOT
BRANCH   1   4
HETATM    4  O1  UNL     1       2.496   0.896   0.121  1.00  0.00    -0.165 OA
BRANCH   4   5
HETATM    5  N1  UNL     1       3.561   0.211   0.627  1.00  0.00    -0.286 N 
ATOM      6  H12 UNL     1       3.376  -0.449   1.383  1.00  0.00     0.186 HD
ATOM      7  H11 UNL     1       4.516   0.328   0.288  1.00  0.00     0.186 HD
ENDBRANCH   4   5
ENDBRANCH   1   4
BRANCH   3   8
HETATM    8  C2  UNL     1      -1.101   0.149   0.311  1.00  0.00     0.026 A 
HETATM    9  C3  UNL     1      -1.897  -0.997  -0.234  1.00  0.00     0.010 A 
HETATM   10  C4  UNL     1      -2.209   0.420  -0.662  1.00  0.00     0.010 A 
ENDBRANCH   3   8
TORSDOF 3
