REMARK  1 active torsions:
REMARK  status: ('A' for Active; 'I' for Inactive)
REMARK    1  A    between atoms: C1_4  and  C2_5 
ROOT
HETATM    1  C2  UNL     1       0.612   0.333   0.273  1.00  0.00     0.223 C 
HETATM    2  C3  UNL     1      -0.296   0.862  -0.809  1.00  0.00     0.040 C 
HETATM    3  C4  UNL     1      -1.380  -0.224  -0.840  1.00  0.00     0.030 C 
HETATM    4  C5  UNL     1      -1.535  -0.375   0.682  1.00  0.00     0.233 C 
HETATM    5  N2  UNL     1      -0.140  -0.655   1.016  1.00  0.00    -0.066 N 
ATOM      6  H21 UNL     1       0.056  -0.662   2.017  1.00  0.00     0.278 HD
ATOM      7  H22 UNL     1       0.146  -1.618   0.838  1.00  0.00     0.278 HD
ENDROOT
BRANCH   1   8
HETATM    8  C1  UNL     1       1.786  -0.359  -0.331  1.00  0.00     0.085 C 
HETATM    9  N1  UNL     1       2.969   0.091  -0.309  1.00  0.00    -0.409 N 
ATOM     10  H12 UNL     1       3.111   0.987   0.157  1.00  0.00     0.155 HD
ATOM     11  H11 UNL     1       3.772  -0.383  -0.722  1.00  0.00     0.155 HD
ENDBRANCH   1   8
TORSDOF 1
