REMARK  2 active torsions:
REMARK  status: ('A' for Active; 'I' for Inactive)
REMARK    1  A    between atoms: N1_1  and  C1_5 
REMARK    2  A    between atoms: C1_5  and  C2_6 
ROOT
HETATM    1  C2  UNL     1       0.037  -0.051  -0.780  1.00  0.00     0.125 C 
HETATM    2  C3  UNL     1      -0.587   1.214  -0.312  1.00  0.00     0.147 C 
HETATM    3  N2  UNL     1      -1.794   0.799   0.376  1.00  0.00    -0.384 N 
ATOM      4  H2  UNL     1      -2.341   1.387   1.005  1.00  0.00     0.160 HD
HETATM    5  C4  UNL     1      -2.073  -0.423   0.075  1.00  0.00     0.171 C 
HETATM    6  N3  UNL     1      -1.111  -0.960  -0.828  1.00  0.00    -0.379 N 
ATOM      7  H3  UNL     1      -1.203  -1.805  -1.393  1.00  0.00     0.160 HD
ENDROOT
BRANCH   1   8
HETATM    8  C1  UNL     1       1.059  -0.628   0.149  1.00  0.00     0.256 C 
BRANCH   8   9
HETATM    9  N1  UNL     1       2.150   0.265   0.375  1.00  0.00    -0.077 N 
ATOM     10  H13 UNL     1       2.575   0.558  -0.505  1.00  0.00     0.274 HD
ATOM     11  H12 UNL     1       1.821   1.172   0.706  1.00  0.00     0.274 HD
ATOM     12  H11 UNL     1       2.846  -0.128   1.008  1.00  0.00     0.274 HD
ENDBRANCH   8   9
ENDBRANCH   1   8
TORSDOF 2
