REMARK  6 active torsions:
REMARK  status: ('A' for Active; 'I' for Inactive)
REMARK    1  A    between atoms: C2_2  and  C4_11 
REMARK    2  A    between atoms: N1_3  and  N2_5 
REMARK    3  A    between atoms: C3_7  and  O1_9 
REMARK    4  A    between atoms: C6_18  and  N7_19 
REMARK    5  A    between atoms: N7_19  and  N8_21 
REMARK    6  A    between atoms: C7_23  and  C9_25 
ROOT
HETATM    1  C4  UNL     1       2.327   0.157   1.102  1.00  0.00     0.077 A 
HETATM    2  C5  UNL     1       2.555   0.306   2.440  1.00  0.00     0.146 A 
HETATM    3  N4  UNL     1       3.692   0.760   3.162  1.00  0.00    -0.080 NA
HETATM    4  N5  UNL     1       1.398  -0.089   3.071  1.00  0.00    -0.285 N 
ATOM      5  H5  UNL     1       1.253  -0.093   4.081  1.00  0.00     0.188 HD
HETATM    6  N6  UNL     1       0.514  -0.458   2.185  1.00  0.00    -0.282 N 
ATOM      7  H6  UNL     1      -0.425  -0.794   2.397  1.00  0.00     0.188 HD
HETATM    8  C6  UNL     1       1.026  -0.329   0.957  1.00  0.00     0.150 A 
ENDROOT
BRANCH   8   9
HETATM    9  N7  UNL     1       0.450  -0.596  -0.164  1.00  0.00    -0.284 N 
ATOM     10  H7  UNL     1       0.980  -0.443  -1.022  1.00  0.00     0.188 HD
BRANCH   9  11
HETATM   11  N8  UNL     1      -0.839  -1.076  -0.276  1.00  0.00    -0.305 N 
HETATM   12  C7  UNL     1      -1.835  -0.379  -0.753  1.00  0.00     0.033 C 
HETATM   13  C8  UNL     1      -1.535   0.988  -1.185  1.00  0.00     0.067 C 
ATOM     14  H8  UNL     1      -1.025  -2.031   0.032  1.00  0.00     0.186 HD
BRANCH  12  15
HETATM   15  C9  UNL     1      -3.136  -1.025  -0.805  1.00  0.00     0.269 C 
HETATM   16  C10 UNL     1      -3.694  -1.092  -2.232  1.00  0.00     0.043 C 
HETATM   17  C11 UNL     1      -5.118  -1.527  -1.959  1.00  0.00     0.033 C 
HETATM   18  C12 UNL     1      -5.348  -1.248  -0.477  1.00  0.00     0.273 C 
HETATM   19  N9  UNL     1      -4.202  -0.422  -0.089  1.00  0.00     0.094 N 
HETATM   20  C13 UNL     1      -4.516   0.931  -0.401  1.00  0.00     0.310 C 
ENDBRANCH  12  15
ENDBRANCH   9  11
ENDBRANCH   8   9
BRANCH   1  21
HETATM   21  C2  UNL     1       3.262   0.449   0.010  1.00  0.00     0.039 C 
HETATM   22  C1  UNL     1       2.745   0.188  -1.421  1.00  0.00     0.071 C 
HETATM   23  N1  UNL     1       4.397   0.871   0.069  1.00  0.00    -0.301 N 
ATOM     24  H1  UNL     1       4.737   0.950  -0.890  1.00  0.00     0.186 HD
BRANCH  23  25
HETATM   25  N2  UNL     1       5.357   1.263   0.845  1.00  0.00    -0.268 N 
HETATM   26  C3  UNL     1       6.625   1.078   0.771  1.00  0.00     0.244 C 
HETATM   27  N3  UNL     1       7.252   0.343  -0.270  1.00  0.00    -0.055 NA
ATOM     28  H2  UNL     1       5.055   1.811   1.650  1.00  0.00     0.190 HD
BRANCH  26  29
HETATM   29  O1  UNL     1       7.421   1.628   1.766  1.00  0.00    -0.334 OA
ATOM     30  H1  UNL     1       8.359   1.491   1.711  1.00  0.00     0.220 HD
ENDBRANCH  26  29
ENDBRANCH  23  25
ENDBRANCH   1  21
TORSDOF 6
