REMARK  6 active torsions:
REMARK  status: ('A' for Active; 'I' for Inactive)
REMARK    1  A    between atoms: C4_4  and  C5_5 
REMARK    2  A    between atoms: C5_5  and  N1_6 
REMARK    3  A    between atoms: C5_5  and  O1_10 
REMARK    4  A    between atoms: C5_5  and  C6_12 
REMARK    5  A    between atoms: C6_12  and  N2_13 
REMARK    6  A    between atoms: N5_23  and  C13_25 
ROOT
HETATM    1  C5  UNL     1      -0.055   0.221  -0.277  1.00  0.00     0.292 C 
ENDROOT
BRANCH   1   2
HETATM    2  C4  UNL     1       1.173  -0.491   0.133  1.00  0.00     0.092 A 
HETATM    3  C3  UNL     1       1.125  -1.736   0.681  1.00  0.00     0.056 A 
HETATM    4  C2  UNL     1       2.315  -2.384   1.049  1.00  0.00     0.024 A 
HETATM    5  C1  UNL     1       2.223  -3.736   1.638  1.00  0.00     0.068 C 
HETATM    6  N6  UNL     1       3.458  -1.735   0.842  1.00  0.00    -0.196 N 
HETATM    7  C12 UNL     1       3.540  -0.477   0.292  1.00  0.00     0.679 A 
ATOM      8  H6  UNL     1       4.327  -2.199   1.108  1.00  0.00     0.184 HD
HETATM    9  N4  UNL     1       2.381   0.101  -0.044  1.00  0.00    -0.191 N 
HETATM   10  N5  UNL     1       4.700   0.017   0.166  1.00  0.00    -0.222 N 
ATOM     11  H4  UNL     1       2.407   1.035  -0.454  1.00  0.00     0.184 HD
ATOM     12  H5  UNL     1       5.482  -0.562   0.473  1.00  0.00     0.178 HD
BRANCH  10  13
HETATM   13  C13 UNL     1       5.018   1.287  -0.356  1.00  0.00     0.091 C 
HETATM   14  C14 UNL     1       6.248   1.178  -1.275  1.00  0.00     0.032 C 
HETATM   15  C15 UNL     1       3.935   2.067  -1.021  1.00  0.00     0.032 C 
ENDBRANCH  10  13
ENDBRANCH   1   2
BRANCH   1  16
HETATM   16  N1  UNL     1       0.085   0.334  -1.765  1.00  0.00    -0.039 N 
ATOM     17  H13 UNL     1       0.952   0.773  -2.075  1.00  0.00     0.278 HD
ATOM     18  H12 UNL     1       0.238  -0.554  -2.243  1.00  0.00     0.278 HD
ATOM     19  H11 UNL     1      -0.763   0.826  -2.048  1.00  0.00     0.278 HD
ENDBRANCH   1  16
BRANCH   1  20
HETATM   20  O1  UNL     1      -0.039   1.547   0.138  1.00  0.00    -0.359 OA
ATOM     21  H1  UNL     1      -0.829   2.005  -0.126  1.00  0.00     0.213 HD
ENDBRANCH   1  20
BRANCH   1  22
HETATM   22  C6  UNL     1      -1.314  -0.521  -0.070  1.00  0.00     0.347 C 
BRANCH  22  23
HETATM   23  N2  UNL     1      -2.490  -0.055  -0.743  1.00  0.00     0.097 N 
HETATM   24  C7  UNL     1      -3.555  -1.070  -0.499  1.00  0.00     0.302 C 
HETATM   25  C8  UNL     1      -4.925  -0.472  -0.620  1.00  0.00     0.302 C 
HETATM   26  N3  UNL     1      -5.188   0.459   0.460  1.00  0.00     0.087 N 
HETATM   27  C9  UNL     1      -5.949   1.606   0.067  1.00  0.00     0.310 C 
HETATM   28  C10 UNL     1      -3.900   0.877   0.964  1.00  0.00     0.302 C 
HETATM   29  C11 UNL     1      -3.008   1.173  -0.249  1.00  0.00     0.302 C 
ENDBRANCH  22  23
ENDBRANCH   1  22
TORSDOF 6
