REMARK  6 active torsions:
REMARK  status: ('A' for Active; 'I' for Inactive)
REMARK    1  A    between atoms: C2_2  and  C3_4 
REMARK    2  A    between atoms: C2_2  and  C4_9 
REMARK    3  A    between atoms: C3_4  and  N1_5 
REMARK       I    between atoms: C4_9  and  N2_11 
REMARK    4  A    between atoms: N2_11  and  N3_13 
REMARK    5  A    between atoms: C5_14  and  O2_15 
REMARK       I    between atoms: N5_21  and  C8_23 
REMARK    6  A    between atoms: C8_23  and  C9_25 
ROOT
HETATM    1  N3  UNL     1       0.866  -0.944  -0.353  1.00  0.00    -0.059 N 
HETATM    2  C5  UNL     1       0.971  -2.232  -0.697  1.00  0.00     0.196 A 
HETATM    3  C6  UNL     1       2.312  -2.604  -0.890  1.00  0.00     0.164 A 
HETATM    4  N4  UNL     1       2.990  -1.494  -0.649  1.00  0.00    -0.196 N 
ATOM      5  H4  UNL     1       4.006  -1.416  -0.702  1.00  0.00     0.183 HD
HETATM    6  C7  UNL     1       2.176  -0.493  -0.329  1.00  0.00     0.708 A 
HETATM    7  N5  UNL     1       2.507   0.722  -0.036  1.00  0.00    -0.154 N 
ATOM      8  H5  UNL     1       1.789   1.409   0.194  1.00  0.00     0.187 HD
HETATM    9  C8  UNL     1       3.862   1.089  -0.037  1.00  0.00     0.290 C 
HETATM   10  O3  UNL     1       4.473   1.119  -1.133  1.00  0.00    -0.268 OA
ENDROOT
BRANCH   1  11
HETATM   11  N2  UNL     1      -0.225  -0.134  -0.062  1.00  0.00    -0.244 N 
HETATM   12  C4  UNL     1      -1.576  -0.476  -0.053  1.00  0.00     0.278 C 
HETATM   13  O1  UNL     1      -2.068  -1.587  -0.306  1.00  0.00    -0.268 OA
ATOM     14  H2  UNL     1      -0.010   0.834   0.175  1.00  0.00     0.191 HD
BRANCH  12  15
HETATM   15  C2  UNL     1      -2.563   0.622   0.306  1.00  0.00     0.204 C 
HETATM   16  C1  UNL     1      -2.398   1.698  -0.711  1.00  0.00     0.064 C 
HETATM   17  F1  UNL     1      -2.226   1.099   1.558  1.00  0.00    -0.231 F 
BRANCH  15  18
HETATM   18  C3  UNL     1      -3.954   0.068   0.385  1.00  0.00     0.282 C 
BRANCH  18  19
HETATM   19  N1  UNL     1      -4.897   1.096   0.726  1.00  0.00    -0.076 N 
ATOM     20  H13 UNL     1      -4.634   1.578   1.586  1.00  0.00     0.274 HD
ATOM     21  H12 UNL     1      -4.842   1.886   0.083  1.00  0.00     0.274 HD
ATOM     22  H11 UNL     1      -5.843   0.719   0.780  1.00  0.00     0.274 HD
ENDBRANCH  18  19
ENDBRANCH  15  18
ENDBRANCH  12  15
ENDBRANCH   1  11
BRANCH   2  23
HETATM   23  O2  UNL     1      -0.088  -3.126  -0.854  1.00  0.00    -0.343 OA
ATOM     24  H2  UNL     1      -0.013  -4.041  -1.098  1.00  0.00     0.219 HD
ENDBRANCH   2  23
BRANCH   9  25
HETATM   25  C9  UNL     1       4.608   1.444   1.192  1.00  0.00     0.270 C 
HETATM   26 CL1  UNL     1       6.282   1.849   0.796  1.00  0.00    -0.073 Cl
HETATM   27 CL2  UNL     1       3.778   2.874   1.894  1.00  0.00    -0.073 Cl
HETATM   28 CL3  UNL     1       4.575   0.101   2.360  1.00  0.00    -0.073 Cl
ENDBRANCH   9  25
TORSDOF 6
