REMARK  5 active torsions:
REMARK  status: ('A' for Active; 'I' for Inactive)
REMARK    1  A    between atoms: O1_2  and  C2_3 
REMARK       I    between atoms: C2_3  and  N1_5 
REMARK       I    between atoms: N1_5  and  C3_7 
REMARK       I    between atoms: C3_7  and  N3_11 
REMARK       I    between atoms: N4_13  and  C4_15 
REMARK       I    between atoms: C4_15  and  N5_17 
REMARK    2  A    between atoms: N5_17  and  N6_18 
REMARK    3  A    between atoms: N5_17  and  C6_23 
REMARK    4  A    between atoms: C6_23  and  C7_25 
REMARK    5  A    between atoms: C6_23  and  C8_27 
ROOT
HETATM    1  C2  UNL     1       3.536   1.572  -0.404  1.00  0.00     0.378 C 
HETATM    2  O2  UNL     1       2.402   1.874  -0.855  1.00  0.00    -0.238 OA
HETATM    3  N1  UNL     1       3.684   1.097   0.931  1.00  0.00    -0.134 N 
ATOM      4  H1  UNL     1       4.610   0.857   1.285  1.00  0.00     0.189 HD
HETATM    5  C3  UNL     1       2.557   0.957   1.764  1.00  0.00     0.695 C 
HETATM    6  N2  UNL     1       2.678   0.527   2.978  1.00  0.00    -0.233 N 
ATOM      7  H21 UNL     1       1.862   0.426   3.581  1.00  0.00     0.174 HD
ATOM      8  H22 UNL     1       3.619   0.297   3.298  1.00  0.00     0.174 HD
HETATM    9  N3  UNL     1       1.234   1.280   1.314  1.00  0.00    -0.128 N 
ATOM     10  H3  UNL     1       0.895   2.242   1.314  1.00  0.00     0.205 HD
HETATM   11  N4  UNL     1       0.512   0.337   0.922  1.00  0.00    -0.236 N 
ATOM     12  H4  UNL     1       0.888  -0.611   0.937  1.00  0.00     0.192 HD
HETATM   13  C4  UNL     1      -0.804   0.540   0.460  1.00  0.00     0.358 C 
HETATM   14  O3  UNL     1      -0.954   1.671  -0.153  1.00  0.00    -0.243 OA
HETATM   15  N5  UNL     1      -1.914  -0.302   0.581  1.00  0.00    -0.202 N 
ENDROOT
BRANCH  15  16
HETATM   16  N6  UNL     1      -3.116   0.176  -0.001  1.00  0.00    -0.268 N 
HETATM   17  C5  UNL     1      -3.413   0.060  -1.215  1.00  0.00     0.216 C 
HETATM   18  N7  UNL     1      -2.543  -0.579  -2.123  1.00  0.00    -0.065 NA
HETATM   19  N8  UNL     1      -4.636   0.570  -1.701  1.00  0.00    -0.065 NA
ATOM     20  H6  UNL     1      -3.785   0.646   0.609  1.00  0.00     0.189 HD
ENDBRANCH  15  16
BRANCH  15  21
HETATM   21  C6  UNL     1      -1.883  -1.567   1.245  1.00  0.00     0.256 C 
HETATM   22 CL1  UNL     1      -3.480  -2.414   0.956  1.00  0.00    -0.081 Cl
BRANCH  21  23
HETATM   23  C7  UNL     1      -0.865  -2.513   0.648  1.00  0.00     0.281 C 
HETATM   24  F1  UNL     1      -0.838  -3.749   1.282  1.00  0.00    -0.251 F 
ENDBRANCH  21  23
BRANCH  21  25
HETATM   25  C8  UNL     1      -1.743  -1.544   2.723  1.00  0.00     0.431 C 
HETATM   26  F2  UNL     1      -2.766  -0.845   3.352  1.00  0.00    -0.167 F 
HETATM   27  F3  UNL     1      -1.980  -2.879   3.145  1.00  0.00    -0.167 F 
HETATM   28  F4  UNL     1      -0.502  -1.250   3.151  1.00  0.00    -0.167 F 
ENDBRANCH  21  25
ENDBRANCH  15  21
BRANCH   1  29
HETATM   29  O1  UNL     1       4.615   1.724  -1.258  1.00  0.00    -0.308 OA
HETATM   30  C1  UNL     1       4.416   2.200  -2.575  1.00  0.00     0.215 C 
ENDBRANCH   1  29
TORSDOF 5
