REMARK  4 active torsions:
REMARK  status: ('A' for Active; 'I' for Inactive)
REMARK       I    between atoms: N2_3  and  C2_5 
REMARK       I    between atoms: C2_5  and  N3_6 
REMARK       I    between atoms: C2_5  and  N5_15 
REMARK    1  A    between atoms: N3_6  and  N4_8 
REMARK       I    between atoms: N4_8  and  C3_10 
REMARK    2  A    between atoms: C3_10  and  C4_12 
REMARK       I    between atoms: N5_15  and  C5_17 
REMARK    3  A    between atoms: C5_17  and  C6_19 
REMARK    4  A    between atoms: C8_25  and  C9_26 
ROOT
HETATM    1  N1  UNL     1       4.134   3.012  -2.447  1.00  0.00    -0.171 NA
HETATM    2  C1  UNL     1       3.032   2.827  -2.063  1.00  0.00     0.196 C 
HETATM    3  N2  UNL     1       1.754   2.646  -1.628  1.00  0.00    -0.124 N 
ATOM      4  H2  UNL     1       1.069   3.400  -1.680  1.00  0.00     0.197 HD
HETATM    5  C2  UNL     1       1.416   1.414  -1.116  1.00  0.00     0.708 C 
HETATM    6  N3  UNL     1       2.432   0.485  -1.102  1.00  0.00    -0.129 N 
ATOM      7  H3  UNL     1       3.314   0.799  -1.506  1.00  0.00     0.205 HD
HETATM    8  N5  UNL     1       0.085   1.425  -0.733  1.00  0.00    -0.152 N 
ATOM      9  H5  UNL     1      -0.395   2.310  -0.896  1.00  0.00     0.187 HD
HETATM   10  C5  UNL     1      -0.710   0.434  -0.164  1.00  0.00     0.288 C 
HETATM   11  O2  UNL     1      -0.352  -0.690   0.123  1.00  0.00    -0.265 OA
ENDROOT
BRANCH   6  12
HETATM   12  N4  UNL     1       2.431  -0.806  -0.622  1.00  0.00    -0.253 N 
HETATM   13  C3  UNL     1       3.221  -1.194   0.506  1.00  0.00     0.269 C 
HETATM   14  O1  UNL     1       3.939  -0.344   1.076  1.00  0.00    -0.269 OA
ATOM     15  H4  UNL     1       1.850  -1.506  -1.084  1.00  0.00     0.190 HD
BRANCH  13  16
HETATM   16  C4  UNL     1       3.193  -2.577   1.002  1.00  0.00     0.271 C 
HETATM   17 CL1  UNL     1       3.323  -3.649  -0.415  1.00  0.00    -0.098 Cl
HETATM   18 CL2  UNL     1       1.773  -2.942   1.988  1.00  0.00    -0.098 Cl
ENDBRANCH  13  16
ENDBRANCH   6  12
BRANCH  10  19
HETATM   19  C6  UNL     1      -2.154   0.763   0.130  1.00  0.00     0.133 A 
HETATM   20  N6  UNL     1      -2.681   1.984   0.003  1.00  0.00    -0.295 N 
HETATM   21  N7  UNL     1      -3.949   1.998   0.283  1.00  0.00    -0.310 N 
ATOM     22  H6  UNL     1      -2.150   2.808  -0.280  1.00  0.00     0.187 HD
HETATM   23  C7  UNL     1      -4.291   0.741   0.611  1.00  0.00     0.126 A 
ATOM     24  H7  UNL     1      -4.567   2.809   0.259  1.00  0.00     0.186 HD
HETATM   25  C8  UNL     1      -3.147  -0.080   0.521  1.00  0.00     0.098 A 
BRANCH  25  26
HETATM   26  C9  UNL     1      -3.094  -1.525   0.803  1.00  0.00     0.421 C 
HETATM   27  F1  UNL     1      -4.407  -1.915   1.138  1.00  0.00    -0.166 F 
HETATM   28  F2  UNL     1      -2.259  -1.833   1.858  1.00  0.00    -0.166 F 
HETATM   29  F3  UNL     1      -2.699  -2.199  -0.328  1.00  0.00    -0.166 F 
ENDBRANCH  25  26
ENDBRANCH  10  19
TORSDOF 4
