REMARK  9 active torsions:
REMARK  status: ('A' for Active; 'I' for Inactive)
REMARK    1  A    between atoms: C2_2  and  N1_3 
REMARK    2  A    between atoms: C2_2  and  N2_7 
REMARK    3  A    between atoms: C2_2  and  C7_27 
REMARK    4  A    between atoms: N2_7  and  C3_9 
REMARK    5  A    between atoms: C4_12  and  C5_13 
REMARK    6  A    between atoms: C5_13  and  S1_14 
REMARK    7  A    between atoms: S1_14  and  N4_15 
REMARK    8  A    between atoms: S1_14  and  N5_19 
REMARK    9  A    between atoms: N6_22  and  C6_23 
ROOT
HETATM    1  C3  UNL     1       0.772   0.042  -0.486  1.00  0.00     0.164 A 
HETATM    2  N3  UNL     1      -0.464   0.254  -0.932  1.00  0.00    -0.324 N 
ATOM      3  H3  UNL     1      -0.662   0.983  -1.617  1.00  0.00     0.169 HD
HETATM    4  C4  UNL     1      -1.422  -0.513  -0.455  1.00  0.00     0.110 A 
HETATM    5  N6  UNL     1      -1.107  -1.444   0.431  1.00  0.00    -0.244 N 
HETATM    6  S2  UNL     1       0.562  -1.246   0.607  1.00  0.00     0.031 SA
ENDROOT
BRANCH   1   7
HETATM    7  N2  UNL     1       1.868   0.690  -0.829  1.00  0.00    -0.330 N 
ATOM      8  H2  UNL     1       1.818   1.448  -1.509  1.00  0.00     0.164 HD
BRANCH   7   9
HETATM    9  C2  UNL     1       3.124   0.335  -0.253  1.00  0.00     0.291 C 
HETATM   10  C1  UNL     1       4.218   0.562  -1.299  1.00  0.00     0.081 C 
BRANCH   9  11
HETATM   11  N1  UNL     1       3.224  -1.036   0.166  1.00  0.00    -0.044 N 
ATOM     12  H13 UNL     1       3.181  -1.697  -0.610  1.00  0.00     0.277 HD
ATOM     13  H12 UNL     1       4.155  -1.287   0.498  1.00  0.00     0.277 HD
ATOM     14  H11 UNL     1       2.495  -1.187   0.863  1.00  0.00     0.277 HD
ENDBRANCH   9  11
BRANCH   9  15
HETATM   15  C7  UNL     1       3.488   1.244   0.923  1.00  0.00     0.438 C 
HETATM   16  F3  UNL     1       3.522   2.564   0.529  1.00  0.00    -0.166 F 
HETATM   17  F4  UNL     1       4.721   0.931   1.426  1.00  0.00    -0.166 F 
HETATM   18  F5  UNL     1       2.554   1.072   1.896  1.00  0.00    -0.166 F 
ENDBRANCH   9  15
ENDBRANCH   7   9
ENDBRANCH   1   7
BRANCH   4  19
HETATM   19  C5  UNL     1      -2.857  -0.353  -0.905  1.00  0.00     0.217 C 
BRANCH  19  20
HETATM   20  S1  UNL     1      -3.740   0.823   0.034  1.00  0.00     0.121 S 
HETATM   21  O1  UNL     1      -5.147   0.872  -0.532  1.00  0.00    -0.227 OA
BRANCH  20  22
HETATM   22  N4  UNL     1      -3.861   0.509   1.695  1.00  0.00    -0.344 N 
ATOM     23  H42 UNL     1      -3.437  -0.323   2.106  1.00  0.00     0.167 HD
ATOM     24  H41 UNL     1      -4.377   1.196   2.244  1.00  0.00     0.167 HD
ENDBRANCH  20  22
BRANCH  20  25
HETATM   25  N5  UNL     1      -3.134   2.253  -0.190  1.00  0.00    -0.242 N 
HETATM   26 CL1  UNL     1      -3.394   2.937  -1.771  1.00  0.00     0.020 Cl
ATOM     27  H5  UNL     1      -2.623   2.748   0.540  1.00  0.00     0.192 HD
ENDBRANCH  20  25
ENDBRANCH  19  20
ENDBRANCH   4  19
BRANCH   5  28
HETATM   28  C6  UNL     1      -1.987  -2.423   1.107  1.00  0.00     0.472 C 
HETATM   29  F1  UNL     1      -1.644  -3.694   0.645  1.00  0.00    -0.190 F 
HETATM   30  F2  UNL     1      -1.776  -2.296   2.451  1.00  0.00    -0.190 F 
ENDBRANCH   5  28
TORSDOF 9
