REMARK  4 active torsions:
REMARK  status: ('A' for Active; 'I' for Inactive)
REMARK    1  A    between atoms: N3_4  and  C2_6 
REMARK    2  A    between atoms: C2_6  and  C3_7 
REMARK    3  A    between atoms: C4_8  and  N4_9 
REMARK    4  A    between atoms: C10_19  and  C11_20 
ROOT
HETATM    1  C3  UNL     1       0.027  -0.201   0.443  1.00  0.00     0.051 A 
HETATM    2  C4  UNL     1      -1.122  -0.876   0.844  1.00  0.00     0.135 A 
HETATM    3  N5  UNL     1      -0.690  -1.952   1.477  1.00  0.00    -0.284 N 
ATOM      4  H5  UNL     1      -1.287  -2.659   1.906  1.00  0.00     0.188 HD
HETATM    5  N6  UNL     1       0.658  -1.977   1.472  1.00  0.00    -0.300 N 
ATOM      6  H6  UNL     1       1.230  -2.705   1.900  1.00  0.00     0.186 HD
HETATM    7  C10 UNL     1       1.138  -0.904   0.822  1.00  0.00     0.071 A 
ENDROOT
BRANCH   7   8
HETATM    8  C11 UNL     1       2.546  -0.650   0.355  1.00  0.00     0.199 C 
HETATM    9  C12 UNL     1       3.542  -0.475   1.437  1.00  0.00     0.270 C 
HETATM   10  N7  UNL     1       4.832  -0.207   0.793  1.00  0.00    -0.070 N 
HETATM   11  C13 UNL     1       5.198  -1.345  -0.048  1.00  0.00     0.258 C 
ATOM     12  H72 UNL     1       4.830   0.672   0.275  1.00  0.00     0.277 HD
ATOM     13  H71 UNL     1       5.560   0.025   1.468  1.00  0.00     0.277 HD
HETATM   14  C14 UNL     1       4.105  -2.379   0.174  1.00  0.00     0.196 C 
HETATM   15  O1  UNL     1       2.931  -1.888  -0.339  1.00  0.00    -0.376 OA
ENDBRANCH   7   8
BRANCH   1  16
HETATM   16  C2  UNL     1      -0.005   1.237   0.092  1.00  0.00     0.107 C 
BRANCH  16  17
HETATM   17  N3  UNL     1       0.005   1.688  -1.210  1.00  0.00    -0.342 N 
HETATM   18  C1  UNL     1       0.541   2.809  -1.534  1.00  0.00     0.200 C 
HETATM   19  N1  UNL     1       0.462   3.187  -2.927  1.00  0.00    -0.067 NA
HETATM   20  N2  UNL     1       1.274   3.624  -0.640  1.00  0.00    -0.067 NA
ATOM     21  H3  UNL     1      -0.425   1.116  -1.936  1.00  0.00     0.167 HD
ENDBRANCH  16  17
ENDBRANCH   1  16
BRANCH   2  22
HETATM   22  N4  UNL     1      -2.437  -0.479   0.384  1.00  0.00    -0.345 N 
HETATM   23  C5  UNL     1      -3.069   0.743   0.609  1.00  0.00     0.065 C 
HETATM   24  C6  UNL     1      -4.573   0.728   0.559  1.00  0.00     0.045 C 
HETATM   25  C7  UNL     1      -5.175  -0.385  -0.221  1.00  0.00     0.007 C 
HETATM   26  C8  UNL     1      -4.451  -1.706   0.006  1.00  0.00     0.021 C 
HETATM   27  C9  UNL     1      -3.062  -1.512  -0.479  1.00  0.00     0.129 C 
ENDBRANCH   2  22
TORSDOF 4
