REMARK  9 active torsions:
REMARK  status: ('A' for Active; 'I' for Inactive)
REMARK    1  A    between atoms: C2_2  and  C3_3 
REMARK    2  A    between atoms: C3_3  and  O1_5 
REMARK    3  A    between atoms: C3_3  and  N1_7 
REMARK    4  A    between atoms: N1_7  and  C5_9 
REMARK    5  A    between atoms: C6_12  and  N3_13 
REMARK    6  A    between atoms: N3_13  and  C7_15 
REMARK    7  A    between atoms: C7_15  and  C8_16 
REMARK    8  A    between atoms: C8_16  and  O2_17 
REMARK    9  A    between atoms: C10_25  and  N6_26 
ROOT
HETATM    1  C5  UNL     1      -0.380  -0.095  -0.531  1.00  0.00     0.136 A 
HETATM    2  N2  UNL     1       0.696   0.703  -0.485  1.00  0.00    -0.176 N 
ATOM      3  H2  UNL     1       0.524   1.705  -0.403  1.00  0.00     0.186 HD
HETATM    4  C6  UNL     1       1.980   0.309  -0.537  1.00  0.00     0.680 A 
HETATM    5  N4  UNL     1       2.214  -0.999  -0.644  1.00  0.00    -0.183 N 
ATOM      6  H4  UNL     1       3.171  -1.351  -0.687  1.00  0.00     0.185 HD
HETATM    7  C9  UNL     1       1.160  -1.860  -0.695  1.00  0.00     0.124 A 
HETATM    8  S1  UNL     1       1.063  -3.562  -0.828  1.00  0.00     0.007 SA
HETATM    9  N5  UNL     1      -0.609  -3.740  -0.815  1.00  0.00    -0.310 N 
ATOM     10  H5  UNL     1      -1.151  -4.602  -0.874  1.00  0.00     0.176 HD
HETATM   11  C10 UNL     1      -1.060  -2.488  -0.709  1.00  0.00     0.124 A 
HETATM   12  C12 UNL     1      -0.151  -1.496  -0.645  1.00  0.00     0.088 A 
ENDROOT
BRANCH   1  13
HETATM   13  N1  UNL     1      -1.562   0.331  -0.478  1.00  0.00    -0.344 N 
ATOM     14  H1  UNL     1      -2.254  -0.417  -0.525  1.00  0.00     0.164 HD
BRANCH  13  15
HETATM   15  C3  UNL     1      -2.143   1.603  -0.369  1.00  0.00     0.128 C 
HETATM   16  C4  UNL     1      -1.675   2.587  -1.414  1.00  0.00     0.070 C 
BRANCH  15  17
HETATM   17  C2  UNL     1      -1.937   2.237   1.011  1.00  0.00     0.056 C 
HETATM   18  C1  UNL     1      -2.382   1.304   2.105  1.00  0.00     0.010 C 
ENDBRANCH  15  17
BRANCH  15  19
HETATM   19  O1  UNL     1      -3.555   1.548  -0.515  1.00  0.00    -0.371 OA
ATOM     20  H1  UNL     1      -3.683   1.155  -1.370  1.00  0.00     0.212 HD
ENDBRANCH  15  19
ENDBRANCH  13  15
ENDBRANCH   1  13
BRANCH   4  21
HETATM   21  N3  UNL     1       2.956   1.128  -0.488  1.00  0.00    -0.224 N 
ATOM     22  H3  UNL     1       2.753   2.124  -0.406  1.00  0.00     0.177 HD
BRANCH  21  23
HETATM   23  C7  UNL     1       4.313   0.714  -0.543  1.00  0.00     0.164 C 
BRANCH  23  24
HETATM   24  C8  UNL     1       4.860   0.259   0.792  1.00  0.00     0.184 C 
BRANCH  24  25
HETATM   25  O2  UNL     1       4.764   1.338   1.686  1.00  0.00    -0.399 OA
ATOM     26  H2  UNL     1       5.108   1.052   2.524  1.00  0.00     0.209 HD
ENDBRANCH  24  25
ENDBRANCH  23  24
ENDBRANCH  21  23
ENDBRANCH   4  21
BRANCH  11  27
HETATM   27  N6  UNL     1      -2.366  -2.293  -0.671  1.00  0.00    -0.379 N 
HETATM   28  C11 UNL     1      -3.321  -3.345  -0.738  1.00  0.00     0.147 C 
ATOM     29  H6  UNL     1      -2.708  -1.336  -0.589  1.00  0.00     0.160 HD
ENDBRANCH  11  27
TORSDOF 9
