REMARK  6 active torsions:
REMARK  status: ('A' for Active; 'I' for Inactive)
REMARK    1  A    between atoms: N1_1  and  C1_5 
REMARK    2  A    between atoms: C1_5  and  C2_7 
REMARK    3  A    between atoms: C1_5  and  C7_27 
REMARK    4  A    between atoms: C3_10  and  N3_11 
REMARK    5  A    between atoms: N3_11  and  S1_13 
REMARK    6  A    between atoms: S1_13  and  C4_16 
ROOT
HETATM    1  C2  UNL     1      -2.319   0.133  -0.359  1.00  0.00     0.173 A 
HETATM    2  N2  UNL     1      -1.079  -0.093  -0.797  1.00  0.00    -0.173 N 
ATOM      3  H2  UNL     1      -0.829  -0.704  -1.575  1.00  0.00     0.185 HD
HETATM    4  C3  UNL     1      -0.203   0.619  -0.043  1.00  0.00     0.708 A 
HETATM    5  N6  UNL     1      -0.912   1.282   0.857  1.00  0.00    -0.130 N 
ATOM      6  H6  UNL     1      -0.539   1.908   1.571  1.00  0.00     0.205 HD
HETATM    7  N7  UNL     1      -2.208   0.988   0.667  1.00  0.00    -0.271 N 
ATOM      8  H7  UNL     1      -2.985   1.357   1.216  1.00  0.00     0.189 HD
ENDROOT
BRANCH   4   9
HETATM    9  N3  UNL     1       1.010   0.589  -0.245  1.00  0.00    -0.110 N 
ATOM     10  H3  UNL     1       1.237  -0.023  -1.029  1.00  0.00     0.197 HD
BRANCH   9  11
HETATM   11  S1  UNL     1       2.386   1.270   0.405  1.00  0.00     0.293 S 
HETATM   12  O1  UNL     1       2.878   2.477  -0.385  1.00  0.00    -0.198 OA
HETATM   13  O2  UNL     1       2.177   1.737   1.814  1.00  0.00    -0.198 OA
BRANCH  11  14
HETATM   14  C4  UNL     1       3.653   0.025   0.339  1.00  0.00     0.166 A 
HETATM   15  C5  UNL     1       4.811   0.061  -0.400  1.00  0.00     0.132 A 
HETATM   16  N4  UNL     1       5.508  -1.081  -0.223  1.00  0.00    -0.359 N 
HETATM   17  C6  UNL     1       4.800  -1.832   0.619  1.00  0.00     0.181 A 
ATOM     18  H4  UNL     1       6.402  -1.322  -0.650  1.00  0.00     0.166 HD
HETATM   19  N5  UNL     1       3.668  -1.165   0.966  1.00  0.00    -0.341 N 
ATOM     20  H5  UNL     1       2.947  -1.511   1.599  1.00  0.00     0.167 HD
ENDBRANCH  11  14
ENDBRANCH   9  11
ENDBRANCH   4   9
BRANCH   1  21
HETATM   21  C1  UNL     1      -3.555  -0.470  -0.942  1.00  0.00     0.354 C 
HETATM   22 CL1  UNL     1      -3.161  -1.345  -2.453  1.00  0.00    -0.071 Cl
BRANCH  21  23
HETATM   23  N1  UNL     1      -4.417   0.646  -1.276  1.00  0.00    -0.040 N 
ATOM     24  H13 UNL     1      -4.014   1.254  -1.989  1.00  0.00     0.277 HD
ATOM     25  H12 UNL     1      -5.249   0.360  -1.793  1.00  0.00     0.277 HD
ATOM     26  H11 UNL     1      -4.642   1.145  -0.415  1.00  0.00     0.277 HD
ENDBRANCH  21  23
BRANCH  21  27
HETATM   27  C7  UNL     1      -4.197  -1.391   0.072  1.00  0.00     0.442 C 
HETATM   28  F1  UNL     1      -4.463  -0.693   1.232  1.00  0.00    -0.167 F 
HETATM   29  F2  UNL     1      -5.425  -1.835  -0.448  1.00  0.00    -0.167 F 
HETATM   30  F3  UNL     1      -3.388  -2.485   0.328  1.00  0.00    -0.167 F 
ENDBRANCH  21  27
ENDBRANCH   1  21
TORSDOF 6
