REMARK  5 active torsions:
REMARK  status: ('A' for Active; 'I' for Inactive)
REMARK    1  A    between atoms: C3_6  and  C4_7 
REMARK       I    between atoms: C4_7  and  N3_9 
REMARK    2  A    between atoms: N3_9  and  C5_11 
REMARK    3  A    between atoms: C5_11  and  N4_12 
REMARK    4  A    between atoms: C5_11  and  C7_21 
REMARK       I    between atoms: N4_12  and  C6_14 
REMARK       I    between atoms: C6_14  and  N5_16 
REMARK    5  A    between atoms: N5_16  and  N6_18 
ROOT
HETATM    1  C5  UNL     1      -1.364   0.831   0.776  1.00  0.00     0.243 C 
ENDROOT
BRANCH   1   2
HETATM    2  N3  UNL     1      -0.188   0.093   0.378  1.00  0.00    -0.334 N 
HETATM    3  C4  UNL     1       0.558   0.393  -0.780  1.00  0.00     0.247 C 
HETATM    4  O1  UNL     1       0.207   1.346  -1.512  1.00  0.00    -0.271 OA
ATOM      5  H3  UNL     1       0.118  -0.684   0.964  1.00  0.00     0.164 HD
BRANCH   3   6
HETATM    6  C3  UNL     1       1.736  -0.395  -1.138  1.00  0.00     0.269 C 
HETATM    7  N2  UNL     1       2.351   0.089  -2.382  1.00  0.00    -0.120 NA
HETATM    8  N1  UNL     1       3.698  -0.223  -2.301  1.00  0.00    -0.306 N 
HETATM    9  C2  UNL     1       4.053  -0.471  -1.104  1.00  0.00     0.069 C 
ATOM     10  H1  UNL     1       4.328  -0.251  -3.102  1.00  0.00     0.182 HD
HETATM   11  C1  UNL     1       5.399  -0.849  -0.557  1.00  0.00     0.071 C 
HETATM   12  C8  UNL     1       2.871  -0.340  -0.171  1.00  0.00     0.309 C 
HETATM   13  F1  UNL     1       2.925  -1.454   0.663  1.00  0.00    -0.197 F 
HETATM   14  F2  UNL     1       2.959   0.796   0.572  1.00  0.00    -0.197 F 
ENDBRANCH   3   6
ENDBRANCH   1   2
BRANCH   1  15
HETATM   15  N4  UNL     1      -2.462  -0.097   0.856  1.00  0.00    -0.316 N 
HETATM   16  C6  UNL     1      -3.656   0.041   0.102  1.00  0.00     0.336 C 
HETATM   17  O2  UNL     1      -3.802   1.009  -0.688  1.00  0.00    -0.246 OA
HETATM   18  N5  UNL     1      -4.721  -0.892   0.203  1.00  0.00    -0.258 N 
ATOM     19  H5  UNL     1      -4.621  -1.684   0.838  1.00  0.00     0.191 HD
ATOM     20  H4  UNL     1      -2.377  -0.894   1.487  1.00  0.00     0.166 HD
BRANCH  18  21
HETATM   21  N6  UNL     1      -5.901  -0.766  -0.535  1.00  0.00    -0.341 N 
ATOM     22  H62 UNL     1      -5.984   0.032  -1.165  1.00  0.00     0.177 HD
ATOM     23  H61 UNL     1      -6.666  -1.436  -0.462  1.00  0.00     0.177 HD
ENDBRANCH  18  21
ENDBRANCH   1  15
BRANCH   1  24
HETATM   24  C7  UNL     1      -1.138   1.480   2.119  1.00  0.00     0.226 C 
HETATM   25 CL1  UNL     1      -2.599   2.393   2.624  1.00  0.00    -0.080 Cl
HETATM   26 CL2  UNL     1      -0.798   0.282   3.382  1.00  0.00    -0.080 Cl
HETATM   27 CL3  UNL     1       0.172   2.684   2.044  1.00  0.00    -0.080 Cl
ENDBRANCH   1  24
TORSDOF 5
