REMARK  7 active torsions:
REMARK  status: ('A' for Active; 'I' for Inactive)
REMARK    1  A    between atoms: C5_7  and  C6_8 
REMARK       I    between atoms: C6_8  and  N2_10 
REMARK    2  A    between atoms: N2_10  and  N3_12 
REMARK    3  A    between atoms: N3_12  and  C7_14 
REMARK    4  A    between atoms: C7_14  and  C8_18 
REMARK    5  A    between atoms: C8_18  and  N5_19 
REMARK    6  A    between atoms: C8_18  and  O2_23 
REMARK    7  A    between atoms: C8_18  and  C9_25 
ROOT
HETATM    1  C7  UNL     1      -2.123   0.082   0.441  1.00  0.00     0.163 C 
HETATM    2  N4  UNL     1      -1.721   0.963   1.271  1.00  0.00    -0.384 N 
ATOM      3  H41 UNL     1      -2.367   1.732   1.447  1.00  0.00     0.157 HD
ATOM      4  H42 UNL     1      -0.836   1.000   1.776  1.00  0.00     0.157 HD
ENDROOT
BRANCH   1   5
HETATM    5  N3  UNL     1      -1.210  -1.005   0.193  1.00  0.00    -0.282 N 
ATOM      6  H3  UNL     1      -1.573  -1.905  -0.121  1.00  0.00     0.188 HD
BRANCH   5   7
HETATM    7  N2  UNL     1       0.177  -0.842   0.378  1.00  0.00    -0.263 N 
HETATM    8  C6  UNL     1       0.950  -0.130  -0.534  1.00  0.00     0.286 C 
HETATM    9  O1  UNL     1       0.286   0.352  -1.537  1.00  0.00    -0.264 OA
ATOM     10  H2  UNL     1       0.624  -1.254   1.197  1.00  0.00     0.190 HD
BRANCH   8  11
HETATM   11  C5  UNL     1       2.359   0.127  -0.501  1.00  0.00     0.105 A 
HETATM   12  N1  UNL     1       3.270  -0.259   0.416  1.00  0.00    -0.355 N 
HETATM   13  C1  UNL     1       3.088  -1.042   1.624  1.00  0.00     0.156 C 
HETATM   14  C2  UNL     1       4.478   0.231   0.007  1.00  0.00     0.110 A 
HETATM   15  C3  UNL     1       4.346   0.926  -1.162  1.00  0.00     0.028 A 
HETATM   16 BR1  UNL     1       5.764   1.788  -2.114  1.00  0.00    -0.050 Br
HETATM   17  C4  UNL     1       3.016   0.868  -1.493  1.00  0.00     0.056 A 
ENDBRANCH   8  11
ENDBRANCH   5   7
ENDBRANCH   1   5
BRANCH   1  18
HETATM   18  C8  UNL     1      -3.391   0.029  -0.282  1.00  0.00     0.380 C 
BRANCH  18  19
HETATM   19  N5  UNL     1      -4.086  -1.198   0.129  1.00  0.00    -0.030 N 
ATOM     20  H53 UNL     1      -3.520  -2.037   0.000  1.00  0.00     0.278 HD
ATOM     21  H52 UNL     1      -4.202  -1.269   1.140  1.00  0.00     0.278 HD
ATOM     22  H51 UNL     1      -4.971  -1.235  -0.376  1.00  0.00     0.278 HD
ENDBRANCH  18  19
BRANCH  18  23
HETATM   23  O2  UNL     1      -3.066  -0.138  -1.651  1.00  0.00    -0.352 OA
ATOM     24  H2  UNL     1      -3.891  -0.172  -2.121  1.00  0.00     0.213 HD
ENDBRANCH  18  23
BRANCH  18  25
HETATM   25  C9  UNL     1      -4.251   1.252  -0.172  1.00  0.00     0.453 C 
HETATM   26  F1  UNL     1      -4.622   1.557   1.101  1.00  0.00    -0.166 F 
HETATM   27  F2  UNL     1      -5.357   1.099  -0.999  1.00  0.00    -0.166 F 
HETATM   28  F3  UNL     1      -3.543   2.338  -0.713  1.00  0.00    -0.166 F 
ENDBRANCH  18  25
ENDBRANCH   1  18
TORSDOF 7
