REMARK  8 active torsions:
REMARK  status: ('A' for Active; 'I' for Inactive)
REMARK    1  A    between atoms: C1_2  and  C2_3 
REMARK       I    between atoms: C1_2  and  N2_16 
REMARK    2  A    between atoms: C2_3  and  C3_4 
REMARK    3  A    between atoms: C3_4  and  C4_5 
REMARK    4  A    between atoms: C4_5  and  C5_6 
REMARK       I    between atoms: C5_6  and  N1_8 
REMARK    5  A    between atoms: N1_8  and  C6_10 
REMARK    6  A    between atoms: N2_16  and  C12_18 
REMARK    7  A    between atoms: C12_18  and  C13_19 
REMARK    8  A    between atoms: C13_19  and  N3_20 
ROOT
HETATM    1  O1  UNL     1       0.306   0.835  -0.398  1.00  0.00    -0.274 OA
HETATM    2  C1  UNL     1       0.767  -0.030   0.366  1.00  0.00     0.217 C 
HETATM    3  N2  UNL     1       2.074  -0.529   0.158  1.00  0.00    -0.359 N 
ATOM      4  H2  UNL     1       2.466  -1.239   0.777  1.00  0.00     0.162 HD
ENDROOT
BRANCH   2   5
HETATM    5  C2  UNL     1      -0.014  -0.557   1.492  1.00  0.00     0.103 C 
BRANCH   5   6
HETATM    6  C3  UNL     1      -1.431  -0.075   1.542  1.00  0.00     0.018 C 
BRANCH   6   7
HETATM    7  C4  UNL     1      -2.248  -0.488   0.359  1.00  0.00     0.103 C 
BRANCH   7   8
HETATM    8  C5  UNL     1      -3.657   0.029   0.494  1.00  0.00     0.217 C 
HETATM    9  O2  UNL     1      -3.976   0.675   1.516  1.00  0.00    -0.274 OA
HETATM   10  N1  UNL     1      -4.561  -0.250  -0.563  1.00  0.00    -0.356 N 
ATOM     11  H1  UNL     1      -4.264  -0.781  -1.382  1.00  0.00     0.162 HD
BRANCH  10  12
HETATM   12  C6  UNL     1      -5.918   0.241  -0.446  1.00  0.00     0.084 C 
HETATM   13  C7  UNL     1      -6.154   1.271  -1.541  1.00  0.00     0.025 C 
HETATM   14  C8  UNL     1      -7.632   1.647  -1.605  1.00  0.00     0.002 C 
HETATM   15  C9  UNL     1      -8.399   0.455  -2.109  1.00  0.00     0.000 C 
HETATM   16  C10 UNL     1      -7.613  -0.826  -1.968  1.00  0.00     0.002 C 
HETATM   17  C11 UNL     1      -6.927  -0.848  -0.614  1.00  0.00     0.025 C 
ENDBRANCH  10  12
ENDBRANCH   7   8
ENDBRANCH   6   7
ENDBRANCH   5   6
ENDBRANCH   2   5
BRANCH   3  18
HETATM   18  C12 UNL     1       2.851  -0.005  -0.964  1.00  0.00     0.152 C 
BRANCH  18  19
HETATM   19  C13 UNL     1       4.179  -0.674  -0.975  1.00  0.00     0.292 C 
BRANCH  19  20
HETATM   20  N3  UNL     1       4.964  -0.486   0.221  1.00  0.00     0.090 N 
HETATM   21  C14 UNL     1       6.158  -1.344   0.008  1.00  0.00     0.272 C 
HETATM   22  C15 UNL     1       6.918  -1.320   1.322  1.00  0.00     0.033 C 
HETATM   23  C16 UNL     1       7.811  -0.094   1.293  1.00  0.00     0.039 C 
HETATM   24  C17 UNL     1       7.210   1.061   2.021  1.00  0.00     0.171 C 
HETATM   25  F1  UNL     1       7.407   0.901   3.378  1.00  0.00    -0.249 F 
HETATM   26  C18 UNL     1       5.755   1.297   1.714  1.00  0.00     0.067 C 
HETATM   27  C19 UNL     1       5.381   0.892   0.306  1.00  0.00     0.275 C 
ENDBRANCH  19  20
ENDBRANCH  18  19
ENDBRANCH   3  18
TORSDOF 8
