REMARK  9 active torsions:
REMARK  status: ('A' for Active; 'I' for Inactive)
REMARK    1  A    between atoms: C4_5  and  C5_6 
REMARK    2  A    between atoms: C5_6  and  C6_7 
REMARK    3  A    between atoms: C6_7  and  C7_8 
REMARK    4  A    between atoms: C7_8  and  C8_9 
REMARK    5  A    between atoms: C8_9  and  C9_10 
REMARK    6  A    between atoms: C10_11  and  C11_12 
REMARK    7  A    between atoms: C15_19  and  C16_20 
REMARK    8  A    between atoms: C15_19  and  C17_23 
REMARK    9  A    between atoms: C16_20  and  O1_21 
ROOT
HETATM    1  C11 UNL     1      -2.504   0.903  -0.553  1.00  0.00     0.220 C 
HETATM    2  N1  UNL     1      -2.495   1.540   0.745  1.00  0.00    -0.062 N 
ATOM      3  H11 UNL     1      -1.677   2.123   0.923  1.00  0.00     0.278 HD
ATOM      4  H12 UNL     1      -2.344   0.902   1.527  1.00  0.00     0.278 HD
HETATM    5  C12 UNL     1      -3.750   2.246   0.786  1.00  0.00     0.192 A 
HETATM    6  C13 UNL     1      -4.948   1.597   1.413  1.00  0.00     0.041 A 
HETATM    7  C14 UNL     1      -4.729   1.383  -0.033  1.00  0.00     0.032 A 
HETATM    8  C15 UNL     1      -3.890   0.266  -0.560  1.00  0.00     0.027 C 
ENDROOT
BRANCH   1   9
HETATM    9  C10 UNL     1      -1.432  -0.070  -0.740  1.00  0.00     0.003 C 
HETATM   10  C9  UNL     1      -0.193   0.205  -0.344  1.00  0.00    -0.029 C 
BRANCH  10  11
HETATM   11  C8  UNL     1       0.937  -0.763  -0.516  1.00  0.00     0.027 C 
BRANCH  11  12
HETATM   12  C7  UNL     1       1.551  -1.142   0.789  1.00  0.00     0.004 C 
BRANCH  12  13
HETATM   13  C6  UNL     1       2.674  -2.112   0.570  1.00  0.00     0.001 C 
BRANCH  13  14
HETATM   14  C5  UNL     1       3.800  -1.592  -0.260  1.00  0.00     0.006 C 
BRANCH  14  15
HETATM   15  C4  UNL     1       4.467  -0.379   0.353  1.00  0.00     0.010 A 
HETATM   16  C2  UNL     1       5.635   0.155  -0.504  1.00  0.00     0.037 A 
HETATM   17  C1  UNL     1       6.896   0.536   0.252  1.00  0.00     0.033 C 
HETATM   18 CL1  UNL     1       5.934  -0.603  -2.066  1.00  0.00    -0.119 Cl
HETATM   19  C3  UNL     1       4.398   0.951  -0.357  1.00  0.00     0.032 A 
ENDBRANCH  14  15
ENDBRANCH  13  14
ENDBRANCH  12  13
ENDBRANCH  11  12
ENDBRANCH  10  11
ENDBRANCH   1   9
BRANCH   8  20
HETATM   20  C16 UNL     1      -3.935  -0.939   0.331  1.00  0.00     0.177 C 
BRANCH  20  21
HETATM   21  O1  UNL     1      -5.209  -1.487   0.306  1.00  0.00    -0.400 OA
ATOM     22  H1  UNL     1      -5.238  -2.251   0.871  1.00  0.00     0.209 HD
ENDBRANCH  20  21
ENDBRANCH   8  20
BRANCH   8  23
HETATM   23  C17 UNL     1      -4.191  -0.117  -1.971  1.00  0.00     0.099 C 
HETATM   24 BR1  UNL     1      -5.916  -0.924  -2.139  1.00  0.00    -0.096 Br
ENDBRANCH   8  23
TORSDOF 9
