REMARK  8 active torsions:
REMARK  status: ('A' for Active; 'I' for Inactive)
REMARK    1  A    between atoms: C1_2  and  C2_4 
REMARK    2  A    between atoms: C2_4  and  C3_5 
REMARK    3  A    between atoms: C3_5  and  C4_6 
REMARK    4  A    between atoms: C4_6  and  C5_7 
REMARK    5  A    between atoms: C5_7  and  N1_8 
REMARK       I    between atoms: N1_8  and  C6_10 
REMARK    6  A    between atoms: C6_10  and  C7_12 
REMARK    7  A    between atoms: C7_12  and  C8_13 
REMARK    8  A    between atoms: C8_13  and  C9_14 
ROOT
HETATM    1  C5  UNL     1       2.087  -0.272   0.834  1.00  0.00     0.157 C 
ENDROOT
BRANCH   1   2
HETATM    2  C4  UNL     1       3.355   0.223   0.187  1.00  0.00    -0.045 C 
HETATM    3  C16 UNL     1       4.452  -0.446   0.419  1.00  0.00     0.077 A 
HETATM    4  C17 UNL     1       5.921  -0.729   0.288  1.00  0.00     0.238 A 
HETATM    5  C18 UNL     1       5.114  -1.637   1.112  1.00  0.00     0.339 A 
HETATM    6  O4  UNL     1       7.070  -0.482  -0.143  1.00  0.00    -0.285 OA
HETATM    7  F1  UNL     1       4.714  -2.846   0.555  1.00  0.00    -0.191 F 
HETATM    8  F2  UNL     1       5.092  -1.505   2.482  1.00  0.00    -0.191 F 
BRANCH   2   9
HETATM    9  C3  UNL     1       3.226   1.416  -0.640  1.00  0.00     0.047 C 
BRANCH   9  10
HETATM   10  C2  UNL     1       4.399   1.782  -1.482  1.00  0.00     0.117 C 
BRANCH  10  11
HETATM   11  C1  UNL     1       4.658   0.745  -2.493  1.00  0.00     0.172 C 
HETATM   12  O1  UNL     1       3.865  -0.221  -2.601  1.00  0.00    -0.648 OA
HETATM   13  O2  UNL     1       5.753   0.776  -3.352  1.00  0.00    -0.648 OA
ENDBRANCH  10  11
ENDBRANCH   9  10
ENDBRANCH   2   9
ENDBRANCH   1   2
BRANCH   1  14
HETATM   14  N1  UNL     1       1.099  -0.608  -0.137  1.00  0.00    -0.357 N 
HETATM   15  C6  UNL     1      -0.171  -1.096   0.288  1.00  0.00     0.217 C 
HETATM   16  O3  UNL     1      -0.385  -1.216   1.508  1.00  0.00    -0.274 OA
ATOM     17  H1  UNL     1       1.300  -0.500  -1.131  1.00  0.00     0.162 HD
BRANCH  15  18
HETATM   18  C7  UNL     1      -1.186  -1.440  -0.727  1.00  0.00     0.103 C 
BRANCH  18  19
HETATM   19  C8  UNL     1      -2.516  -1.769  -0.137  1.00  0.00     0.014 C 
BRANCH  19  20
HETATM   20  C9  UNL     1      -3.107  -0.617   0.584  1.00  0.00    -0.010 C 
HETATM   21  C10 UNL     1      -4.484  -1.001   1.189  1.00  0.00     0.009 C 
HETATM   22  C11 UNL     1      -5.275   0.238   0.907  1.00  0.00    -0.014 C 
HETATM   23  C12 UNL     1      -4.613   1.411   1.566  1.00  0.00     0.005 C 
HETATM   24  C15 UNL     1      -4.849   0.462  -0.555  1.00  0.00     0.009 C 
HETATM   25  C13 UNL     1      -3.419   1.792   0.711  1.00  0.00     0.005 C 
HETATM   26  C14 UNL     1      -3.351   0.608  -0.239  1.00  0.00    -0.010 C 
ENDBRANCH  19  20
ENDBRANCH  18  19
ENDBRANCH  15  18
ENDBRANCH   1  14
TORSDOF 8
