REMARK  8 active torsions:
REMARK  status: ('A' for Active; 'I' for Inactive)
REMARK    1  A    between atoms: C1_2  and  C2_3 
REMARK       I    between atoms: C1_2  and  N1_11 
REMARK    2  A    between atoms: C2_3  and  C3_4 
REMARK    3  A    between atoms: N1_11  and  C10_13 
REMARK    4  A    between atoms: C10_13  and  C11_14 
REMARK    5  A    between atoms: C10_13  and  C16_19 
REMARK    6  A    between atoms: C11_14  and  C12_15 
REMARK       I    between atoms: C16_19  and  N2_21 
REMARK    7  A    between atoms: N2_21  and  C17_23 
REMARK    8  A    between atoms: C17_23  and  C18_24 
ROOT
HETATM    1  C10 UNL     1       1.951   0.392   0.290  1.00  0.00     0.177 C 
ENDROOT
BRANCH   1   2
HETATM    2  N1  UNL     1       0.619   0.540  -0.208  1.00  0.00    -0.348 N 
HETATM    3  C1  UNL     1      -0.406  -0.448   0.007  1.00  0.00     0.218 C 
HETATM    4  O1  UNL     1      -0.047  -1.453   0.667  1.00  0.00    -0.274 OA
ATOM      5  H1  UNL     1       0.385   1.380  -0.737  1.00  0.00     0.163 HD
BRANCH   3   6
HETATM    6  C2  UNL     1      -1.770  -0.271  -0.521  1.00  0.00     0.107 C 
BRANCH   6   7
HETATM    7  C3  UNL     1      -2.731  -1.369  -0.138  1.00  0.00    -0.006 C 
HETATM    8  C4  UNL     1      -4.061  -1.008  -0.803  1.00  0.00     0.005 C 
HETATM    9  C5  UNL     1      -4.946  -2.191  -0.985  1.00  0.00     0.000 C 
HETATM   10  C6  UNL     1      -5.848  -2.525   0.148  1.00  0.00     0.000 C 
HETATM   11  C7  UNL     1      -5.406  -1.834   1.411  1.00  0.00     0.000 C 
HETATM   12  C8  UNL     1      -4.028  -2.222   1.827  1.00  0.00     0.000 C 
HETATM   13  C9  UNL     1      -2.960  -1.250   1.374  1.00  0.00     0.005 C 
ENDBRANCH   6   7
ENDBRANCH   3   6
ENDBRANCH   1   2
BRANCH   1  14
HETATM   14  C11 UNL     1       3.003   0.123  -0.729  1.00  0.00     0.039 C 
BRANCH  14  15
HETATM   15  C12 UNL     1       3.221   1.136  -1.780  1.00  0.00    -0.012 C 
HETATM   16  C13 UNL     1       2.063   1.459  -2.684  1.00  0.00     0.005 C 
HETATM   17  C14 UNL     1       3.071   1.514  -3.831  1.00  0.00     0.001 C 
HETATM   18  C15 UNL     1       3.910   0.549  -3.028  1.00  0.00     0.005 C 
ENDBRANCH  14  15
ENDBRANCH   1  14
BRANCH   1  19
HETATM   19  C16 UNL     1       2.365   1.497   1.168  1.00  0.00     0.240 C 
HETATM   20  O2  UNL     1       1.614   2.493   1.415  1.00  0.00    -0.271 OA
HETATM   21  N2  UNL     1       3.637   1.473   1.770  1.00  0.00    -0.358 N 
ATOM     22  H2  UNL     1       4.269   0.691   1.598  1.00  0.00     0.162 HD
BRANCH  21  23
HETATM   23  C17 UNL     1       4.049   2.565   2.637  1.00  0.00     0.137 C 
BRANCH  23  24
HETATM   24  C18 UNL     1       5.437   2.348   3.179  1.00  0.00     0.134 C 
HETATM   25 CL1  UNL     1       5.422   0.828   4.108  1.00  0.00    -0.129 Cl
ENDBRANCH  23  24
ENDBRANCH  21  23
ENDBRANCH   1  19
TORSDOF 8
