REMARK  10 active torsions:
REMARK  status: ('A' for Active; 'I' for Inactive)
REMARK       I    between atoms: C1_2  and  N1_3 
REMARK       I    between atoms: C1_2  and  N2_19 
REMARK    1  A    between atoms: N1_3  and  C2_5 
REMARK    2  A    between atoms: C2_5  and  C3_6 
REMARK    3  A    between atoms: C3_6  and  C4_7 
REMARK    4  A    between atoms: C5_8  and  C6_9 
REMARK    5  A    between atoms: C6_9  and  C7_10 
REMARK    6  A    between atoms: C7_10  and  C8_11 
REMARK    7  A    between atoms: N2_19  and  C14_21 
REMARK    8  A    between atoms: C14_21  and  C15_22 
REMARK    9  A    between atoms: C15_22  and  C16_23 
REMARK   10  A    between atoms: C16_23  and  N3_24 
ROOT
HETATM    1  O1  UNL     1       1.954   0.320  -1.508  1.00  0.00    -0.247 OA
HETATM    2  C1  UNL     1       1.852   0.477  -0.264  1.00  0.00     0.316 C 
HETATM    3  N1  UNL     1       1.526   1.718   0.313  1.00  0.00    -0.342 N 
ATOM      4  H1  UNL     1       1.463   1.759   1.330  1.00  0.00     0.164 HD
HETATM    5  N2  UNL     1       2.086  -0.680   0.529  1.00  0.00    -0.343 N 
ATOM      6  H2  UNL     1       2.012  -0.582   1.542  1.00  0.00     0.164 HD
ENDROOT
BRANCH   3   7
HETATM    7  C2  UNL     1       1.276   2.924  -0.406  1.00  0.00     0.136 C 
BRANCH   7   8
HETATM    8  C3  UNL     1       0.104   2.812  -1.383  1.00  0.00     0.113 C 
BRANCH   8   9
HETATM    9  C4  UNL     1      -1.140   2.469  -0.697  1.00  0.00    -0.105 C 
HETATM   10  C5  UNL     1      -2.172   2.169  -0.146  1.00  0.00    -0.107 C 
BRANCH  10  11
HETATM   11  C6  UNL     1      -3.446   1.783   0.510  1.00  0.00     0.094 C 
BRANCH  11  12
HETATM   12  C7  UNL     1      -3.809   0.398  -0.032  1.00  0.00     0.017 C 
BRANCH  12  13
HETATM   13  C8  UNL     1      -5.089  -0.122   0.551  1.00  0.00    -0.008 C 
HETATM   14  C9  UNL     1      -5.319  -1.503  -0.079  1.00  0.00     0.005 C 
HETATM   15  C10 UNL     1      -6.404  -2.162   0.708  1.00  0.00     0.006 C 
HETATM   16  C11 UNL     1      -7.668  -1.367   0.558  1.00  0.00     0.079 C 
HETATM   17  C12 UNL     1      -7.482   0.089   0.919  1.00  0.00     0.244 C 
HETATM   18  F1  UNL     1      -8.651   0.747   0.590  1.00  0.00    -0.206 F 
HETATM   19  F2  UNL     1      -7.269   0.229   2.266  1.00  0.00    -0.206 F 
HETATM   20  C13 UNL     1      -6.287   0.704   0.203  1.00  0.00     0.083 C 
ENDBRANCH  12  13
ENDBRANCH  11  12
ENDBRANCH  10  11
ENDBRANCH   8   9
ENDBRANCH   7   8
ENDBRANCH   3   7
BRANCH   5  21
HETATM   21  C14 UNL     1       2.416  -1.966   0.013  1.00  0.00     0.126 C 
BRANCH  21  22
HETATM   22  C15 UNL     1       3.703  -1.977  -0.783  1.00  0.00     0.050 C 
BRANCH  22  23
HETATM   23  C16 UNL     1       4.803  -1.533   0.146  1.00  0.00     0.274 C 
BRANCH  23  24
HETATM   24  N3  UNL     1       6.082  -1.507  -0.508  1.00  0.00     0.088 N 
HETATM   25  C17 UNL     1       7.123  -1.166   0.460  1.00  0.00     0.272 C 
HETATM   26  C18 UNL     1       7.108   0.329   0.543  1.00  0.00     0.032 C 
HETATM   27  C19 UNL     1       6.784   0.755  -0.847  1.00  0.00     0.032 C 
HETATM   28  C20 UNL     1       6.093  -0.414  -1.462  1.00  0.00     0.272 C 
ENDBRANCH  23  24
ENDBRANCH  22  23
ENDBRANCH  21  22
ENDBRANCH   5  21
TORSDOF 10
