REMARK  11 active torsions:
REMARK  status: ('A' for Active; 'I' for Inactive)
REMARK    1  A    between atoms: N2_4  and  C1_6 
REMARK    2  A    between atoms: N3_7  and  C2_9 
REMARK    3  A    between atoms: C2_9  and  C3_10 
REMARK    4  A    between atoms: C3_10  and  C4_11 
REMARK    5  A    between atoms: C4_11  and  C5_12 
REMARK    6  A    between atoms: C5_12  and  O1_13 
REMARK    7  A    between atoms: C5_12  and  N4_15 
REMARK       I    between atoms: N4_15  and  C6_17 
REMARK    8  A    between atoms: C6_17  and  C7_19 
REMARK    9  A    between atoms: C7_19  and  C11_24 
REMARK   10  A    between atoms: C8_20  and  C9_21 
REMARK   11  A    between atoms: C11_24  and  C12_25 
ROOT
HETATM    1  N4  UNL     1       0.794  -1.182  -0.165  1.00  0.00    -0.331 N 
ATOM      2  H4  UNL     1       0.520  -2.051  -0.624  1.00  0.00     0.165 HD
HETATM    3  C6  UNL     1      -0.147  -0.376   0.473  1.00  0.00     0.249 C 
HETATM    4  O2  UNL     1       0.260   0.681   1.018  1.00  0.00    -0.268 OA
ENDROOT
BRANCH   1   5
HETATM    5  C5  UNL     1       2.210  -0.732  -0.154  1.00  0.00     0.220 C 
BRANCH   5   6
HETATM    6  C4  UNL     1       3.053  -1.678   0.596  1.00  0.00     0.055 C 
BRANCH   6   7
HETATM    7  C3  UNL     1       4.452  -1.319   0.806  1.00  0.00     0.024 C 
BRANCH   7   8
HETATM    8  C2  UNL     1       5.404  -1.109  -0.284  1.00  0.00     0.120 C 
BRANCH   8   9
HETATM    9  N3  UNL     1       5.198  -0.046  -1.193  1.00  0.00    -0.385 N 
HETATM   10  C1  UNL     1       5.848   1.063  -1.072  1.00  0.00     0.192 C 
ATOM     11  H3  UNL     1       4.528  -0.157  -1.954  1.00  0.00     0.160 HD
BRANCH  10  12
HETATM   12  N2  UNL     1       5.681   2.157  -1.952  1.00  0.00    -0.303 N 
HETATM   13  N1  UNL     1       5.646   3.342  -1.526  1.00  0.00    -0.344 N 
ATOM     14  H12 UNL     1       5.742   3.498  -0.523  1.00  0.00     0.176 HD
ATOM     15  H11 UNL     1       5.526   4.131  -2.161  1.00  0.00     0.176 HD
ATOM     16  H2  UNL     1       5.587   1.983  -2.953  1.00  0.00     0.187 HD
ENDBRANCH  10  12
ENDBRANCH   8   9
ENDBRANCH   7   8
ENDBRANCH   6   7
ENDBRANCH   5   6
BRANCH   5  17
HETATM   17  O1  UNL     1       2.524  -0.452  -1.451  1.00  0.00    -0.377 OA
ATOM     18  H1  UNL     1       1.980   0.158  -1.935  1.00  0.00     0.212 HD
ENDBRANCH   5  17
ENDBRANCH   1   5
BRANCH   3  19
HETATM   19  C7  UNL     1      -1.563  -0.734   0.517  1.00  0.00     0.010 C 
HETATM   20  C8  UNL     1      -2.016  -1.839  -0.038  1.00  0.00     0.013 C 
BRANCH  20  21
HETATM   21  C9  UNL     1      -3.371  -2.304  -0.067  1.00  0.00     0.008 C 
HETATM   22  C10 UNL     1      -3.721  -3.442  -0.658  1.00  0.00     0.056 C 
HETATM   23 BR1  UNL     1      -2.390  -4.515  -1.507  1.00  0.00    -0.064 Br
ENDBRANCH  20  21
BRANCH  19  24
HETATM   24  C11 UNL     1      -2.493   0.200   1.238  1.00  0.00     0.049 C 
BRANCH  24  25
HETATM   25  C12 UNL     1      -2.554   1.564   0.636  1.00  0.00    -0.010 C 
HETATM   26  C13 UNL     1      -3.521   2.398   1.448  1.00  0.00     0.005 C 
HETATM   27  C14 UNL     1      -4.786   2.508   0.667  1.00  0.00     0.000 C 
HETATM   28  C15 UNL     1      -4.629   1.705  -0.591  1.00  0.00     0.000 C 
HETATM   29  C16 UNL     1      -3.140   1.501  -0.762  1.00  0.00     0.005 C 
ENDBRANCH  24  25
ENDBRANCH  19  24
ENDBRANCH   3  19
TORSDOF 11
