REMARK  3 active torsions:
REMARK  status: ('A' for Active; 'I' for Inactive)
REMARK    1  A    between atoms: C2_2  and  C3_3 
REMARK    2  A    between atoms: C2_2  and  C5_6 
REMARK    3  A    between atoms: C6_7  and  C7_9 
ROOT
HETATM    1  C5  UNL     1      -0.588  -0.052  -0.502  1.00  0.00     0.012 C 
HETATM    2  C6  UNL     1      -1.650   0.209   0.209  1.00  0.00     0.107 C 
HETATM    3 CL1  UNL     1      -1.654   1.183   1.659  1.00  0.00    -0.077 Cl
ENDROOT
BRANCH   1   4
HETATM    4  C2  UNL     1       0.778   0.368  -0.290  1.00  0.00     0.029 C 
HETATM    5  C1  UNL     1       1.042   1.386   0.766  1.00  0.00     0.018 C 
BRANCH   4   6
HETATM    6  C3  UNL     1       1.721  -0.783  -0.104  1.00  0.00    -0.011 C 
HETATM    7  C4  UNL     1       2.754  -1.012  -0.899  1.00  0.00     0.052 C 
HETATM    8 BR1  UNL     1       3.860  -2.518  -0.529  1.00  0.00    -0.064 Br
ENDBRANCH   4   6
ENDBRANCH   1   4
BRANCH   2   9
HETATM    9  C7  UNL     1      -2.979  -0.319  -0.176  1.00  0.00     0.221 C 
HETATM   10  O1  UNL     1      -3.029  -1.036  -1.227  1.00  0.00    -0.643 OA
HETATM   11  O2  UNL     1      -4.130  -0.091   0.512  1.00  0.00    -0.643 OA
ENDBRANCH   2   9
TORSDOF 3
