REMARK  3 active torsions:
REMARK  status: ('A' for Active; 'I' for Inactive)
REMARK    1  A    between atoms: C2_2  and  C3_3 
REMARK       I    between atoms: C3_3  and  N1_5 
REMARK    2  A    between atoms: N1_5  and  C4_7 
REMARK    3  A    between atoms: C4_7  and  C5_8 
ROOT
HETATM    1  C3  UNL     1      -1.118   0.413   0.420  1.00  0.00     0.229 C 
HETATM    2  O1  UNL     1      -0.780   1.614   0.412  1.00  0.00    -0.273 OA
HETATM    3  N1  UNL     1      -0.137  -0.544   0.740  1.00  0.00    -0.360 N 
ATOM      4  H1  UNL     1      -0.425  -1.523   0.743  1.00  0.00     0.162 HD
ENDROOT
BRANCH   1   5
HETATM    5  C2  UNL     1      -2.483   0.036   0.105  1.00  0.00     0.075 A 
HETATM    6  C1  UNL     1      -2.765  -1.467   0.151  1.00  0.00     0.029 C 
HETATM    7  C9  UNL     1      -3.087   0.692  -1.134  1.00  0.00     0.065 A 
HETATM    8  C10 UNL     1      -3.648   0.921   0.250  1.00  0.00     0.130 A 
HETATM    9 CL1  UNL     1      -5.199   0.147   0.657  1.00  0.00    -0.100 Cl
HETATM   10 CL2  UNL     1      -3.498   2.581   0.836  1.00  0.00    -0.100 Cl
ENDBRANCH   1   5
BRANCH   3  11
HETATM   11  C4  UNL     1       1.229  -0.264   1.061  1.00  0.00     0.127 C 
BRANCH  11  12
HETATM   12  C5  UNL     1       1.990   0.434  -0.052  1.00  0.00     0.003 C 
HETATM   13  C6  UNL     1       3.434   0.706   0.342  1.00  0.00     0.006 C 
HETATM   14  C7  UNL     1       3.860  -0.019  -0.914  1.00  0.00     0.001 C 
HETATM   15  C8  UNL     1       2.468  -0.505  -1.143  1.00  0.00     0.006 C 
ENDBRANCH  11  12
ENDBRANCH   3  11
TORSDOF 3
