REMARK  3 active torsions:
REMARK  status: ('A' for Active; 'I' for Inactive)
REMARK    1  A    between atoms: C2_2  and  C3_3 
REMARK    2  A    between atoms: C3_3  and  C4_4 
REMARK    3  A    between atoms: C5_5  and  C6_6 
ROOT
HETATM    1  C4  UNL     1       0.280   0.283   0.165  1.00  0.00     0.036 C 
HETATM    2  C5  UNL     1      -0.433  -0.907  -0.377  1.00  0.00     0.079 C 
HETATM    3  C7  UNL     1      -1.860  -0.902   0.103  1.00  0.00     0.017 C 
HETATM    4  C8  UNL     1      -2.451   0.508  -0.034  1.00  0.00     0.059 C 
HETATM    5  C9  UNL     1      -1.824   1.320   1.070  1.00  0.00     0.230 A 
HETATM    6 CL2  UNL     1      -2.858   1.558   2.501  1.00  0.00    -0.086 Cl
HETATM    7  N1  UNL     1      -0.914   2.378   0.789  1.00  0.00    -0.042 N 
ATOM      8  H11 UNL     1      -0.786   3.339   1.106  1.00  0.00     0.280 HD
ATOM      9  H12 UNL     1      -0.732   3.000   0.001  1.00  0.00     0.280 HD
HETATM   10  C10 UNL     1      -0.441   1.031   1.226  1.00  0.00     0.244 A 
ENDROOT
BRANCH   1  11
HETATM   11  C3  UNL     1       1.631  -0.151   0.728  1.00  0.00     0.034 C 
BRANCH  11  12
HETATM   12  C2  UNL     1       2.486  -0.776  -0.316  1.00  0.00    -0.036 C 
HETATM   13  C1  UNL     1       3.652  -0.227  -0.600  1.00  0.00     0.007 C 
ENDBRANCH  11  12
ENDBRANCH   1  11
BRANCH   2  14
HETATM   14  C6  UNL     1      -0.323  -1.015  -1.847  1.00  0.00     0.223 C 
HETATM   15  O1  UNL     1       0.296  -0.189  -2.497  1.00  0.00    -0.279 OA
HETATM   16 CL1  UNL     1      -1.082  -2.336  -2.713  1.00  0.00    -0.043 Cl
ENDBRANCH   2  14
TORSDOF 3
