REMARK  3 active torsions:
REMARK  status: ('A' for Active; 'I' for Inactive)
REMARK    1  A    between atoms: C4_7  and  C5_8 
REMARK    2  A    between atoms: C5_8  and  C6_9 
REMARK    3  A    between atoms: C8_12  and  C9_13 
ROOT
HETATM    1  C1  UNL     1      -1.848  -0.787   1.544  1.00  0.00     0.048 C 
HETATM    2  C2  UNL     1      -1.504  -0.444   0.093  1.00  0.00     0.136 C 
HETATM    3  C3  UNL     1      -2.591  -1.028  -0.803  1.00  0.00     0.048 C 
HETATM    4  N1  UNL     1      -0.271  -1.104  -0.275  1.00  0.00    -0.061 N 
ATOM      5  H11 UNL     1      -0.182  -1.171  -1.289  1.00  0.00     0.278 HD
ATOM      6  H12 UNL     1      -0.306  -2.097  -0.045  1.00  0.00     0.278 HD
HETATM    7  C4  UNL     1       0.896  -0.479   0.307  1.00  0.00     0.188 C 
HETATM    8  C7  UNL     1       1.078   0.925  -0.213  1.00  0.00     0.046 C 
HETATM    9  C8  UNL     1      -0.195   1.497  -0.791  1.00  0.00     0.070 C 
HETATM   10  C10 UNL     1      -1.416   1.042  -0.024  1.00  0.00     0.128 C 
HETATM   11 CL2  UNL     1      -2.843   1.706  -0.850  1.00  0.00    -0.122 Cl
ENDROOT
BRANCH   7  12
HETATM   12  C5  UNL     1       2.090  -1.288  -0.156  1.00  0.00     0.048 C 
BRANCH  12  13
HETATM   13  C6  UNL     1       3.393  -0.743   0.383  1.00  0.00     0.116 C 
HETATM   14 CL1  UNL     1       4.691  -1.802  -0.252  1.00  0.00    -0.130 Cl
ENDBRANCH  12  13
ENDBRANCH   7  12
BRANCH   9  15
HETATM   15  C9  UNL     1      -0.088   2.969  -0.746  1.00  0.00     0.237 C 
HETATM   16  O1  UNL     1      -0.348   3.568   0.268  1.00  0.00    -0.306 OA
ENDBRANCH   9  15
TORSDOF 3
