REMARK  3 active torsions:
REMARK  status: ('A' for Active; 'I' for Inactive)
REMARK    1  A    between atoms: C2_2  and  C3_3 
REMARK    2  A    between atoms: C5_7  and  C7_9 
REMARK       I    between atoms: C7_9  and  N1_11 
REMARK    3  A    between atoms: N1_11  and  C8_13 
ROOT
HETATM    1  C3  UNL     1      -2.219   0.130   0.144  1.00  0.00     0.046 A 
HETATM    2  C4  UNL     1      -1.754  -0.553   1.429  1.00  0.00     0.134 A 
HETATM    3 CL1  UNL     1      -1.219   0.496   2.763  1.00  0.00    -0.100 Cl
HETATM    4 CL2  UNL     1      -2.495  -2.061   1.936  1.00  0.00    -0.100 Cl
HETATM    5  C5  UNL     1      -0.930  -0.529   0.144  1.00  0.00     0.079 A 
HETATM    6  C6  UNL     1      -0.892  -1.902  -0.555  1.00  0.00     0.029 C 
ENDROOT
BRANCH   5   7
HETATM    7  C7  UNL     1       0.381   0.088   0.283  1.00  0.00     0.230 C 
HETATM    8  O1  UNL     1       0.517   1.204   0.839  1.00  0.00    -0.273 OA
HETATM    9  N1  UNL     1       1.592  -0.512  -0.193  1.00  0.00    -0.356 N 
ATOM     10  H1  UNL     1       1.523  -1.420  -0.652  1.00  0.00     0.162 HD
BRANCH   9  11
HETATM   11  C8  UNL     1       2.882   0.069  -0.070  1.00  0.00     0.084 A 
HETATM   12  C9  UNL     1       3.954  -0.119  -1.068  1.00  0.00     0.027 A 
HETATM   13  C10 UNL     1       4.076  -0.833   0.255  1.00  0.00     0.027 A 
ENDBRANCH   9  11
ENDBRANCH   5   7
BRANCH   1  14
HETATM   14  C2  UNL     1      -2.489   1.582   0.308  1.00  0.00     0.004 C 
HETATM   15  C1  UNL     1      -2.944   2.145  -1.046  1.00  0.00     0.005 C 
ENDBRANCH   1  14
TORSDOF 3
