REMARK  3 active torsions:
REMARK  status: ('A' for Active; 'I' for Inactive)
REMARK    1  A    between atoms: C3_3  and  N1_4 
REMARK       I    between atoms: N1_4  and  C4_6 
REMARK    2  A    between atoms: C4_6  and  C5_8 
REMARK    3  A    between atoms: C6_9  and  C7_10 
ROOT
HETATM    1  N1  UNL     1      -1.092  -0.125   0.502  1.00  0.00    -0.349 N 
ATOM      2  H1  UNL     1      -0.878   0.236  -0.428  1.00  0.00     0.163 HD
HETATM    3  C4  UNL     1      -0.069  -0.234   1.462  1.00  0.00     0.241 C 
HETATM    4  O1  UNL     1      -0.314  -0.686   2.640  1.00  0.00    -0.269 OA
ENDROOT
BRANCH   1   5
HETATM    5  C3  UNL     1      -2.434  -0.519   0.822  1.00  0.00     0.130 A 
HETATM    6  C2  UNL     1      -3.407  -0.909  -0.218  1.00  0.00     0.048 A 
HETATM    7  C1  UNL     1      -3.000  -1.087  -1.660  1.00  0.00     0.015 C 
HETATM    8  C10 UNL     1      -3.487   0.483   0.292  1.00  0.00     0.139 A 
HETATM    9 CL1  UNL     1      -2.937   1.754  -0.807  1.00  0.00    -0.099 Cl
HETATM   10 CL2  UNL     1      -4.760   0.939   1.437  1.00  0.00    -0.099 Cl
ENDBRANCH   1   5
BRANCH   3  11
HETATM   11  C5  UNL     1       1.297   0.148   1.191  1.00  0.00     0.070 C 
HETATM   12  C6  UNL     1       1.701   0.622   0.045  1.00  0.00    -0.017 C 
BRANCH  12  13
HETATM   13  C7  UNL     1       3.111   1.011  -0.217  1.00  0.00     0.008 A 
HETATM   14  C8  UNL     1       4.057  -0.164  -0.272  1.00  0.00     0.009 A 
HETATM   15  C9  UNL     1       4.169   0.889   0.802  1.00  0.00     0.009 A 
ENDBRANCH  12  13
ENDBRANCH   3  11
TORSDOF 3
