REMARK  8 active torsions:
REMARK  status: ('A' for Active; 'I' for Inactive)
REMARK    1  A    between atoms: N1_1  and  N2_4 
REMARK    2  A    between atoms: N2_4  and  C1_5 
REMARK    3  A    between atoms: C1_5  and  C2_6 
REMARK    4  A    between atoms: C2_6  and  N3_7 
REMARK       I    between atoms: N3_7  and  C3_9 
REMARK       I    between atoms: C3_9  and  N7_20 
REMARK    5  A    between atoms: N4_10  and  C4_12 
REMARK    6  A    between atoms: C4_12  and  C5_13 
REMARK    7  A    between atoms: N7_20  and  C8_22 
REMARK    8  A    between atoms: C8_22  and  C9_23 
ROOT
HETATM    1  N3  UNL     1      -0.887   1.856  -1.044  1.00  0.00    -0.221 N 
ATOM      2  H3  UNL     1      -0.871   1.702  -2.052  1.00  0.00     0.178 HD
HETATM    3  C3  UNL     1      -0.793   0.703  -0.212  1.00  0.00     0.670 C 
HETATM    4  N4  UNL     1      -1.855   0.275   0.341  1.00  0.00    -0.221 N 
ATOM      5  H4  UNL     1      -2.735   0.763   0.175  1.00  0.00     0.178 HD
HETATM    6  N7  UNL     1       0.467   0.074  -0.033  1.00  0.00    -0.222 N 
ATOM      7  H7  UNL     1       0.538  -0.936   0.090  1.00  0.00     0.178 HD
ENDROOT
BRANCH   1   8
HETATM    8  C2  UNL     1      -1.001   3.202  -0.597  1.00  0.00     0.199 C 
BRANCH   8   9
HETATM    9  C1  UNL     1      -2.317   3.417   0.026  1.00  0.00     0.201 C 
BRANCH   9  10
HETATM   10  N2  UNL     1      -2.722   4.570   0.257  1.00  0.00    -0.348 NA
BRANCH  10  11
HETATM   11  N1  UNL     1      -3.292   5.673   0.125  1.00  0.00    -0.281 N 
ATOM     12  H12 UNL     1      -3.681   5.479  -0.798  1.00  0.00     0.191 HD
ATOM     13  H11 UNL     1      -3.624   6.619   0.314  1.00  0.00     0.191 HD
ENDBRANCH  10  11
ENDBRANCH   9  10
ENDBRANCH   8   9
ENDBRANCH   1   8
BRANCH   4  14
HETATM   14  C4  UNL     1      -1.844  -0.887   1.199  1.00  0.00     0.196 C 
BRANCH  14  15
HETATM   15  C5  UNL     1      -2.542  -1.967   0.433  1.00  0.00     0.044 A 
HETATM   16  C6  UNL     1      -3.862  -1.863   0.069  1.00  0.00     0.115 A 
HETATM   17  N5  UNL     1      -4.212  -2.973  -0.599  1.00  0.00    -0.360 N 
HETATM   18  C7  UNL     1      -3.120  -3.754  -0.646  1.00  0.00     0.180 A 
ATOM     19  H5  UNL     1      -5.129  -3.183  -0.994  1.00  0.00     0.166 HD
HETATM   20  N6  UNL     1      -2.094  -3.140  -0.014  1.00  0.00    -0.353 N 
ATOM     21  H6  UNL     1      -1.149  -3.508   0.100  1.00  0.00     0.166 HD
ENDBRANCH  14  15
ENDBRANCH   4  14
BRANCH   6  22
HETATM   22  C8  UNL     1       1.634   0.903  -0.030  1.00  0.00     0.176 C 
BRANCH  22  23
HETATM   23  C9  UNL     1       2.852   0.089   0.108  1.00  0.00    -0.040 A 
HETATM   24  C10 UNL     1       3.014  -0.978  -0.769  1.00  0.00     0.009 A 
HETATM   25  C11 UNL     1       4.152  -1.738  -0.660  1.00  0.00     0.001 A 
HETATM   26  C12 UNL     1       5.136  -1.497   0.271  1.00  0.00     0.000 A 
HETATM   27  C13 UNL     1       4.921  -0.420   1.120  1.00  0.00     0.001 A 
HETATM   28  C14 UNL     1       3.799   0.377   1.057  1.00  0.00     0.009 A 
ENDBRANCH  22  23
ENDBRANCH   6  22
TORSDOF 8
