REMARK  8 active torsions:
REMARK  status: ('A' for Active; 'I' for Inactive)
REMARK    1  A    between atoms: C4_5  and  C5_6 
REMARK    2  A    between atoms: C6_7  and  C7_8 
REMARK    3  A    between atoms: C7_8  and  C8_9 
REMARK    4  A    between atoms: C8_9  and  C9_10 
REMARK    5  A    between atoms: C9_10  and  C10_11 
REMARK    6  A    between atoms: C10_11  and  N2_12 
REMARK    7  A    between atoms: N6_20  and  C13_22 
REMARK    8  A    between atoms: C13_22  and  C14_23 
ROOT
HETATM    1  C1  UNL     1      -5.757   1.365   2.666  1.00  0.00     0.038 C 
HETATM    2  C2  UNL     1      -4.968   0.996   1.837  1.00  0.00     0.022 C 
HETATM    3  N1  UNL     1      -4.030   0.554   0.894  1.00  0.00    -0.113 N 
HETATM    4  C3  UNL     1      -2.813   0.029   1.199  1.00  0.00     0.164 A 
HETATM    5  C4  UNL     1      -2.120  -0.311   0.063  1.00  0.00     0.120 A 
HETATM    6  N5  UNL     1      -2.934   0.016  -0.947  1.00  0.00    -0.181 N 
ATOM      7  H5  UNL     1      -2.722  -0.107  -1.937  1.00  0.00     0.185 HD
HETATM    8  C12 UNL     1      -4.102   0.545  -0.444  1.00  0.00     0.697 A 
HETATM    9  N6  UNL     1      -5.016   0.923  -1.198  1.00  0.00    -0.201 N 
ATOM     10  H6  UNL     1      -4.768   0.782  -2.177  1.00  0.00     0.183 HD
ENDROOT
BRANCH   5  11
HETATM   11  C5  UNL     1      -0.799  -0.894  -0.019  1.00  0.00    -0.047 C 
HETATM   12  C6  UNL     1       0.311  -1.363  -0.089  1.00  0.00    -0.100 C 
BRANCH  12  13
HETATM   13  C7  UNL     1       1.682  -1.916  -0.173  1.00  0.00     0.094 C 
BRANCH  13  14
HETATM   14  C8  UNL     1       2.678  -0.780  -0.098  1.00  0.00     0.014 C 
BRANCH  14  15
HETATM   15  C9  UNL     1       4.074  -1.321  -0.181  1.00  0.00     0.021 C 
BRANCH  15  16
HETATM   16  C10 UNL     1       5.081  -0.194  -0.107  1.00  0.00     0.122 C 
BRANCH  16  17
HETATM   17  N2  UNL     1       6.408  -0.765  -0.191  1.00  0.00    -0.367 N 
HETATM   18  C11 UNL     1       7.442  -0.027  -0.341  1.00  0.00     0.196 C 
HETATM   19  N3  UNL     1       7.298   1.366  -0.426  1.00  0.00    -0.067 NA
HETATM   20  N4  UNL     1       8.719  -0.622  -0.419  1.00  0.00    -0.067 NA
ATOM     21  H2  UNL     1       6.521  -1.777  -0.129  1.00  0.00     0.161 HD
ENDBRANCH  16  17
ENDBRANCH  15  16
ENDBRANCH  14  15
ENDBRANCH  13  14
ENDBRANCH  12  13
ENDBRANCH   5  11
BRANCH   9  22
HETATM   22  C13 UNL     1      -6.286   1.486  -1.075  1.00  0.00     0.105 C 
BRANCH  22  23
HETATM   23  C14 UNL     1      -7.405   0.498  -1.125  1.00  0.00     0.007 C 
HETATM   24  C15 UNL     1      -8.261   0.349  -0.132  1.00  0.00     0.012 C 
ENDBRANCH  22  23
ENDBRANCH   9  22
TORSDOF 8
