REMARK  9 active torsions:
REMARK  status: ('A' for Active; 'I' for Inactive)
REMARK    1  A    between atoms: N1_2  and  C3_4 
REMARK    2  A    between atoms: C3_4  and  C4_5 
REMARK    3  A    between atoms: C4_5  and  N2_6 
REMARK    4  A    between atoms: N2_6  and  C5_8 
REMARK    5  A    between atoms: C8_13  and  N4_14 
REMARK    6  A    between atoms: N4_14  and  C9_16 
REMARK    7  A    between atoms: C9_16  and  C10_17 
REMARK    8  A    between atoms: C10_17  and  C11_18 
REMARK    9  A    between atoms: C11_18  and  C12_19 
ROOT
HETATM    1  C5  UNL     1       1.672  -0.432   0.597  1.00  0.00     0.679 A 
HETATM    2  N3  UNL     1       1.962  -1.518   1.325  1.00  0.00    -0.202 N 
ATOM      3  H3  UNL     1       2.928  -1.723   1.579  1.00  0.00     0.183 HD
HETATM    4  C6  UNL     1       0.975  -2.332   1.716  1.00  0.00     0.110 A 
HETATM    5  C7  UNL     1      -0.339  -2.078   1.385  1.00  0.00     0.066 A 
HETATM    6  C8  UNL     1      -0.594  -0.945   0.631  1.00  0.00     0.118 A 
HETATM    7  N6  UNL     1       0.395  -0.138   0.245  1.00  0.00    -0.177 N 
ATOM      8  H6  UNL     1       0.193   0.693  -0.310  1.00  0.00     0.185 HD
ENDROOT
BRANCH   6   9
HETATM    9  N4  UNL     1      -1.805  -0.685   0.309  1.00  0.00    -0.376 N 
ATOM     10  H4  UNL     1      -2.535  -1.325   0.622  1.00  0.00     0.161 HD
BRANCH   9  11
HETATM   11  C9  UNL     1      -2.191   0.453  -0.465  1.00  0.00     0.121 C 
BRANCH  11  12
HETATM   12  C10 UNL     1      -3.687   0.682  -0.460  1.00  0.00     0.024 C 
BRANCH  12  13
HETATM   13  C11 UNL     1      -4.453  -0.488  -1.023  1.00  0.00     0.041 C 
BRANCH  13  14
HETATM   14  C12 UNL     1      -5.898  -0.136  -0.961  1.00  0.00    -0.041 A 
HETATM   15  C13 UNL     1      -6.686   0.499  -1.898  1.00  0.00     0.025 A 
HETATM   16  C14 UNL     1      -7.977   0.634  -1.447  1.00  0.00     0.088 A 
HETATM   17  N5  UNL     1      -8.003   0.077  -0.213  1.00  0.00    -0.375 N 
HETATM   18  C15 UNL     1      -6.770  -0.392   0.103  1.00  0.00     0.094 A 
ATOM     19  H5  UNL     1      -8.825   0.019   0.388  1.00  0.00     0.164 HD
ENDBRANCH  13  14
ENDBRANCH  12  13
ENDBRANCH  11  12
ENDBRANCH   9  11
ENDBRANCH   6   9
BRANCH   1  20
HETATM   20  N2  UNL     1       2.576   0.382   0.196  1.00  0.00    -0.224 N 
ATOM     21  H2  UNL     1       2.335   1.204  -0.357  1.00  0.00     0.177 HD
BRANCH  20  22
HETATM   22  C4  UNL     1       3.951   0.100   0.552  1.00  0.00     0.168 C 
BRANCH  22  23
HETATM   23  C3  UNL     1       4.828   1.187  -0.034  1.00  0.00     0.291 C 
BRANCH  23  24
HETATM   24  N1  UNL     1       6.191   0.900   0.325  1.00  0.00     0.081 N 
HETATM   25  C1  UNL     1       7.090   1.896  -0.200  1.00  0.00     0.309 C 
HETATM   26  C2  UNL     1       6.534  -0.402  -0.180  1.00  0.00     0.309 C 
ENDBRANCH  23  24
ENDBRANCH  22  23
ENDBRANCH  20  22
ENDBRANCH   1  20
TORSDOF 9
