REMARK  9 active torsions:
REMARK  status: ('A' for Active; 'I' for Inactive)
REMARK    1  A    between atoms: C7_7  and  C8_8 
REMARK    2  A    between atoms: C8_8  and  C9_9 
REMARK    3  A    between atoms: C9_9  and  C10_10 
REMARK    4  A    between atoms: C10_10  and  N1_11 
REMARK    5  A    between atoms: N1_11  and  C11_13 
REMARK    6  A    between atoms: C14_18  and  N3_19 
REMARK    7  A    between atoms: N3_19  and  C15_21 
REMARK    8  A    between atoms: C15_21  and  C16_22 
REMARK    9  A    between atoms: C16_22  and  N4_23 
ROOT
HETATM    1  C1  UNL     1       7.938   0.102  -1.037  1.00  0.00     0.018 C 
HETATM    2  C2  UNL     1       6.757   0.306  -0.908  1.00  0.00    -0.078 C 
HETATM    3  C3  UNL     1       5.354   0.570  -0.743  1.00  0.00     0.017 A 
HETATM    4  C4  UNL     1       4.652   1.062  -1.824  1.00  0.00     0.020 A 
HETATM    5  C5  UNL     1       3.302   1.325  -1.692  1.00  0.00     0.002 A 
HETATM    6  C6  UNL     1       2.675   1.090  -0.479  1.00  0.00     0.007 A 
HETATM    7  C7  UNL     1       3.362   0.603   0.597  1.00  0.00    -0.057 A 
HETATM    8  C17 UNL     1       4.733   0.335   0.466  1.00  0.00     0.027 A 
ENDROOT
BRANCH   7   9
HETATM    9  C8  UNL     1       2.682   0.353   1.867  1.00  0.00     0.040 C 
BRANCH   9  10
HETATM   10  C9  UNL     1       2.155  -1.018   2.075  1.00  0.00     0.024 C 
BRANCH  10  11
HETATM   11  C10 UNL     1       1.122  -1.479   1.091  1.00  0.00     0.121 C 
BRANCH  11  12
HETATM   12  N1  UNL     1      -0.053  -0.671   1.100  1.00  0.00    -0.376 N 
ATOM     13  H1  UNL     1      -0.036   0.181   1.661  1.00  0.00     0.161 HD
BRANCH  12  14
HETATM   14  C11 UNL     1      -1.134  -0.936   0.453  1.00  0.00     0.118 A 
HETATM   15  C12 UNL     1      -1.240  -2.068  -0.328  1.00  0.00     0.066 A 
HETATM   16  C13 UNL     1      -2.415  -2.305  -0.999  1.00  0.00     0.110 A 
HETATM   17  N2  UNL     1      -3.454  -1.439  -0.893  1.00  0.00    -0.202 N 
HETATM   18  C14 UNL     1      -3.332  -0.341  -0.126  1.00  0.00     0.679 A 
ATOM     19  H2  UNL     1      -4.324  -1.620  -1.393  1.00  0.00     0.183 HD
HETATM   20  N5  UNL     1      -2.186  -0.102   0.532  1.00  0.00    -0.177 N 
ATOM     21  H5  UNL     1      -2.111   0.736   1.108  1.00  0.00     0.185 HD
BRANCH  18  22
HETATM   22  N3  UNL     1      -4.304   0.512   0.000  1.00  0.00    -0.224 N 
ATOM     23  H3  UNL     1      -4.196   1.341   0.584  1.00  0.00     0.177 HD
BRANCH  22  24
HETATM   24  C15 UNL     1      -5.541   0.263  -0.704  1.00  0.00     0.165 C 
BRANCH  24  25
HETATM   25  C16 UNL     1      -6.445   1.457  -0.437  1.00  0.00     0.249 C 
BRANCH  25  26
HETATM   26  N4  UNL     1      -5.758   2.642  -0.946  1.00  0.00    -0.078 N 
ATOM     27  H43 UNL     1      -4.821   2.757  -0.561  1.00  0.00     0.274 HD
ATOM     28  H42 UNL     1      -5.488   2.557  -1.926  1.00  0.00     0.274 HD
ATOM     29  H41 UNL     1      -6.364   3.443  -0.767  1.00  0.00     0.274 HD
ENDBRANCH  25  26
ENDBRANCH  24  25
ENDBRANCH  22  24
ENDBRANCH  18  22
ENDBRANCH  12  14
ENDBRANCH  11  12
ENDBRANCH  10  11
ENDBRANCH   9  10
ENDBRANCH   7   9
TORSDOF 9
