REMARK  7 active torsions:
REMARK  status: ('A' for Active; 'I' for Inactive)
REMARK    1  A    between atoms: O1_2  and  C2_3 
REMARK    2  A    between atoms: C2_3  and  C3_7 
REMARK    3  A    between atoms: C8_15  and  C9_16 
REMARK    4  A    between atoms: C9_16  and  C10_17 
REMARK    5  A    between atoms: C10_17  and  O4_18 
REMARK    6  A    between atoms: O4_18  and  C11_19 
REMARK    7  A    between atoms: C14_22  and  C16_24 
ROOT
HETATM    1  C3  UNL     1      -2.263  -0.973  -0.391  1.00  0.00     0.237 C 
HETATM    2  N2  UNL     1      -0.965  -1.000   0.203  1.00  0.00    -0.289 N 
HETATM    3  C4  UNL     1      -0.850  -2.357   0.624  1.00  0.00     0.366 C 
HETATM    4  O2  UNL     1      -0.060  -2.962   1.389  1.00  0.00    -0.238 OA
HETATM    5  O3  UNL     1      -1.881  -3.107   0.004  1.00  0.00    -0.289 OA
HETATM    6  C5  UNL     1      -2.261  -2.273  -1.109  1.00  0.00     0.113 C 
HETATM    7  C6  UNL     1      -3.580  -2.707  -1.679  1.00  0.00     0.050 C 
HETATM    8  C7  UNL     1      -1.201  -2.473  -2.128  1.00  0.00     0.050 C 
HETATM    9  C8  UNL     1      -0.001   0.073   0.362  1.00  0.00     0.109 C 
HETATM   10  C14 UNL     1      -0.279   1.344  -0.289  1.00  0.00     0.034 C 
HETATM   11  C15 UNL     1       0.280   1.551  -1.669  1.00  0.00     0.025 C 
HETATM   12  C19 UNL     1      -1.770   1.728  -0.440  1.00  0.00     0.161 C 
HETATM   13  S1  UNL     1      -2.658   0.449  -1.277  1.00  0.00     0.183 S 
HETATM   14  O5  UNL     1      -2.471   0.408  -2.741  1.00  0.00    -0.225 OA
HETATM   15  O6  UNL     1      -4.157   0.731  -1.068  1.00  0.00    -0.225 OA
ENDROOT
BRANCH  10  16
HETATM   16  C16 UNL     1       0.178   2.475   0.620  1.00  0.00     0.053 A 
HETATM   17  C17 UNL     1      -0.155   2.557   1.967  1.00  0.00     0.132 A 
HETATM   18  N3  UNL     1       0.363   3.663   2.509  1.00  0.00    -0.200 N 
HETATM   19  C18 UNL     1       1.038   4.304   1.505  1.00  0.00     0.675 A 
ATOM     20  H3  UNL     1       0.273   3.969   3.478  1.00  0.00     0.183 HD
HETATM   21  N4  UNL     1       1.646   5.362   1.541  1.00  0.00    -0.234 N 
HETATM   22  N5  UNL     1       0.900   3.544   0.366  1.00  0.00    -0.194 N 
ATOM     23  H42 UNL     1       1.748   5.925   2.385  1.00  0.00     0.174 HD
ATOM     24  H41 UNL     1       2.149   5.840   0.793  1.00  0.00     0.174 HD
ATOM     25  H5  UNL     1       1.300   3.776  -0.543  1.00  0.00     0.184 HD
ENDBRANCH  10  16
BRANCH   9  26
HETATM   26  C9  UNL     1       1.325  -0.498   0.100  1.00  0.00     0.053 C 
BRANCH  26  27
HETATM   27  C10 UNL     1       2.592   0.309   0.197  1.00  0.00     0.170 C 
BRANCH  27  28
HETATM   28  O4  UNL     1       3.644  -0.503  -0.110  1.00  0.00    -0.387 OA
BRANCH  28  29
HETATM   29  C11 UNL     1       4.919  -0.224  -0.038  1.00  0.00     0.113 C 
HETATM   30  C12 UNL     1       5.723  -0.392  -1.314  1.00  0.00     0.039 C 
HETATM   31  C13 UNL     1       5.542  -1.255   0.945  1.00  0.00     0.039 C 
ENDBRANCH  28  29
ENDBRANCH  27  28
ENDBRANCH  26  27
ENDBRANCH   9  26
BRANCH   1  32
HETATM   32  C2  UNL     1      -3.253  -1.111   0.739  1.00  0.00     0.159 C 
HETATM   33  N1  UNL     1      -2.856  -1.265   1.940  1.00  0.00    -0.380 N 
ATOM     34  H12 UNL     1      -3.525  -1.358   2.704  1.00  0.00     0.158 HD
ATOM     35  H11 UNL     1      -1.849  -1.289   2.101  1.00  0.00     0.158 HD
BRANCH  32  36
HETATM   36  O1  UNL     1      -4.623  -1.079   0.520  1.00  0.00    -0.342 OA
HETATM   37  C1  UNL     1      -5.556  -1.490   1.502  1.00  0.00     0.211 C 
ENDBRANCH  32  36
ENDBRANCH   1  32
TORSDOF 7
