REMARK  7 active torsions:
REMARK  status: ('A' for Active; 'I' for Inactive)
REMARK    1  A    between atoms: S1_2  and  C2_3 
REMARK    2  A    between atoms: C4_8  and  C5_9 
REMARK    3  A    between atoms: C5_9  and  C6_13 
REMARK    4  A    between atoms: C6_13  and  N3_14 
REMARK    5  A    between atoms: C8_16  and  C9_17 
REMARK       I    between atoms: C9_17  and  N4_19 
REMARK    6  A    between atoms: C13_27  and  N6_28 
REMARK       I    between atoms: N6_28  and  C14_30 
REMARK    7  A    between atoms: C14_30  and  C15_32 
ROOT
HETATM    1  C2  UNL     1      -3.385   2.207   2.751  1.00  0.00     0.148 A 
HETATM    2  N1  UNL     1      -2.214   2.503   3.297  1.00  0.00    -0.303 N 
ATOM      3  H1  UNL     1      -2.178   3.067   4.146  1.00  0.00     0.171 HD
HETATM    4  C3  UNL     1      -1.054   2.056   2.727  1.00  0.00     0.263 A 
HETATM    5  O1  UNL     1       0.005   2.365   3.286  1.00  0.00    -0.267 OA
HETATM    6  C4  UNL     1      -1.046   1.286   1.574  1.00  0.00     0.100 A 
HETATM    7  C13 UNL     1      -2.276   0.982   1.018  1.00  0.00     0.127 A 
HETATM    8  N7  UNL     1      -3.395   1.468   1.646  1.00  0.00    -0.322 N 
ATOM      9  H7  UNL     1      -4.302   1.246   1.235  1.00  0.00     0.169 HD
ENDROOT
BRANCH   6  10
HETATM   10  C5  UNL     1       0.210   0.888   0.957  1.00  0.00     0.041 C 
HETATM   11  N2  UNL     1       0.275   0.198  -0.088  1.00  0.00    -0.400 N 
ATOM     12  H22 UNL     1      -0.614  -0.094  -0.493  1.00  0.00     0.156 HD
ATOM     13  H21 UNL     1       1.156  -0.081  -0.521  1.00  0.00     0.156 HD
BRANCH  10  14
HETATM   14  C6  UNL     1       1.526   1.320   1.557  1.00  0.00     0.188 C 
BRANCH  14  15
HETATM   15  N3  UNL     1       2.661   0.821   0.719  1.00  0.00    -0.331 N 
HETATM   16  C7  UNL     1       3.248  -0.317   0.972  1.00  0.00     0.118 A 
HETATM   17  C8  UNL     1       4.291  -0.690   0.170  1.00  0.00     0.091 A 
HETATM   18  S2  UNL     1       4.384   0.623  -0.925  1.00  0.00    -0.047 SA
HETATM   19  C12 UNL     1       3.105   1.553  -0.299  1.00  0.00     0.145 A 
HETATM   20  N5  UNL     1       2.630   2.717  -0.695  1.00  0.00    -0.379 N 
ATOM     21  H52 UNL     1       1.863   3.275  -0.320  1.00  0.00     0.158 HD
ATOM     22  H51 UNL     1       2.970   3.278  -1.476  1.00  0.00     0.158 HD
BRANCH  17  23
HETATM   23  C9  UNL     1       5.111  -1.914   0.242  1.00  0.00     0.261 C 
HETATM   24  O2  UNL     1       4.799  -2.722   1.170  1.00  0.00    -0.267 OA
HETATM   25  N4  UNL     1       6.168  -2.190  -0.637  1.00  0.00    -0.356 N 
HETATM   26  C10 UNL     1       6.524  -1.284  -1.695  1.00  0.00     0.152 C 
HETATM   27  C11 UNL     1       6.915  -3.417  -0.469  1.00  0.00     0.152 C 
ENDBRANCH  17  23
ENDBRANCH  14  15
ENDBRANCH  10  14
ENDBRANCH   6  10
BRANCH   7  28
HETATM   28  N6  UNL     1      -2.412   0.115  -0.074  1.00  0.00    -0.311 N 
HETATM   29  C14 UNL     1      -3.624  -0.173  -0.772  1.00  0.00     0.230 C 
HETATM   30  O3  UNL     1      -4.728   0.360  -0.586  1.00  0.00    -0.272 OA
ATOM     31  H6  UNL     1      -1.567  -0.354  -0.401  1.00  0.00     0.170 HD
BRANCH  29  32
HETATM   32  C15 UNL     1      -3.618  -1.224  -1.849  1.00  0.00     0.030 C 
HETATM   33  C16 UNL     1      -4.878  -1.167  -2.625  1.00  0.00     0.025 C 
HETATM   34  C17 UNL     1      -2.373  -1.234  -2.663  1.00  0.00     0.025 C 
HETATM   35  C18 UNL     1      -3.621  -2.549  -1.058  1.00  0.00     0.025 C 
ENDBRANCH  29  32
ENDBRANCH   7  28
BRANCH   1  36
HETATM   36  S1  UNL     1      -4.899   2.804   3.508  1.00  0.00    -0.098 SA
HETATM   37  C1  UNL     1      -5.327   4.451   2.870  1.00  0.00     0.099 C 
ENDBRANCH   1  36
TORSDOF 7
