REMARK  11 active torsions:
REMARK  status: ('A' for Active; 'I' for Inactive)
REMARK    1  A    between atoms: C2_2  and  C3_3 
REMARK    2  A    between atoms: C3_3  and  O1_4 
REMARK    3  A    between atoms: O1_4  and  C4_5 
REMARK    4  A    between atoms: C8_10  and  O3_11 
REMARK    5  A    between atoms: O3_11  and  C9_12 
REMARK    6  A    between atoms: C9_12  and  C10_14 
REMARK    7  A    between atoms: C11_15  and  C13_17 
REMARK    8  A    between atoms: C17_21  and  O5_22 
REMARK    9  A    between atoms: C18_24  and  O6_25 
REMARK   10  A    between atoms: C18_24  and  O7_27 
REMARK   11  A    between atoms: C23_33  and  O8_35 
ROOT
HETATM    1  C4  UNL     1      -1.239   1.817  -1.279  1.00  0.00     0.158 C 
HETATM    2  C5  UNL     1      -0.030   0.964  -1.387  1.00  0.00     0.067 C 
HETATM    3  C6  UNL     1      -0.237  -0.380  -2.038  1.00  0.00     0.133 C 
HETATM    4  O2  UNL     1       0.881  -1.148  -1.793  1.00  0.00    -0.377 OA
HETATM    5  C7  UNL     1       0.533  -2.276  -1.133  1.00  0.00     0.162 C 
HETATM    6  C8  UNL     1       1.551  -2.770  -0.130  1.00  0.00     0.164 C 
HETATM    7  C16 UNL     1       1.000  -3.943   0.566  1.00  0.00     0.072 C 
HETATM    8  C17 UNL     1      -0.398  -3.913   1.045  1.00  0.00     0.183 C 
HETATM    9  C18 UNL     1      -1.319  -2.902   0.428  1.00  0.00     0.193 C 
HETATM   10  C19 UNL     1      -0.666  -1.843  -0.339  1.00  0.00     0.093 C 
HETATM   11  C20 UNL     1      -1.422  -1.144  -1.418  1.00  0.00    -0.004 C 
HETATM   12  C21 UNL     1      -1.949  -2.032  -2.504  1.00  0.00     0.018 C 
HETATM   13  C22 UNL     1      -2.489  -0.229  -0.931  1.00  0.00     0.052 C 
HETATM   14  C23 UNL     1      -2.515   1.107  -1.659  1.00  0.00     0.081 C 
HETATM   15  C24 UNL     1      -3.744   1.848  -1.179  1.00  0.00     0.049 C 
ENDROOT
BRANCH   6  16
HETATM   16  O3  UNL     1       2.110  -1.752   0.632  1.00  0.00    -0.310 OA
BRANCH  16  17
HETATM   17  C9  UNL     1       3.372  -1.261   0.619  1.00  0.00     0.283 C 
HETATM   18  O4  UNL     1       4.076  -1.882  -0.240  1.00  0.00    -0.260 OA
BRANCH  17  19
HETATM   19  C10 UNL     1       4.001  -0.222   1.368  1.00  0.00     0.085 C 
HETATM   20  C11 UNL     1       3.556   0.569   2.287  1.00  0.00    -0.075 C 
HETATM   21  C12 UNL     1       4.460   1.575   2.901  1.00  0.00     0.044 C 
BRANCH  20  22
HETATM   22  C13 UNL     1       2.181   0.544   2.781  1.00  0.00     0.006 C 
HETATM   23  C14 UNL     1       2.110   0.225   4.270  1.00  0.00     0.014 C 
HETATM   24  C15 UNL     1       1.508   1.911   2.533  1.00  0.00     0.014 C 
ENDBRANCH  20  22
ENDBRANCH  17  19
ENDBRANCH  16  17
ENDBRANCH   6  16
BRANCH   8  25
HETATM   25  O5  UNL     1      -1.037  -5.162   0.907  1.00  0.00    -0.390 OA
ATOM     26  H5  UNL     1      -1.936  -5.143   1.215  1.00  0.00     0.210 HD
ENDBRANCH   8  25
BRANCH   9  27
HETATM   27  O6  UNL     1      -2.374  -3.516  -0.305  1.00  0.00    -0.363 OA
ATOM     28  H6  UNL     1      -2.957  -2.876  -0.696  1.00  0.00     0.213 HD
ENDBRANCH   9  27
BRANCH   9  29
HETATM   29  O7  UNL     1      -2.030  -2.290   1.493  1.00  0.00    -0.363 OA
ATOM     30  H7  UNL     1      -2.613  -1.650   1.102  1.00  0.00     0.213 HD
ENDBRANCH   9  29
BRANCH   1  31
HETATM   31  O1  UNL     1      -1.150   3.022  -1.960  1.00  0.00    -0.379 OA
BRANCH  31  32
HETATM   32  C3  UNL     1      -1.236   4.115  -1.093  1.00  0.00     0.195 C 
BRANCH  32  33
HETATM   33  C2  UNL     1      -1.128   5.397  -1.843  1.00  0.00    -0.011 C 
HETATM   34  C1  UNL     1      -0.974   5.358  -3.149  1.00  0.00     0.009 C 
ENDBRANCH  32  33
ENDBRANCH  31  32
ENDBRANCH   1  31
BRANCH  14  35
HETATM   35  O8  UNL     1      -2.647   0.944  -3.031  1.00  0.00    -0.388 OA
ATOM     36  H8  UNL     1      -3.450   0.497  -3.270  1.00  0.00     0.210 HD
ENDBRANCH  14  35
TORSDOF 11
