REMARK  10 active torsions:
REMARK  status: ('A' for Active; 'I' for Inactive)
REMARK    1  A    between atoms: C5_5  and  O1_6 
REMARK    2  A    between atoms: C9_11  and  C10_12 
REMARK    3  A    between atoms: C10_12  and  O2_13 
REMARK    4  A    between atoms: C10_12  and  C11_15 
REMARK    5  A    between atoms: C11_15  and  O3_16 
REMARK    6  A    between atoms: C12_18  and  C13_19 
REMARK    7  A    between atoms: C19_27  and  C20_28 
REMARK    8  A    between atoms: C21_29  and  C22_30 
REMARK    9  A    between atoms: C22_30  and  C23_31 
REMARK   10  A    between atoms: C23_31  and  C24_33 
ROOT
HETATM    1  C11 UNL     1      -0.086  -1.222  -1.081  1.00  0.00     0.123 C 
HETATM    2  C12 UNL     1      -0.336  -2.680  -0.969  1.00  0.00     0.026 C 
HETATM    3  C15 UNL     1       0.770  -3.441  -1.742  1.00  0.00     0.210 C 
HETATM    4  O5  UNL     1       1.726  -2.656  -2.277  1.00  0.00    -0.376 OA
HETATM    5  C16 UNL     1       2.287  -1.698  -1.515  1.00  0.00     0.064 C 
HETATM    6  C17 UNL     1       3.200  -2.359  -0.497  1.00  0.00     0.046 C 
HETATM    7  C18 UNL     1       3.243  -0.910  -2.431  1.00  0.00     0.046 C 
HETATM    8  C19 UNL     1       1.298  -0.723  -0.840  1.00  0.00     0.083 C 
ENDROOT
BRANCH   1   9
HETATM    9  C10 UNL     1      -1.225  -0.262  -1.097  1.00  0.00     0.166 C 
BRANCH   9  10
HETATM   10  C9  UNL     1      -1.732   0.465   0.035  1.00  0.00     0.056 C 
HETATM   11  C2  UNL     1      -2.371  -0.165   1.199  1.00  0.00    -0.082 C 
HETATM   12  C1  UNL     1      -3.247  -1.123   1.266  1.00  0.00     0.015 C 
HETATM   13  C3  UNL     1      -2.001   0.462   2.544  1.00  0.00     0.036 C 
HETATM   14  C4  UNL     1      -2.233   1.955   2.257  1.00  0.00     0.037 C 
HETATM   15  C5  UNL     1      -3.213   2.109   1.153  1.00  0.00     0.127 C 
HETATM   16  C6  UNL     1      -2.693   1.640  -0.223  1.00  0.00    -0.012 C 
HETATM   17  C7  UNL     1      -2.045   2.858  -0.796  1.00  0.00     0.018 C 
HETATM   18  C8  UNL     1      -3.885   1.268  -1.021  1.00  0.00     0.018 C 
BRANCH  15  19
HETATM   19  O1  UNL     1      -4.482   1.615   1.429  1.00  0.00    -0.395 OA
ATOM     20  H1  UNL     1      -5.109   1.714   0.722  1.00  0.00     0.210 HD
ENDBRANCH  15  19
ENDBRANCH   9  10
BRANCH   9  21
HETATM   21  O2  UNL     1      -0.770   0.816  -1.988  1.00  0.00    -0.391 OA
ATOM     22  H2  UNL     1      -0.435   0.336  -2.736  1.00  0.00     0.210 HD
ENDBRANCH   9  21
ENDBRANCH   1   9
BRANCH   1  23
HETATM   23  O3  UNL     1       0.033  -1.255  -2.591  1.00  0.00    -0.382 OA
ATOM     24  H3  UNL     1       0.759  -1.867  -2.581  1.00  0.00     0.211 HD
ENDBRANCH   1  23
BRANCH   2  25
HETATM   25  C13 UNL     1      -0.691  -3.427   0.191  1.00  0.00     0.153 C 
HETATM   26  C14 UNL     1      -0.072  -3.578   1.519  1.00  0.00     0.096 C 
HETATM   27  O4  UNL     1      -1.736  -4.140   0.173  1.00  0.00    -0.293 OA
ENDBRANCH   2  25
BRANCH   8  28
HETATM   28  C20 UNL     1       1.805  -0.532   0.496  1.00  0.00    -0.019 C 
HETATM   29  C21 UNL     1       2.205   0.606   0.989  1.00  0.00    -0.022 C 
BRANCH  29  30
HETATM   30  C22 UNL     1       2.255   1.934   0.363  1.00  0.00     0.117 C 
BRANCH  30  31
HETATM   31  C23 UNL     1       3.679   2.406   0.390  1.00  0.00     0.228 C 
HETATM   32  O6  UNL     1       4.501   1.945  -0.427  1.00  0.00    -0.285 OA
BRANCH  31  33
HETATM   33  C24 UNL     1       4.092   3.387   1.357  1.00  0.00     0.247 C 
HETATM   34  O7  UNL     1       3.269   3.849   2.179  1.00  0.00    -0.642 OA
HETATM   35  O8  UNL     1       5.398   3.844   1.407  1.00  0.00    -0.642 OA
ENDBRANCH  31  33
ENDBRANCH  30  31
ENDBRANCH  29  30
ENDBRANCH   8  28
TORSDOF 10
