REMARK  7 active torsions:
REMARK  status: ('A' for Active; 'I' for Inactive)
REMARK    1  A    between atoms: N1_1  and  C1_5 
REMARK    2  A    between atoms: C1_5  and  C2_6 
REMARK    3  A    between atoms: C2_6  and  C3_7 
REMARK    4  A    between atoms: N2_9  and  C5_10 
REMARK    5  A    between atoms: C5_10  and  C6_11 
REMARK    6  A    between atoms: C7_12  and  C8_13 
REMARK    7  A    between atoms: C8_13  and  N3_14 
ROOT
HETATM    1  C3  UNL     1       3.317   0.827   0.207  1.00  0.00    -0.017 A 
HETATM    2  C4  UNL     1       2.044   0.306   0.206  1.00  0.00     0.099 A 
HETATM    3  N2  UNL     1       1.499  -0.236   1.326  1.00  0.00    -0.362 N 
HETATM    4  C14 UNL     1       2.213  -0.269   2.464  1.00  0.00     0.092 A 
HETATM    5  C15 UNL     1       3.505   0.236   2.545  1.00  0.00     0.044 A 
HETATM    6  C16 UNL     1       4.023   0.777   1.389  1.00  0.00     0.055 A 
HETATM    7  N5  UNL     1       5.365   1.300   1.476  1.00  0.00    -0.102 NA
ENDROOT
BRANCH   3   8
HETATM    8  C5  UNL     1       0.154  -0.779   1.305  1.00  0.00     0.154 C 
BRANCH   8   9
HETATM    9  C6  UNL     1      -0.865   0.226   1.644  1.00  0.00    -0.009 C 
HETATM   10  C7  UNL     1      -1.862   0.626   0.887  1.00  0.00    -0.009 C 
BRANCH  10  11
HETATM   11  C8  UNL     1      -2.174   0.153  -0.464  1.00  0.00     0.154 C 
BRANCH  11  12
HETATM   12  N3  UNL     1      -3.517  -0.446  -0.506  1.00  0.00    -0.361 N 
HETATM   13  C9  UNL     1      -3.664  -1.748  -0.267  1.00  0.00     0.091 A 
HETATM   14  C10 UNL     1      -4.898  -2.337  -0.298  1.00  0.00     0.019 A 
HETATM   15  C11 UNL     1      -5.998  -1.560  -0.582  1.00  0.00     0.029 A 
HETATM   16  C12 UNL     1      -5.843  -0.211  -0.829  1.00  0.00     0.061 A 
HETATM   17  N4  UNL     1      -6.949   0.624  -1.125  1.00  0.00    -0.101 NA
HETATM   18  C13 UNL     1      -4.585   0.323  -0.784  1.00  0.00     0.117 A 
ENDBRANCH  11  12
ENDBRANCH  10  11
ENDBRANCH   8   9
ENDBRANCH   3   8
BRANCH   1  19
HETATM   19  C2  UNL     1       3.867   1.401  -1.021  1.00  0.00     0.069 C 
BRANCH  19  20
HETATM   20  C1  UNL     1       4.865   0.517  -1.711  1.00  0.00     0.234 C 
BRANCH  20  21
HETATM   21  N1  UNL     1       4.329  -0.748  -2.105  1.00  0.00    -0.079 N 
ATOM     22  H13 UNL     1       3.912  -1.228  -1.307  1.00  0.00     0.274 HD
ATOM     23  H12 UNL     1       3.497  -0.624  -2.682  1.00  0.00     0.274 HD
ATOM     24  H11 UNL     1       5.007  -1.349  -2.574  1.00  0.00     0.274 HD
ENDBRANCH  20  21
ENDBRANCH  19  20
ENDBRANCH   1  19
TORSDOF 7
