REMARK  8 active torsions:
REMARK  status: ('A' for Active; 'I' for Inactive)
REMARK    1  A    between atoms: N1_1  and  C1_5 
REMARK    2  A    between atoms: C1_5  and  C2_6 
REMARK    3  A    between atoms: C2_6  and  C3_7 
REMARK    4  A    between atoms: C3_7  and  N2_8 
REMARK    5  A    between atoms: C6_13  and  S1_14 
REMARK    6  A    between atoms: S1_14  and  C7_16 
REMARK    7  A    between atoms: C11_20  and  C12_21 
REMARK    8  A    between atoms: C12_21  and  O2_22 
ROOT
HETATM    1  N2  UNL     1       1.954  -1.265  -0.170  1.00  0.00    -0.334 N 
HETATM    2  C4  UNL     1       2.245  -2.467   0.397  1.00  0.00     0.110 A 
HETATM    3  C5  UNL     1       1.098  -2.876   1.028  1.00  0.00     0.107 A 
HETATM    4  N3  UNL     1       0.141  -1.952   0.851  1.00  0.00    -0.343 N 
ATOM      5  H3  UNL     1      -0.813  -1.991   1.210  1.00  0.00     0.167 HD
HETATM    6  C6  UNL     1       0.679  -0.961   0.109  1.00  0.00     0.181 A 
ENDROOT
BRANCH   6   7
HETATM    7  S1  UNL     1      -0.163   0.492  -0.403  1.00  0.00     0.119 S 
HETATM    8  O1  UNL     1       0.068   1.649   0.793  1.00  0.00    -0.244 OA
BRANCH   7   9
HETATM    9  C7  UNL     1      -1.861   0.228  -0.581  1.00  0.00     0.040 A 
HETATM   10  C8  UNL     1      -2.460  -0.180  -1.755  1.00  0.00     0.021 A 
HETATM   11  C9  UNL     1      -3.824  -0.365  -1.801  1.00  0.00     0.002 A 
HETATM   12  C10 UNL     1      -4.639  -0.159  -0.707  1.00  0.00     0.009 A 
HETATM   13  C11 UNL     1      -4.044   0.251   0.478  1.00  0.00    -0.034 A 
HETATM   14  C13 UNL     1      -2.680   0.433   0.511  1.00  0.00     0.030 A 
BRANCH  13  15
HETATM   15  C12 UNL     1      -4.867   0.492   1.696  1.00  0.00     0.202 C 
BRANCH  15  16
HETATM   16  O2  UNL     1      -5.253   1.839   1.666  1.00  0.00    -0.396 OA
ATOM     17  H2  UNL     1      -5.778   1.993   2.443  1.00  0.00     0.209 HD
ENDBRANCH  15  16
ENDBRANCH  13  15
ENDBRANCH   7   9
ENDBRANCH   6   7
BRANCH   1  18
HETATM   18  C3  UNL     1       2.826  -0.427  -0.944  1.00  0.00     0.132 C 
BRANCH  18  19
HETATM   19  C2  UNL     1       3.600   0.564  -0.142  1.00  0.00     0.047 C 
BRANCH  19  20
HETATM   20  C1  UNL     1       4.463   1.356  -1.133  1.00  0.00     0.231 C 
BRANCH  20  21
HETATM   21  N1  UNL     1       5.261   2.353  -0.462  1.00  0.00    -0.079 N 
ATOM     22  H13 UNL     1       4.683   2.972   0.107  1.00  0.00     0.274 HD
ATOM     23  H12 UNL     1       5.828   1.940   0.279  1.00  0.00     0.274 HD
ATOM     24  H11 UNL     1       5.835   2.880  -1.121  1.00  0.00     0.274 HD
ENDBRANCH  20  21
ENDBRANCH  19  20
ENDBRANCH  18  19
ENDBRANCH   1  18
TORSDOF 8
