REMARK  6 active torsions:
REMARK  status: ('A' for Active; 'I' for Inactive)
REMARK    1  A    between atoms: C6_6  and  C7_7 
REMARK    2  A    between atoms: C7_7  and  C8_8 
REMARK    3  A    between atoms: C8_8  and  C9_9 
REMARK    4  A    between atoms: C9_9  and  C10_10 
REMARK    5  A    between atoms: C10_10  and  C11_11 
REMARK    6  A    between atoms: C11_11  and  C12_12 
ROOT
HETATM    1  C9  UNL     1      -0.540   0.392   0.073  1.00  0.00     0.004 C 
ENDROOT
BRANCH   1   2
HETATM    2  C8  UNL     1       0.056  -0.028   1.368  1.00  0.00     0.005 C 
BRANCH   2   3
HETATM    3  C7  UNL     1       1.318   0.797   1.653  1.00  0.00     0.041 C 
BRANCH   3   4
HETATM    4  C6  UNL     1       2.366   0.670   0.631  1.00  0.00    -0.031 A 
HETATM    5  C5  UNL     1       2.688   1.768  -0.094  1.00  0.00     0.009 A 
HETATM    6  C4  UNL     1       3.703   1.773  -1.127  1.00  0.00     0.002 A 
HETATM    7  C3  UNL     1       4.385   0.676  -1.419  1.00  0.00     0.013 A 
HETATM    8  C2  UNL     1       4.123  -0.558  -0.698  1.00  0.00    -0.019 A 
HETATM    9  C1  UNL     1       4.772  -1.680  -0.945  1.00  0.00     0.026 C 
HETATM   10  C15 UNL     1       3.084  -0.568   0.362  1.00  0.00     0.041 A 
HETATM   11  N3  UNL     1       2.941  -1.666   0.981  1.00  0.00    -0.398 N 
ATOM     12  H32 UNL     1       3.444  -2.533   0.793  1.00  0.00     0.156 HD
ATOM     13  H31 UNL     1       2.227  -1.673   1.709  1.00  0.00     0.156 HD
ENDBRANCH   3   4
ENDBRANCH   2   3
ENDBRANCH   1   2
BRANCH   1  14
HETATM   14  C10 UNL     1      -1.716  -0.283  -0.460  1.00  0.00     0.049 C 
BRANCH  14  15
HETATM   15  C11 UNL     1      -3.013  -0.320   0.235  1.00  0.00     0.169 C 
HETATM   16  N1  UNL     1      -3.957  -1.032  -0.677  1.00  0.00    -0.319 N 
HETATM   17  C13 UNL     1      -5.250  -0.548  -0.345  1.00  0.00     0.324 C 
ATOM     18  H1  UNL     1      -3.722  -1.722  -1.390  1.00  0.00     0.166 HD
HETATM   19  O2  UNL     1      -6.320  -1.180  -0.541  1.00  0.00    -0.247 OA
HETATM   20  N2  UNL     1      -5.061   0.751   0.232  1.00  0.00    -0.277 N 
HETATM   21  C14 UNL     1      -3.670   1.048   0.248  1.00  0.00     0.261 C 
ATOM     22  H2  UNL     1      -5.802   1.362   0.575  1.00  0.00     0.173 HD
HETATM   23  O3  UNL     1      -3.133   2.176   0.269  1.00  0.00    -0.270 OA
BRANCH  15  24
HETATM   24  C12 UNL     1      -3.116  -0.958   1.541  1.00  0.00     0.272 C 
HETATM   25  O1  UNL     1      -3.854  -1.963   1.673  1.00  0.00    -0.304 OA
ENDBRANCH  15  24
ENDBRANCH  14  15
ENDBRANCH   1  14
TORSDOF 6
