REMARK  6 active torsions:
REMARK  status: ('A' for Active; 'I' for Inactive)
REMARK    1  A    between atoms: S1_2  and  N1_4 
REMARK    2  A    between atoms: S1_2  and  N3_13 
REMARK    3  A    between atoms: N3_13  and  C6_15 
REMARK    4  A    between atoms: C6_15  and  C7_16 
REMARK    5  A    between atoms: C7_16  and  C8_17 
REMARK    6  A    between atoms: C8_17  and  C9_18 
ROOT
HETATM    1  O1  UNL     1       0.211   0.960  -0.974  1.00  0.00    -0.182 OA
HETATM    2  S1  UNL     1       1.033  -0.253  -1.284  1.00  0.00     0.320 S 
HETATM    3  O2  UNL     1       1.635  -0.162  -2.669  1.00  0.00    -0.182 OA
ENDROOT
BRANCH   2   4
HETATM    4  N1  UNL     1       2.292  -0.478  -0.163  1.00  0.00    -0.253 N 
HETATM    5  C1  UNL     1       3.188   0.435  -0.036  1.00  0.00     0.115 A 
HETATM    6  C2  UNL     1       3.237   1.602  -0.728  1.00  0.00     0.049 A 
HETATM    7  N2  UNL     1       4.177   0.216   0.871  1.00  0.00    -0.352 N 
HETATM    8  C3  UNL     1       4.224   2.554  -0.555  1.00  0.00     0.005 A 
HETATM    9  C4  UNL     1       5.208   2.298   0.372  1.00  0.00     0.017 A 
HETATM   10  C5  UNL     1       5.157   1.113   1.073  1.00  0.00     0.089 A 
ATOM     11  H2  UNL     1       4.175  -0.649   1.411  1.00  0.00     0.166 HD
ATOM     12  H1  UNL     1       2.336  -1.327   0.401  1.00  0.00     0.182 HD
ENDBRANCH   2   4
BRANCH   2  13
HETATM   13  N3  UNL     1      -0.035  -1.637  -1.340  1.00  0.00    -0.303 N 
ATOM     14  H3  UNL     1       0.041  -2.459  -1.939  1.00  0.00     0.173 HD
BRANCH  13  15
HETATM   15  C6  UNL     1      -1.058  -1.353  -0.340  1.00  0.00     0.134 C 
BRANCH  15  16
HETATM   16  C7  UNL     1      -2.080  -2.423  -0.226  1.00  0.00     0.026 C 
BRANCH  16  17
HETATM   17  C8  UNL     1      -3.079  -2.046   0.835  1.00  0.00     0.060 C 
BRANCH  17  18
HETATM   18  C9  UNL     1      -3.782  -0.783   0.540  1.00  0.00     0.025 A 
HETATM   19  C10 UNL     1      -3.425   0.505   0.916  1.00  0.00     0.113 A 
HETATM   20  N4  UNL     1      -4.332   1.378   0.446  1.00  0.00    -0.360 N 
HETATM   21  C11 UNL     1      -5.271   0.679  -0.228  1.00  0.00     0.180 A 
ATOM     22  H4  UNL     1      -4.315   2.390   0.575  1.00  0.00     0.166 HD
HETATM   23  N5  UNL     1      -4.922  -0.618  -0.160  1.00  0.00    -0.355 N 
ATOM     24  H5  UNL     1      -5.452  -1.379  -0.584  1.00  0.00     0.166 HD
ENDBRANCH  17  18
ENDBRANCH  16  17
ENDBRANCH  15  16
ENDBRANCH  13  15
ENDBRANCH   2  13
TORSDOF 6
