REMARK  4 active torsions:
REMARK  status: ('A' for Active; 'I' for Inactive)
REMARK    1  A    between atoms: O1_2  and  C2_3 
REMARK    2  A    between atoms: C8_9  and  C10_11 
REMARK    3  A    between atoms: C10_11  and  C11_12 
REMARK    4  A    between atoms: C20_28  and  C21_29 
ROOT
HETATM    1  C2  UNL     1      -2.725  -2.988   0.152  1.00  0.00     0.122 C 
HETATM    2  C3  UNL     1      -1.270  -3.389   0.088  1.00  0.00     0.034 C 
HETATM    3  C4  UNL     1      -0.475  -2.377   0.846  1.00  0.00     0.035 C 
HETATM    4  C5  UNL     1      -0.374  -1.043   0.071  1.00  0.00     0.048 C 
HETATM    5  C6  UNL     1       0.294  -0.096   1.072  1.00  0.00     0.035 C 
HETATM    6  C7  UNL     1       1.122   0.962   0.460  1.00  0.00     0.033 C 
HETATM    7  C8  UNL     1       2.617   0.739   0.452  1.00  0.00     0.034 C 
HETATM    8  C9  UNL     1       3.287   0.944   1.755  1.00  0.00     0.038 C 
HETATM    9  N1  UNL     1       2.803  -0.603  -0.099  1.00  0.00    -0.334 N 
ATOM     10  H1  UNL     1       3.673  -1.062   0.170  1.00  0.00     0.165 HD
HETATM   11  C14 UNL     1       1.960  -1.366  -0.951  1.00  0.00     0.317 C 
HETATM   12  O3  UNL     1       2.560  -2.159  -1.758  1.00  0.00    -0.247 OA
HETATM   13  N2  UNL     1       0.542  -1.345  -1.005  1.00  0.00    -0.333 N 
ATOM     14  H2  UNL     1       0.121  -1.569  -1.907  1.00  0.00     0.165 HD
HETATM   15  C15 UNL     1      -1.747  -0.696  -0.315  1.00  0.00     0.038 C 
HETATM   16  C16 UNL     1      -2.115  -0.863  -1.760  1.00  0.00     0.024 C 
HETATM   17  C17 UNL     1      -1.741   0.465  -2.371  1.00  0.00     0.046 C 
HETATM   18  C18 UNL     1      -2.177   1.395  -1.308  1.00  0.00     0.023 A 
HETATM   19  C19 UNL     1      -2.179   0.716  -0.094  1.00  0.00     0.075 A 
HETATM   20  O4  UNL     1      -2.542   1.428   0.932  1.00  0.00    -0.306 OA
HETATM   21  C20 UNL     1      -2.897   2.679   0.942  1.00  0.00     0.155 A 
HETATM   22  C22 UNL     1      -2.907   3.381  -0.241  1.00  0.00     0.099 A 
HETATM   23  C23 UNL     1      -2.538   2.722  -1.391  1.00  0.00     0.183 A 
HETATM   24  O7  UNL     1      -2.540   3.351  -2.492  1.00  0.00    -0.288 OA
HETATM   25  C24 UNL     1      -2.792  -1.520   0.467  1.00  0.00     0.051 C 
ENDROOT
BRANCH   1  26
HETATM   26  O1  UNL     1      -3.427  -3.347  -0.966  1.00  0.00    -0.391 OA
HETATM   27  C1  UNL     1      -4.437  -4.236  -0.615  1.00  0.00     0.202 C 
ENDBRANCH   1  26
BRANCH   7  28
HETATM   28  C10 UNL     1       3.150   1.679  -0.605  1.00  0.00     0.070 C 
BRANCH  28  29
HETATM   29  C11 UNL     1       4.628   1.644  -0.797  1.00  0.00     0.081 A 
HETATM   30  C12 UNL     1       5.378   0.430  -1.203  1.00  0.00     0.048 C 
HETATM   31  C13 UNL     1       5.432   2.884  -0.393  1.00  0.00     0.206 A 
HETATM   32  O2  UNL     1       4.966   2.767  -1.688  1.00  0.00    -0.375 OA
ENDBRANCH  28  29
ENDBRANCH   7  28
BRANCH  21  33
HETATM   33  C21 UNL     1      -3.287   3.364   2.175  1.00  0.00     0.234 C 
HETATM   34  O5  UNL     1      -3.622   4.563   2.165  1.00  0.00    -0.642 OA
HETATM   35  O6  UNL     1      -3.283   2.671   3.364  1.00  0.00    -0.642 OA
ENDBRANCH  21  33
TORSDOF 4
