REMARK  9 active torsions:
REMARK  status: ('A' for Active; 'I' for Inactive)
REMARK       I    between atoms: C2_2  and  N1_4 
REMARK    1  A    between atoms: N1_4  and  C3_6 
REMARK    2  A    between atoms: C9_12  and  C10_13 
REMARK    3  A    between atoms: C10_13  and  C12_15 
REMARK    4  A    between atoms: C12_15  and  C13_16 
REMARK    5  A    between atoms: C13_16  and  C14_17 
REMARK    6  A    between atoms: C14_17  and  O2_20 
REMARK    7  A    between atoms: C19_24  and  O3_25 
REMARK    8  A    between atoms: O3_25  and  C20_26 
REMARK    9  A    between atoms: C24_32  and  O6_33 
ROOT
HETATM    1  C3  UNL     1      -4.536   1.135  -0.913  1.00  0.00     0.087 C 
HETATM    2  C4  UNL     1      -3.139   1.681  -1.084  1.00  0.00     0.033 C 
HETATM    3  C5  UNL     1      -2.318   0.407  -1.183  1.00  0.00     0.030 C 
HETATM    4  C6  UNL     1      -0.959   0.633  -0.694  1.00  0.00     0.004 C 
HETATM    5  C7  UNL     1      -0.754   1.282   0.620  1.00  0.00     0.006 C 
HETATM    6  C8  UNL     1       0.696   0.905   1.002  1.00  0.00     0.006 C 
HETATM    7  C9  UNL     1       1.112   0.018  -0.117  1.00  0.00     0.000 C 
HETATM    8  C17 UNL     1      -0.140  -0.672  -0.527  1.00  0.00    -0.006 C 
HETATM    9  C18 UNL     1       0.039  -1.277  -1.935  1.00  0.00     0.019 C 
HETATM   10  C19 UNL     1      -0.837  -1.580   0.374  1.00  0.00     0.180 C 
HETATM   11  C22 UNL     1      -2.315  -1.326   0.615  1.00  0.00     0.140 A 
HETATM   12  C23 UNL     1      -2.984  -1.617   1.856  1.00  0.00     0.213 A 
HETATM   13  O5  UNL     1      -2.978  -2.644   0.927  1.00  0.00    -0.369 OA
HETATM   14  C24 UNL     1      -3.059  -0.696  -0.490  1.00  0.00     0.099 C 
HETATM   15  C25 UNL     1      -4.256   0.056   0.124  1.00  0.00     0.066 C 
ENDROOT
BRANCH   7  16
HETATM   16  C10 UNL     1       2.407  -0.642  -0.085  1.00  0.00    -0.014 C 
HETATM   17  C11 UNL     1       2.726  -1.535   1.057  1.00  0.00     0.010 C 
BRANCH  16  18
HETATM   18  C12 UNL     1       3.488   0.425  -0.174  1.00  0.00     0.007 C 
BRANCH  18  19
HETATM   19  C13 UNL     1       4.878  -0.074  -0.179  1.00  0.00     0.037 C 
BRANCH  19  20
HETATM   20  C14 UNL     1       5.782   1.170  -0.290  1.00  0.00     0.051 C 
HETATM   21  C15 UNL     1       7.238   0.749  -0.302  1.00  0.00     0.045 C 
HETATM   22  C16 UNL     1       5.581   2.072   0.908  1.00  0.00     0.045 C 
BRANCH  20  23
HETATM   23  O2  UNL     1       5.460   1.876  -1.434  1.00  0.00    -0.391 OA
ATOM     24  H2  UNL     1       6.017   2.643  -1.502  1.00  0.00     0.210 HD
ENDBRANCH  20  23
ENDBRANCH  19  20
ENDBRANCH  18  19
ENDBRANCH  16  18
ENDBRANCH   7  16
BRANCH  10  25
HETATM   25  O3  UNL     1      -0.700  -2.901  -0.205  1.00  0.00    -0.312 OA
BRANCH  25  26
HETATM   26  C20 UNL     1      -0.242  -3.969   0.496  1.00  0.00     0.255 C 
HETATM   27  C21 UNL     1      -0.083  -5.339  -0.085  1.00  0.00     0.126 C 
HETATM   28  O4  UNL     1       0.074  -3.844   1.688  1.00  0.00    -0.266 OA
ENDBRANCH  25  26
ENDBRANCH  10  25
BRANCH  14  29
HETATM   29  O6  UNL     1      -3.626  -1.606  -1.387  1.00  0.00    -0.386 OA
ATOM     30  H6  UNL     1      -4.096  -2.305  -0.948  1.00  0.00     0.210 HD
ENDBRANCH  14  29
BRANCH   1  31
HETATM   31  N1  UNL     1      -5.453   2.128  -0.471  1.00  0.00    -0.357 N 
HETATM   32  C2  UNL     1      -5.377   2.961   0.652  1.00  0.00     0.213 C 
HETATM   33  C1  UNL     1      -6.438   3.970   0.984  1.00  0.00     0.117 C 
HETATM   34  O1  UNL     1      -4.414   2.908   1.443  1.00  0.00    -0.274 OA
ATOM     35  H1  UNL     1      -6.282   2.251  -1.053  1.00  0.00     0.162 HD
ENDBRANCH   1  31
TORSDOF 9
