REMARK  8 active torsions:
REMARK  status: ('A' for Active; 'I' for Inactive)
REMARK       I    between atoms: C1_2  and  N1_3 
REMARK       I    between atoms: C1_2  and  N7_29 
REMARK    1  A    between atoms: N1_3  and  C2_5 
REMARK    2  A    between atoms: C2_5  and  O2_6 
REMARK    3  A    between atoms: C2_5  and  C3_8 
REMARK    4  A    between atoms: N5_20  and  C8_21 
REMARK    5  A    between atoms: C8_21  and  C9_22 
REMARK    6  A    between atoms: C9_22  and  C10_23 
REMARK    7  A    between atoms: C10_23  and  N6_24 
REMARK    8  A    between atoms: N7_29  and  C15_31 
ROOT
HETATM    1  C3  UNL     1       1.990   0.499  -1.805  1.00  0.00     0.166 A 
HETATM    2  N2  UNL     1       2.577  -0.340  -2.754  1.00  0.00    -0.323 N 
ATOM      3  H2  UNL     1       2.137  -1.168  -3.155  1.00  0.00     0.169 HD
HETATM    4  C4  UNL     1       3.790   0.099  -3.056  1.00  0.00     0.141 A 
HETATM    5  N3  UNL     1       4.722  -0.370  -3.931  1.00  0.00    -0.336 N 
ATOM      6  H3  UNL     1       4.555  -1.211  -4.483  1.00  0.00     0.168 HD
HETATM    7  C5  UNL     1       5.862   0.314  -4.037  1.00  0.00     0.185 A 
HETATM    8  N4  UNL     1       6.101   1.415  -3.326  1.00  0.00    -0.318 N 
ATOM      9  H4  UNL     1       6.989   1.902  -3.446  1.00  0.00     0.169 HD
HETATM   10  C6  UNL     1       5.181   1.911  -2.435  1.00  0.00     0.277 A 
HETATM   11  O3  UNL     1       5.468   2.943  -1.807  1.00  0.00    -0.266 OA
HETATM   12  C7  UNL     1       4.004   1.219  -2.312  1.00  0.00     0.153 A 
HETATM   13  N5  UNL     1       2.885   1.452  -1.544  1.00  0.00    -0.300 N 
ENDROOT
BRANCH   1  14
HETATM   14  C2  UNL     1       0.668   0.197  -1.329  1.00  0.00     0.190 C 
BRANCH  14  15
HETATM   15  N1  UNL     1      -0.193   0.946  -0.537  1.00  0.00    -0.286 N 
HETATM   16  C1  UNL     1      -1.488   0.593  -0.099  1.00  0.00     0.322 C 
HETATM   17  O1  UNL     1      -2.091   1.473   0.634  1.00  0.00    -0.247 OA
HETATM   18  N7  UNL     1      -2.217  -0.581  -0.349  1.00  0.00    -0.338 N 
ATOM     19  H7  UNL     1      -1.810  -1.323  -0.919  1.00  0.00     0.164 HD
ATOM     20  H1  UNL     1       0.151   1.858  -0.237  1.00  0.00     0.172 HD
BRANCH  18  21
HETATM   21  C15 UNL     1      -3.589  -0.744   0.219  1.00  0.00     0.086 C 
HETATM   22  C16 UNL     1      -3.526  -1.991   1.039  1.00  0.00     0.025 C 
HETATM   23  C17 UNL     1      -4.729  -2.341   1.824  1.00  0.00     0.002 C 
HETATM   24  C18 UNL     1      -5.583  -1.237   2.320  1.00  0.00     0.000 C 
HETATM   25  C19 UNL     1      -6.985  -1.242   1.694  1.00  0.00     0.000 C 
HETATM   26  C20 UNL     1      -7.168  -0.070   0.754  1.00  0.00     0.000 C 
HETATM   27  C21 UNL     1      -6.865  -0.458  -0.677  1.00  0.00     0.000 C 
HETATM   28  C22 UNL     1      -5.530   0.080  -1.154  1.00  0.00     0.002 C 
HETATM   29  C23 UNL     1      -4.460  -0.939  -0.983  1.00  0.00     0.025 C 
ENDBRANCH  18  21
ENDBRANCH  14  15
BRANCH  14  30
HETATM   30  O2  UNL     1       0.227  -0.976  -1.721  1.00  0.00    -0.343 OA
ATOM     31  H2  UNL     1       0.816  -1.488  -2.263  1.00  0.00     0.219 HD
ENDBRANCH  14  30
ENDBRANCH   1  14
BRANCH  13  32
HETATM   32  C8  UNL     1       2.758   2.562  -0.691  1.00  0.00     0.074 C 
BRANCH  32  33
HETATM   33  C9  UNL     1       2.947   2.388   0.773  1.00  0.00     0.075 C 
BRANCH  33  34
HETATM   34  C10 UNL     1       4.225   1.827   1.279  1.00  0.00     0.277 C 
BRANCH  34  35
HETATM   35  N6  UNL     1       4.522   0.484   0.878  1.00  0.00     0.088 N 
HETATM   36  C11 UNL     1       5.844   0.157   1.448  1.00  0.00     0.272 C 
HETATM   37  C12 UNL     1       5.885  -1.338   1.207  1.00  0.00     0.032 C 
HETATM   38  C13 UNL     1       4.490  -1.760   1.624  1.00  0.00     0.032 C 
HETATM   39  C14 UNL     1       3.674  -0.487   1.561  1.00  0.00     0.272 C 
ENDBRANCH  34  35
ENDBRANCH  33  34
ENDBRANCH  32  33
ENDBRANCH  13  32
TORSDOF 8
