REMARK  7 active torsions:
REMARK  status: ('A' for Active; 'I' for Inactive)
REMARK    1  A    between atoms: C3_3  and  O1_4 
REMARK    2  A    between atoms: C11_14  and  C13_16 
REMARK    3  A    between atoms: C14_17  and  C15_18 
REMARK    4  A    between atoms: C19_22  and  O3_23 
REMARK    5  A    between atoms: O3_23  and  S1_24 
REMARK    6  A    between atoms: S1_24  and  N1_25 
REMARK    7  A    between atoms: C20_30  and  C22_32 
ROOT
HETATM    1  C15 UNL     1       1.827  -0.851  -0.239  1.00  0.00     0.029 C 
HETATM    2  C16 UNL     1       2.134  -1.823   0.868  1.00  0.00     0.010 C 
HETATM    3  C17 UNL     1       3.651  -2.060   0.799  1.00  0.00     0.003 C 
HETATM    4  C18 UNL     1       4.383  -0.775   0.984  1.00  0.00     0.035 C 
HETATM    5  C19 UNL     1       3.971   0.310   0.023  1.00  0.00     0.163 C 
HETATM    6  C20 UNL     1       2.457   0.471  -0.024  1.00  0.00     0.079 C 
HETATM    7  C21 UNL     1       2.161   1.337  -1.237  1.00  0.00     0.030 C 
ENDROOT
BRANCH   1   8
HETATM    8  C14 UNL     1       0.413  -0.835  -0.643  1.00  0.00    -0.024 C 
HETATM    9  C13 UNL     1      -0.592  -1.368  -0.006  1.00  0.00    -0.018 C 
BRANCH   9  10
HETATM   10  C11 UNL     1      -2.002  -1.324  -0.457  1.00  0.00     0.004 C 
HETATM   11  C4  UNL     1      -2.493   0.035  -0.840  1.00  0.00     0.149 C 
HETATM   12  O2  UNL     1      -3.526  -0.111  -1.756  1.00  0.00    -0.350 OA
HETATM   13  C5  UNL     1      -2.913   0.940   0.229  1.00  0.00     0.011 C 
HETATM   14  C3  UNL     1      -4.393   0.930  -1.609  1.00  0.00     0.288 C 
HETATM   15  C2  UNL     1      -4.044   1.694  -0.407  1.00  0.00    -0.024 C 
HETATM   16  C1  UNL     1      -4.606   2.796   0.013  1.00  0.00     0.020 C 
HETATM   17  C6  UNL     1      -1.859   2.013   0.535  1.00  0.00     0.023 C 
HETATM   18  C7  UNL     1      -3.421   0.349   1.485  1.00  0.00     0.017 C 
HETATM   19  C8  UNL     1      -2.952  -1.027   1.798  1.00  0.00     0.006 C 
HETATM   20  C9  UNL     1      -2.911  -1.932   0.587  1.00  0.00    -0.004 C 
HETATM   21  C10 UNL     1      -2.406  -3.271   1.052  1.00  0.00     0.011 C 
HETATM   22  C12 UNL     1      -2.195  -2.191  -1.714  1.00  0.00     0.022 C 
BRANCH  14  23
HETATM   23  O1  UNL     1      -5.729   0.548  -1.504  1.00  0.00    -0.367 OA
ATOM     24  H1  UNL     1      -5.955   0.053  -2.283  1.00  0.00     0.213 HD
ENDBRANCH  14  23
ENDBRANCH   9  10
ENDBRANCH   1   8
BRANCH   6  25
HETATM   25  C22 UNL     1       2.055   1.202   1.171  1.00  0.00     0.184 C 
HETATM   26  O6  UNL     1       1.250   0.862   2.044  1.00  0.00    -0.647 OA
HETATM   27  O7  UNL     1       2.662   2.463   1.357  1.00  0.00    -0.647 OA
ENDBRANCH   6  25
BRANCH   5  28
HETATM   28  O3  UNL     1       4.470   0.137  -1.242  1.00  0.00    -0.253 OA
BRANCH  28  29
HETATM   29  S1  UNL     1       5.496   1.333  -1.755  1.00  0.00     0.356 S 
HETATM   30  O4  UNL     1       4.922   1.963  -2.992  1.00  0.00    -0.176 OA
HETATM   31  O5  UNL     1       6.857   0.817  -2.118  1.00  0.00    -0.176 OA
BRANCH  29  32
HETATM   32  N1  UNL     1       5.722   2.579  -0.582  1.00  0.00    -0.306 N 
ATOM     33  H12 UNL     1       5.264   2.566   0.329  1.00  0.00     0.171 HD
ATOM     34  H11 UNL     1       6.354   3.315  -0.898  1.00  0.00     0.171 HD
ENDBRANCH  29  32
ENDBRANCH  28  29
ENDBRANCH   5  28
TORSDOF 7
