REMARK  13 active torsions:
REMARK  status: ('A' for Active; 'I' for Inactive)
REMARK    1  A    between atoms: C3_6  and  C4_7 
REMARK    2  A    between atoms: C4_7  and  C5_8 
REMARK    3  A    between atoms: C5_8  and  N3_9 
REMARK    4  A    between atoms: N3_9  and  C7_12 
REMARK    5  A    between atoms: C7_12  and  C8_13 
REMARK    6  A    between atoms: C8_13  and  S1_14 
REMARK    7  A    between atoms: C9_15  and  O2_16 
REMARK    8  A    between atoms: C10_18  and  C11_19 
REMARK    9  A    between atoms: C11_19  and  O3_20 
REMARK   10  A    between atoms: C12_22  and  C13_23 
REMARK   11  A    between atoms: C14_24  and  C15_25 
REMARK   12  A    between atoms: C15_25  and  N4_26 
REMARK   13  A    between atoms: C21_34  and  N6_35 
ROOT
HETATM    1  C1  UNL     1      -0.117   5.231   1.252  1.00  0.00     0.177 C 
HETATM    2  N1  UNL     1      -1.238   4.577   0.585  1.00  0.00    -0.171 N 
HETATM    3  C2  UNL     1      -1.338   3.252   0.415  1.00  0.00     0.150 A 
HETATM    4  N2  UNL     1      -0.556   2.196   0.748  1.00  0.00    -0.343 N 
ATOM      5  H2  UNL     1       0.317   2.389   1.239  1.00  0.00     0.167 HD
HETATM    6  C3  UNL     1      -0.848   0.922   0.478  1.00  0.00     0.023 A 
HETATM    7  C12 UNL     1      -2.059   0.675  -0.200  1.00  0.00    -0.011 A 
HETATM    8  C19 UNL     1      -2.894   1.692  -0.566  1.00  0.00     0.047 A 
HETATM    9  C20 UNL     1      -2.579   3.018  -0.280  1.00  0.00     0.094 A 
HETATM   10  N5  UNL     1      -3.151   4.212  -0.487  1.00  0.00    -0.188 N 
ATOM     11  H5  UNL     1      -4.040   4.389  -0.955  1.00  0.00     0.184 HD
HETATM   12  C21 UNL     1      -2.312   5.145   0.051  1.00  0.00     0.679 A 
ENDROOT
BRANCH   6  13
HETATM   13  C4  UNL     1      -0.032  -0.224   0.832  1.00  0.00     0.094 C 
BRANCH  13  14
HETATM   14  C5  UNL     1       1.362  -0.012   1.264  1.00  0.00     0.317 C 
BRANCH  14  15
HETATM   15  N3  UNL     1       2.296   0.525   0.320  1.00  0.00     0.010 N 
HETATM   16  C6  UNL     1       3.217   1.351   1.082  1.00  0.00     0.356 C 
HETATM   17  O1  UNL     1       1.764   1.145  -0.744  1.00  0.00    -0.065 OA
BRANCH  15  18
HETATM   18  C7  UNL     1       3.103  -0.571  -0.261  1.00  0.00     0.321 C 
BRANCH  18  19
HETATM   19  C8  UNL     1       4.420  -0.025  -0.699  1.00  0.00     0.103 C 
BRANCH  19  20
HETATM   20  S1  UNL     1       5.442  -1.262  -1.457  1.00  0.00    -0.178 SA
HETATM   21  C9  UNL     1       5.979  -2.670  -0.756  1.00  0.00     0.186 A 
HETATM   22  C10 UNL     1       6.985  -1.533  -0.642  1.00  0.00     0.101 A 
BRANCH  21  23
HETATM   23  O2  UNL     1       6.428  -3.701  -1.618  1.00  0.00    -0.385 OA
ATOM     24  H2  UNL     1       6.735  -4.506  -1.217  1.00  0.00     0.211 HD
ENDBRANCH  21  23
BRANCH  22  25
HETATM   25  C11 UNL     1       7.278  -0.953   0.698  1.00  0.00     0.181 C 
BRANCH  25  26
HETATM   26  O3  UNL     1       6.428  -1.361   1.690  1.00  0.00    -0.400 OA
ATOM     27  H3  UNL     1       6.615  -0.991   2.545  1.00  0.00     0.209 HD
ENDBRANCH  25  26
ENDBRANCH  22  25
ENDBRANCH  19  20
ENDBRANCH  18  19
ENDBRANCH  15  18
ENDBRANCH  14  15
ENDBRANCH  13  14
ENDBRANCH   6  13
BRANCH   7  28
HETATM   28  C13 UNL     1      -2.448  -0.696  -0.480  1.00  0.00     0.011 C 
HETATM   29  C14 UNL     1      -3.555  -1.040  -1.101  1.00  0.00     0.002 C 
BRANCH  29  30
HETATM   30  C15 UNL     1      -3.863  -2.489  -1.341  1.00  0.00     0.263 C 
BRANCH  30  31
HETATM   31  N4  UNL     1      -5.093  -2.830  -0.665  1.00  0.00    -0.075 N 
HETATM   32  C16 UNL     1      -4.746  -3.695   0.479  1.00  0.00     0.272 C 
HETATM   33  C17 UNL     1      -5.749  -1.667  -0.091  1.00  0.00     0.272 C 
HETATM   34  C18 UNL     1      -6.032  -3.531  -1.494  1.00  0.00     0.272 C 
ENDBRANCH  30  31
ENDBRANCH  29  30
ENDBRANCH   7  28
BRANCH  12  35
HETATM   35  N6  UNL     1      -2.564   6.415   0.025  1.00  0.00    -0.234 N 
ATOM     36  H62 UNL     1      -1.937   7.112   0.427  1.00  0.00     0.174 HD
ATOM     37  H61 UNL     1      -3.389   6.852  -0.385  1.00  0.00     0.174 HD
ENDBRANCH  12  35
TORSDOF 13
