REMARK  17 active torsions:
REMARK  status: ('A' for Active; 'I' for Inactive)
REMARK    1  A    between atoms: N2_4  and  N3_6 
REMARK       I    between atoms: N3_6  and  C1_8 
REMARK       I    between atoms: C1_8  and  N5_12 
REMARK    2  A    between atoms: N5_12  and  C2_14 
REMARK    3  A    between atoms: N6_16  and  C4_17 
REMARK    4  A    between atoms: C4_17  and  C5_18 
REMARK    5  A    between atoms: C5_18  and  C6_19 
REMARK    6  A    between atoms: C6_19  and  C7_20 
REMARK    7  A    between atoms: C7_20  and  C8_21 
REMARK    8  A    between atoms: C8_21  and  O1_22 
REMARK    9  A    between atoms: O1_22  and  C9_23 
REMARK   10  A    between atoms: C9_23  and  C10_24 
REMARK   11  A    between atoms: C10_24  and  N7_25 
REMARK   12  A    between atoms: C13_28  and  C14_29 
REMARK   13  A    between atoms: C14_29  and  C15_30 
REMARK   14  A    between atoms: C15_30  and  C16_31 
REMARK   15  A    between atoms: C16_31  and  C17_32 
REMARK   16  A    between atoms: C17_32  and  C18_33 
REMARK   17  A    between atoms: C18_33  and  O2_34 
ROOT
HETATM    1  C4  UNL     1      -3.934  -2.275  -2.162  1.00  0.00     0.128 C 
ENDROOT
BRANCH   1   2
HETATM    2  N6  UNL     1      -4.047  -2.098  -0.739  1.00  0.00    -0.361 N 
HETATM    3  C3  UNL     1      -4.683  -1.049  -0.193  1.00  0.00     0.139 A 
HETATM    4  C2  UNL     1      -4.803  -0.849   1.172  1.00  0.00     0.136 A 
HETATM    5  N8  UNL     1      -4.245  -1.767   1.977  1.00  0.00    -0.349 N 
HETATM    6  C22 UNL     1      -3.604  -2.824   1.450  1.00  0.00     0.107 A 
ATOM      7  H8  UNL     1      -4.308  -1.662   2.990  1.00  0.00     0.166 HD
HETATM    8  C21 UNL     1      -3.498  -3.001   0.098  1.00  0.00     0.107 A 
BRANCH   4   9
HETATM    9  N5  UNL     1      -5.422   0.172   1.650  1.00  0.00    -0.174 N 
HETATM   10  C1  UNL     1      -5.602   0.474   3.005  1.00  0.00     0.693 C 
HETATM   11  N3  UNL     1      -6.907   0.499   3.614  1.00  0.00    -0.118 N 
HETATM   12  N4  UNL     1      -4.609   0.752   3.792  1.00  0.00    -0.233 N 
ATOM     13  H3  UNL     1      -7.045   0.101   4.543  1.00  0.00     0.207 HD
ATOM     14  H42 UNL     1      -4.740   0.972   4.779  1.00  0.00     0.174 HD
ATOM     15  H41 UNL     1      -3.685   0.734   3.361  1.00  0.00     0.174 HD
ATOM     16  H5  UNL     1      -5.821   0.826   0.976  1.00  0.00     0.186 HD
BRANCH  11  17
HETATM   17  N2  UNL     1      -7.982   1.069   2.930  1.00  0.00    -0.235 N 
HETATM   18  N1  UNL     1      -8.956   0.385   2.516  1.00  0.00    -0.330 N 
ATOM     19  H12 UNL     1      -8.943  -0.619   2.695  1.00  0.00     0.178 HD
ATOM     20  H11 UNL     1      -9.742   0.802   2.016  1.00  0.00     0.178 HD
ATOM     21  H2  UNL     1      -7.979   2.075   2.759  1.00  0.00     0.208 HD
ENDBRANCH  11  17
ENDBRANCH   4   9
ENDBRANCH   1   2
BRANCH   1  22
HETATM   22  C5  UNL     1      -2.698  -1.654  -2.749  1.00  0.00     0.020 C 
BRANCH  22  23
HETATM   23  C6  UNL     1      -2.644  -0.179  -2.510  1.00  0.00     0.004 C 
BRANCH  23  24
HETATM   24  C7  UNL     1      -1.422   0.489  -3.104  1.00  0.00     0.026 C 
BRANCH  24  25
HETATM   25  C8  UNL     1      -0.138  -0.079  -2.536  1.00  0.00     0.167 C 
BRANCH  25  26
HETATM   26  O1  UNL     1       0.980   0.527  -3.053  1.00  0.00    -0.390 OA
BRANCH  26  27
HETATM   27  C9  UNL     1       1.092   1.862  -2.827  1.00  0.00     0.187 C 
BRANCH  27  28
HETATM   28  C10 UNL     1       1.229   2.324  -1.420  1.00  0.00     0.154 C 
BRANCH  28  29
HETATM   29  N7  UNL     1       2.447   1.797  -0.835  1.00  0.00    -0.364 N 
HETATM   30  C11 UNL     1       2.567   0.658  -0.162  1.00  0.00     0.092 A 
HETATM   31  C12 UNL     1       3.788   0.213   0.365  1.00  0.00     0.038 A 
HETATM   32  C13 UNL     1       4.927   0.966   0.194  1.00  0.00     0.021 A 
HETATM   33  C19 UNL     1       4.784   2.145  -0.506  1.00  0.00     0.038 A 
HETATM   34  C20 UNL     1       3.586   2.542  -1.002  1.00  0.00     0.092 A 
BRANCH  32  35
HETATM   35  C14 UNL     1       6.190   0.536   0.726  1.00  0.00    -0.053 C 
BRANCH  35  36
HETATM   36  C15 UNL     1       7.266   0.191   1.184  1.00  0.00    -0.009 C 
BRANCH  36  37
HETATM   37  C16 UNL     1       8.527  -0.183   1.712  1.00  0.00    -0.013 C 
BRANCH  37  38
HETATM   38  C17 UNL     1       9.611  -0.488   2.147  1.00  0.00    -0.067 C 
BRANCH  38  39
HETATM   39  C18 UNL     1      10.946  -0.836   2.672  1.00  0.00     0.258 C 
BRANCH  39  40
HETATM   40  O2  UNL     1      11.501   0.270   3.362  1.00  0.00    -0.389 OA
ATOM     41  H2  UNL     1      12.360   0.046   3.700  1.00  0.00     0.210 HD
ENDBRANCH  39  40
ENDBRANCH  38  39
ENDBRANCH  37  38
ENDBRANCH  36  37
ENDBRANCH  35  36
ENDBRANCH  32  35
ENDBRANCH  28  29
ENDBRANCH  27  28
ENDBRANCH  26  27
ENDBRANCH  25  26
ENDBRANCH  24  25
ENDBRANCH  23  24
ENDBRANCH  22  23
ENDBRANCH   1  22
TORSDOF 17
