REMARK  16 active torsions:
REMARK  status: ('A' for Active; 'I' for Inactive)
REMARK    1  A    between atoms: C6_11  and  C7_12 
REMARK    2  A    between atoms: C7_12  and  C8_13 
REMARK    3  A    between atoms: C8_13  and  C9_14 
REMARK    4  A    between atoms: C9_14  and  C10_15 
REMARK    5  A    between atoms: C10_15  and  C11_16 
REMARK    6  A    between atoms: C11_16  and  C12_17 
REMARK    7  A    between atoms: C12_17  and  C13_18 
REMARK    8  A    between atoms: C13_18  and  N3_19 
REMARK    9  A    between atoms: N5_23  and  C15_24 
REMARK   10  A    between atoms: C15_24  and  C16_25 
REMARK   11  A    between atoms: C16_25  and  C17_26 
REMARK   12  A    between atoms: C17_26  and  C18_27 
REMARK   13  A    between atoms: C18_27  and  C19_28 
REMARK   14  A    between atoms: C19_28  and  N6_29 
REMARK   15  A    between atoms: C21_38  and  C22_39 
REMARK   16  A    between atoms: C22_39  and  C23_40 
ROOT
HETATM    1  N3  UNL     1       1.366   1.208  -2.791  1.00  0.00    -0.330 N 
HETATM    2  C14 UNL     1       1.981   2.352  -2.372  1.00  0.00     0.201 A 
HETATM    3  N4  UNL     1       3.219   2.055  -2.000  1.00  0.00    -0.292 N 
ATOM      4  H4  UNL     1       3.904   2.722  -1.643  1.00  0.00     0.188 HD
HETATM    5  N5  UNL     1       3.429   0.742  -2.166  1.00  0.00    -0.268 N 
HETATM    6  C21 UNL     1       2.268   0.221  -2.660  1.00  0.00     0.108 A 
ENDROOT
BRANCH   1   7
HETATM    7  C13 UNL     1       0.036   1.078  -3.281  1.00  0.00     0.132 C 
BRANCH   7   8
HETATM    8  C12 UNL     1      -1.024   0.818  -2.269  1.00  0.00     0.032 C 
BRANCH   8   9
HETATM    9  C11 UNL     1      -2.378   0.710  -2.942  1.00  0.00     0.096 C 
BRANCH   9  10
HETATM   10  C10 UNL     1      -3.390   0.455  -1.915  1.00  0.00    -0.092 C 
BRANCH  10  11
HETATM   11  C9  UNL     1      -4.231   0.265  -1.071  1.00  0.00    -0.015 C 
BRANCH  11  12
HETATM   12  C8  UNL     1      -5.232   0.054  -0.095  1.00  0.00    -0.009 C 
BRANCH  12  13
HETATM   13  C7  UNL     1      -6.100  -0.126   0.722  1.00  0.00    -0.049 C 
BRANCH  13  14
HETATM   14  C6  UNL     1      -7.162  -0.352   1.693  1.00  0.00     0.067 A 
HETATM   15  C2  UNL     1      -8.324   0.395   1.621  1.00  0.00     0.026 A 
HETATM   16  C1  UNL     1      -8.545   1.432   0.587  1.00  0.00     0.070 C 
HETATM   17  N1  UNL     1      -9.272   0.147   2.540  1.00  0.00    -0.368 N 
HETATM   18  C3  UNL     1      -9.098  -0.787   3.488  1.00  0.00     0.090 A 
ATOM     19  H1  UNL     1     -10.142   0.679   2.517  1.00  0.00     0.165 HD
HETATM   20  C4  UNL     1      -7.951  -1.544   3.582  1.00  0.00     0.047 A 
HETATM   21  C5  UNL     1      -6.965  -1.306   2.649  1.00  0.00     0.048 A 
HETATM   22  N2  UNL     1      -5.882  -1.980   2.690  1.00  0.00    -0.398 N 
ATOM     23  H22 UNL     1      -5.735  -2.693   3.404  1.00  0.00     0.156 HD
ATOM     24  H21 UNL     1      -5.152  -1.804   1.999  1.00  0.00     0.156 HD
ENDBRANCH  13  14
ENDBRANCH  12  13
ENDBRANCH  11  12
ENDBRANCH  10  11
ENDBRANCH   9  10
ENDBRANCH   8   9
ENDBRANCH   7   8
ENDBRANCH   1   7
BRANCH   6  25
HETATM   25  C22 UNL     1       2.121  -1.209  -2.984  1.00  0.00     0.147 C 
BRANCH  25  26
HETATM   26  C23 UNL     1       1.622  -2.036  -1.871  1.00  0.00     0.238 C 
HETATM   27  O2  UNL     1       1.351  -1.604  -0.784  1.00  0.00    -0.306 OA
ENDBRANCH  25  26
ENDBRANCH   6  25
BRANCH   5  28
HETATM   28  C15 UNL     1       4.682   0.098  -1.860  1.00  0.00     0.244 C 
BRANCH  28  29
HETATM   29  C16 UNL     1       4.701  -0.339  -0.475  1.00  0.00    -0.085 C 
BRANCH  29  30
HETATM   30  C17 UNL     1       4.728  -0.718   0.676  1.00  0.00    -0.103 C 
BRANCH  30  31
HETATM   31  C18 UNL     1       4.784  -1.167   2.075  1.00  0.00     0.116 C 
BRANCH  31  32
HETATM   32  C19 UNL     1       5.649  -0.192   2.834  1.00  0.00     0.168 C 
BRANCH  32  33
HETATM   33  N6  UNL     1       6.995  -0.122   2.308  1.00  0.00    -0.225 N 
HETATM   34  N7  UNL     1       7.425   0.711   1.347  1.00  0.00    -0.222 N 
HETATM   35  N8  UNL     1       8.700   0.496   1.123  1.00  0.00    -0.224 N 
ATOM     36  H7  UNL     1       6.850   1.403   0.866  1.00  0.00     0.210 HD
HETATM   37  N9  UNL     1       9.114  -0.466   1.924  1.00  0.00    -0.234 N 
ATOM     38  H8  UNL     1       9.276   0.991   0.442  1.00  0.00     0.210 HD
HETATM   39  C20 UNL     1       8.055  -0.876   2.685  1.00  0.00     0.358 A 
ATOM     40  H9  UNL     1      10.062  -0.840   1.968  1.00  0.00     0.193 HD
HETATM   41  O1  UNL     1       8.022  -1.762   3.564  1.00  0.00    -0.243 OA
ENDBRANCH  32  33
ENDBRANCH  31  32
ENDBRANCH  30  31
ENDBRANCH  29  30
ENDBRANCH  28  29
ENDBRANCH   5  28
TORSDOF 16
