REMARK  13 active torsions:
REMARK  status: ('A' for Active; 'I' for Inactive)
REMARK    1  A    between atoms: C7_8  and  C8_9 
REMARK    2  A    between atoms: C8_9  and  C9_10 
REMARK    3  A    between atoms: C9_10  and  N2_11 
REMARK    4  A    between atoms: N2_11  and  C10_12 
REMARK    5  A    between atoms: C10_12  and  C11_13 
REMARK    6  A    between atoms: C11_13  and  C12_14 
REMARK    7  A    between atoms: C12_14  and  N3_15 
REMARK    8  A    between atoms: N3_15  and  C13_16 
REMARK    9  A    between atoms: C13_16  and  C14_17 
REMARK   10  A    between atoms: C14_17  and  O1_18 
REMARK   11  A    between atoms: N4_24  and  N5_26 
REMARK   12  A    between atoms: C21_38  and  C22_39 
REMARK   13  A    between atoms: C22_39  and  O3_40 
ROOT
HETATM    1  N2  UNL     1      -0.336  -0.821   0.091  1.00  0.00     0.032 N 
HETATM    2  C19 UNL     1      -0.524  -1.965  -0.743  1.00  0.00     0.391 C 
HETATM    3  N7  UNL     1      -0.892  -3.084   0.152  1.00  0.00    -0.316 N 
ATOM      4  H7  UNL     1      -1.105  -4.044  -0.117  1.00  0.00     0.166 HD
HETATM    5  C20 UNL     1      -0.887  -2.546   1.454  1.00  0.00     0.341 C 
HETATM    6  O2  UNL     1      -0.835  -3.216   2.500  1.00  0.00    -0.246 OA
HETATM    7  N8  UNL     1      -0.951  -1.142   1.312  1.00  0.00    -0.165 N 
ATOM      8  H8  UNL     1      -1.366  -0.485   1.972  1.00  0.00     0.199 HD
ENDROOT
BRANCH   1   9
HETATM    9  C9  UNL     1       1.095  -0.711   0.451  1.00  0.00     0.272 C 
BRANCH   9  10
HETATM   10  C8  UNL     1       1.909  -0.407  -0.743  1.00  0.00     0.069 C 
BRANCH  10  11
HETATM   11  C7  UNL     1       3.364  -0.285  -0.450  1.00  0.00    -0.047 A 
HETATM   12  C6  UNL     1       4.178  -1.411  -0.639  1.00  0.00     0.021 A 
HETATM   13  C5  UNL     1       5.515  -1.312  -0.328  1.00  0.00    -0.009 A 
HETATM   14  C4  UNL     1       6.334  -2.426  -0.510  1.00  0.00     0.015 A 
HETATM   15  C24 UNL     1       6.051  -0.159   0.152  1.00  0.00     0.044 A 
HETATM   16  C3  UNL     1       7.657  -2.299  -0.190  1.00  0.00     0.018 A 
HETATM   17  C2  UNL     1       8.145  -1.102   0.294  1.00  0.00     0.090 A 
HETATM   18  N1  UNL     1       7.358  -0.042   0.465  1.00  0.00    -0.360 N 
HETATM   19  C1  UNL     1       7.850   1.220   0.968  1.00  0.00     0.155 C 
HETATM   20  C23 UNL     1       5.235   0.927   0.326  1.00  0.00     0.040 A 
HETATM   21  C21 UNL     1       3.863   0.893   0.029  1.00  0.00    -0.026 A 
BRANCH  21  22
HETATM   22  C22 UNL     1       3.087   2.142   0.230  1.00  0.00     0.203 C 
BRANCH  22  23
HETATM   23  O3  UNL     1       3.900   3.165   0.725  1.00  0.00    -0.396 OA
ATOM     24  H3  UNL     1       3.403   3.965   0.854  1.00  0.00     0.209 HD
ENDBRANCH  22  23
ENDBRANCH  21  22
ENDBRANCH  10  11
ENDBRANCH   9  10
ENDBRANCH   1   9
BRANCH   1  25
HETATM   25  C10 UNL     1      -0.752   0.386  -0.479  1.00  0.00     0.269 C 
BRANCH  25  26
HETATM   26  C11 UNL     1      -2.144   0.901  -0.182  1.00  0.00     0.059 C 
BRANCH  26  27
HETATM   27  C12 UNL     1      -3.204   0.025  -0.633  1.00  0.00     0.247 C 
BRANCH  27  28
HETATM   28  N3  UNL     1      -4.580   0.340  -0.481  1.00  0.00    -0.023 N 
HETATM   29  C15 UNL     1      -5.275  -0.989  -0.650  1.00  0.00     0.246 C 
HETATM   30  C16 UNL     1      -6.690  -0.707  -0.204  1.00  0.00     0.036 C 
HETATM   31  C17 UNL     1      -6.578   0.568   0.629  1.00  0.00     0.088 C 
HETATM   32  C18 UNL     1      -5.103   0.655   0.753  1.00  0.00     0.200 C 
HETATM   33  N4  UNL     1      -4.512   0.961   1.823  1.00  0.00    -0.269 N 
ATOM     34  H4  UNL     1      -3.494   0.977   1.761  1.00  0.00     0.189 HD
BRANCH  28  35
HETATM   35  C13 UNL     1      -5.114   1.073  -1.591  1.00  0.00     0.271 C 
BRANCH  35  36
HETATM   36  C14 UNL     1      -4.766   2.483  -1.761  1.00  0.00     0.192 C 
BRANCH  36  37
HETATM   37  O1  UNL     1      -5.091   3.338  -0.734  1.00  0.00    -0.399 OA
ATOM     38  H1  UNL     1      -4.865   4.254  -0.844  1.00  0.00     0.209 HD
ENDBRANCH  36  37
ENDBRANCH  35  36
ENDBRANCH  28  35
BRANCH  33  39
HETATM   39  N5  UNL     1      -5.018   1.276   3.056  1.00  0.00    -0.248 N 
HETATM   40  N6  UNL     1      -5.006   0.471   4.028  1.00  0.00    -0.331 N 
ATOM     41  H62 UNL     1      -4.598  -0.451   3.871  1.00  0.00     0.178 HD
ATOM     42  H61 UNL     1      -5.383   0.706   4.946  1.00  0.00     0.178 HD
ATOM     43  H5  UNL     1      -5.422   2.202   3.195  1.00  0.00     0.207 HD
ENDBRANCH  33  39
ENDBRANCH  27  28
ENDBRANCH  26  27
ENDBRANCH  25  26
ENDBRANCH   1  25
TORSDOF 13
