REMARK  12 active torsions:
REMARK  status: ('A' for Active; 'I' for Inactive)
REMARK    1  A    between atoms: C4_4  and  N1_5 
REMARK    2  A    between atoms: N1_5  and  C6_7 
REMARK    3  A    between atoms: C6_7  and  C7_8 
REMARK    4  A    between atoms: C8_9  and  C9_10 
REMARK    5  A    between atoms: C9_10  and  N2_11 
REMARK    6  A    between atoms: C13_18  and  N4_19 
REMARK    7  A    between atoms: C13_18  and  C14_23 
REMARK    8  A    between atoms: C17_28  and  C18_29 
REMARK    9  A    between atoms: C18_29  and  N6_30 
REMARK   10  A    between atoms: N6_30  and  C19_31 
REMARK   11  A    between atoms: C21_33  and  C22_34 
REMARK   12  A    between atoms: C22_34  and  N7_35 
ROOT
HETATM    1  C1  UNL     1       7.697  -3.433  -2.172  1.00  0.00     0.102 C 
HETATM    2  C2  UNL     1       7.157  -3.060  -1.142  1.00  0.00    -0.159 C 
HETATM    3  C3  UNL     1       6.536  -2.643   0.074  1.00  0.00     0.062 C 
HETATM    4  C4  UNL     1       5.238  -2.767   0.249  1.00  0.00     0.068 C 
ENDROOT
BRANCH   4   5
HETATM    5  N1  UNL     1       4.662  -2.342   1.467  1.00  0.00    -0.285 NA
HETATM    6  C5  UNL     1       3.228  -2.563   1.472  1.00  0.00     0.117 C 
BRANCH   5   7
HETATM    7  C6  UNL     1       5.020  -1.002   1.798  1.00  0.00     0.188 C 
BRANCH   7   8
HETATM    8  C7  UNL     1       3.938  -0.026   1.588  1.00  0.00    -0.090 C 
HETATM    9  C8  UNL     1       3.075   0.791   1.425  1.00  0.00    -0.085 C 
BRANCH   9  10
HETATM   10  C9  UNL     1       2.045   1.819   1.236  1.00  0.00     0.222 C 
BRANCH  10  11
HETATM   11  N2  UNL     1       1.814   2.157  -0.131  1.00  0.00    -0.316 N 
HETATM   12  C10 UNL     1       2.535   3.171  -0.868  1.00  0.00     0.319 C 
HETATM   13  O1  UNL     1       3.456   3.918  -0.445  1.00  0.00    -0.247 OA
HETATM   14  N3  UNL     1       2.025   3.197  -2.200  1.00  0.00    -0.336 N 
HETATM   15  C11 UNL     1       0.618   2.777  -1.994  1.00  0.00     0.112 C 
ATOM     16  H3  UNL     1       2.503   3.441  -3.067  1.00  0.00     0.164 HD
HETATM   17  C12 UNL     1      -0.019   3.969  -1.354  1.00  0.00     0.075 C 
HETATM   18  C26 UNL     1       0.872   1.623  -1.049  1.00  0.00     0.121 C 
HETATM   19  C13 UNL     1      -1.505   4.029  -1.428  1.00  0.00     0.203 C 
HETATM   20  C15 UNL     1      -2.033   2.912  -0.557  1.00  0.00     0.049 C 
HETATM   21  C16 UNL     1      -1.623   1.539  -1.077  1.00  0.00     0.015 C 
HETATM   22  C17 UNL     1      -0.388   1.028  -0.469  1.00  0.00     0.049 C 
BRANCH  19  23
HETATM   23  N4  UNL     1      -2.072   4.046  -2.733  1.00  0.00    -0.062 N 
ATOM     24  H43 UNL     1      -1.669   4.812  -3.273  1.00  0.00     0.275 HD
ATOM     25  H42 UNL     1      -1.733   3.245  -3.266  1.00  0.00     0.275 HD
ATOM     26  H41 UNL     1      -3.090   4.087  -2.784  1.00  0.00     0.275 HD
ENDBRANCH  19  23
BRANCH  19  27
HETATM   27  C14 UNL     1      -1.916   5.303  -0.747  1.00  0.00     0.267 C 
HETATM   28  N5  UNL     1      -1.456   5.567   0.566  1.00  0.00    -0.060 NA
HETATM   29  O2  UNL     1      -2.657   6.149  -1.300  1.00  0.00    -0.274 OA
ENDBRANCH  19  27
BRANCH  22  30
HETATM   30  C18 UNL     1      -0.236  -0.452  -0.563  1.00  0.00     0.069 C 
BRANCH  30  31
HETATM   31  N6  UNL     1      -1.069  -1.368   0.017  1.00  0.00    -0.372 N 
HETATM   32  C21 UNL     1      -2.357  -1.252   0.434  1.00  0.00     0.090 C 
BRANCH  31  33
HETATM   33  C19 UNL     1      -0.593  -2.713  -0.284  1.00  0.00     0.122 C 
HETATM   34  C20 UNL     1      -0.735  -3.082  -1.727  1.00  0.00     0.027 C 
ENDBRANCH  31  33
BRANCH  32  35
HETATM   35  C22 UNL     1      -2.936  -2.479   1.142  1.00  0.00     0.280 C 
BRANCH  35  36
HETATM   36  N7  UNL     1      -4.298  -2.212   1.516  1.00  0.00    -0.074 N 
HETATM   37  C23 UNL     1      -5.201  -2.699   0.461  1.00  0.00     0.272 C 
HETATM   38  C24 UNL     1      -4.608  -0.807   1.668  1.00  0.00     0.272 C 
HETATM   39  C25 UNL     1      -4.639  -2.859   2.770  1.00  0.00     0.272 C 
ENDBRANCH  35  36
ENDBRANCH  32  35
ENDBRANCH  30  31
ENDBRANCH  22  30
ENDBRANCH  10  11
ENDBRANCH   9  10
ENDBRANCH   7   8
ENDBRANCH   5   7
ENDBRANCH   4   5
TORSDOF 12
