REMARK  11 active torsions:
REMARK  status: ('A' for Active; 'I' for Inactive)
REMARK    1  A    between atoms: C2_2  and  N1_3 
REMARK    2  A    between atoms: N2_6  and  C5_7 
REMARK    3  A    between atoms: C5_7  and  C6_8 
REMARK    4  A    between atoms: C6_8  and  C7_9 
REMARK    5  A    between atoms: C7_9  and  C8_10 
REMARK    6  A    between atoms: C8_10  and  N3_11 
REMARK    7  A    between atoms: N3_11  and  C9_12 
REMARK    8  A    between atoms: C9_12  and  C10_13 
REMARK    9  A    between atoms: C10_13  and  C11_14 
REMARK   10  A    between atoms: C11_14  and  N4_15 
REMARK   11  A    between atoms: N7_23  and  O1_24 
ROOT
HETATM    1  N3  UNL     1       1.607  -0.796   0.686  1.00  0.00    -0.039 N 
HETATM    2  C16 UNL     1       1.416  -2.102   1.286  1.00  0.00     0.269 C 
HETATM    3  C17 UNL     1       2.389  -2.966   0.518  1.00  0.00     0.290 C 
HETATM    4  N8  UNL     1       2.379  -2.390  -0.789  1.00  0.00     0.038 N 
HETATM    5  C18 UNL     1       1.959  -3.280  -1.857  1.00  0.00     0.280 C 
HETATM    6  C19 UNL     1       3.417  -3.684  -1.858  1.00  0.00     0.172 C 
HETATM    7  N9  UNL     1       3.624  -2.319  -1.376  1.00  0.00    -0.043 NA
HETATM    8  C20 UNL     1       1.598  -1.171  -0.735  1.00  0.00     0.496 C 
ENDROOT
BRANCH   1   9
HETATM    9  C8  UNL     1       0.563   0.123   1.008  1.00  0.00     0.239 C 
BRANCH   9  10
HETATM   10  C7  UNL     1      -0.832  -0.434   0.933  1.00  0.00     0.030 C 
BRANCH  10  11
HETATM   11  C6  UNL     1      -1.830   0.673   1.296  1.00  0.00     0.032 C 
BRANCH  11  12
HETATM   12  C5  UNL     1      -3.250   0.133   1.228  1.00  0.00     0.272 C 
BRANCH  12  13
HETATM   13  N2  UNL     1      -3.603  -0.332  -0.090  1.00  0.00     0.090 N 
HETATM   14  C4  UNL     1      -4.900  -0.950  -0.138  1.00  0.00     0.292 C 
HETATM   15  C3  UNL     1      -5.955  -0.248   0.675  1.00  0.00     0.156 C 
HETATM   16  N1  UNL     1      -6.395   0.972   0.066  1.00  0.00    -0.351 N 
HETATM   17  C23 UNL     1      -5.609   1.835  -0.764  1.00  0.00     0.221 C 
HETATM   18  C22 UNL     1      -4.163   1.938  -0.924  1.00  0.00     0.133 C 
HETATM   19  O2  UNL     1      -6.275   2.657  -1.488  1.00  0.00    -0.273 OA
HETATM   20  C21 UNL     1      -3.419   0.666  -1.107  1.00  0.00     0.281 C 
BRANCH  16  21
HETATM   21  C2  UNL     1      -7.773   1.392   0.293  1.00  0.00     0.121 C 
HETATM   22  C1  UNL     1      -8.691   0.809  -0.765  1.00  0.00     0.026 C 
ENDBRANCH  16  21
ENDBRANCH  12  13
ENDBRANCH  11  12
ENDBRANCH  10  11
ENDBRANCH   9  10
ENDBRANCH   1   9
BRANCH   1  23
HETATM   23  C9  UNL     1       2.897  -0.239   0.954  1.00  0.00     0.241 C 
BRANCH  23  24
HETATM   24  C10 UNL     1       2.901   0.873   1.936  1.00  0.00     0.048 C 
BRANCH  24  25
HETATM   25  C11 UNL     1       4.285   1.425   2.190  1.00  0.00     0.133 C 
BRANCH  25  26
HETATM   26  N4  UNL     1       4.932   1.960   1.025  1.00  0.00    -0.324 N 
HETATM   27  C12 UNL     1       4.764   3.229   0.556  1.00  0.00     0.186 A 
HETATM   28  N5  UNL     1       5.486   3.402  -0.554  1.00  0.00    -0.335 N 
HETATM   29  C13 UNL     1       6.132   2.268  -0.830  1.00  0.00     0.154 A 
ATOM     30  H5  UNL     1       5.535   4.261  -1.102  1.00  0.00     0.168 HD
HETATM   31  N6  UNL     1       6.982   1.699  -1.698  1.00  0.00    -0.333 N 
HETATM   32  C15 UNL     1       5.776   1.361   0.174  1.00  0.00     0.181 A 
HETATM   33  C14 UNL     1       7.179   0.445  -1.269  1.00  0.00     0.217 A 
ATOM     34  H6  UNL     1       7.396   2.135  -2.522  1.00  0.00     0.168 HD
HETATM   35  N7  UNL     1       6.451   0.236  -0.135  1.00  0.00    -0.200 N 
BRANCH  35  36
HETATM   36  O1  UNL     1       6.403  -0.919   0.603  1.00  0.00    -0.280 OA
ATOM     37  H1  UNL     1       5.896  -1.065   1.393  1.00  0.00     0.245 HD
ENDBRANCH  35  36
ENDBRANCH  25  26
ENDBRANCH  24  25
ENDBRANCH  23  24
ENDBRANCH   1  23
TORSDOF 11
