REMARK  13 active torsions:
REMARK  status: ('A' for Active; 'I' for Inactive)
REMARK    1  A    between atoms: N1_2  and  C2_4 
REMARK    2  A    between atoms: N4_8  and  C3_9 
REMARK    3  A    between atoms: C3_9  and  C4_10 
REMARK    4  A    between atoms: C7_13  and  C8_14 
REMARK    5  A    between atoms: C8_14  and  N5_15 
REMARK    6  A    between atoms: C11_18  and  O1_19 
REMARK    7  A    between atoms: C16_25  and  C17_26 
REMARK    8  A    between atoms: C17_26  and  N6_27 
REMARK    9  A    between atoms: N6_27  and  C20_30 
REMARK   10  A    between atoms: C20_30  and  C21_31 
REMARK   11  A    between atoms: C21_31  and  O2_32 
REMARK   12  A    between atoms: C21_31  and  C22_34 
REMARK   13  A    between atoms: C22_34  and  S1_35 
ROOT
HETATM    1  C2  UNL     1       0.091   0.317  -2.222  1.00  0.00     0.140 A 
HETATM    2  N2  UNL     1       0.812  -0.703  -2.670  1.00  0.00    -0.268 N 
ATOM      3  H2  UNL     1       1.361  -0.707  -3.530  1.00  0.00     0.186 HD
HETATM    4  N3  UNL     1       0.705  -1.714  -1.823  1.00  0.00    -0.018 NA
HETATM    5  N4  UNL     1      -0.103  -1.322  -0.812  1.00  0.00    -0.270 N 
HETATM    6  C16 UNL     1      -0.511  -0.109  -1.008  1.00  0.00     0.097 A 
ENDROOT
BRANCH   5   7
HETATM    7  C3  UNL     1      -0.057  -2.184   0.421  1.00  0.00     0.185 C 
BRANCH   7   8
HETATM    8  C4  UNL     1       1.465  -2.119   0.744  1.00  0.00    -0.039 A 
HETATM    9  C5  UNL     1       2.048  -0.927   1.066  1.00  0.00     0.009 A 
HETATM   10  C6  UNL     1       3.460  -0.820   1.116  1.00  0.00     0.009 A 
HETATM   11  C7  UNL     1       4.252  -1.900   0.847  1.00  0.00    -0.040 A 
HETATM   12  C14 UNL     1       3.624  -3.114   0.531  1.00  0.00     0.009 A 
HETATM   13  C15 UNL     1       2.243  -3.223   0.479  1.00  0.00     0.009 A 
BRANCH  11  14
HETATM   14  C8  UNL     1       5.734  -1.783   0.723  1.00  0.00     0.166 C 
BRANCH  14  15
HETATM   15  N5  UNL     1       6.176  -0.419   0.774  1.00  0.00    -0.362 N 
HETATM   16  C9  UNL     1       6.668   0.133   1.878  1.00  0.00     0.093 A 
HETATM   17  C10 UNL     1       7.022   1.463   1.880  1.00  0.00     0.053 A 
HETATM   18  C11 UNL     1       6.881   2.251   0.767  1.00  0.00     0.068 A 
HETATM   19  C12 UNL     1       6.368   1.678  -0.375  1.00  0.00     0.053 A 
HETATM   20  C13 UNL     1       6.028   0.347  -0.342  1.00  0.00     0.093 A 
BRANCH  18  21
HETATM   21  O1  UNL     1       7.234   3.599   0.761  1.00  0.00    -0.361 OA
ATOM     22  H1  UNL     1       7.136   4.145  -0.010  1.00  0.00     0.217 HD
ENDBRANCH  18  21
ENDBRANCH  14  15
ENDBRANCH  11  14
ENDBRANCH   7   8
ENDBRANCH   5   7
BRANCH   6  23
HETATM   23  C17 UNL     1      -1.344   0.819  -0.235  1.00  0.00     0.298 C 
BRANCH  23  24
HETATM   24  N6  UNL     1      -2.703   0.455  -0.018  1.00  0.00    -0.067 N 
HETATM   25  C18 UNL     1      -3.130  -0.377  -1.224  1.00  0.00     0.272 C 
HETATM   26  C19 UNL     1      -3.413   1.744  -0.387  1.00  0.00     0.272 C 
BRANCH  24  27
HETATM   27  C20 UNL     1      -3.243  -0.164   1.069  1.00  0.00     0.269 C 
BRANCH  27  28
HETATM   28  C21 UNL     1      -4.251   0.428   1.965  1.00  0.00     0.155 C 
BRANCH  28  29
HETATM   29  O2  UNL     1      -4.575  -0.607   2.908  1.00  0.00    -0.393 OA
ATOM     30  H2  UNL     1      -5.225  -0.225   3.486  1.00  0.00     0.210 HD
ENDBRANCH  28  29
BRANCH  28  31
HETATM   31  C22 UNL     1      -5.465   1.100   1.561  1.00  0.00     0.141 C 
BRANCH  31  32
HETATM   32  S1  UNL     1      -6.698   0.278   0.614  1.00  0.00     0.013 S 
HETATM   33  C23 UNL     1      -8.044   1.446   0.316  1.00  0.00     0.127 C 
HETATM   34  O3  UNL     1      -7.267  -1.122   1.289  1.00  0.00    -0.258 OA
ENDBRANCH  31  32
ENDBRANCH  28  31
ENDBRANCH  27  28
ENDBRANCH  24  27
ENDBRANCH  23  24
ENDBRANCH   6  23
BRANCH   1  35
HETATM   35  N1  UNL     1      -0.070   1.462  -2.771  1.00  0.00    -0.378 N 
HETATM   36  C1  UNL     1       0.537   1.831  -4.022  1.00  0.00     0.147 C 
ATOM     37  H1  UNL     1      -0.658   2.148  -2.298  1.00  0.00     0.160 HD
ENDBRANCH   1  35
TORSDOF 13
