REMARK  12 active torsions:
REMARK  status: ('A' for Active; 'I' for Inactive)
REMARK    1  A    between atoms: C3_3  and  C4_4 
REMARK    2  A    between atoms: C4_4  and  C5_5 
REMARK    3  A    between atoms: C5_5  and  C6_6 
REMARK    4  A    between atoms: C7_7  and  C8_8 
REMARK    5  A    between atoms: C13_14  and  C14_15 
REMARK       I    between atoms: N2_17  and  C16_18 
REMARK    6  A    between atoms: C16_18  and  C17_20 
REMARK    7  A    between atoms: C17_20  and  O2_21 
REMARK    8  A    between atoms: C19_26  and  N4_27 
REMARK    9  A    between atoms: N4_27  and  C20_29 
REMARK   10  A    between atoms: C20_29  and  C21_30 
REMARK   11  A    between atoms: C21_30  and  N5_31 
REMARK       I    between atoms: N5_31  and  C22_33 
REMARK       I    between atoms: C22_33  and  N7_37 
REMARK   12  A    between atoms: N7_37  and  N8_39 
ROOT
HETATM    1  C1  UNL     1       0.511   8.750   1.128  1.00  0.00     0.012 C 
HETATM    2  C2  UNL     1       0.576   8.169   0.063  1.00  0.00    -0.117 C 
HETATM    3  C3  UNL     1       0.675   7.475  -1.233  1.00  0.00     0.094 C 
ENDROOT
BRANCH   3   4
HETATM    4  C4  UNL     1       0.289   6.041  -0.998  1.00  0.00     0.024 C 
BRANCH   4   5
HETATM    5  C5  UNL     1       0.344   5.204  -2.240  1.00  0.00     0.095 C 
BRANCH   5   6
HETATM    6  C6  UNL     1      -0.053   3.841  -1.872  1.00  0.00    -0.101 C 
HETATM    7  C7  UNL     1      -0.358   2.715  -1.567  1.00  0.00    -0.063 C 
BRANCH   7   8
HETATM    8  C8  UNL     1      -0.712   1.361  -1.209  1.00  0.00     0.062 A 
HETATM    9  C9  UNL     1      -2.017   0.984  -1.002  1.00  0.00     0.041 A 
HETATM   10  C10 UNL     1      -2.342  -0.324  -0.657  1.00  0.00     0.026 A 
HETATM   11  C11 UNL     1      -3.668  -0.605  -0.471  1.00  0.00     0.107 A 
HETATM   12  C18 UNL     1      -1.375  -1.295  -0.508  1.00  0.00     0.129 A 
HETATM   13  N1  UNL     1      -4.034  -1.825  -0.144  1.00  0.00    -0.346 N 
HETATM   14  C12 UNL     1      -5.460  -2.124   0.022  1.00  0.00     0.157 C 
HETATM   15  C13 UNL     1      -3.095  -2.795   0.009  1.00  0.00     0.117 A 
HETATM   16  N2  UNL     1      -1.770  -2.557  -0.167  1.00  0.00    -0.250 N 
HETATM   17  C16 UNL     1      -0.791  -3.554  -0.013  1.00  0.00     0.254 C 
HETATM   18  O1  UNL     1       0.435  -3.251  -0.194  1.00  0.00    -0.270 OA
HETATM   19  N3  UNL     1      -0.108  -0.911  -0.713  1.00  0.00    -0.326 N 
HETATM   20  C19 UNL     1       0.224   0.375  -1.054  1.00  0.00     0.121 A 
ATOM     21  H3  UNL     1       0.637  -1.600  -0.612  1.00  0.00     0.169 HD
BRANCH  15  22
HETATM   22  C14 UNL     1      -3.650  -4.090   0.412  1.00  0.00     0.039 C 
HETATM   23  C15 UNL     1      -4.250  -4.171   1.608  1.00  0.00     0.015 C 
ENDBRANCH  15  22
BRANCH  17  24
HETATM   24  C17 UNL     1      -1.038  -4.975   0.349  1.00  0.00     0.267 C 
BRANCH  24  25
HETATM   25  O2  UNL     1       0.267  -5.614   0.367  1.00  0.00    -0.392 OA
ATOM     26  H2  UNL     1       0.109  -6.522   0.598  1.00  0.00     0.210 HD
ENDBRANCH  24  25
ENDBRANCH  17  24
BRANCH  20  27
HETATM   27  N4  UNL     1       1.456   0.666  -1.233  1.00  0.00    -0.373 N 
ATOM     28  H4  UNL     1       1.669   1.631  -1.485  1.00  0.00     0.161 HD
BRANCH  27  29
HETATM   29  C20 UNL     1       2.563  -0.228  -1.115  1.00  0.00     0.141 C 
BRANCH  29  30
HETATM   30  C21 UNL     1       3.045  -0.403   0.314  1.00  0.00     0.157 C 
BRANCH  30  31
HETATM   31  N5  UNL     1       4.158  -1.324   0.304  1.00  0.00    -0.224 N 
HETATM   32  C22 UNL     1       4.800  -1.667   1.504  1.00  0.00     0.687 C 
HETATM   33  N6  UNL     1       5.905  -1.087   1.817  1.00  0.00    -0.234 N 
HETATM   34  N7  UNL     1       4.230  -2.654   2.372  1.00  0.00    -0.119 N 
ATOM     35  H62 UNL     1       6.311  -0.384   1.199  1.00  0.00     0.174 HD
ATOM     36  H61 UNL     1       6.372  -1.336   2.689  1.00  0.00     0.174 HD
ATOM     37  H7  UNL     1       3.216  -2.757   2.408  1.00  0.00     0.207 HD
ATOM     38  H5  UNL     1       4.478  -1.726  -0.577  1.00  0.00     0.177 HD
BRANCH  34  39
HETATM   39  N8  UNL     1       5.016  -3.468   3.160  1.00  0.00    -0.235 N 
HETATM   40  N9  UNL     1       6.175  -3.873   2.801  1.00  0.00    -0.330 N 
ATOM     41  H92 UNL     1       6.518  -3.571   1.889  1.00  0.00     0.178 HD
ATOM     42  H91 UNL     1       6.756  -4.475   3.384  1.00  0.00     0.178 HD
ATOM     43  H8  UNL     1       4.657  -3.760   4.069  1.00  0.00     0.208 HD
ENDBRANCH  34  39
ENDBRANCH  30  31
ENDBRANCH  29  30
ENDBRANCH  27  29
ENDBRANCH  20  27
ENDBRANCH   7   8
ENDBRANCH   5   6
ENDBRANCH   4   5
ENDBRANCH   3   4
TORSDOF 12
