REMARK  11 active torsions:
REMARK  status: ('A' for Active; 'I' for Inactive)
REMARK    1  A    between atoms: C2_2  and  C3_3 
REMARK    2  A    between atoms: C2_2  and  N5_19 
REMARK    3  A    between atoms: C3_3  and  C4_4 
REMARK    4  A    between atoms: C4_4  and  C5_5 
REMARK    5  A    between atoms: C5_5  and  C6_6 
REMARK    6  A    between atoms: C6_6  and  C7_7 
REMARK    7  A    between atoms: C7_7  and  C8_8 
REMARK    8  A    between atoms: C8_8  and  N1_9 
REMARK       I    between atoms: N5_19  and  C11_20 
REMARK    9  A    between atoms: C11_20  and  C12_22 
REMARK   10  A    between atoms: C12_22  and  C13_24 
REMARK   11  A    between atoms: C13_24  and  N6_25 
ROOT
HETATM    1  N5  UNL     1       0.098  -2.496  -1.504  1.00  0.00    -0.373 NA
HETATM    2  C11 UNL     1      -1.181  -2.491  -1.752  1.00  0.00     0.363 C 
HETATM    3  O1  UNL     1      -1.726  -3.334  -2.564  1.00  0.00    -0.248 OA
ENDROOT
BRANCH   2   4
HETATM    4  C12 UNL     1      -2.129  -1.532  -1.137  1.00  0.00     0.249 C 
HETATM    5  O2  UNL     1      -1.625  -0.684  -0.336  1.00  0.00    -0.284 OA
BRANCH   4   6
HETATM    6  C13 UNL     1      -3.560  -1.591  -1.460  1.00  0.00     0.221 C 
BRANCH   6   7
HETATM    7  N6  UNL     1      -4.340  -0.484  -0.887  1.00  0.00    -0.319 N 
HETATM    8  C14 UNL     1      -5.089  -0.837   0.115  1.00  0.00     0.137 A 
HETATM    9  N7  UNL     1      -5.180  -2.076   0.627  1.00  0.00    -0.336 N 
HETATM   10  C17 UNL     1      -5.959  -0.044   0.868  1.00  0.00     0.082 A 
HETATM   11  C15 UNL     1      -6.067  -2.041   1.649  1.00  0.00     0.184 A 
ATOM     12  H7  UNL     1      -4.671  -2.898   0.303  1.00  0.00     0.168 HD
HETATM   13  N8  UNL     1      -6.553  -0.823   1.816  1.00  0.00    -0.344 N 
HETATM   14  C16 UNL     1      -7.509  -0.300   2.759  1.00  0.00     0.157 C 
HETATM   15  C18 UNL     1      -6.212   1.244   0.727  1.00  0.00     0.065 A 
HETATM   16  C19 UNL     1      -5.664   2.182  -0.240  1.00  0.00     0.058 A 
HETATM   17  C20 UNL     1      -6.051   3.515  -0.281  1.00  0.00     0.119 A 
HETATM   18  N10 UNL     1      -4.763   1.914  -1.178  1.00  0.00    -0.302 N 
HETATM   19  N9  UNL     1      -5.330   4.037  -1.301  1.00  0.00    -0.359 N 
HETATM   20  C21 UNL     1      -4.568   3.100  -1.834  1.00  0.00     0.189 A 
ATOM     21  H9  UNL     1      -5.370   5.008  -1.611  1.00  0.00     0.166 HD
HETATM   22  C22 UNL     1      -4.074   0.743  -1.541  1.00  0.00     0.194 A 
ENDBRANCH   6   7
ENDBRANCH   4   6
ENDBRANCH   2   4
BRANCH   1  23
HETATM   23  C2  UNL     1       1.294  -2.312  -1.396  1.00  0.00     0.062 C 
HETATM   24  C1  UNL     1       1.867  -1.084  -2.085  1.00  0.00     0.080 C 
BRANCH  23  25
HETATM   25  C3  UNL     1       2.246  -3.180  -0.656  1.00  0.00     0.068 C 
BRANCH  25  26
HETATM   26  C4  UNL     1       2.840  -2.612   0.566  1.00  0.00     0.007 C 
BRANCH  26  27
HETATM   27  C5  UNL     1       3.662  -1.372   0.449  1.00  0.00     0.000 C 
BRANCH  27  28
HETATM   28  C6  UNL     1       4.215  -1.010   1.839  1.00  0.00     0.002 C 
BRANCH  28  29
HETATM   29  C7  UNL     1       5.057   0.230   1.797  1.00  0.00     0.022 C 
BRANCH  29  30
HETATM   30  C8  UNL     1       6.250   0.116   0.896  1.00  0.00     0.150 C 
BRANCH  30  31
HETATM   31  N1  UNL     1       7.009   1.358   0.925  1.00  0.00    -0.273 N 
HETATM   32  C9  UNL     1       8.008   1.602   1.799  1.00  0.00     0.218 A 
HETATM   33  N2  UNL     1       8.454   2.837   1.506  1.00  0.00    -0.185 N 
HETATM   34  C10 UNL     1       7.742   3.332   0.476  1.00  0.00     0.691 A 
ATOM     35  H2  UNL     1       9.211   3.321   1.988  1.00  0.00     0.185 HD
HETATM   36  N3  UNL     1       7.953   4.501  -0.020  1.00  0.00    -0.233 N 
HETATM   37  N4  UNL     1       6.841   2.393   0.125  1.00  0.00    -0.129 N 
ATOM     38  H32 UNL     1       8.635   5.212   0.246  1.00  0.00     0.174 HD
ATOM     39  H31 UNL     1       7.414   4.876  -0.800  1.00  0.00     0.174 HD
ATOM     40  H4  UNL     1       6.153   2.469  -0.624  1.00  0.00     0.206 HD
ENDBRANCH  30  31
ENDBRANCH  29  30
ENDBRANCH  28  29
ENDBRANCH  27  28
ENDBRANCH  26  27
ENDBRANCH  25  26
ENDBRANCH  23  25
ENDBRANCH   1  23
TORSDOF 11
