REMARK  12 active torsions:
REMARK  status: ('A' for Active; 'I' for Inactive)
REMARK    1  A    between atoms: C2_2  and  C3_3 
REMARK    2  A    between atoms: C3_3  and  C4_4 
REMARK    3  A    between atoms: C4_4  and  C5_5 
REMARK    4  A    between atoms: C5_5  and  C6_6 
REMARK    5  A    between atoms: C6_6  and  N1_7 
REMARK    6  A    between atoms: C9_10  and  C10_11 
REMARK    7  A    between atoms: C10_11  and  C11_12 
REMARK    8  A    between atoms: C11_12  and  C12_13 
REMARK    9  A    between atoms: C12_13  and  C13_14 
REMARK   10  A    between atoms: C13_14  and  C14_15 
REMARK   11  A    between atoms: C16_19  and  N3_20 
REMARK   12  A    between atoms: C21_32  and  N7_33 
ROOT
HETATM    1  C11 UNL     1      -1.651  -0.643   0.336  1.00  0.00     0.005 C 
ENDROOT
BRANCH   1   2
HETATM    2  C10 UNL     1      -0.761  -1.883   0.426  1.00  0.00     0.042 C 
BRANCH   2   3
HETATM    3  C9  UNL     1       0.596  -1.627   0.002  1.00  0.00    -0.013 C 
HETATM    4  C8  UNL     1       1.550  -1.395   0.998  1.00  0.00     0.028 C 
HETATM    5  C7  UNL     1       2.681  -0.564   0.921  1.00  0.00     0.096 C 
HETATM    6  N1  UNL     1       3.164   0.075  -0.159  1.00  0.00    -0.310 N 
HETATM    7  C24 UNL     1       2.541   0.238  -1.338  1.00  0.00     0.327 C 
HETATM    8  N8  UNL     1       1.562  -0.526  -1.935  1.00  0.00    -0.294 N 
HETATM    9  O1  UNL     1       2.932   1.251  -1.974  1.00  0.00    -0.246 OA
HETATM   10  C21 UNL     1       0.865  -1.570  -1.348  1.00  0.00     0.112 C 
ATOM     11  H8  UNL     1       1.328  -0.302  -2.902  1.00  0.00     0.172 HD
BRANCH   6  12
HETATM   12  C6  UNL     1       4.537   0.661  -0.038  1.00  0.00     0.133 C 
BRANCH  12  13
HETATM   13  C5  UNL     1       5.437  -0.444  -0.476  1.00  0.00     0.020 C 
BRANCH  13  14
HETATM   14  C4  UNL     1       6.879  -0.255  -0.563  1.00  0.00     0.002 C 
BRANCH  14  15
HETATM   15  C3  UNL     1       7.731   0.095   0.569  1.00  0.00    -0.000 C 
BRANCH  15  16
HETATM   16  C2  UNL     1       7.483   1.402   1.212  1.00  0.00    -0.005 C 
HETATM   17  C1  UNL     1       7.626   2.571   0.242  1.00  0.00     0.005 C 
ENDBRANCH  15  16
ENDBRANCH  14  15
ENDBRANCH  13  14
ENDBRANCH  12  13
ENDBRANCH   6  12
BRANCH  10  18
HETATM   18  N7  UNL     1       0.546  -2.503  -2.123  1.00  0.00    -0.375 N 
HETATM   19  C22 UNL     1       0.857  -2.345  -3.527  1.00  0.00     0.150 C 
HETATM   20  C23 UNL     1      -0.024  -3.751  -1.737  1.00  0.00     0.150 C 
ENDBRANCH  10  18
ENDBRANCH   2   3
ENDBRANCH   1   2
BRANCH   1  21
HETATM   21  C12 UNL     1      -1.146   0.473   1.191  1.00  0.00     0.006 C 
BRANCH  21  22
HETATM   22  C13 UNL     1      -2.110   1.640   1.013  1.00  0.00     0.061 C 
BRANCH  22  23
HETATM   23  C14 UNL     1      -3.477   1.230   1.435  1.00  0.00     0.055 A 
HETATM   24  C15 UNL     1      -4.503   1.234   0.570  1.00  0.00     0.102 A 
HETATM   25  N2  UNL     1      -4.541   1.570  -0.737  1.00  0.00    -0.188 N 
HETATM   26  C18 UNL     1      -5.777   0.865   0.918  1.00  0.00     0.102 A 
HETATM   27  C16 UNL     1      -5.786   1.421  -1.204  1.00  0.00     0.678 A 
ATOM     28  H2  UNL     1      -3.742   1.889  -1.285  1.00  0.00     0.184 HD
HETATM   29  N4  UNL     1      -6.543   0.987  -0.180  1.00  0.00    -0.188 N 
ATOM     30  H4  UNL     1      -7.541   0.783  -0.229  1.00  0.00     0.184 HD
HETATM   31  C19 UNL     1      -6.028   0.485   2.156  1.00  0.00     0.051 A 
HETATM   32  C20 UNL     1      -7.393   0.089   2.530  1.00  0.00     0.072 C 
HETATM   33  N5  UNL     1      -4.954   0.478   3.085  1.00  0.00    -0.303 N 
HETATM   34  N6  UNL     1      -3.648   0.835   2.778  1.00  0.00    -0.302 N 
ATOM     35  H5  UNL     1      -5.156   0.191   4.043  1.00  0.00     0.186 HD
ATOM     36  H6  UNL     1      -2.887   0.814   3.457  1.00  0.00     0.186 HD
BRANCH  27  37
HETATM   37  N3  UNL     1      -6.198   1.648  -2.410  1.00  0.00    -0.230 N 
HETATM   38  C17 UNL     1      -7.576   1.451  -2.801  1.00  0.00     0.165 C 
ATOM     39  H3  UNL     1      -5.529   1.976  -3.107  1.00  0.00     0.177 HD
ENDBRANCH  27  37
ENDBRANCH  22  23
ENDBRANCH  21  22
ENDBRANCH   1  21
TORSDOF 12
