REMARK  10 active torsions:
REMARK  status: ('A' for Active; 'I' for Inactive)
REMARK       I    between atoms: C2_2  and  N1_4 
REMARK    1  A    between atoms: C4_7  and  N2_8 
REMARK       I    between atoms: N2_8  and  C5_10 
REMARK    2  A    between atoms: C5_10  and  C6_12 
REMARK    3  A    between atoms: C6_12  and  C7_13 
REMARK    4  A    between atoms: C7_13  and  C8_14 
REMARK    5  A    between atoms: C8_14  and  S1_15 
REMARK    6  A    between atoms: C14_22  and  C15_23 
REMARK    7  A    between atoms: C16_24  and  C17_25 
REMARK    8  A    between atoms: C17_25  and  C18_26 
REMARK    9  A    between atoms: C18_26  and  N4_27 
REMARK       I    between atoms: C19_29  and  N6_31 
REMARK   10  A    between atoms: N6_31  and  N7_33 
ROOT
HETATM    1  C1  UNL     1      -0.421   2.424  -0.804  1.00  0.00     0.117 C 
HETATM    2  C2  UNL     1      -0.320   1.464   0.321  1.00  0.00     0.217 C 
HETATM    3  O1  UNL     1      -1.158   1.648   1.272  1.00  0.00    -0.274 OA
HETATM    4  N1  UNL     1       0.569   0.409   0.445  1.00  0.00    -0.330 N 
ATOM      5  H1  UNL     1       1.534   0.685   0.627  1.00  0.00     0.168 HD
HETATM    6  C3  UNL     1       0.383  -0.843   0.370  1.00  0.00     0.048 C 
HETATM    7  C4  UNL     1      -0.797  -1.677   0.129  1.00  0.00     0.159 C 
HETATM    8  C11 UNL     1      -0.193  -2.718  -0.823  1.00  0.00     0.268 C 
HETATM    9  N3  UNL     1       1.193  -2.830  -0.424  1.00  0.00    -0.060 N 
HETATM   10  C12 UNL     1       2.080  -2.826  -1.571  1.00  0.00     0.273 C 
HETATM   11  C13 UNL     1       1.403  -4.140   0.216  1.00  0.00     0.273 C 
HETATM   12  C14 UNL     1       1.493  -1.825   0.537  1.00  0.00     0.259 C 
ENDROOT
BRANCH  12  13
HETATM   13  C15 UNL     1       2.819  -1.194   0.352  1.00  0.00     0.008 C 
HETATM   14  C16 UNL     1       3.386  -0.543   1.362  1.00  0.00    -0.023 C 
BRANCH  14  15
HETATM   15  C17 UNL     1       4.750   0.103   1.162  1.00  0.00     0.071 C 
BRANCH  15  16
HETATM   16  C18 UNL     1       4.564   1.563   1.417  1.00  0.00     0.067 C 
BRANCH  16  17
HETATM   17  N4  UNL     1       5.679   2.403   1.294  1.00  0.00    -0.343 N 
HETATM   18  C19 UNL     1       6.867   2.138   1.042  1.00  0.00     0.207 C 
HETATM   19  N5  UNL     1       7.371   0.850   0.812  1.00  0.00    -0.062 NA
HETATM   20  N6  UNL     1       7.819   3.216   0.975  1.00  0.00    -0.259 N 
ATOM     21  H6  UNL     1       8.611   3.214   1.618  1.00  0.00     0.191 HD
ATOM     22  H4  UNL     1       5.484   3.394   1.434  1.00  0.00     0.167 HD
BRANCH  20  23
HETATM   23  N7  UNL     1       7.696   4.255   0.068  1.00  0.00    -0.247 N 
HETATM   24  N8  UNL     1       7.778   5.481   0.372  1.00  0.00    -0.331 N 
ATOM     25  H82 UNL     1       7.946   5.701   1.354  1.00  0.00     0.178 HD
ATOM     26  H81 UNL     1       7.687   6.246  -0.296  1.00  0.00     0.178 HD
ATOM     27  H7  UNL     1       7.528   4.017  -0.909  1.00  0.00     0.207 HD
ENDBRANCH  20  23
ENDBRANCH  16  17
ENDBRANCH  15  16
ENDBRANCH  14  15
ENDBRANCH  12  13
BRANCH   7  28
HETATM   28  N2  UNL     1      -1.923  -1.025  -0.422  1.00  0.00    -0.350 N 
HETATM   29  C5  UNL     1      -3.195  -1.169   0.169  1.00  0.00     0.218 C 
HETATM   30  O2  UNL     1      -3.360  -1.870   1.191  1.00  0.00    -0.274 OA
ATOM     31  H2  UNL     1      -1.815  -0.445  -1.254  1.00  0.00     0.163 HD
BRANCH  29  32
HETATM   32  C6  UNL     1      -4.401  -0.477  -0.418  1.00  0.00     0.103 C 
BRANCH  32  33
HETATM   33  C7  UNL     1      -5.585  -0.839   0.423  1.00  0.00     0.019 C 
BRANCH  33  34
HETATM   34  C8  UNL     1      -6.902  -0.295  -0.018  1.00  0.00     0.063 C 
BRANCH  34  35
HETATM   35  S1  UNL     1      -7.042   1.445  -0.107  1.00  0.00    -0.228 SA
HETATM   36  C9  UNL     1      -8.741   1.778  -0.636  1.00  0.00     0.078 C 
HETATM   37  C10 UNL     1      -6.002   2.119  -1.362  1.00  0.00     0.078 C 
ENDBRANCH  34  35
ENDBRANCH  33  34
ENDBRANCH  32  33
ENDBRANCH  29  32
ENDBRANCH   7  28
TORSDOF 10
