REMARK  10 active torsions:
REMARK  status: ('A' for Active; 'I' for Inactive)
REMARK    1  A    between atoms: C2_2  and  N1_3 
REMARK    2  A    between atoms: N1_3  and  C3_4 
REMARK    3  A    between atoms: C3_4  and  C4_5 
REMARK    4  A    between atoms: C4_5  and  C5_6 
REMARK    5  A    between atoms: C4_5  and  C10_19 
REMARK    6  A    between atoms: C5_6  and  C6_7 
REMARK    7  A    between atoms: C6_7  and  N3_10 
REMARK       I    between atoms: C8_12  and  N5_14 
REMARK    8  A    between atoms: C10_19  and  N8_20 
REMARK    9  A    between atoms: C15_25  and  C16_26 
REMARK   10  A    between atoms: C16_26  and  N9_27 
ROOT
HETATM    1  C6  UNL     1       2.590  -0.634  -1.690  1.00  0.00     0.192 C 
HETATM    2  C7  UNL     1       1.609  -1.648  -1.849  1.00  0.00     0.084 C 
HETATM    3  N2  UNL     1       0.841  -2.470  -1.996  1.00  0.00    -0.195 NA
ENDROOT
BRANCH   1   4
HETATM    4  C5  UNL     1       2.554   0.263  -0.513  1.00  0.00     0.048 C 
BRANCH   4   5
HETATM    5  C4  UNL     1       1.383   1.127  -0.265  1.00  0.00     0.043 C 
BRANCH   5   6
HETATM    6  C3  UNL     1       0.034   0.721  -0.010  1.00  0.00     0.247 C 
BRANCH   6   7
HETATM    7  N1  UNL     1      -0.505  -0.003   1.079  1.00  0.00    -0.041 N 
HETATM    8  C13 UNL     1      -1.238   0.905   1.977  1.00  0.00     0.289 C 
HETATM    9  C14 UNL     1      -2.400   1.405   1.191  1.00  0.00     0.063 C 
HETATM   10  N10 UNL     1      -1.750   0.150   3.068  1.00  0.00    -0.375 N 
HETATM   11  C15 UNL     1      -2.579   0.356   0.071  1.00  0.00     0.047 C 
HETATM   12  C20 UNL     1      -1.717  -0.717   0.585  1.00  0.00     0.203 C 
HETATM   13  C21 UNL     1      -2.308  -1.619   1.600  1.00  0.00     0.078 C 
HETATM   14  C22 UNL     1      -2.252  -1.013   2.939  1.00  0.00     0.059 C 
ATOM     15  H10 UNL     1      -1.713   0.561   4.001  1.00  0.00     0.160 HD
BRANCH   7  16
HETATM   16  C2  UNL     1       0.422  -0.800   1.750  1.00  0.00     0.236 C 
HETATM   17  C1  UNL     1       1.180  -0.107   2.872  1.00  0.00     0.035 C 
ENDBRANCH   7  16
BRANCH  11  18
HETATM   18  C16 UNL     1      -4.033   0.215  -0.091  1.00  0.00     0.242 C 
BRANCH  18  19
HETATM   19  N9  UNL     1      -4.537  -0.658  -1.102  1.00  0.00    -0.078 N 
HETATM   20  C17 UNL     1      -5.677  -1.401  -0.571  1.00  0.00     0.271 C 
HETATM   21  C18 UNL     1      -3.627  -1.560  -1.718  1.00  0.00     0.271 C 
HETATM   22  C19 UNL     1      -5.160   0.155  -2.192  1.00  0.00     0.271 C 
ENDBRANCH  18  19
ENDBRANCH  11  18
ENDBRANCH   6   7
ENDBRANCH   5   6
BRANCH   5  23
HETATM   23  C10 UNL     1       1.356   2.236  -1.378  1.00  0.00     0.277 C 
BRANCH  23  24
HETATM   24  N8  UNL     1       0.592   3.359  -0.954  1.00  0.00     0.080 N 
HETATM   25  C11 UNL     1       0.605   4.334  -2.010  1.00  0.00     0.309 C 
HETATM   26  C12 UNL     1       1.023   3.949   0.274  1.00  0.00     0.309 C 
ENDBRANCH  23  24
ENDBRANCH   5  23
ENDBRANCH   4   5
ENDBRANCH   1   4
BRANCH   1  27
HETATM   27  N3  UNL     1       3.912  -1.256  -1.667  1.00  0.00    -0.347 N 
HETATM   28  C8  UNL     1       4.278  -2.284  -1.063  1.00  0.00     0.191 C 
HETATM   29  N4  UNL     1       3.395  -3.038  -0.260  1.00  0.00    -0.063 NA
HETATM   30  N5  UNL     1       5.623  -2.722  -1.175  1.00  0.00    -0.307 N 
HETATM   31  C9  UNL     1       6.474  -2.329  -0.266  1.00  0.00     0.203 C 
ATOM     32  H5  UNL     1       5.916  -3.326  -1.943  1.00  0.00     0.170 HD
HETATM   33  N6  UNL     1       6.082  -1.494   0.802  1.00  0.00    -0.066 NA
HETATM   34  N7  UNL     1       7.842  -2.729  -0.314  1.00  0.00    -0.066 NA
ATOM     35  H3  UNL     1       4.631  -0.787  -2.218  1.00  0.00     0.163 HD
ENDBRANCH   1  27
TORSDOF 10
