REMARK  15 active torsions:
REMARK  status: ('A' for Active; 'I' for Inactive)
REMARK    1  A    between atoms: C3_3  and  C4_4 
REMARK    2  A    between atoms: C4_4  and  C5_5 
REMARK    3  A    between atoms: C5_5  and  C6_6 
REMARK    4  A    between atoms: C7_7  and  C8_8 
REMARK    5  A    between atoms: C9_9  and  C10_10 
REMARK    6  A    between atoms: C10_10  and  N1_12 
REMARK    7  A    between atoms: N1_12  and  C12_15 
REMARK    8  A    between atoms: C12_15  and  C13_16 
REMARK    9  A    between atoms: C12_15  and  C19_32 
REMARK   10  A    between atoms: C13_16  and  O1_17 
REMARK   11  A    between atoms: C13_16  and  N2_19 
REMARK       I    between atoms: N2_19  and  C14_20 
REMARK       I    between atoms: C14_20  and  N4_22 
REMARK   12  A    between atoms: N4_22  and  C15_24 
REMARK   13  A    between atoms: C15_24  and  C16_25 
REMARK   14  A    between atoms: C16_25  and  C17_26 
REMARK   15  A    between atoms: C17_26  and  N5_27 
ROOT
HETATM    1  C1  UNL     1     -10.537   3.954   1.141  1.00  0.00     0.012 C 
HETATM    2  C2  UNL     1     -10.380   3.139   0.263  1.00  0.00    -0.117 C 
HETATM    3  C3  UNL     1     -10.181   2.141  -0.813  1.00  0.00     0.094 C 
ENDROOT
BRANCH   3   4
HETATM    4  C4  UNL     1      -8.759   1.625  -0.615  1.00  0.00     0.024 C 
BRANCH   4   5
HETATM    5  C5  UNL     1      -7.847   2.826  -0.745  1.00  0.00     0.096 C 
BRANCH   5   6
HETATM    6  C6  UNL     1      -6.471   2.316  -0.552  1.00  0.00    -0.092 C 
HETATM    7  C7  UNL     1      -5.355   1.891  -0.377  1.00  0.00    -0.015 C 
BRANCH   7   8
HETATM    8  C8  UNL     1      -4.052   1.389  -0.150  1.00  0.00    -0.013 C 
HETATM    9  C9  UNL     1      -2.939   0.959   0.066  1.00  0.00    -0.059 C 
BRANCH   9  10
HETATM   10  C10 UNL     1      -1.595   0.448   0.354  1.00  0.00     0.262 C 
HETATM   11  C11 UNL     1      -1.247   0.792   1.776  1.00  0.00     0.054 C 
BRANCH  10  12
HETATM   12  N1  UNL     1      -1.622  -0.964   0.104  1.00  0.00    -0.044 N 
ATOM     13  H12 UNL     1      -2.401  -1.406   0.592  1.00  0.00     0.279 HD
ATOM     14  H11 UNL     1      -1.897  -1.158  -0.859  1.00  0.00     0.279 HD
BRANCH  12  15
HETATM   15  C12 UNL     1      -0.358  -1.626   0.430  1.00  0.00     0.332 C 
BRANCH  15  16
HETATM   16  C13 UNL     1       0.626  -0.989  -0.528  1.00  0.00     0.229 C 
BRANCH  16  17
HETATM   17  O1  UNL     1       0.150  -0.821  -1.741  1.00  0.00    -0.337 OA
ATOM     18  H1  UNL     1       0.767  -0.421  -2.342  1.00  0.00     0.220 HD
ENDBRANCH  16  17
BRANCH  16  19
HETATM   19  N2  UNL     1       1.872  -0.590  -0.286  1.00  0.00    -0.351 NA
HETATM   20  C14 UNL     1       2.976  -0.250  -0.074  1.00  0.00     0.265 C 
HETATM   21  N3  UNL     1       4.080  -1.168  -0.172  1.00  0.00    -0.049 NA
HETATM   22  N4  UNL     1       3.384   1.093   0.299  1.00  0.00    -0.353 N 
ATOM     23  H4  UNL     1       3.240   1.434   1.249  1.00  0.00     0.163 HD
BRANCH  22  24
HETATM   24  C15 UNL     1       3.990   1.927  -0.688  1.00  0.00     0.125 C 
BRANCH  24  25
HETATM   25  C16 UNL     1       5.352   1.510  -1.138  1.00  0.00     0.039 C 
BRANCH  25  26
HETATM   26  C17 UNL     1       6.393   1.480  -0.063  1.00  0.00     0.123 C 
BRANCH  26  27
HETATM   27  N5  UNL     1       6.600   2.799   0.529  1.00  0.00    -0.367 N 
HETATM   28  C18 UNL     1       7.728   3.417   0.414  1.00  0.00     0.196 C 
HETATM   29  N6  UNL     1       7.877   4.692   1.005  1.00  0.00    -0.067 NA
HETATM   30  N7  UNL     1       8.846   2.878  -0.282  1.00  0.00    -0.067 NA
ATOM     31  H5  UNL     1       5.838   3.241   1.044  1.00  0.00     0.161 HD
ENDBRANCH  26  27
ENDBRANCH  25  26
ENDBRANCH  24  25
ENDBRANCH  22  24
ENDBRANCH  16  19
ENDBRANCH  15  16
BRANCH  15  32
HETATM   32  C19 UNL     1      -0.621  -3.085   0.056  1.00  0.00     0.365 C 
HETATM   33  O2  UNL     1      -0.834  -3.229  -1.285  1.00  0.00    -0.355 OA
HETATM   34  C20 UNL     1       0.007  -4.217  -1.715  1.00  0.00     0.198 C 
HETATM   35  C21 UNL     1       0.200  -5.123  -0.494  1.00  0.00     0.266 C 
HETATM   36  N8  UNL     1       0.213  -4.072   0.544  1.00  0.00    -0.044 N 
HETATM   37  C22 UNL     1      -0.305  -4.704   1.786  1.00  0.00     0.275 C 
HETATM   38  C23 UNL     1       1.590  -3.760   0.766  1.00  0.00     0.275 C 
ENDBRANCH  15  32
ENDBRANCH  12  15
ENDBRANCH  10  12
ENDBRANCH   9  10
ENDBRANCH   7   8
ENDBRANCH   5   6
ENDBRANCH   4   5
ENDBRANCH   3   4
TORSDOF 15
