REMARK  12 active torsions:
REMARK  status: ('A' for Active; 'I' for Inactive)
REMARK       I    between atoms: N1_3  and  C3_5 
REMARK       I    between atoms: C3_5  and  N7_26 
REMARK    1  A    between atoms: N2_6  and  C4_8 
REMARK    2  A    between atoms: C4_8  and  C5_9 
REMARK    3  A    between atoms: C5_9  and  N3_10 
REMARK    4  A    between atoms: N3_10  and  C8_13 
REMARK    5  A    between atoms: C8_13  and  C9_14 
REMARK    6  A    between atoms: C9_14  and  C10_15 
REMARK    7  A    between atoms: C13_20  and  N5_21 
REMARK    8  A    between atoms: C15_28  and  C16_29 
REMARK    9  A    between atoms: C15_28  and  N9_36 
REMARK   10  A    between atoms: C16_29  and  N8_31 
REMARK       I    between atoms: N8_31  and  C18_33 
REMARK   11  A    between atoms: N9_36  and  C21_38 
REMARK   12  A    between atoms: C21_38  and  C22_39 
ROOT
HETATM    1  C1  UNL     1      -1.561  -3.234   2.618  1.00  0.00     0.124 C 
HETATM    2  C2  UNL     1      -1.357  -2.026   2.555  1.00  0.00    -0.059 C 
HETATM    3  N1  UNL     1      -1.127  -0.655   2.510  1.00  0.00    -0.161 N 
ATOM      4  H1  UNL     1      -0.735  -0.167   3.316  1.00  0.00     0.194 HD
HETATM    5  C3  UNL     1      -1.450   0.058   1.314  1.00  0.00     0.686 C 
HETATM    6  N2  UNL     1      -0.671  -0.088   0.296  1.00  0.00    -0.224 N 
ATOM      7  H2  UNL     1      -0.915   0.427  -0.550  1.00  0.00     0.177 HD
HETATM    8  N7  UNL     1      -2.568   0.884   1.338  1.00  0.00    -0.178 N 
ATOM      9  H7  UNL     1      -2.381   1.780   1.788  1.00  0.00     0.185 HD
HETATM   10  C15 UNL     1      -3.747   0.787   0.938  1.00  0.00     0.117 C 
ENDROOT
BRANCH   6  11
HETATM   11  C4  UNL     1       0.504  -0.906   0.242  1.00  0.00     0.166 C 
BRANCH  11  12
HETATM   12  C5  UNL     1       1.259  -0.714  -1.057  1.00  0.00     0.256 C 
BRANCH  12  13
HETATM   13  N3  UNL     1       2.441  -1.504  -1.162  1.00  0.00    -0.073 N 
HETATM   14  C6  UNL     1       2.216  -2.894  -0.762  1.00  0.00     0.272 C 
HETATM   15  C7  UNL     1       2.763  -1.576  -2.597  1.00  0.00     0.272 C 
BRANCH  13  16
HETATM   16  C8  UNL     1       3.570  -1.037  -0.411  1.00  0.00     0.244 C 
BRANCH  16  17
HETATM   17  C9  UNL     1       3.824   0.431  -0.497  1.00  0.00     0.104 C 
BRANCH  17  18
HETATM   18  C10 UNL     1       5.041   0.731   0.335  1.00  0.00     0.086 A 
HETATM   19  N4  UNL     1       4.893   1.015   1.659  1.00  0.00    -0.355 N 
HETATM   20  C11 UNL     1       5.924   1.299   2.467  1.00  0.00     0.093 A 
ATOM     21  H4  UNL     1       3.953   1.011   2.054  1.00  0.00     0.166 HD
HETATM   22  C12 UNL     1       7.181   1.295   1.903  1.00  0.00     0.065 A 
HETATM   23  C13 UNL     1       7.382   1.016   0.580  1.00  0.00     0.103 A 
HETATM   24  N6  UNL     1       6.281   0.737  -0.179  1.00  0.00    -0.328 N 
HETATM   25  C14 UNL     1       6.519   0.452  -1.578  1.00  0.00     0.159 C 
BRANCH  23  26
HETATM   26  N5  UNL     1       8.561   1.006   0.017  1.00  0.00    -0.385 N 
ATOM     27  H52 UNL     1       9.383   1.214   0.584  1.00  0.00     0.157 HD
ATOM     28  H51 UNL     1       8.711   0.798  -0.970  1.00  0.00     0.157 HD
ENDBRANCH  23  26
ENDBRANCH  17  18
ENDBRANCH  16  17
ENDBRANCH  13  16
ENDBRANCH  12  13
ENDBRANCH  11  12
ENDBRANCH   6  11
BRANCH  10  29
HETATM   29  C16 UNL     1      -4.647   1.980   1.189  1.00  0.00     0.148 C 
HETATM   30  C17 UNL     1      -5.646   1.566   2.243  1.00  0.00     0.040 C 
BRANCH  29  31
HETATM   31  N8  UNL     1      -5.348   2.367   0.001  1.00  0.00    -0.350 N 
HETATM   32  C18 UNL     1      -5.115   3.627  -0.590  1.00  0.00     0.214 C 
HETATM   33  C19 UNL     1      -5.794   4.105  -1.814  1.00  0.00     0.117 C 
HETATM   34  O1  UNL     1      -4.274   4.417  -0.057  1.00  0.00    -0.274 OA
ATOM     35  H8  UNL     1      -6.021   1.727  -0.421  1.00  0.00     0.163 HD
ENDBRANCH  29  31
ENDBRANCH  10  29
BRANCH  10  36
HETATM   36  N9  UNL     1      -4.375  -0.324   0.271  1.00  0.00    -0.372 N 
HETATM   37  C20 UNL     1      -4.927  -1.429   1.032  1.00  0.00     0.150 C 
BRANCH  36  38
HETATM   38  C21 UNL     1      -4.507  -0.354  -1.162  1.00  0.00     0.137 C 
BRANCH  38  39
HETATM   39  C22 UNL     1      -3.713  -1.420  -1.798  1.00  0.00     0.143 C 
HETATM   40  C23 UNL     1      -4.040  -2.789  -1.450  1.00  0.00     0.060 C 
HETATM   41  N10 UNL     1      -4.299  -3.901  -1.202  1.00  0.00    -0.197 NA
ENDBRANCH  38  39
ENDBRANCH  36  38
ENDBRANCH  10  36
TORSDOF 12
