REMARK  13 active torsions:
REMARK  status: ('A' for Active; 'I' for Inactive)
REMARK    1  A    between atoms: C2_2  and  C3_3 
REMARK    2  A    between atoms: C3_3  and  C4_4 
REMARK    3  A    between atoms: C4_4  and  N1_5 
REMARK    4  A    between atoms: C7_8  and  C8_9 
REMARK    5  A    between atoms: C8_9  and  C9_10 
REMARK    6  A    between atoms: C9_10  and  C10_11 
REMARK    7  A    between atoms: C10_11  and  N2_12 
REMARK    8  A    between atoms: C12_14  and  C13_15 
REMARK       I    between atoms: C13_15  and  N3_17 
REMARK    9  A    between atoms: N3_17  and  C14_19 
REMARK   10  A    between atoms: C14_19  and  C15_20 
REMARK   11  A    between atoms: C15_20  and  N4_21 
REMARK   12  A    between atoms: N4_21  and  C16_23 
REMARK   13  A    between atoms: N8_34  and  N9_35 
ROOT
HETATM    1  N2  UNL     1       1.164   1.435  -2.741  1.00  0.00    -0.350 N 
HETATM    2  C11 UNL     1       2.129   1.052  -1.918  1.00  0.00     0.111 A 
HETATM    3  C12 UNL     1       2.970   1.999  -1.318  1.00  0.00     0.071 A 
HETATM    4  C18 UNL     1       2.728   3.296  -1.637  1.00  0.00     0.048 A 
HETATM    5  C19 UNL     1       3.604   4.386  -1.106  1.00  0.00     0.071 C 
HETATM    6  N8  UNL     1       1.729   3.677  -2.487  1.00  0.00    -0.262 N 
HETATM    7  C20 UNL     1       0.965   2.724  -3.022  1.00  0.00     0.208 A 
ENDROOT
BRANCH   3   8
HETATM    8  C13 UNL     1       3.961   1.494  -0.363  1.00  0.00     0.255 C 
HETATM    9  O1  UNL     1       4.480   0.374  -0.699  1.00  0.00    -0.268 OA
HETATM   10  N3  UNL     1       4.335   2.131   0.817  1.00  0.00    -0.352 N 
ATOM     11  H3  UNL     1       3.869   3.017   1.013  1.00  0.00     0.163 HD
BRANCH  10  12
HETATM   12  C14 UNL     1       5.285   1.701   1.784  1.00  0.00     0.167 C 
BRANCH  12  13
HETATM   13  C15 UNL     1       5.038   0.449   2.540  1.00  0.00     0.098 C 
BRANCH  13  14
HETATM   14  N4  UNL     1       4.961  -0.769   1.834  1.00  0.00    -0.202 N 
ATOM     15  H4  UNL     1       4.150  -0.924   1.236  1.00  0.00     0.183 HD
BRANCH  14  16
HETATM   16  C16 UNL     1       5.861  -1.708   1.898  1.00  0.00     0.700 A 
HETATM   17  N5  UNL     1       7.002  -1.752   2.599  1.00  0.00    -0.128 N 
HETATM   18  N6  UNL     1       7.598  -2.905   2.349  1.00  0.00    -0.237 N 
ATOM     19  H5  UNL     1       7.351  -1.021   3.219  1.00  0.00     0.205 HD
HETATM   20  C17 UNL     1       6.854  -3.619   1.487  1.00  0.00     0.353 A 
ATOM     21  H6  UNL     1       8.486  -3.207   2.749  1.00  0.00     0.192 HD
HETATM   22  O2  UNL     1       7.105  -4.768   1.020  1.00  0.00    -0.245 OA
HETATM   23  N7  UNL     1       5.761  -2.855   1.209  1.00  0.00    -0.139 N 
ATOM     24  H7  UNL     1       4.997  -3.111   0.584  1.00  0.00     0.189 HD
ENDBRANCH  14  16
ENDBRANCH  13  14
ENDBRANCH  12  13
ENDBRANCH  10  12
ENDBRANCH   3   8
BRANCH   1  25
HETATM   25  C10 UNL     1       0.316   0.419  -3.335  1.00  0.00     0.129 C 
BRANCH  25  26
HETATM   26  C9  UNL     1      -0.896   0.099  -2.522  1.00  0.00     0.026 C 
BRANCH  26  27
HETATM   27  C8  UNL     1      -0.584  -0.438  -1.149  1.00  0.00     0.059 C 
BRANCH  27  28
HETATM   28  C7  UNL     1      -1.871  -0.695  -0.477  1.00  0.00     0.014 A 
HETATM   29  C6  UNL     1      -2.427   0.305   0.288  1.00  0.00     0.042 A 
HETATM   30  C5  UNL     1      -3.638   0.124   0.933  1.00  0.00     0.094 A 
HETATM   31  N1  UNL     1      -4.310  -1.061   0.821  1.00  0.00    -0.347 N 
HETATM   32  C22 UNL     1      -3.732  -2.007   0.064  1.00  0.00     0.081 A 
HETATM   33  N10 UNL     1      -2.542  -1.843  -0.574  1.00  0.00    -0.345 N 
HETATM   34  C23 UNL     1      -4.432  -3.304  -0.095  1.00  0.00     0.089 C 
HETATM   35  C21 UNL     1      -1.989  -2.918  -1.370  1.00  0.00     0.157 C 
BRANCH  31  36
HETATM   36  C4  UNL     1      -5.576  -1.221   1.512  1.00  0.00     0.130 C 
BRANCH  36  37
HETATM   37  C3  UNL     1      -6.748  -0.797   0.671  1.00  0.00     0.020 C 
BRANCH  37  38
HETATM   38  C2  UNL     1      -8.043  -0.992   1.449  1.00  0.00    -0.003 C 
HETATM   39  C1  UNL     1      -8.063  -0.186   2.710  1.00  0.00     0.005 C 
ENDBRANCH  37  38
ENDBRANCH  36  37
ENDBRANCH  31  36
ENDBRANCH  27  28
ENDBRANCH  26  27
ENDBRANCH  25  26
ENDBRANCH   1  25
BRANCH   6  40
HETATM   40  N9  UNL     1       1.526   5.026  -2.781  1.00  0.00    -0.338 N 
ATOM     41  H92 UNL     1       2.110   5.755  -2.372  1.00  0.00     0.177 HD
ATOM     42  H91 UNL     1       0.780   5.311  -3.416  1.00  0.00     0.177 HD
ENDBRANCH   6  40
TORSDOF 13
