REMARK  11 active torsions:
REMARK  status: ('A' for Active; 'I' for Inactive)
REMARK    1  A    between atoms: C6_7  and  C7_8 
REMARK    2  A    between atoms: C7_8  and  C8_9 
REMARK    3  A    between atoms: C8_9  and  N2_10 
REMARK    4  A    between atoms: N4_16  and  C11_17 
REMARK    5  A    between atoms: C11_17  and  C12_18 
REMARK    6  A    between atoms: C12_18  and  C13_19 
REMARK    7  A    between atoms: C16_22  and  C17_23 
REMARK    8  A    between atoms: C17_23  and  C18_24 
REMARK    9  A    between atoms: C18_24  and  C19_25 
REMARK   10  A    between atoms: C21_27  and  N5_28 
REMARK   11  A    between atoms: N9_39  and  C25_40 
ROOT
HETATM    1  C25 UNL     1       4.004  -2.233   1.869  1.00  0.00     0.271 C 
HETATM    2  C26 UNL     1       3.887  -3.213   0.806  1.00  0.00     0.080 C 
HETATM    3  N10 UNL     1       3.780  -4.002  -0.052  1.00  0.00    -0.196 NA
ENDROOT
BRANCH   1   4
HETATM    4  N9  UNL     1       2.838  -1.350   1.848  1.00  0.00    -0.166 N 
HETATM    5  C9  UNL     1       2.798  -0.208   1.143  1.00  0.00     0.682 A 
HETATM    6  N2  UNL     1       3.699   0.262   0.442  1.00  0.00    -0.225 N 
HETATM    7  N3  UNL     1       1.609   0.513   1.225  1.00  0.00    -0.188 N 
ATOM      8  H2  UNL     1       3.337   1.134   0.056  1.00  0.00     0.177 HD
HETATM    9  C10 UNL     1       0.576   0.098   1.955  1.00  0.00     0.201 A 
ATOM     10  H3  UNL     1       1.527   1.389   0.708  1.00  0.00     0.185 HD
HETATM   11  N4  UNL     1       0.635  -1.042   2.650  1.00  0.00    -0.338 N 
HETATM   12  C24 UNL     1       1.759  -1.747   2.587  1.00  0.00     0.205 A 
BRANCH   6  13
HETATM   13  C8  UNL     1       4.966   0.126  -0.042  1.00  0.00     0.144 C 
BRANCH  13  14
HETATM   14  C7  UNL     1       5.202   1.208  -1.130  1.00  0.00     0.077 C 
BRANCH  14  15
HETATM   15  C6  UNL     1       6.556   1.126  -1.694  1.00  0.00     0.012 A 
HETATM   16  N1  UNL     1       7.562   1.843  -1.175  1.00  0.00    -0.364 N 
HETATM   17  C1  UNL     1       7.378   2.741  -0.069  1.00  0.00     0.155 C 
HETATM   18  C2  UNL     1       8.793   1.700  -1.749  1.00  0.00     0.090 A 
HETATM   19  C3  UNL     1       8.998   0.857  -2.814  1.00  0.00     0.017 A 
HETATM   20  C4  UNL     1       7.969   0.114  -3.357  1.00  0.00     0.003 A 
HETATM   21  C5  UNL     1       6.735   0.261  -2.777  1.00  0.00     0.025 A 
ENDBRANCH  14  15
ENDBRANCH  13  14
ENDBRANCH   6  13
BRANCH  11  22
HETATM   22  C11 UNL     1      -0.471  -1.495   3.438  1.00  0.00     0.136 C 
BRANCH  22  23
HETATM   23  C12 UNL     1      -1.446  -2.376   2.724  1.00  0.00     0.077 C 
BRANCH  23  24
HETATM   24  C13 UNL     1      -2.064  -1.705   1.557  1.00  0.00     0.011 A 
HETATM   25  C14 UNL     1      -1.614  -1.701   0.257  1.00  0.00     0.027 A 
HETATM   26  C15 UNL     1      -2.490  -0.956  -0.496  1.00  0.00     0.027 A 
HETATM   27  C16 UNL     1      -3.481  -0.507   0.366  1.00  0.00     0.009 A 
HETATM   28  N8  UNL     1      -3.202  -0.970   1.594  1.00  0.00    -0.363 N 
ATOM     29  H8  UNL     1      -3.762  -0.795   2.429  1.00  0.00     0.165 HD
BRANCH  27  30
HETATM   30  C17 UNL     1      -4.610   0.334  -0.086  1.00  0.00     0.063 C 
BRANCH  30  31
HETATM   31  C18 UNL     1      -5.753  -0.577  -0.506  1.00  0.00     0.063 C 
BRANCH  31  32
HETATM   32  C19 UNL     1      -6.866   0.291  -0.952  1.00  0.00     0.016 A 
HETATM   33  C20 UNL     1      -6.939   0.662  -2.278  1.00  0.00     0.073 A 
HETATM   34  C21 UNL     1      -7.946   1.467  -2.763  1.00  0.00     0.101 A 
HETATM   35  N6  UNL     1      -8.885   1.901  -1.908  1.00  0.00    -0.339 N 
HETATM   36  C22 UNL     1      -8.830   1.549  -0.610  1.00  0.00     0.184 A 
ATOM     37  H6  UNL     1      -9.641   2.498  -2.242  1.00  0.00     0.168 HD
HETATM   38  N7  UNL     1      -7.829   0.751  -0.138  1.00  0.00    -0.351 N 
HETATM   39  C23 UNL     1      -7.814   0.404   1.249  1.00  0.00     0.156 C 
BRANCH  34  40
HETATM   40  N5  UNL     1      -8.031   1.824  -3.996  1.00  0.00    -0.385 N 
ATOM     41  H52 UNL     1      -7.317   1.494  -4.646  1.00  0.00     0.157 HD
ATOM     42  H51 UNL     1      -8.777   2.420  -4.355  1.00  0.00     0.157 HD
ENDBRANCH  34  40
ENDBRANCH  31  32
ENDBRANCH  30  31
ENDBRANCH  27  30
ENDBRANCH  23  24
ENDBRANCH  22  23
ENDBRANCH  11  22
ENDBRANCH   1   4
TORSDOF 11
