REMARK  13 active torsions:
REMARK  status: ('A' for Active; 'I' for Inactive)
REMARK    1  A    between atoms: C2_3  and  C3_4 
REMARK    2  A    between atoms: C3_4  and  C4_5 
REMARK    3  A    between atoms: C4_5  and  C5_6 
REMARK    4  A    between atoms: C5_6  and  C6_7 
REMARK    5  A    between atoms: C6_7  and  C7_8 
REMARK    6  A    between atoms: N2_10  and  C9_11 
REMARK    7  A    between atoms: C9_11  and  C10_12 
REMARK    8  A    between atoms: C10_12  and  C11_13 
REMARK    9  A    between atoms: C11_13  and  O1_14 
REMARK   10  A    between atoms: O1_14  and  C12_15 
REMARK   11  A    between atoms: C12_15  and  C13_16 
REMARK       I    between atoms: C13_16  and  N3_18 
REMARK   12  A    between atoms: C15_23  and  O3_24 
REMARK   13  A    between atoms: C22_37  and  N9_38 
ROOT
HETATM    1  C7  UNL     1       0.414   0.150  -0.139  1.00  0.00     0.028 A 
HETATM    2  C8  UNL     1       1.702  -0.119  -0.615  1.00  0.00     0.119 A 
HETATM    3  N2  UNL     1       2.504   0.918  -0.346  1.00  0.00    -0.321 N 
HETATM    4  C15 UNL     1       1.786   1.846   0.286  1.00  0.00     0.223 A 
HETATM    5  N6  UNL     1       0.518   1.365   0.405  1.00  0.00    -0.325 N 
ATOM      6  H6  UNL     1      -0.251   1.866   0.851  1.00  0.00     0.169 HD
ENDROOT
BRANCH   1   7
HETATM    7  C6  UNL     1      -0.737  -0.767  -0.211  1.00  0.00     0.058 C 
BRANCH   7   8
HETATM    8  C5  UNL     1      -2.060  -0.170   0.139  1.00  0.00     0.006 C 
BRANCH   8   9
HETATM    9  C4  UNL     1      -2.517   0.891  -0.781  1.00  0.00     0.006 C 
BRANCH   9  10
HETATM   10  C3  UNL     1      -3.813   1.567  -0.559  1.00  0.00     0.059 C 
BRANCH  10  11
HETATM   11  C2  UNL     1      -5.033   0.768  -0.549  1.00  0.00     0.042 A 
HETATM   12  N1  UNL     1      -5.622   0.565  -1.767  1.00  0.00    -0.191 N 
HETATM   13  C1  UNL     1      -5.137   1.184  -2.990  1.00  0.00     0.175 C 
HETATM   14  C22 UNL     1      -6.696  -0.231  -1.817  1.00  0.00     0.679 A 
HETATM   15  N8  UNL     1      -7.199  -0.825  -0.707  1.00  0.00    -0.176 N 
HETATM   16  C21 UNL     1      -6.638  -0.636   0.492  1.00  0.00     0.135 A 
ATOM     17  H8  UNL     1      -8.019  -1.426  -0.788  1.00  0.00     0.186 HD
HETATM   18  C16 UNL     1      -5.514   0.187   0.604  1.00  0.00     0.032 A 
HETATM   19  N7  UNL     1      -7.132  -1.183   1.596  1.00  0.00    -0.346 N 
HETATM   20  C17 UNL     1      -4.961   0.404   1.855  1.00  0.00     0.018 A 
HETATM   21  C18 UNL     1      -5.495  -0.175   2.980  1.00  0.00     0.018 A 
HETATM   22  C19 UNL     1      -6.604  -0.985   2.834  1.00  0.00     0.092 A 
HETATM   23  C20 UNL     1      -8.300  -2.038   1.461  1.00  0.00     0.157 C 
BRANCH  14  24
HETATM   24  N9  UNL     1      -7.265  -0.434  -2.966  1.00  0.00    -0.234 N 
ATOM     25  H92 UNL     1      -6.887   0.013  -3.801  1.00  0.00     0.174 HD
ATOM     26  H91 UNL     1      -8.084  -1.041  -3.004  1.00  0.00     0.174 HD
ENDBRANCH  14  24
ENDBRANCH  10  11
ENDBRANCH   9  10
ENDBRANCH   8   9
ENDBRANCH   7   8
ENDBRANCH   1   7
BRANCH   3  27
HETATM   27  C9  UNL     1       3.927   1.053  -0.670  1.00  0.00     0.134 C 
BRANCH  27  28
HETATM   28  C10 UNL     1       4.805   0.527   0.427  1.00  0.00     0.046 C 
BRANCH  28  29
HETATM   29  C11 UNL     1       6.247   0.730  -0.039  1.00  0.00     0.169 C 
BRANCH  29  30
HETATM   30  O1  UNL     1       6.483   0.051  -1.209  1.00  0.00    -0.382 OA
BRANCH  30  31
HETATM   31  C12 UNL     1       7.763   0.183  -1.673  1.00  0.00     0.270 C 
BRANCH  31  32
HETATM   32  C13 UNL     1       8.757  -0.459  -0.817  1.00  0.00     0.247 C 
HETATM   33  O2  UNL     1       9.974  -0.274  -1.088  1.00  0.00    -0.271 OA
HETATM   34  N3  UNL     1       8.419  -1.266   0.276  1.00  0.00    -0.302 N 
HETATM   35  C14 UNL     1       9.260  -1.477   1.243  1.00  0.00     0.203 C 
ATOM     36  H3  UNL     1       7.495  -1.696   0.314  1.00  0.00     0.171 HD
HETATM   37  N4  UNL     1      10.574  -0.894   1.237  1.00  0.00    -0.066 NA
HETATM   38  N5  UNL     1       8.819  -2.307   2.297  1.00  0.00    -0.066 NA
ENDBRANCH  31  32
ENDBRANCH  30  31
ENDBRANCH  29  30
ENDBRANCH  28  29
ENDBRANCH  27  28
ENDBRANCH   3  27
BRANCH   4  39
HETATM   39  O3  UNL     1       2.266   3.068   0.730  1.00  0.00    -0.332 OA
ATOM     40  H3  UNL     1       1.754   3.730   1.181  1.00  0.00     0.221 HD
ENDBRANCH   4  39
TORSDOF 13
