REMARK  8 active torsions:
REMARK  status: ('A' for Active; 'I' for Inactive)
REMARK    1  A    between atoms: N1_1  and  N2_4 
REMARK    2  A    between atoms: C1_6  and  N3_7 
REMARK    3  A    between atoms: C1_6  and  C2_13 
REMARK    4  A    between atoms: N3_7  and  N4_9 
REMARK    5  A    between atoms: N4_9  and  N5_10 
REMARK    6  A    between atoms: C2_13  and  N6_14 
REMARK    7  A    between atoms: C2_13  and  C3_18 
REMARK    8  A    between atoms: C5_23  and  C6_24 
ROOT
HETATM    1  C2  UNL     1       0.409   0.551  -1.094  1.00  0.00     0.290 C 
ENDROOT
BRANCH   1   2
HETATM    2  C1  UNL     1       1.013  -0.523  -0.317  1.00  0.00     0.144 C 
HETATM    3  N2  UNL     1       1.309  -1.640  -0.864  1.00  0.00    -0.293 N 
ATOM      4  H2  UNL     1       1.073  -1.762  -1.849  1.00  0.00     0.187 HD
BRANCH   3   5
HETATM    5  N1  UNL     1       1.928  -2.698  -0.216  1.00  0.00    -0.344 N 
ATOM      6  H12 UNL     1       2.157  -2.559   0.768  1.00  0.00     0.176 HD
ATOM      7  H11 UNL     1       2.164  -3.589  -0.652  1.00  0.00     0.176 HD
ENDBRANCH   3   5
BRANCH   2   8
HETATM    8  N3  UNL     1       1.338  -0.348   1.042  1.00  0.00    -0.270 N 
ATOM      9  H3  UNL     1       0.613  -0.384   1.759  1.00  0.00     0.185 HD
BRANCH   8  10
HETATM   10  N4  UNL     1       2.673  -0.124   1.390  1.00  0.00    -0.029 NA
BRANCH  10  11
HETATM   11  N5  UNL     1       3.051   1.208   1.157  1.00  0.00    -0.329 N 
ATOM     12  H52 UNL     1       2.418   1.913   0.780  1.00  0.00     0.174 HD
ATOM     13  H51 UNL     1       4.025   1.371   1.411  1.00  0.00     0.174 HD
ENDBRANCH  10  11
ENDBRANCH   8  10
ENDBRANCH   2   8
ENDBRANCH   1   2
BRANCH   1  14
HETATM   14  N6  UNL     1      -0.169   0.015  -2.361  1.00  0.00    -0.064 N 
ATOM     15  H63 UNL     1       0.521  -0.504  -2.903  1.00  0.00     0.275 HD
ATOM     16  H62 UNL     1      -0.827  -0.744  -2.187  1.00  0.00     0.275 HD
ATOM     17  H61 UNL     1      -0.592   0.767  -2.905  1.00  0.00     0.275 HD
ENDBRANCH   1  14
BRANCH   1  18
HETATM   18  C3  UNL     1      -0.586   1.403  -0.464  1.00  0.00     0.036 A 
HETATM   19  C4  UNL     1      -0.408   2.803  -0.437  1.00  0.00     0.179 A 
HETATM   20  O1  UNL     1      -1.405   3.310   0.233  1.00  0.00    -0.249 OA
HETATM   21  N7  UNL     1      -2.199   2.405   0.636  1.00  0.00    -0.257 N 
HETATM   22  C5  UNL     1      -1.735   1.178   0.225  1.00  0.00     0.111 A 
ATOM     23  H7  UNL     1      -3.048   2.563   1.179  1.00  0.00     0.195 HD
BRANCH  22  24
HETATM   24  C6  UNL     1      -2.381  -0.081   0.467  1.00  0.00     0.160 A 
HETATM   25  N8  UNL     1      -2.054  -1.296   0.093  1.00  0.00    -0.283 N 
HETATM   26  C7  UNL     1      -2.982  -2.160   0.528  1.00  0.00     0.388 A 
ATOM     27  H8  UNL     1      -1.223  -1.544  -0.445  1.00  0.00     0.172 HD
HETATM   28  O2  UNL     1      -3.008  -3.404   0.363  1.00  0.00    -0.236 OA
HETATM   29  O3  UNL     1      -3.863  -1.434   1.166  1.00  0.00    -0.179 OA
HETATM   30  N9  UNL     1      -3.537  -0.189   1.150  1.00  0.00    -0.238 N 
ATOM     31  H9  UNL     1      -4.059   0.576   1.577  1.00  0.00     0.197 HD
ENDBRANCH  22  24
ENDBRANCH   1  18
TORSDOF 8
