REMARK  7 active torsions:
REMARK  status: ('A' for Active; 'I' for Inactive)
REMARK    1  A    between atoms: N1_1  and  C1_4 
REMARK    2  A    between atoms: C3_9  and  C4_10 
REMARK       I    between atoms: C4_10  and  N4_12 
REMARK    3  A    between atoms: N4_12  and  N5_14 
REMARK    4  A    between atoms: C5_19  and  C6_20 
REMARK    5  A    between atoms: C6_20  and  O3_22 
REMARK    6  A    between atoms: O3_22  and  C7_23 
REMARK       I    between atoms: C7_23  and  N7_25 
REMARK    7  A    between atoms: N7_25  and  N8_27 
ROOT
HETATM    1  C1  UNL     1      -0.380  -2.506  -0.191  1.00  0.00     0.133 A 
HETATM    2  N2  UNL     1      -1.753  -2.532  -0.057  1.00  0.00    -0.327 N 
ATOM      3  H2  UNL     1      -2.230  -3.433  -0.098  1.00  0.00     0.168 HD
HETATM    4  C2  UNL     1      -2.486  -1.429   0.124  1.00  0.00     0.150 A 
HETATM    5  N3  UNL     1      -3.910  -1.496   0.259  1.00  0.00    -0.080 NA
HETATM    6  C3  UNL     1      -1.870  -0.198   0.182  1.00  0.00     0.144 A 
HETATM    7  N6  UNL     1      -0.546  -0.146   0.056  1.00  0.00    -0.341 N 
ATOM      8  H6  UNL     1      -0.078   0.759   0.099  1.00  0.00     0.166 HD
HETATM    9  C5  UNL     1       0.208  -1.281  -0.130  1.00  0.00     0.153 A 
ENDROOT
BRANCH   9  10
HETATM   10  C6  UNL     1       1.661  -1.114  -0.258  1.00  0.00     0.322 C 
HETATM   11  O2  UNL     1       2.409  -2.078  -0.427  1.00  0.00    -0.257 OA
BRANCH  10  12
HETATM   12  O3  UNL     1       2.211   0.191  -0.185  1.00  0.00    -0.221 OA
BRANCH  12  13
HETATM   13  C7  UNL     1       3.586   0.368  -0.305  1.00  0.00     0.386 C 
HETATM   14  O4  UNL     1       4.267  -0.681  -0.475  1.00  0.00    -0.236 OA
HETATM   15  N7  UNL     1       4.191   1.652  -0.240  1.00  0.00    -0.252 N 
ATOM     16  H7  UNL     1       3.615   2.483  -0.102  1.00  0.00     0.191 HD
BRANCH  15  17
HETATM   17  N8  UNL     1       5.575   1.773  -0.366  1.00  0.00    -0.341 N 
ATOM     18  H82 UNL     1       6.136   0.933  -0.504  1.00  0.00     0.177 HD
ATOM     19  H81 UNL     1       6.009   2.695  -0.319  1.00  0.00     0.177 HD
ENDBRANCH  15  17
ENDBRANCH  12  13
ENDBRANCH  10  12
ENDBRANCH   9  10
BRANCH   1  20
HETATM   20  N1  UNL     1       0.210  -3.593  -0.356  1.00  0.00    -0.383 N 
ATOM     21  H12 UNL     1      -0.231  -4.512  -0.402  1.00  0.00     0.157 HD
ATOM     22  H11 UNL     1       1.225  -3.574  -0.455  1.00  0.00     0.157 HD
ENDBRANCH   1  20
BRANCH   6  23
HETATM   23  C4  UNL     1      -2.662   1.035   0.382  1.00  0.00     0.289 C 
HETATM   24  O1  UNL     1      -3.898   0.891   0.491  1.00  0.00    -0.264 OA
HETATM   25  N4  UNL     1      -2.034   2.304   0.443  1.00  0.00    -0.271 N 
ATOM     26  H4  UNL     1      -1.021   2.369   0.348  1.00  0.00     0.189 HD
BRANCH  25  27
HETATM   27  N5  UNL     1      -2.781   3.459   0.630  1.00  0.00    -0.342 N 
ATOM     28  H52 UNL     1      -3.793   3.376   0.723  1.00  0.00     0.176 HD
ATOM     29  H51 UNL     1      -2.329   4.372   0.674  1.00  0.00     0.176 HD
ENDBRANCH  25  27
ENDBRANCH   6  23
TORSDOF 7
