REMARK  5 active torsions:
REMARK  status: ('A' for Active; 'I' for Inactive)
REMARK    1  A    between atoms: C2_3  and  C3_4 
REMARK    2  A    between atoms: C2_3  and  C9_28 
REMARK    3  A    between atoms: C5_10  and  N4_11 
REMARK       I    between atoms: N4_11  and  C6_13 
REMARK       I    between atoms: C6_13  and  N5_14 
REMARK       I    between atoms: C6_13  and  N6_18 
REMARK    4  A    between atoms: C9_28  and  N9_29 
REMARK    5  A    between atoms: C9_28  and  N10_33 
ROOT
HETATM    1  N1  UNL     1      -3.500  -1.491  -1.751  1.00  0.00    -0.196 NA
HETATM    2  C1  UNL     1      -3.252  -0.584  -1.084  1.00  0.00     0.074 C 
HETATM    3  C2  UNL     1      -2.919   0.560  -0.260  1.00  0.00     0.204 C 
ENDROOT
BRANCH   3   4
HETATM    4  C3  UNL     1      -1.549   0.465   0.298  1.00  0.00     0.076 A 
HETATM    5  N2  UNL     1      -1.093   0.593   1.539  1.00  0.00    -0.300 N 
HETATM    6  N3  UNL     1       0.219   0.430   1.587  1.00  0.00    -0.295 N 
ATOM      7  H2  UNL     1      -1.679   0.791   2.350  1.00  0.00     0.186 HD
HETATM    8  C4  UNL     1       0.653   0.186   0.342  1.00  0.00     0.121 A 
ATOM      9  H3  UNL     1       0.799   0.481   2.425  1.00  0.00     0.187 HD
HETATM   10  C5  UNL     1       1.906  -0.064  -0.227  1.00  0.00     0.136 A 
HETATM   11  C8  UNL     1      -0.435   0.201  -0.490  1.00  0.00     0.091 A 
HETATM   12  N7  UNL     1       1.967  -0.271  -1.535  1.00  0.00    -0.337 N 
HETATM   13  C7  UNL     1       0.896  -0.256  -2.353  1.00  0.00     0.182 A 
ATOM     14  H7  UNL     1       2.882  -0.453  -1.948  1.00  0.00     0.168 HD
HETATM   15  N8  UNL     1      -0.309  -0.017  -1.816  1.00  0.00    -0.349 N 
ATOM     16  H8  UNL     1      -1.136   0.000  -2.413  1.00  0.00     0.167 HD
BRANCH  10  17
HETATM   17  N4  UNL     1       2.910  -0.074   0.557  1.00  0.00    -0.325 N 
HETATM   18  C6  UNL     1       4.261  -0.303   0.205  1.00  0.00     0.481 C 
HETATM   19  N5  UNL     1       5.204   0.479   0.988  1.00  0.00    -0.033 N 
HETATM   20  N6  UNL     1       4.672  -1.688   0.356  1.00  0.00    -0.033 N 
ATOM     21  H53 UNL     1       4.980   1.473   0.935  1.00  0.00     0.278 HD
ATOM     22  H52 UNL     1       5.060   0.325   1.986  1.00  0.00     0.278 HD
ATOM     23  H51 UNL     1       6.178   0.314   0.734  1.00  0.00     0.278 HD
ATOM     24  H63 UNL     1       4.484  -2.019   1.302  1.00  0.00     0.278 HD
ATOM     25  H62 UNL     1       4.053  -2.307  -0.167  1.00  0.00     0.278 HD
ATOM     26  H61 UNL     1       5.646  -1.853   0.102  1.00  0.00     0.278 HD
ATOM     27  H4  UNL     1       2.720   0.102   1.544  1.00  0.00     0.165 HD
ENDBRANCH  10  17
ENDBRANCH   3   4
BRANCH   3  28
HETATM   28  C9  UNL     1      -3.954   0.755   0.810  1.00  0.00     0.401 C 
BRANCH  28  29
HETATM   29  N9  UNL     1      -5.226   0.974   0.138  1.00  0.00    -0.049 N 
ATOM     30  H93 UNL     1      -5.197   1.740  -0.535  1.00  0.00     0.276 HD
ATOM     31  H92 UNL     1      -5.465   0.232  -0.519  1.00  0.00     0.276 HD
ATOM     32  H91 UNL     1      -5.929   1.106   0.865  1.00  0.00     0.276 HD
ENDBRANCH  28  29
BRANCH  28  33
HETATM   33  N10 UNL     1      -4.124  -0.474   1.601  1.00  0.00    -0.049 N 
ATOM     34 3H10 UNL     1      -4.339  -1.277   1.010  1.00  0.00     0.276 HD
ATOM     35 2H10 UNL     1      -3.238  -0.800   1.987  1.00  0.00     0.276 HD
ATOM     36 1H10 UNL     1      -4.827  -0.342   2.328  1.00  0.00     0.276 HD
ENDBRANCH  28  33
ENDBRANCH   3  28
TORSDOF 5
