REMARK  5 active torsions:
REMARK  status: ('A' for Active; 'I' for Inactive)
REMARK    1  A    between atoms: O1_2  and  C2_3 
REMARK    2  A    between atoms: C2_3  and  N1_4 
REMARK    3  A    between atoms: C3_5  and  O2_6 
REMARK    4  A    between atoms: C4_8  and  N2_9 
REMARK    5  A    between atoms: N2_9  and  N3_10 
ROOT
HETATM    1  N1  UNL     1       0.111  -0.623  -0.080  1.00  0.00     0.169 N 
HETATM    2  C3  UNL     1       0.762   0.302   0.857  1.00  0.00     0.413 A 
HETATM    3  C4  UNL     1       1.247   0.132  -0.540  1.00  0.00     0.399 A 
ENDROOT
BRANCH   3   4
HETATM    4  N2  UNL     1       2.523  -0.531  -0.675  1.00  0.00    -0.107 NA
BRANCH   4   5
HETATM    5  N3  UNL     1       2.905  -1.031   0.547  1.00  0.00    -0.346 N 
ATOM      6  H32 UNL     1       2.362  -0.940   1.405  1.00  0.00     0.172 HD
ATOM      7  H31 UNL     1       3.806  -1.499   0.452  1.00  0.00     0.172 HD
ENDBRANCH   4   5
ENDBRANCH   3   4
BRANCH   1   8
HETATM    8  C2  UNL     1      -1.227  -0.211  -0.436  1.00  0.00     0.446 C 
BRANCH   8   9
HETATM    9  O1  UNL     1      -1.969  -0.161   0.741  1.00  0.00    -0.367 OA
HETATM   10  C1  UNL     1      -3.286   0.229   0.512  1.00  0.00     0.204 C 
ENDBRANCH   8   9
ENDBRANCH   1   8
BRANCH   2  11
HETATM   11  O2  UNL     1       0.115   1.483   1.180  1.00  0.00    -0.365 OA
ATOM     12  H2  UNL     1       0.536   2.081   1.786  1.00  0.00     0.212 HD
ENDBRANCH   2  11
TORSDOF 5
