REMARK  4 active torsions:
REMARK  status: ('A' for Active; 'I' for Inactive)
REMARK    1  A    between atoms: N1_1  and  C1_5 
REMARK    2  A    between atoms: C1_5  and  N2_6 
REMARK    3  A    between atoms: N2_6  and  C2_9 
REMARK    4  A    between atoms: C3_13  and  N4_14 
ROOT
HETATM    1  C2  UNL     1      -0.474  -0.416  -0.047  1.00  0.00     0.443 A 
HETATM    2  N3  UNL     1      -1.434  -1.393  -0.588  1.00  0.00    -0.011 N 
ATOM      3  H31 UNL     1      -2.061  -2.101  -0.207  1.00  0.00     0.282 HD
ATOM      4  H32 UNL     1      -1.383  -2.262  -1.120  1.00  0.00     0.282 HD
HETATM    5  C3  UNL     1      -1.515   0.105  -0.912  1.00  0.00     0.414 A 
ENDROOT
BRANCH   1   6
HETATM    6  N2  UNL     1       0.864  -0.509  -0.483  1.00  0.00    -0.018 N 
ATOM      7  H22 UNL     1       1.015  -0.067  -1.390  1.00  0.00     0.281 HD
ATOM      8  H21 UNL     1       1.128  -1.458  -0.748  1.00  0.00     0.281 HD
BRANCH   6   9
HETATM    9  C1  UNL     1       1.705   0.034   0.548  1.00  0.00     0.462 C 
BRANCH   9  10
HETATM   10  N1  UNL     1       3.117  -0.100   0.255  1.00  0.00    -0.055 N 
ATOM     11  H13 UNL     1       3.358  -1.072   0.062  1.00  0.00     0.276 HD
ATOM     12  H12 UNL     1       3.341   0.310  -0.652  1.00  0.00     0.276 HD
ATOM     13  H11 UNL     1       3.714   0.285   0.987  1.00  0.00     0.276 HD
ENDBRANCH   9  10
ENDBRANCH   6   9
ENDBRANCH   1   6
BRANCH   5  14
HETATM   14  N4  UNL     1      -2.659   0.788  -0.322  1.00  0.00    -0.118 N 
HETATM   15  O1  UNL     1      -2.516   1.793   0.385  1.00  0.00    -0.535 OA
HETATM   16  O2  UNL     1      -3.939   0.323  -0.526  1.00  0.00    -0.535 OA
ENDBRANCH   5  14
TORSDOF 4
