REMARK  5 active torsions:
REMARK  status: ('A' for Active; 'I' for Inactive)
REMARK    1  A    between atoms: N1_1  and  C1_5 
REMARK    2  A    between atoms: C1_5  and  C2_6 
REMARK    3  A    between atoms: C2_6  and  C3_7 
REMARK    4  A    between atoms: C3_7  and  N2_8 
REMARK    5  A    between atoms: N2_8  and  C4_11 
ROOT
HETATM    1  N2  UNL     1      -1.129   0.357   0.737  1.00  0.00    -0.027 N 
ATOM      2  H21 UNL     1      -0.912   1.006   1.494  1.00  0.00     0.282 HD
ATOM      3  H22 UNL     1      -0.927  -0.497   1.257  1.00  0.00     0.282 HD
ENDROOT
BRANCH   1   4
HETATM    4  C3  UNL     1      -0.295   0.539  -0.469  1.00  0.00     0.239 C 
BRANCH   4   5
HETATM    5  C2  UNL     1       1.157   0.648  -0.156  1.00  0.00     0.055 C 
BRANCH   5   6
HETATM    6  C1  UNL     1       1.697  -0.563   0.548  1.00  0.00     0.231 C 
BRANCH   6   7
HETATM    7  N1  UNL     1       3.115  -0.367   0.823  1.00  0.00    -0.079 N 
ATOM      8  H13 UNL     1       3.645  -0.141  -0.019  1.00  0.00     0.274 HD
ATOM      9  H12 UNL     1       3.293   0.493   1.341  1.00  0.00     0.274 HD
ATOM     10  H11 UNL     1       3.482  -1.190   1.301  1.00  0.00     0.274 HD
ENDBRANCH   6   7
ENDBRANCH   5   6
ENDBRANCH   4   5
ENDBRANCH   1   4
BRANCH   1  11
HETATM   11  C4  UNL     1      -2.492   0.446   0.257  1.00  0.00     0.470 A 
HETATM   12  N3  UNL     1      -2.808  -0.475  -0.808  1.00  0.00    -0.263 N 
HETATM   13  N4  UNL     1      -3.641  -1.035  -0.074  1.00  0.00    -0.204 N 
ATOM     14  H3  UNL     1      -2.483  -0.610  -1.765  1.00  0.00     0.186 HD
HETATM   15  O1  UNL     1      -3.455  -0.231   1.050  1.00  0.00    -0.208 OA
ATOM     16  H4  UNL     1      -4.261  -1.828  -0.241  1.00  0.00     0.215 HD
ENDBRANCH   1  11
TORSDOF 5
