REMARK  4 active torsions:
REMARK  status: ('A' for Active; 'I' for Inactive)
REMARK    1  A    between atoms: C1_4  and  N2_5 
REMARK    2  A    between atoms: N2_5  and  N3_7 
REMARK    3  A    between atoms: N3_7  and  N4_8 
REMARK    4  A    between atoms: N4_8  and  C2_10 
ROOT
HETATM    1  N3  UNL     1       0.551   0.396  -0.479  1.00  0.00    -0.024 NA
ENDROOT
BRANCH   1   2
HETATM    2  N2  UNL     1       1.740  -0.157   0.018  1.00  0.00    -0.281 N 
ATOM      3  H2  UNL     1       1.952  -1.149  -0.086  1.00  0.00     0.185 HD
BRANCH   2   4
HETATM    4  C1  UNL     1       2.637   0.731   0.674  1.00  0.00     0.188 C 
HETATM    5  N1  UNL     1       3.036   1.822   0.116  1.00  0.00    -0.394 N 
ATOM      6  H12 UNL     1       2.691   2.039  -0.819  1.00  0.00     0.156 HD
ATOM      7  H11 UNL     1       3.679   2.459   0.586  1.00  0.00     0.156 HD
ENDBRANCH   2   4
ENDBRANCH   1   2
BRANCH   1   8
HETATM    8  N4  UNL     1      -0.236  -0.562  -0.988  1.00  0.00    -0.288 N 
ATOM      9  H4  UNL     1       0.158  -1.307  -1.563  1.00  0.00     0.180 HD
BRANCH   8  10
HETATM   10  C2  UNL     1      -1.625  -0.521  -0.713  1.00  0.00     0.291 A 
HETATM   11  N5  UNL     1      -1.984  -0.590   0.727  1.00  0.00    -0.328 N 
HETATM   12  C3  UNL     1      -2.275   0.582  -0.144  1.00  0.00     0.263 A 
ATOM     13  H5  UNL     1      -2.011  -1.072   1.626  1.00  0.00     0.165 HD
HETATM   14  O1  UNL     1      -2.796   1.725  -0.116  1.00  0.00    -0.269 OA
ENDBRANCH   8  10
ENDBRANCH   1   8
TORSDOF 4
