REMARK  11 active torsions:
REMARK  status: ('A' for Active; 'I' for Inactive)
REMARK    1  A    between atoms: C2_2  and  O1_3 
REMARK    2  A    between atoms: O1_3  and  C3_4 
REMARK    3  A    between atoms: C3_4  and  C4_6 
REMARK    4  A    between atoms: C4_6  and  C5_7 
REMARK    5  A    between atoms: C8_11  and  O3_12 
REMARK    6  A    between atoms: C11_16  and  O4_17 
REMARK    7  A    between atoms: N1_19  and  C12_20 
REMARK    8  A    between atoms: C12_20  and  C13_21 
REMARK    9  A    between atoms: C13_21  and  O6_23 
REMARK   10  A    between atoms: O6_23  and  C14_24 
REMARK   11  A    between atoms: C18_28  and  O7_29 
ROOT
HETATM    1  C4  UNL     1       3.086   0.057  -1.075  1.00  0.00     0.088 C 
HETATM    2  C7  UNL     1       3.969  -0.779  -0.208  1.00  0.00     0.101 C 
HETATM    3  S1  UNL     1       3.912  -2.522  -0.551  1.00  0.00    -0.131 SA
HETATM    4  C8  UNL     1       2.272  -2.937  -1.102  1.00  0.00     0.217 C 
HETATM    5  C9  UNL     1       1.347  -1.778  -1.125  1.00  0.00     0.043 A 
HETATM    6  C10 UNL     1       1.706  -0.465  -1.112  1.00  0.00     0.026 A 
HETATM    7  C11 UNL     1       0.484   0.226  -1.145  1.00  0.00     0.153 A 
HETATM    8  N1  UNL     1      -0.527  -0.637  -1.176  1.00  0.00    -0.298 N 
HETATM    9  C18 UNL     1      -0.050  -1.883  -1.165  1.00  0.00     0.155 A 
ENDROOT
BRANCH   8  10
HETATM   10  C12 UNL     1      -1.941  -0.308  -1.215  1.00  0.00     0.244 C 
BRANCH  10  11
HETATM   11  C13 UNL     1      -2.522  -0.185   0.139  1.00  0.00     0.278 C 
HETATM   12  O5  UNL     1      -1.898  -0.339   1.203  1.00  0.00    -0.263 OA
BRANCH  11  13
HETATM   13  O6  UNL     1      -3.859   0.125   0.244  1.00  0.00    -0.310 OA
BRANCH  13  14
HETATM   14  C14 UNL     1      -4.535   0.271   1.457  1.00  0.00     0.060 C 
HETATM   15  C15 UNL     1      -5.980   0.609   1.150  1.00  0.00     0.045 C 
HETATM   16  C16 UNL     1      -3.943   1.432   2.241  1.00  0.00     0.045 C 
HETATM   17  C17 UNL     1      -4.512  -0.932   2.340  1.00  0.00     0.045 C 
ENDBRANCH  13  14
ENDBRANCH  11  13
ENDBRANCH  10  11
ENDBRANCH   8  10
BRANCH   7  18
HETATM   18  O4  UNL     1       0.310   1.615  -1.147  1.00  0.00    -0.345 OA
ATOM     19  H4  UNL     1      -0.517   2.082  -1.169  1.00  0.00     0.219 HD
ENDBRANCH   7  18
BRANCH   9  20
HETATM   20  O7  UNL     1      -0.815  -3.043  -1.189  1.00  0.00    -0.345 OA
ATOM     21  H7  UNL     1      -1.762  -3.114  -1.216  1.00  0.00     0.219 HD
ENDBRANCH   9  20
BRANCH   1  22
HETATM   22  C3  UNL     1       3.007   1.381  -0.367  1.00  0.00     0.273 C 
HETATM   23  O2  UNL     1       3.365   2.433  -0.941  1.00  0.00    -0.264 OA
BRANCH  22  24
HETATM   24  O1  UNL     1       2.545   1.515   0.933  1.00  0.00    -0.321 OA
BRANCH  24  25
HETATM   25  C2  UNL     1       2.458   2.726   1.621  1.00  0.00     0.174 C 
HETATM   26  C1  UNL     1       1.899   2.401   3.013  1.00  0.00     0.034 C 
ENDBRANCH  24  25
ENDBRANCH  22  24
ENDBRANCH   1  22
BRANCH   1  27
HETATM   27  C5  UNL     1       3.634   0.336  -2.439  1.00  0.00     0.021 C 
HETATM   28  C6  UNL     1       3.803  -0.832  -3.337  1.00  0.00     0.006 C 
ENDBRANCH   1  27
BRANCH   4  29
HETATM   29  O3  UNL     1       1.752  -3.973  -0.311  1.00  0.00    -0.380 OA
ATOM     30  H3  UNL     1       0.876  -4.195  -0.605  1.00  0.00     0.211 HD
ENDBRANCH   4  29
TORSDOF 11
