REMARK  7 active torsions:
REMARK  status: ('A' for Active; 'I' for Inactive)
REMARK    1  A    between atoms: C2_2  and  C4_4 
REMARK    2  A    between atoms: C4_4  and  N1_5 
REMARK    3  A    between atoms: C4_4  and  C5_9 
REMARK    4  A    between atoms: C6_15  and  C7_16 
REMARK       I    between atoms: C7_16  and  N4_18 
REMARK    5  A    between atoms: N4_18  and  C8_20 
REMARK    6  A    between atoms: C9_25  and  S2_26 
REMARK    7  A    between atoms: S2_26  and  C10_27 
ROOT
HETATM    1  C7  UNL     1       2.094  -0.332   1.291  1.00  0.00     0.280 C 
HETATM    2  O1  UNL     1       2.523   0.781   1.597  1.00  0.00    -0.266 OA
HETATM    3  N4  UNL     1       0.791  -0.740   1.681  1.00  0.00    -0.153 N 
ATOM      4  H4  UNL     1       0.617  -0.959   2.662  1.00  0.00     0.187 HD
ENDROOT
BRANCH   1   5
HETATM    5  C6  UNL     1       2.921  -1.265   0.515  1.00  0.00     0.117 A 
HETATM    6  C5  UNL     1       4.202  -1.130   0.022  1.00  0.00     0.081 A 
HETATM    7  N2  UNL     1       4.673  -2.136  -0.648  1.00  0.00    -0.295 N 
HETATM    8  N3  UNL     1       3.960  -3.201  -0.832  1.00  0.00    -0.269 N 
ATOM      9  H2  UNL     1       5.616  -2.087  -1.034  1.00  0.00     0.187 HD
HETATM   10  S1  UNL     1       2.521  -2.847  -0.044  1.00  0.00     0.009 SA
ATOM     11  H3  UNL     1       4.212  -4.051  -1.335  1.00  0.00     0.195 HD
BRANCH   6  12
HETATM   12  C4  UNL     1       5.015   0.127   0.284  1.00  0.00     0.239 C 
BRANCH  12  13
HETATM   13  C2  UNL     1       6.223   0.080  -0.612  1.00  0.00     0.014 C 
HETATM   14  C1  UNL     1       7.152   1.260  -0.343  1.00  0.00     0.012 C 
HETATM   15  C3  UNL     1       5.837   0.165  -2.072  1.00  0.00     0.012 C 
ENDBRANCH  12  13
BRANCH  12  16
HETATM   16  N1  UNL     1       5.401   0.092   1.688  1.00  0.00    -0.069 N 
ATOM     17  H13 UNL     1       5.991  -0.714   1.895  1.00  0.00     0.275 HD
ATOM     18  H12 UNL     1       6.065   0.833   1.913  1.00  0.00     0.275 HD
ATOM     19  H11 UNL     1       4.582   0.124   2.295  1.00  0.00     0.275 HD
ENDBRANCH  12  16
ENDBRANCH   6  12
ENDBRANCH   1   5
BRANCH   3  20
HETATM   20  C8  UNL     1      -0.190  -0.845   0.832  1.00  0.00     0.703 A 
HETATM   21  N5  UNL     1      -0.163  -0.605  -0.493  1.00  0.00    -0.130 N 
HETATM   22  N6  UNL     1      -1.383  -0.845  -0.936  1.00  0.00    -0.265 N 
ATOM     23  H5  UNL     1       0.639  -0.299  -1.044  1.00  0.00     0.205 HD
HETATM   24  C9  UNL     1      -2.191  -1.230   0.055  1.00  0.00     0.176 A 
ATOM     25  H6  UNL     1      -1.671  -0.749  -1.910  1.00  0.00     0.189 HD
HETATM   26  N7  UNL     1      -1.430  -1.231   1.189  1.00  0.00    -0.163 N 
HETATM   27  C16 UNL     1      -1.858  -1.577   2.518  1.00  0.00     0.177 C 
BRANCH  24  28
HETATM   28  S2  UNL     1      -3.918  -1.668  -0.017  1.00  0.00    -0.087 SA
BRANCH  28  29
HETATM   29  C10 UNL     1      -4.882  -0.160   0.236  1.00  0.00     0.055 C 
HETATM   30  C11 UNL     1      -4.699   0.818  -0.909  1.00  0.00     0.015 C 
HETATM   31  C12 UNL     1      -5.065   2.191  -0.385  1.00  0.00     0.001 C 
HETATM   32  C13 UNL     1      -6.417   2.094   0.258  1.00  0.00     0.000 C 
HETATM   33  C14 UNL     1      -7.110   0.794  -0.015  1.00  0.00     0.001 C 
HETATM   34  C15 UNL     1      -6.342  -0.415   0.409  1.00  0.00     0.015 C 
ENDBRANCH  28  29
ENDBRANCH  24  28
ENDBRANCH   3  20
TORSDOF 7
