REMARK  8 active torsions:
REMARK  status: ('A' for Active; 'I' for Inactive)
REMARK    1  A    between atoms: C2_2  and  C3_3 
REMARK    2  A    between atoms: C8_9  and  C9_10 
REMARK    3  A    between atoms: C9_10  and  O2_11 
REMARK    4  A    between atoms: N1_13  and  O3_15 
REMARK    5  A    between atoms: O3_15  and  C10_16 
REMARK    6  A    between atoms: C15_22  and  O5_23 
REMARK    7  A    between atoms: C17_28  and  O6_29 
REMARK    8  A    between atoms: O6_29  and  C18_30 
ROOT
HETATM    1  C3  UNL     1      -3.913   1.139  -0.452  1.00  0.00     0.108 C 
HETATM    2  C4  UNL     1      -3.823   2.225   0.589  1.00  0.00     0.051 C 
HETATM    3  O1  UNL     1      -2.750   1.261  -1.319  1.00  0.00    -0.334 OA
HETATM    4  C5  UNL     1      -1.504   0.948  -0.760  1.00  0.00     0.099 A 
HETATM    5  C6  UNL     1      -0.331   1.383  -1.312  1.00  0.00     0.040 A 
HETATM    6  C7  UNL     1       0.863   1.056  -0.734  1.00  0.00     0.022 A 
HETATM    7  C8  UNL     1       0.952   0.272   0.432  1.00  0.00     0.052 A 
HETATM    8  C15 UNL     1      -0.221  -0.171   0.996  1.00  0.00     0.109 A 
HETATM    9  C16 UNL     1      -1.444   0.182   0.377  1.00  0.00     0.098 A 
HETATM   10  N2  UNL     1      -2.658  -0.275   0.959  1.00  0.00    -0.356 N 
ATOM     11  H2  UNL     1      -2.708  -0.601   1.924  1.00  0.00     0.162 HD
HETATM   12  C17 UNL     1      -3.842  -0.248   0.076  1.00  0.00     0.265 C 
ENDROOT
BRANCH   7  13
HETATM   13  C9  UNL     1       2.247  -0.037   0.991  1.00  0.00     0.173 C 
HETATM   14  N1  UNL     1       3.283   0.426   0.388  1.00  0.00    -0.244 N 
ATOM     15  H1  UNL     1       3.169   0.990  -0.454  1.00  0.00     0.196 HD
BRANCH  13  16
HETATM   16  O2  UNL     1       2.431  -0.783   2.109  1.00  0.00    -0.344 OA
ATOM     17  H2  UNL     1       3.283  -0.986   2.477  1.00  0.00     0.219 HD
ENDBRANCH  13  16
BRANCH  14  18
HETATM   18  O3  UNL     1       4.518   0.172   0.860  1.00  0.00    -0.273 OA
BRANCH  18  19
HETATM   19  C10 UNL     1       5.654  -0.130   0.129  1.00  0.00     0.156 C 
HETATM   20  C11 UNL     1       6.791   0.833   0.316  1.00  0.00     0.061 C 
HETATM   21  C12 UNL     1       7.773   0.568  -0.834  1.00  0.00     0.170 C 
HETATM   22  O4  UNL     1       7.543  -0.689  -1.390  1.00  0.00    -0.391 OA
HETATM   23  C13 UNL     1       7.455  -1.678  -0.413  1.00  0.00     0.170 C 
HETATM   24  C14 UNL     1       6.199  -1.525   0.421  1.00  0.00     0.061 C 
ENDBRANCH  18  19
ENDBRANCH  14  18
ENDBRANCH   7  13
BRANCH   8  25
HETATM   25  O5  UNL     1      -0.340  -0.938   2.120  1.00  0.00    -0.357 OA
ATOM     26  H5  UNL     1      -1.151  -1.244   2.510  1.00  0.00     0.217 HD
ENDBRANCH   8  25
BRANCH  12  27
HETATM   27  O6  UNL     1      -4.966  -0.740   0.727  1.00  0.00    -0.292 OA
BRANCH  27  28
HETATM   28  C18 UNL     1      -5.504  -1.961   0.272  1.00  0.00     0.256 C 
HETATM   29  C19 UNL     1      -6.698  -2.566   0.900  1.00  0.00     0.126 C 
HETATM   30  O7  UNL     1      -4.971  -2.569  -0.692  1.00  0.00    -0.266 OA
ENDBRANCH  27  28
ENDBRANCH  12  27
BRANCH   1  31
HETATM   31  C2  UNL     1      -5.091   1.326  -1.342  1.00  0.00     0.038 C 
HETATM   32  C1  UNL     1      -6.426   1.340  -0.651  1.00  0.00     0.008 C 
ENDBRANCH   1  31
TORSDOF 8
