REMARK  11 active torsions:
REMARK  status: ('A' for Active; 'I' for Inactive)
REMARK    1  A    between atoms: C2_2  and  C3_3 
REMARK    2  A    between atoms: C3_3  and  C4_4 
REMARK    3  A    between atoms: C4_4  and  C5_5 
REMARK    4  A    between atoms: C5_5  and  O2_7 
REMARK    5  A    between atoms: O2_7  and  C6_8 
REMARK    6  A    between atoms: C12_14  and  O3_15 
REMARK    7  A    between atoms: C14_19  and  O5_21 
REMARK    8  A    between atoms: O5_21  and  C16_22 
REMARK    9  A    between atoms: C20_27  and  O7_28 
REMARK   10  A    between atoms: C23_33  and  O9_34 
REMARK   11  A    between atoms: O9_34  and  C24_35 
ROOT
HETATM    1  C6  UNL     1      -1.232   0.512  -0.594  1.00  0.00     0.205 C 
HETATM    2  C7  UNL     1       0.053   0.311   0.140  1.00  0.00     0.017 A 
HETATM    3  C8  UNL     1       0.338   0.771   1.394  1.00  0.00    -0.017 A 
HETATM    4  C9  UNL     1       1.581   0.492   1.918  1.00  0.00     0.023 A 
HETATM    5  C10 UNL     1       2.495  -0.232   1.183  1.00  0.00    -0.019 A 
HETATM    6  C11 UNL     1       2.230  -0.712  -0.094  1.00  0.00     0.057 A 
HETATM    7  C12 UNL     1       0.978  -0.432  -0.625  1.00  0.00     0.090 A 
HETATM    8  C13 UNL     1       3.232  -1.468  -0.822  1.00  0.00     0.201 A 
HETATM    9  O4  UNL     1       3.010  -1.901  -1.971  1.00  0.00    -0.288 OA
HETATM   10  C14 UNL     1       4.555  -1.758  -0.241  1.00  0.00     0.150 A 
HETATM   11  C15 UNL     1       4.627  -3.283  -0.080  1.00  0.00     0.060 C 
HETATM   12  C18 UNL     1       4.725  -1.200   1.120  1.00  0.00     0.020 A 
HETATM   13  C19 UNL     1       3.804  -0.521   1.749  1.00  0.00     0.012 A 
HETATM   14  C20 UNL     1      -0.491   1.564   2.359  1.00  0.00     0.159 C 
HETATM   15  C21 UNL     1      -1.011   2.845   1.769  1.00  0.00     0.117 C 
HETATM   16  C22 UNL     1      -0.796   2.785   0.301  1.00  0.00     0.161 C 
HETATM   17  O8  UNL     1       0.098   3.511  -0.084  1.00  0.00    -0.295 OA
HETATM   18  C23 UNL     1      -1.503   1.984  -0.731  1.00  0.00     0.235 C 
ENDROOT
BRANCH   1  19
HETATM   19  O2  UNL     1      -2.298  -0.096   0.073  1.00  0.00    -0.308 OA
BRANCH  19  20
HETATM   20  C5  UNL     1      -3.035  -1.143  -0.457  1.00  0.00     0.259 C 
HETATM   21  O1  UNL     1      -2.734  -1.572  -1.596  1.00  0.00    -0.265 OA
BRANCH  20  22
HETATM   22  C4  UNL     1      -4.154  -1.780   0.244  1.00  0.00     0.111 C 
BRANCH  22  23
HETATM   23  C3  UNL     1      -4.438  -1.191   1.603  1.00  0.00     0.009 C 
BRANCH  23  24
HETATM   24  C2  UNL     1      -5.625  -1.979   2.169  1.00  0.00    -0.004 C 
HETATM   25  C1  UNL     1      -5.982  -1.453   3.541  1.00  0.00     0.005 C 
ENDBRANCH  23  24
ENDBRANCH  22  23
ENDBRANCH  20  22
ENDBRANCH  19  20
ENDBRANCH   1  19
BRANCH  18  26
HETATM   26  O9  UNL     1      -1.247   2.462  -2.036  1.00  0.00    -0.306 OA
BRANCH  26  27
HETATM   27  C24 UNL     1      -2.219   3.000  -2.865  1.00  0.00     0.255 C 
HETATM   28  C25 UNL     1      -1.923   3.498  -4.236  1.00  0.00     0.126 C 
HETATM   29  O10 UNL     1      -3.386   3.042  -2.377  1.00  0.00    -0.266 OA
ENDBRANCH  26  27
ENDBRANCH  18  26
BRANCH   7  30
HETATM   30  O3  UNL     1       0.593  -0.842  -1.861  1.00  0.00    -0.359 OA
ATOM     31  H3  UNL     1       1.215  -1.342  -2.376  1.00  0.00     0.217 HD
ENDBRANCH   7  30
BRANCH  14  32
HETATM   32  O7  UNL     1      -1.565   0.735   2.759  1.00  0.00    -0.390 OA
ATOM     33  H7  UNL     1      -2.090   1.238   3.371  1.00  0.00     0.210 HD
ENDBRANCH  14  32
BRANCH  10  34
HETATM   34  O5  UNL     1       5.617  -1.416  -1.108  1.00  0.00    -0.298 OA
BRANCH  34  35
HETATM   35  C16 UNL     1       5.848  -0.141  -1.581  1.00  0.00     0.256 C 
HETATM   36  C17 UNL     1       6.976   0.190  -2.494  1.00  0.00     0.126 C 
HETATM   37  O6  UNL     1       5.059   0.769  -1.212  1.00  0.00    -0.266 OA
ENDBRANCH  34  35
ENDBRANCH  10  34
TORSDOF 11
