REMARK  9 active torsions:
REMARK  status: ('A' for Active; 'I' for Inactive)
REMARK    1  A    between atoms: O1_2  and  C2_3 
REMARK    2  A    between atoms: C4_5  and  C5_6 
REMARK    3  A    between atoms: C5_6  and  O2_7 
REMARK    4  A    between atoms: C5_6  and  N1_9 
REMARK    5  A    between atoms: N1_9  and  C7_11 
REMARK    6  A    between atoms: C8_14  and  N3_15 
REMARK    7  A    between atoms: N3_15  and  N4_17 
REMARK    8  A    between atoms: C17_33  and  O3_34 
REMARK    9  A    between atoms: C19_36  and  O4_37 
ROOT
HETATM    1  C7  UNL     1       0.043  -1.639   1.544  1.00  0.00     0.694 A 
HETATM    2  N2  UNL     1      -1.108  -1.589   0.969  1.00  0.00    -0.166 N 
ATOM      3  H2  UNL     1      -1.294  -0.898   0.242  1.00  0.00     0.186 HD
HETATM    4  C8  UNL     1      -2.052  -2.452   1.337  1.00  0.00     0.195 A 
HETATM    5  S2  UNL     1      -1.241  -3.349   2.542  1.00  0.00     0.040 SA
HETATM    6  N6  UNL     1       0.256  -2.550   2.489  1.00  0.00    -0.157 N 
ATOM      7  H6  UNL     1       1.098  -2.723   3.038  1.00  0.00     0.193 HD
ENDROOT
BRANCH   1   8
HETATM    8  N1  UNL     1       1.124  -0.686   1.155  1.00  0.00    -0.165 N 
HETATM    9  C6  UNL     1       0.835   0.701   1.334  1.00  0.00     0.177 C 
BRANCH   8  10
HETATM   10  C5  UNL     1       2.286  -1.217   0.628  1.00  0.00     0.167 C 
BRANCH  10  11
HETATM   11  C4  UNL     1       3.521  -0.597   0.258  1.00  0.00     0.021 A 
HETATM   12  C3  UNL     1       3.878   0.708   0.468  1.00  0.00     0.055 A 
HETATM   13  C2  UNL     1       5.097   1.260   0.046  1.00  0.00     0.105 A 
HETATM   14  C19 UNL     1       5.976   0.450  -0.610  1.00  0.00     0.135 A 
HETATM   15  C17 UNL     1       5.666  -0.873  -0.846  1.00  0.00     0.105 A 
HETATM   16  C16 UNL     1       4.473  -1.386  -0.425  1.00  0.00     0.055 A 
BRANCH  13  17
HETATM   17  O1  UNL     1       5.396   2.585   0.288  1.00  0.00    -0.353 OA
HETATM   18  C1  UNL     1       4.453   3.386   0.970  1.00  0.00     0.210 C 
ENDBRANCH  13  17
BRANCH  14  19
HETATM   19  O4  UNL     1       7.211   0.899  -1.069  1.00  0.00    -0.351 OA
HETATM   20  C20 UNL     1       8.347   0.819  -0.233  1.00  0.00     0.210 C 
ENDBRANCH  14  19
BRANCH  15  21
HETATM   21  O3  UNL     1       6.591  -1.686  -1.523  1.00  0.00    -0.353 OA
HETATM   22  C18 UNL     1       6.247  -3.037  -1.751  1.00  0.00     0.210 C 
ENDBRANCH  15  21
ENDBRANCH  10  11
BRANCH  10  23
HETATM   23  O2  UNL     1       2.240  -2.515   0.436  1.00  0.00    -0.345 OA
ATOM     24  H2  UNL     1       1.420  -2.927   0.682  1.00  0.00     0.219 HD
ENDBRANCH  10  23
ENDBRANCH   8  10
ENDBRANCH   1   8
BRANCH   4  25
HETATM   25  N3  UNL     1      -3.277  -2.563   0.877  1.00  0.00    -0.277 N 
ATOM     26  H3  UNL     1      -3.920  -3.268   1.236  1.00  0.00     0.189 HD
BRANCH  25  27
HETATM   27  N4  UNL     1      -3.656  -1.673  -0.123  1.00  0.00    -0.294 N 
HETATM   28  C9  UNL     1      -4.597  -0.837  -0.058  1.00  0.00     0.091 C 
HETATM   29  S1  UNL     1      -5.722  -0.524   1.296  1.00  0.00    -0.082 SA
HETATM   30  C13 UNL     1      -5.014   0.111  -1.090  1.00  0.00     0.070 C 
HETATM   31  C10 UNL     1      -6.788   0.664   0.391  1.00  0.00     0.074 C 
HETATM   32  C11 UNL     1      -8.222   0.224   0.593  1.00  0.00     0.050 C 
HETATM   33  C12 UNL     1      -6.576   2.068   0.913  1.00  0.00     0.050 C 
HETATM   34  N5  UNL     1      -6.319   0.564  -0.923  1.00  0.00    -0.390 N 
ATOM     35  H5  UNL     1      -6.905   0.811  -1.720  1.00  0.00     0.156 HD
HETATM   36  C14 UNL     1      -4.784  -0.412  -2.495  1.00  0.00     0.045 C 
HETATM   37  C15 UNL     1      -4.060   1.311  -0.963  1.00  0.00     0.045 C 
ATOM     38  H4  UNL     1      -3.121  -1.700  -0.991  1.00  0.00     0.187 HD
ENDBRANCH  25  27
ENDBRANCH   4  25
TORSDOF 9
