REMARK  8 active torsions:
REMARK  status: ('A' for Active; 'I' for Inactive)
REMARK    1  A    between atoms: C2_2  and  O1_3 
REMARK    2  A    between atoms: O1_3  and  C3_4 
REMARK    3  A    between atoms: C5_7  and  O2_8 
REMARK    4  A    between atoms: O2_8  and  C6_9 
REMARK    5  A    between atoms: C10_15  and  C11_16 
REMARK    6  A    between atoms: C15_22  and  C16_23 
REMARK    7  A    between atoms: C18_25  and  O7_26 
REMARK    8  A    between atoms: C19_28  and  O8_29 
ROOT
HETATM    1  C3  UNL     1      -3.547  -1.242  -1.158  1.00  0.00     0.079 C 
HETATM    2  C4  UNL     1      -2.872  -0.577  -0.236  1.00  0.00     0.102 C 
HETATM    3  S1  UNL     1      -1.380  -1.438   0.256  1.00  0.00    -0.075 SA
HETATM    4  C5  UNL     1      -0.541  -0.214   1.323  1.00  0.00     0.225 C 
HETATM    5  C18 UNL     1      -1.584   0.231   2.315  1.00  0.00     0.206 C 
HETATM    6  C19 UNL     1      -2.698   1.010   1.742  1.00  0.00     0.253 C 
HETATM    7  N1  UNL     1      -3.120   0.664   0.410  1.00  0.00    -0.345 N 
HETATM    8  C20 UNL     1      -3.849   1.800  -0.166  1.00  0.00     0.126 C 
HETATM    9  C21 UNL     1      -5.103   1.358  -0.857  1.00  0.00     0.020 C 
HETATM   10  C22 UNL     1      -4.760   0.607  -2.128  1.00  0.00     0.008 C 
HETATM   11  C23 UNL     1      -4.810  -0.865  -1.808  1.00  0.00     0.067 C 
ENDROOT
BRANCH   4  12
HETATM   12  O2  UNL     1      -0.089   0.790   0.511  1.00  0.00    -0.340 OA
BRANCH  12  13
HETATM   13  C6  UNL     1       1.291   0.971   0.529  1.00  0.00     0.296 C 
HETATM   14  O3  UNL     1       1.523   2.268   0.914  1.00  0.00    -0.323 OA
HETATM   15  C7  UNL     1       1.941   2.968  -0.213  1.00  0.00     0.160 C 
HETATM   16  C8  UNL     1       2.928   4.019   0.249  1.00  0.00     0.078 C 
HETATM   17  C9  UNL     1       0.723   3.620  -0.836  1.00  0.00     0.078 C 
HETATM   18  O4  UNL     1       2.520   2.023  -1.056  1.00  0.00    -0.343 OA
HETATM   19  C10 UNL     1       1.924   0.800  -0.806  1.00  0.00     0.212 C 
BRANCH  19  20
HETATM   20  C11 UNL     1       3.039  -0.254  -0.806  1.00  0.00     0.188 C 
HETATM   21  O5  UNL     1       2.539  -1.513  -0.564  1.00  0.00    -0.345 OA
HETATM   22  C12 UNL     1       3.303  -2.144   0.385  1.00  0.00     0.158 C 
HETATM   23  C13 UNL     1       2.455  -2.945   1.367  1.00  0.00     0.078 C 
HETATM   24  C14 UNL     1       4.341  -3.068  -0.230  1.00  0.00     0.078 C 
HETATM   25  O6  UNL     1       3.950  -1.164   1.084  1.00  0.00    -0.348 OA
HETATM   26  C15 UNL     1       3.997  -0.009   0.306  1.00  0.00     0.156 C 
BRANCH  26  27
HETATM   27  C16 UNL     1       5.426   0.142  -0.165  1.00  0.00     0.030 C 
HETATM   28  C17 UNL     1       5.609   1.296  -1.127  1.00  0.00     0.007 C 
ENDBRANCH  26  27
ENDBRANCH  19  20
ENDBRANCH  12  13
ENDBRANCH   4  12
BRANCH   5  29
HETATM   29  O7  UNL     1      -1.009   0.983   3.359  1.00  0.00    -0.388 OA
ATOM     30  H7  UNL     1      -1.667   1.264   3.985  1.00  0.00     0.210 HD
ENDBRANCH   5  29
BRANCH   6  31
HETATM   31  O8  UNL     1      -3.848   0.851   2.556  1.00  0.00    -0.374 OA
ATOM     32  H8  UNL     1      -4.565   1.353   2.187  1.00  0.00     0.212 HD
ENDBRANCH   6  31
BRANCH   1  33
HETATM   33  O1  UNL     1      -2.998  -2.450  -1.568  1.00  0.00    -0.353 OA
BRANCH  33  34
HETATM   34  C2  UNL     1      -3.259  -3.671  -0.924  1.00  0.00     0.171 C 
HETATM   35  C1  UNL     1      -4.727  -4.029  -0.932  1.00  0.00     0.034 C 
ENDBRANCH  33  34
ENDBRANCH   1  33
TORSDOF 8
