REMARK  9 active torsions:
REMARK  status: ('A' for Active; 'I' for Inactive)
REMARK    1  A    between atoms: O1_2  and  C2_3 
REMARK    2  A    between atoms: C6_7  and  O2_8 
REMARK    3  A    between atoms: C7_10  and  C8_11 
REMARK    4  A    between atoms: C8_11  and  C9_12 
REMARK    5  A    between atoms: C13_16  and  O3_17 
REMARK    6  A    between atoms: O3_17  and  C14_18 
REMARK    7  A    between atoms: C16_21  and  O5_22 
REMARK    8  A    between atoms: O5_22  and  C17_23 
REMARK    9  A    between atoms: C19_26  and  O7_27 
ROOT
HETATM    1  C2  UNL     1       2.149   1.527   0.469  1.00  0.00     0.078 A 
HETATM    2  C3  UNL     1       0.966   2.222   0.223  1.00  0.00     0.047 A 
HETATM    3  C4  UNL     1      -0.125   1.634  -0.369  1.00  0.00    -0.020 A 
HETATM    4  C5  UNL     1      -0.104   0.314  -0.752  1.00  0.00     0.016 A 
HETATM    5  C6  UNL     1       1.071  -0.380  -0.508  1.00  0.00     0.084 A 
HETATM    6  C7  UNL     1       2.186   0.205   0.092  1.00  0.00     0.012 A 
HETATM    7  C13 UNL     1      -1.037  -0.637  -1.390  1.00  0.00     0.201 C 
HETATM    8  C16 UNL     1      -2.223  -0.961  -0.523  1.00  0.00     0.214 C 
HETATM    9  C19 UNL     1      -3.245   0.121  -0.447  1.00  0.00     0.168 C 
HETATM   10  S1  UNL     1      -4.531  -0.462   0.733  1.00  0.00    -0.049 SA
HETATM   11  C20 UNL     1      -4.621   1.042   1.745  1.00  0.00     0.191 C 
HETATM   12  O8  UNL     1      -5.079   1.172   2.854  1.00  0.00    -0.285 OA
HETATM   13  C21 UNL     1      -3.982   2.063   0.839  1.00  0.00     0.127 C 
HETATM   14  C22 UNL     1      -2.790   1.378   0.217  1.00  0.00     0.177 C 
HETATM   15  O9  UNL     1      -2.364   2.248  -0.816  1.00  0.00    -0.377 OA
HETATM   16  C23 UNL     1      -1.119   2.739  -0.419  1.00  0.00     0.207 C 
ENDROOT
BRANCH   6  17
HETATM   17  C8  UNL     1       3.418  -0.586   0.339  1.00  0.00     0.071 C 
BRANCH  17  18
HETATM   18  C9  UNL     1       3.481  -1.003   1.762  1.00  0.00    -0.020 C 
HETATM   19  C10 UNL     1       4.490  -0.805   2.561  1.00  0.00    -0.091 C 
HETATM   20  C11 UNL     1       4.417  -1.275   3.972  1.00  0.00     0.042 C 
HETATM   21  C12 UNL     1       5.744  -0.142   2.121  1.00  0.00     0.042 C 
ENDBRANCH  17  18
ENDBRANCH   6  17
BRANCH   1  22
HETATM   22  O1  UNL     1       3.232   2.170   1.073  1.00  0.00    -0.355 OA
HETATM   23  C1  UNL     1       3.080   3.529   1.418  1.00  0.00     0.210 C 
ENDBRANCH   1  22
BRANCH   5  24
HETATM   24  O2  UNL     1       1.142  -1.727  -0.878  1.00  0.00    -0.359 OA
ATOM     25  H2  UNL     1       1.947  -2.203  -0.711  1.00  0.00     0.217 HD
ENDBRANCH   5  24
BRANCH   7  26
HETATM   26  O3  UNL     1      -1.522  -0.207  -2.628  1.00  0.00    -0.309 OA
BRANCH  26  27
HETATM   27  C14 UNL     1      -1.314  -0.901  -3.806  1.00  0.00     0.255 C 
HETATM   28  C15 UNL     1      -1.839  -0.424  -5.112  1.00  0.00     0.126 C 
HETATM   29  O4  UNL     1      -0.663  -1.954  -3.742  1.00  0.00    -0.266 OA
ENDBRANCH  26  27
ENDBRANCH   7  26
BRANCH   8  30
HETATM   30  O5  UNL     1      -2.865  -2.098  -1.114  1.00  0.00    -0.309 OA
BRANCH  30  31
HETATM   31  C17 UNL     1      -3.035  -3.289  -0.431  1.00  0.00     0.255 C 
HETATM   32  C18 UNL     1      -3.704  -4.452  -1.067  1.00  0.00     0.126 C 
HETATM   33  O6  UNL     1      -2.595  -3.338   0.755  1.00  0.00    -0.266 OA
ENDBRANCH  30  31
ENDBRANCH   8  30
BRANCH   9  34
HETATM   34  O7  UNL     1      -3.820   0.430  -1.671  1.00  0.00    -0.373 OA
ATOM     35  H7  UNL     1      -4.471   1.120  -1.623  1.00  0.00     0.212 HD
ENDBRANCH   9  34
TORSDOF 9
