REMARK  10 active torsions:
REMARK  status: ('A' for Active; 'I' for Inactive)
REMARK    1  A    between atoms: C2_2  and  C3_3 
REMARK    2  A    between atoms: C3_3  and  C4_4 
REMARK    3  A    between atoms: C4_4  and  C5_5 
REMARK    4  A    between atoms: C5_5  and  C6_6 
REMARK    5  A    between atoms: C6_6  and  O2_8 
REMARK    6  A    between atoms: O2_8  and  C7_9 
REMARK    7  A    between atoms: C12_15  and  O4_16 
REMARK    8  A    between atoms: C16_23  and  O7_24 
REMARK    9  A    between atoms: C23_33  and  O9_34 
REMARK   10  A    between atoms: O9_34  and  C24_35 
ROOT
HETATM    1  C7  UNL     1       0.107   0.112   0.643  1.00  0.00     0.166 C 
HETATM    2  C8  UNL     1      -0.082   0.861   1.911  1.00  0.00     0.081 C 
HETATM    3  C9  UNL     1      -0.288   2.310   1.789  1.00  0.00     0.038 A 
HETATM    4  C10 UNL     1      -1.477   2.952   1.401  1.00  0.00     0.106 A 
HETATM    5  C11 UNL     1      -1.184   4.310   1.474  1.00  0.00     0.182 A 
HETATM    6  O3  UNL     1       0.058   4.474   1.863  1.00  0.00    -0.297 OA
HETATM    7  C12 UNL     1       0.606   3.316   2.055  1.00  0.00     0.192 A 
HETATM    8  O5  UNL     1      -2.571   2.180   1.067  1.00  0.00    -0.309 OA
HETATM    9  C13 UNL     1      -3.243   1.803  -0.061  1.00  0.00     0.200 C 
HETATM   10  C14 UNL     1      -4.399   2.841  -0.236  1.00  0.00     0.083 C 
HETATM   11  O6  UNL     1      -2.534   1.918  -1.290  1.00  0.00    -0.349 OA
HETATM   12  C15 UNL     1      -3.451   0.968  -1.774  1.00  0.00     0.216 C 
HETATM   13  C16 UNL     1      -3.750   0.509  -0.348  1.00  0.00     0.143 C 
HETATM   14  C17 UNL     1      -3.129  -0.771  -0.026  1.00  0.00     0.008 C 
HETATM   15  C18 UNL     1      -3.423  -1.110   1.437  1.00  0.00     0.019 C 
HETATM   16  C19 UNL     1      -3.957  -1.837  -0.786  1.00  0.00     0.020 C 
HETATM   17  C20 UNL     1      -3.022  -2.937  -1.132  1.00  0.00     0.079 C 
HETATM   18  C21 UNL     1      -1.704  -2.311  -1.224  1.00  0.00     0.134 C 
HETATM   19  O8  UNL     1      -0.731  -2.710  -1.801  1.00  0.00    -0.297 OA
HETATM   20  C22 UNL     1      -1.735  -1.018  -0.447  1.00  0.00     0.099 C 
HETATM   21  C23 UNL     1      -0.727  -1.176   0.652  1.00  0.00     0.173 C 
ENDROOT
BRANCH   1  22
HETATM   22  O2  UNL     1       1.460  -0.308   0.465  1.00  0.00    -0.313 OA
BRANCH  22  23
HETATM   23  C6  UNL     1       2.239   0.040  -0.602  1.00  0.00     0.259 C 
HETATM   24  O1  UNL     1       1.738   0.780  -1.494  1.00  0.00    -0.265 OA
BRANCH  23  25
HETATM   25  C5  UNL     1       3.635  -0.446  -0.700  1.00  0.00     0.111 C 
BRANCH  25  26
HETATM   26  C4  UNL     1       4.311   0.059  -1.961  1.00  0.00     0.010 C 
BRANCH  26  27
HETATM   27  C3  UNL     1       5.735  -0.444  -2.051  1.00  0.00     0.000 C 
BRANCH  27  28
HETATM   28  C2  UNL     1       6.572   0.012  -0.878  1.00  0.00    -0.005 C 
HETATM   29  C1  UNL     1       6.615   1.530  -0.827  1.00  0.00     0.005 C 
ENDBRANCH  27  28
ENDBRANCH  26  27
ENDBRANCH  25  26
ENDBRANCH  23  25
ENDBRANCH  22  23
ENDBRANCH   1  22
BRANCH  21  30
HETATM   30  O9  UNL     1       0.078  -2.329   0.506  1.00  0.00    -0.313 OA
BRANCH  30  31
HETATM   31  C24 UNL     1       0.190  -3.303   1.485  1.00  0.00     0.255 C 
HETATM   32  C25 UNL     1       1.023  -4.526   1.371  1.00  0.00     0.126 C 
HETATM   33  O10 UNL     1      -0.460  -3.138   2.547  1.00  0.00    -0.266 OA
ENDBRANCH  30  31
ENDBRANCH  21  30
BRANCH   7  34
HETATM   34  O4  UNL     1       1.945   3.162   2.480  1.00  0.00    -0.340 OA
ATOM     35  H4  UNL     1       2.564   3.859   2.664  1.00  0.00     0.220 HD
ENDBRANCH   7  34
BRANCH  13  36
HETATM   36  O7  UNL     1      -5.165   0.374  -0.262  1.00  0.00    -0.381 OA
ATOM     37  H7  UNL     1      -5.504  -0.492  -0.454  1.00  0.00     0.211 HD
ENDBRANCH  13  36
TORSDOF 10
