REMARK  6 active torsions:
REMARK  status: ('A' for Active; 'I' for Inactive)
REMARK    1  A    between atoms: O1_1  and  C1_3 
REMARK    2  A    between atoms: C2_4  and  N1_5 
REMARK    3  A    between atoms: C9_15  and  O3_16 
REMARK    4  A    between atoms: N2_18  and  C10_19 
REMARK    5  A    between atoms: C10_19  and  C11_20 
REMARK    6  A    between atoms: C15_25  and  O5_26 
ROOT
HETATM    1  C1  UNL     1       0.108   1.723   0.612  1.00  0.00     0.148 A 
HETATM    2  C2  UNL     1      -0.085   1.642  -0.750  1.00  0.00     0.124 A 
HETATM    3  C9  UNL     1       1.135   1.284  -1.281  1.00  0.00     0.174 A 
HETATM    4  N2  UNL     1       2.062   1.143  -0.302  1.00  0.00    -0.302 N 
HETATM    5  C15 UNL     1       1.443   1.410   0.859  1.00  0.00     0.181 A 
ENDROOT
BRANCH   2   6
HETATM    6  N1  UNL     1      -1.311   1.883  -1.474  1.00  0.00    -0.325 N 
HETATM    7  C3  UNL     1      -2.179   0.936  -1.542  1.00  0.00     0.187 C 
HETATM    8  O2  UNL     1      -2.282  -0.366  -1.079  1.00  0.00    -0.307 OA
HETATM    9  S1  UNL     1      -3.787   0.749  -2.291  1.00  0.00    -0.048 SA
HETATM   10  C4  UNL     1      -3.658  -0.338  -0.863  1.00  0.00     0.125 C 
HETATM   11  C5  UNL     1      -4.119   0.253   0.446  1.00  0.00     0.051 C 
HETATM   12  C8  UNL     1      -4.401  -1.629  -0.946  1.00  0.00     0.051 C 
HETATM   13  C6  UNL     1      -5.627   0.006   0.364  1.00  0.00     0.004 C 
HETATM   14  C7  UNL     1      -5.700  -1.372  -0.203  1.00  0.00     0.004 C 
ATOM     15  H1  UNL     1      -1.485   2.783  -1.921  1.00  0.00     0.169 HD
ENDBRANCH   2   6
BRANCH   1  16
HETATM   16  O1  UNL     1      -0.857   2.057   1.562  1.00  0.00    -0.355 OA
ATOM     17  H1  UNL     1      -0.724   2.113   2.501  1.00  0.00     0.218 HD
ENDBRANCH   1  16
BRANCH   3  18
HETATM   18  O3  UNL     1       1.423   1.084  -2.616  1.00  0.00    -0.344 OA
ATOM     19  H3  UNL     1       2.264   0.837  -2.982  1.00  0.00     0.219 HD
ENDBRANCH   3  18
BRANCH   5  20
HETATM   20  O5  UNL     1       1.951   1.407   2.160  1.00  0.00    -0.344 OA
ATOM     21  H5  UNL     1       2.861   1.194   2.328  1.00  0.00     0.219 HD
ENDBRANCH   5  20
BRANCH   4  22
HETATM   22  C10 UNL     1       3.450   0.796  -0.446  1.00  0.00     0.165 C 
BRANCH  22  23
HETATM   23  C11 UNL     1       3.778  -0.646  -0.457  1.00  0.00     0.140 C 
HETATM   24  C12 UNL     1       3.421  -1.458   0.727  1.00  0.00     0.035 C 
HETATM   25  C13 UNL     1       4.643  -1.431   1.600  1.00  0.00     0.029 C 
HETATM   26  C14 UNL     1       5.626  -0.624   0.806  1.00  0.00     0.168 C 
HETATM   27  O4  UNL     1       5.195  -0.723  -0.487  1.00  0.00    -0.384 OA
ENDBRANCH  22  23
ENDBRANCH   4  22
TORSDOF 6
