REMARK  3 active torsions:
REMARK  status: ('A' for Active; 'I' for Inactive)
REMARK    1  A    between atoms: C4_4  and  N1_5 
REMARK    2  A    between atoms: N2_7  and  C5_9 
REMARK    3  A    between atoms: C13_24  and  N6_25 
ROOT
HETATM    1  N1  UNL     1       0.568  -0.605  -0.332  1.00  0.00    -0.300 N 
ATOM      2  H1  UNL     1       0.934  -1.370  -0.899  1.00  0.00     0.187 HD
HETATM    3  N2  UNL     1       1.411   0.110   0.285  1.00  0.00    -0.294 N 
ATOM      4  H2  UNL     1       1.078   0.884   0.859  1.00  0.00     0.187 HD
ENDROOT
BRANCH   1   5
HETATM    5  C4  UNL     1      -0.831  -0.439  -0.305  1.00  0.00     0.056 A 
HETATM    6  C3  UNL     1      -1.592  -0.710  -1.444  1.00  0.00     0.040 A 
HETATM    7  C2  UNL     1      -2.967  -0.564  -1.460  1.00  0.00    -0.025 A 
HETATM    8  C1  UNL     1      -3.753  -0.863  -2.684  1.00  0.00     0.051 C 
HETATM    9  C13 UNL     1      -3.632  -0.135  -0.317  1.00  0.00     0.133 A 
HETATM   10  C12 UNL     1      -2.875   0.135   0.816  1.00  0.00     0.088 A 
HETATM   11  C10 UNL     1      -1.500  -0.014   0.822  1.00  0.00    -0.007 A 
HETATM   12  N5  UNL     1      -3.570   0.568   1.976  1.00  0.00    -0.099 NA
HETATM   13  C11 UNL     1      -0.767   0.296   2.076  1.00  0.00     0.052 C 
BRANCH   9  14
HETATM   14  N6  UNL     1      -5.044   0.033  -0.270  1.00  0.00    -0.113 N 
HETATM   15  O2  UNL     1      -5.741  -1.006  -0.233  1.00  0.00    -0.532 OA
HETATM   16  O3  UNL     1      -5.693   1.231  -0.263  1.00  0.00    -0.532 OA
ENDBRANCH   9  14
ENDBRANCH   1   5
BRANCH   3  17
HETATM   17  C5  UNL     1       2.821  -0.138   0.199  1.00  0.00     0.138 A 
HETATM   18  C6  UNL     1       3.727   0.881  -0.001  1.00  0.00     0.041 A 
HETATM   19  C7  UNL     1       3.249   2.269  -0.130  1.00  0.00     0.071 C 
HETATM   20  N3  UNL     1       5.050   0.595  -0.073  1.00  0.00    -0.335 N 
HETATM   21  C8  UNL     1       5.515  -0.663   0.045  1.00  0.00     0.179 A 
ATOM     22  H3  UNL     1       5.713   1.356  -0.221  1.00  0.00     0.168 HD
HETATM   23  S1  UNL     1       7.129  -0.904  -0.056  1.00  0.00    -0.040 SA
HETATM   24  N4  UNL     1       4.640  -1.672   0.240  1.00  0.00    -0.298 N 
HETATM   25  C9  UNL     1       3.324  -1.427   0.317  1.00  0.00     0.277 A 
ATOM     26  H4  UNL     1       4.983  -2.629   0.330  1.00  0.00     0.171 HD
HETATM   27  O1  UNL     1       2.508  -2.371   0.498  1.00  0.00    -0.265 OA
ENDBRANCH   3  17
TORSDOF 3
