REMARK  7 active torsions:
REMARK  status: ('A' for Active; 'I' for Inactive)
REMARK    1  A    between atoms: N1_5  and  O1_7 
REMARK    2  A    between atoms: C6_10  and  N2_11 
REMARK    3  A    between atoms: C6_10  and  C8_18 
REMARK    4  A    between atoms: N3_13  and  C7_15 
REMARK    5  A    between atoms: C10_20  and  C11_21 
REMARK    6  A    between atoms: C11_21  and  O2_22 
REMARK    7  A    between atoms: C12_24  and  N5_25 
ROOT
HETATM    1  C1  UNL     1      -0.871  -1.189  -2.129  1.00  0.00     0.013 C 
HETATM    2  C2  UNL     1      -1.499  -1.005  -0.762  1.00  0.00     0.023 C 
HETATM    3  C3  UNL     1      -1.617  -2.325  -0.051  1.00  0.00     0.061 C 
HETATM    4  C4  UNL     1      -1.540  -2.022   1.368  1.00  0.00     0.013 C 
HETATM    5  N1  UNL     1      -1.880  -2.761   2.368  1.00  0.00    -0.277 N 
ATOM      6  H1  UNL     1      -1.776  -2.434   3.328  1.00  0.00     0.193 HD
HETATM    7  C5  UNL     1      -0.968  -0.675   1.554  1.00  0.00     0.094 C 
HETATM    8  C6  UNL     1      -0.759  -0.127   0.162  1.00  0.00     0.103 C 
ENDROOT
BRANCH   8   9
HETATM    9  N2  UNL     1      -1.452   1.181   0.182  1.00  0.00    -0.317 N 
HETATM   10  N3  UNL     1      -1.998   1.669  -0.831  1.00  0.00    -0.282 N 
ATOM     11  H3  UNL     1      -1.961   1.140  -1.702  1.00  0.00     0.188 HD
ATOM     12  H2  UNL     1      -1.485   1.705   1.057  1.00  0.00     0.181 HD
BRANCH  10  13
HETATM   13  C7  UNL     1      -2.659   2.905  -0.832  1.00  0.00     0.199 C 
HETATM   14  N4  UNL     1      -3.219   3.538   0.303  1.00  0.00    -0.068 NA
HETATM   15  S1  UNL     1      -2.801   3.692  -2.257  1.00  0.00    -0.043 SA
ENDBRANCH  10  13
ENDBRANCH   8   9
BRANCH   8  16
HETATM   16  C8  UNL     1       0.639   0.158  -0.134  1.00  0.00     0.086 A 
HETATM   17  C9  UNL     1       1.590   0.508   0.827  1.00  0.00     0.049 A 
HETATM   18  C10 UNL     1       2.777   0.695   0.153  1.00  0.00     0.025 A 
HETATM   19  C12 UNL     1       2.523   0.460  -1.183  1.00  0.00     0.223 A 
HETATM   20  O5  UNL     1       1.260   0.154  -1.270  1.00  0.00    -0.290 OA
BRANCH  18  21
HETATM   21  C11 UNL     1       4.087   1.069   0.785  1.00  0.00     0.207 C 
BRANCH  21  22
HETATM   22  O2  UNL     1       3.871   1.225   2.170  1.00  0.00    -0.396 OA
ATOM     23  H2  UNL     1       4.700   1.462   2.570  1.00  0.00     0.209 HD
ENDBRANCH  21  22
ENDBRANCH  18  21
BRANCH  19  24
HETATM   24  N5  UNL     1       3.518   0.560  -2.189  1.00  0.00    -0.090 N 
HETATM   25  O3  UNL     1       3.235   0.344  -3.374  1.00  0.00    -0.530 OA
HETATM   26  O4  UNL     1       4.811   0.904  -1.884  1.00  0.00    -0.530 OA
ENDBRANCH  19  24
ENDBRANCH   8  16
BRANCH   5  27
HETATM   27  O1  UNL     1      -2.391  -4.016   2.087  1.00  0.00    -0.290 OA
ATOM     28  H1  UNL     1      -2.642  -4.561   2.824  1.00  0.00     0.244 HD
ENDBRANCH   5  27
TORSDOF 7
