REMARK  7 active torsions:
REMARK  status: ('A' for Active; 'I' for Inactive)
REMARK    1  A    between atoms: C2_2  and  C3_3 
REMARK    2  A    between atoms: C3_3  and  C4_4 
REMARK    3  A    between atoms: C4_4  and  C5_5 
REMARK    4  A    between atoms: C5_5  and  C6_6 
REMARK    5  A    between atoms: C6_6  and  O1_7 
REMARK    6  A    between atoms: C10_13  and  O3_14 
REMARK    7  A    between atoms: C12_17  and  O4_18 
ROOT
HETATM    1  C5  UNL     1      -1.280  -0.482  -0.222  1.00  0.00     0.105 C 
HETATM    2  C16 UNL     1      -1.642   0.513  -1.288  1.00  0.00     0.194 C 
HETATM    3  O6  UNL     1      -1.765   0.187  -2.518  1.00  0.00    -0.290 OA
HETATM    4  C17 UNL     1      -1.886   1.927  -1.030  1.00  0.00     0.118 A 
HETATM    5  N1  UNL     1      -2.149   3.003  -1.821  1.00  0.00    -0.257 N 
ATOM      6  H1  UNL     1      -2.224   2.976  -2.838  1.00  0.00     0.195 HD
HETATM    7  O7  UNL     1      -2.291   4.070  -1.092  1.00  0.00    -0.241 OA
HETATM    8  C18 UNL     1      -2.141   3.803   0.180  1.00  0.00     0.088 A 
HETATM    9  C19 UNL     1      -2.215   4.690   1.338  1.00  0.00     0.080 C 
HETATM   10  C20 UNL     1      -1.882   2.443   0.249  1.00  0.00     0.074 A 
HETATM   11  C21 UNL     1      -1.620   1.490   1.305  1.00  0.00     0.173 C 
HETATM   12  O8  UNL     1      -1.154   1.941   2.404  1.00  0.00    -0.291 OA
HETATM   13  C22 UNL     1      -1.900   0.061   1.065  1.00  0.00     0.039 C 
HETATM   14  C23 UNL     1      -3.429  -0.035   0.955  1.00  0.00     0.025 C 
HETATM   15  C24 UNL     1      -1.546  -0.676   2.306  1.00  0.00     0.025 C 
ENDROOT
BRANCH   1  16
HETATM   16  C4  UNL     1      -1.946  -1.798  -0.459  1.00  0.00     0.025 C 
BRANCH  16  17
HETATM   17  C3  UNL     1      -1.581  -2.607  -1.627  1.00  0.00     0.001 C 
BRANCH  17  18
HETATM   18  C2  UNL     1      -2.428  -3.885  -1.687  1.00  0.00    -0.005 C 
HETATM   19  C1  UNL     1      -2.256  -4.742  -0.488  1.00  0.00     0.005 C 
ENDBRANCH  17  18
ENDBRANCH  16  17
ENDBRANCH   1  16
BRANCH   1  20
HETATM   20  C6  UNL     1       0.179  -0.617  -0.101  1.00  0.00     0.251 C 
HETATM   21  O2  UNL     1       0.612   0.663   0.517  1.00  0.00    -0.304 OA
HETATM   22  C7  UNL     1       1.974   0.799   0.347  1.00  0.00     0.098 A 
HETATM   23  C8  UNL     1       2.931   1.496   1.054  1.00  0.00     0.006 A 
HETATM   24  C14 UNL     1       2.289   0.045  -0.773  1.00  0.00     0.083 A 
HETATM   25  C9  UNL     1       2.537   2.298   2.263  1.00  0.00     0.054 C 
HETATM   26  C10 UNL     1       4.243   1.449   0.644  1.00  0.00     0.077 A 
HETATM   27  C11 UNL     1       4.580   0.711  -0.460  1.00  0.00     0.075 A 
HETATM   28  C12 UNL     1       3.607   0.012  -1.166  1.00  0.00     0.087 A 
HETATM   29  C15 UNL     1       1.028  -0.560  -1.274  1.00  0.00     0.228 C 
HETATM   30  O5  UNL     1       0.892  -0.883  -2.448  1.00  0.00    -0.286 OA
BRANCH  20  31
HETATM   31  O1  UNL     1       0.626  -1.620   0.757  1.00  0.00    -0.358 OA
ATOM     32  H1  UNL     1       1.569  -1.707   0.835  1.00  0.00     0.213 HD
ENDBRANCH  20  31
BRANCH  26  33
HETATM   33  O3  UNL     1       5.170   2.165   1.386  1.00  0.00    -0.360 OA
ATOM     34  H3  UNL     1       6.076   2.133   1.103  1.00  0.00     0.217 HD
ENDBRANCH  26  33
BRANCH  28  35
HETATM   35  O4  UNL     1       3.975  -0.727  -2.282  1.00  0.00    -0.355 OA
HETATM   36  C13 UNL     1       5.308  -0.773  -2.695  1.00  0.00     0.210 C 
ENDBRANCH  28  35
ENDBRANCH   1  20
TORSDOF 7
