REMARK  7 active torsions:
REMARK  status: ('A' for Active; 'I' for Inactive)
REMARK    1  A    between atoms: C2_2  and  O1_3 
REMARK    2  A    between atoms: O1_3  and  C3_4 
REMARK    3  A    between atoms: C5_6  and  C6_7 
REMARK    4  A    between atoms: C12_16  and  O5_17 
REMARK    5  A    between atoms: C14_20  and  O6_21 
REMARK    6  A    between atoms: C18_26  and  C19_27 
REMARK    7  A    between atoms: C26_36  and  O8_37 
ROOT
HETATM    1  C6  UNL     1      -1.194   0.920   0.523  1.00  0.00     0.180 C 
HETATM    2  O2  UNL     1      -0.497   1.670   1.464  1.00  0.00    -0.306 OA
HETATM    3  C7  UNL     1       0.859   1.591   1.741  1.00  0.00     0.300 C 
HETATM    4  O3  UNL     1       1.412   2.195   2.693  1.00  0.00    -0.259 OA
HETATM    5  C8  UNL     1       1.677   0.757   0.869  1.00  0.00     0.121 A 
HETATM    6  C9  UNL     1       1.067   0.111  -0.155  1.00  0.00     0.085 A 
HETATM    7  O4  UNL     1       1.806  -0.641  -0.941  1.00  0.00    -0.312 OA
HETATM    8  C10 UNL     1       3.100  -0.795  -0.784  1.00  0.00     0.095 A 
HETATM    9  C11 UNL     1       3.826  -1.612  -1.659  1.00  0.00     0.075 A 
HETATM   10  C12 UNL     1       5.185  -1.766  -1.484  1.00  0.00     0.071 A 
HETATM   11  C13 UNL     1       5.844  -1.133  -0.463  1.00  0.00     0.074 A 
HETATM   12  C14 UNL     1       5.135  -0.314   0.420  1.00  0.00     0.087 A 
HETATM   13  C16 UNL     1       3.788  -0.166   0.239  1.00  0.00     0.082 A 
HETATM   14  C17 UNL     1       3.041   0.633   1.086  1.00  0.00     0.206 A 
HETATM   15  O7  UNL     1       3.570   1.241   2.036  1.00  0.00    -0.286 OA
HETATM   16  C18 UNL     1      -0.379   0.176  -0.473  1.00  0.00     0.111 C 
ENDROOT
BRANCH   1  17
HETATM   17  C5  UNL     1      -2.114   0.011   1.283  1.00  0.00    -0.025 A 
HETATM   18  C4  UNL     1      -3.431  -0.163   0.911  1.00  0.00     0.049 A 
HETATM   19  C3  UNL     1      -4.291  -0.997   1.600  1.00  0.00     0.102 A 
HETATM   20  C26 UNL     1      -3.845  -1.705   2.717  1.00  0.00     0.099 A 
HETATM   21  C25 UNL     1      -2.532  -1.525   3.079  1.00  0.00     0.040 A 
HETATM   22  C24 UNL     1      -1.670  -0.687   2.386  1.00  0.00     0.013 A 
BRANCH  19  23
HETATM   23  O1  UNL     1      -5.591  -1.155   1.217  1.00  0.00    -0.349 OA
BRANCH  23  24
HETATM   24  C2  UNL     1      -6.266  -0.564   0.157  1.00  0.00     0.171 C 
HETATM   25  C1  UNL     1      -6.343   0.932   0.188  1.00  0.00     0.034 C 
ENDBRANCH  23  24
ENDBRANCH  19  23
BRANCH  20  26
HETATM   26  O8  UNL     1      -4.706  -2.546   3.415  1.00  0.00    -0.358 OA
ATOM     27  H8  UNL     1      -4.402  -3.028   4.175  1.00  0.00     0.217 HD
ENDBRANCH  20  26
ENDBRANCH   1  17
BRANCH  16  28
HETATM   28  C19 UNL     1      -0.600   0.645  -1.869  1.00  0.00    -0.042 A 
HETATM   29  C20 UNL     1      -0.665  -0.254  -2.913  1.00  0.00     0.025 A 
HETATM   30  C21 UNL     1      -0.867   0.124  -4.220  1.00  0.00     0.088 A 
HETATM   31  N1  UNL     1      -1.007   1.428  -4.488  1.00  0.00    -0.375 N 
HETATM   32  C22 UNL     1      -0.951   2.343  -3.501  1.00  0.00     0.088 A 
ATOM     33  H1  UNL     1      -1.158   1.732  -5.450  1.00  0.00     0.164 HD
HETATM   34  C23 UNL     1      -0.747   1.984  -2.168  1.00  0.00     0.025 A 
ENDBRANCH  16  28
BRANCH  12  35
HETATM   35  O6  UNL     1       5.765   0.336   1.455  1.00  0.00    -0.355 OA
HETATM   36  C15 UNL     1       7.141   0.201   1.661  1.00  0.00     0.210 C 
ENDBRANCH  12  35
BRANCH  10  37
HETATM   37  O5  UNL     1       5.837  -2.593  -2.393  1.00  0.00    -0.361 OA
ATOM     38  H5  UNL     1       6.773  -2.699  -2.272  1.00  0.00     0.217 HD
ENDBRANCH  10  37
TORSDOF 7
