REMARK  7 active torsions:
REMARK  status: ('A' for Active; 'I' for Inactive)
REMARK    1  A    between atoms: O1_2  and  C2_3 
REMARK    2  A    between atoms: C5_6  and  C6_7 
REMARK    3  A    between atoms: C8_10  and  O3_11 
REMARK    4  A    between atoms: C16_21  and  O5_22 
REMARK    5  A    between atoms: C18_24  and  O6_25 
REMARK    6  A    between atoms: C22_31  and  O8_32 
REMARK    7  A    between atoms: C24_34  and  O9_35 
ROOT
HETATM    1  C2  UNL     1      -2.945   1.677  -1.097  1.00  0.00     0.105 A 
HETATM    2  C3  UNL     1      -2.902   0.353  -0.660  1.00  0.00     0.052 A 
HETATM    3  C4  UNL     1      -1.756  -0.310  -0.310  1.00  0.00    -0.010 A 
HETATM    4  C5  UNL     1      -1.779  -1.653   0.133  1.00  0.00    -0.029 A 
HETATM    5  C9  UNL     1      -0.567  -2.193   0.468  1.00  0.00    -0.037 A 
HETATM    6  C10 UNL     1      -0.508  -3.504   1.097  1.00  0.00     0.050 C 
HETATM    7  C11 UNL     1       0.644  -1.481   0.376  1.00  0.00     0.056 A 
HETATM    8  C12 UNL     1       1.828  -2.070   0.710  1.00  0.00     0.198 A 
HETATM    9  O4  UNL     1       1.885  -3.253   1.094  1.00  0.00    -0.286 OA
HETATM   10  C13 UNL     1       2.988  -1.316   0.608  1.00  0.00     0.052 A 
HETATM   11  C14 UNL     1       4.148  -1.950   0.957  1.00  0.00     0.021 A 
HETATM   12  C15 UNL     1       5.317  -1.260   0.881  1.00  0.00     0.041 A 
HETATM   13  C16 UNL     1       5.344   0.081   0.454  1.00  0.00     0.104 A 
HETATM   14  C18 UNL     1       4.107   0.671   0.109  1.00  0.00     0.134 A 
HETATM   15  C19 UNL     1       2.917  -0.007   0.174  1.00  0.00     0.126 A 
HETATM   16  O7  UNL     1       1.761   0.506  -0.142  1.00  0.00    -0.305 OA
HETATM   17  C20 UNL     1       0.627  -0.160  -0.067  1.00  0.00     0.105 A 
HETATM   18  C21 UNL     1      -0.567   0.417  -0.410  1.00  0.00     0.046 A 
HETATM   19  C22 UNL     1      -0.577   1.717  -0.843  1.00  0.00     0.118 A 
HETATM   20  C24 UNL     1      -1.755   2.365  -1.188  1.00  0.00     0.136 A 
ENDROOT
BRANCH   4  21
HETATM   21  C6  UNL     1      -3.014  -2.313   0.117  1.00  0.00     0.099 C 
HETATM   22  C7  UNL     1      -3.384  -3.723   0.121  1.00  0.00     0.185 C 
HETATM   23  O2  UNL     1      -4.720  -3.162   0.318  1.00  0.00    -0.360 OA
HETATM   24  C8  UNL     1      -3.963  -2.385   1.263  1.00  0.00     0.267 C 
BRANCH  24  25
HETATM   25  O3  UNL     1      -4.704  -1.355   1.697  1.00  0.00    -0.370 OA
ATOM     26  H3  UNL     1      -5.309  -1.401   2.428  1.00  0.00     0.212 HD
ENDBRANCH  24  25
ENDBRANCH   4  21
BRANCH   1  27
HETATM   27  O1  UNL     1      -4.113   2.324  -1.440  1.00  0.00    -0.353 OA
HETATM   28  C1  UNL     1      -5.386   1.763  -1.403  1.00  0.00     0.210 C 
ENDBRANCH   1  27
BRANCH  19  29
HETATM   29  O8  UNL     1       0.600   2.490  -0.995  1.00  0.00    -0.352 OA
HETATM   30  C23 UNL     1       1.121   2.548  -2.348  1.00  0.00     0.210 C 
ENDBRANCH  19  29
BRANCH  20  31
HETATM   31  O9  UNL     1      -1.703   3.664  -1.606  1.00  0.00    -0.351 OA
HETATM   32  C25 UNL     1      -1.798   4.779  -0.738  1.00  0.00     0.210 C 
ENDBRANCH  20  31
BRANCH  14  33
HETATM   33  O6  UNL     1       4.178   1.969  -0.290  1.00  0.00    -0.356 OA
ATOM     34  H6  UNL     1       3.346   2.366  -0.522  1.00  0.00     0.218 HD
ENDBRANCH  14  33
BRANCH  13  35
HETATM   35  O5  UNL     1       6.475   0.726   0.389  1.00  0.00    -0.353 OA
HETATM   36  C17 UNL     1       7.690   1.140   0.405  1.00  0.00     0.210 C 
ENDBRANCH  13  35
TORSDOF 7
