REMARK  6 active torsions:
REMARK  status: ('A' for Active; 'I' for Inactive)
REMARK    1  A    between atoms: C2_2  and  C3_3 
REMARK    2  A    between atoms: C3_3  and  C4_4 
REMARK    3  A    between atoms: C4_4  and  C5_5 
REMARK    4  A    between atoms: C6_6  and  C7_7 
REMARK    5  A    between atoms: C9_9  and  O1_10 
REMARK    6  A    between atoms: C19_24  and  O5_25 
ROOT
HETATM    1  C7  UNL     1       1.716   0.387   1.493  1.00  0.00    -0.033 A 
HETATM    2  C8  UNL     1       0.720   1.163   2.042  1.00  0.00     0.051 A 
HETATM    3  C9  UNL     1      -0.545   1.217   1.500  1.00  0.00     0.100 A 
HETATM    4  C10 UNL     1      -0.917   0.489   0.352  1.00  0.00     0.110 A 
HETATM    5  C11 UNL     1       0.090  -0.275  -0.178  1.00  0.00    -0.012 A 
HETATM    6  C12 UNL     1       1.368  -0.323   0.377  1.00  0.00     0.022 A 
HETATM    7  C13 UNL     1       0.047  -1.189  -1.409  1.00  0.00     0.082 C 
HETATM    8  C14 UNL     1       0.896  -2.439  -1.169  1.00  0.00     0.021 C 
HETATM    9  C15 UNL     1      -1.361  -1.435  -1.559  1.00  0.00     0.203 C 
HETATM   10  C16 UNL     1      -1.568  -2.288  -0.403  1.00  0.00     0.083 C 
HETATM   11  O2  UNL     1      -2.146  -2.100  -2.447  1.00  0.00    -0.199 OA
HETATM   12  O3  UNL     1      -3.339  -1.825  -1.820  1.00  0.00    -0.212 OA
HETATM   13  C17 UNL     1      -3.635  -0.552  -1.705  1.00  0.00     0.236 C 
HETATM   14  C18 UNL     1      -5.061  -0.131  -1.876  1.00  0.00     0.313 C 
HETATM   15  O4  UNL     1      -5.519  -0.386  -0.559  1.00  0.00    -0.324 OA
HETATM   16  C19 UNL     1      -4.534   0.129   0.274  1.00  0.00     0.306 C 
HETATM   17  C21 UNL     1      -3.302   0.397  -0.621  1.00  0.00     0.216 C 
HETATM   18  O6  UNL     1      -2.193   0.672  -0.021  1.00  0.00    -0.322 OA
HETATM   19  C22 UNL     1      -3.730   1.624  -1.470  1.00  0.00     0.206 C 
HETATM   20  C23 UNL     1      -3.644   2.912  -0.825  1.00  0.00     0.083 C 
HETATM   21  O7  UNL     1      -5.007   1.260  -1.945  1.00  0.00    -0.318 OA
HETATM   22  O8  UNL     1      -2.906   1.472  -2.613  1.00  0.00    -0.318 OA
HETATM   23  C24 UNL     1      -2.695   0.109  -2.749  1.00  0.00     0.313 C 
HETATM   24  O9  UNL     1      -1.600  -0.217  -2.006  1.00  0.00    -0.319 OA
ENDROOT
BRANCH   1  25
HETATM   25  C6  UNL     1       3.027   0.404   2.076  1.00  0.00     0.007 C 
HETATM   26  C5  UNL     1       4.074  -0.317   1.927  1.00  0.00    -0.026 C 
BRANCH  26  27
HETATM   27  C4  UNL     1       4.449  -1.465   1.135  1.00  0.00     0.027 C 
BRANCH  27  28
HETATM   28  C3  UNL     1       5.480  -1.102   0.064  1.00  0.00     0.003 C 
BRANCH  28  29
HETATM   29  C2  UNL     1       6.727  -0.554   0.728  1.00  0.00    -0.004 C 
HETATM   30  C1  UNL     1       7.724  -0.205  -0.357  1.00  0.00     0.005 C 
ENDBRANCH  28  29
ENDBRANCH  27  28
ENDBRANCH  26  27
ENDBRANCH   1  25
BRANCH   3  31
HETATM   31  O1  UNL     1      -1.419   2.051   2.184  1.00  0.00    -0.358 OA
ATOM     32  H1  UNL     1      -2.292   2.088   1.810  1.00  0.00     0.217 HD
ENDBRANCH   3  31
BRANCH  16  33
HETATM   33  O5  UNL     1      -4.924   1.196   1.013  1.00  0.00    -0.362 OA
HETATM   34  C20 UNL     1      -4.866   0.883   2.368  1.00  0.00     0.204 C 
ENDBRANCH  16  33
TORSDOF 6
