REMARK  7 active torsions:
REMARK  status: ('A' for Active; 'I' for Inactive)
REMARK    1  A    between atoms: C6_7  and  C7_8 
REMARK    2  A    between atoms: C7_8  and  C12_15 
REMARK    3  A    between atoms: N1_9  and  C8_11 
REMARK       I    between atoms: C12_15  and  N2_17 
REMARK    4  A    between atoms: N3_19  and  C13_21 
REMARK    5  A    between atoms: C14_22  and  O3_23 
REMARK    6  A    between atoms: C15_27  and  O4_28 
REMARK    7  A    between atoms: C16_30  and  C17_31 
ROOT
HETATM    1  C12 UNL     1      -0.021  -0.423  -0.492  1.00  0.00     0.283 C 
HETATM    2  O2  UNL     1      -0.572  -1.586  -0.537  1.00  0.00    -0.265 OA
HETATM    3  N2  UNL     1       1.305  -0.414  -0.975  1.00  0.00    -0.264 N 
ATOM      4  H2  UNL     1       1.616   0.393  -1.515  1.00  0.00     0.190 HD
HETATM    5  N3  UNL     1       2.129  -1.354  -0.774  1.00  0.00    -0.293 N 
ATOM      6  H3  UNL     1       1.819  -2.162  -0.234  1.00  0.00     0.187 HD
ENDROOT
BRANCH   1   7
HETATM    7  C7  UNL     1      -0.770   0.702   0.020  1.00  0.00     0.094 C 
HETATM    8  N1  UNL     1      -0.356   1.858   0.115  1.00  0.00    -0.380 N 
ATOM      9  H1  UNL     1      -1.103   2.430   0.509  1.00  0.00     0.160 HD
BRANCH   7  10
HETATM   10  C6  UNL     1      -2.182   0.453   0.483  1.00  0.00     0.180 C 
HETATM   11  C5  UNL     1      -3.048  -0.057  -0.612  1.00  0.00     0.144 C 
HETATM   12  C4  UNL     1      -4.414  -0.483  -0.219  1.00  0.00     0.088 C 
HETATM   13  O1  UNL     1      -2.729  -0.147  -1.776  1.00  0.00    -0.297 OA
HETATM   14  C2  UNL     1      -4.481  -1.418   0.921  1.00  0.00    -0.035 C 
HETATM   15  C1  UNL     1      -4.592  -2.836   0.339  1.00  0.00     0.015 C 
HETATM   16  C3  UNL     1      -5.821  -1.190   1.632  1.00  0.00     0.015 C 
HETATM   17  C19 UNL     1      -3.370  -1.403   1.885  1.00  0.00     0.088 C 
HETATM   18  C18 UNL     1      -2.227  -0.540   1.568  1.00  0.00     0.144 C 
HETATM   19  O7  UNL     1      -1.227  -0.656   2.264  1.00  0.00    -0.297 OA
ENDBRANCH   7  10
BRANCH   8  20
HETATM   20  C8  UNL     1       0.741   2.677  -0.111  1.00  0.00     0.019 C 
HETATM   21  C9  UNL     1       2.011   2.311   0.582  1.00  0.00     0.037 C 
HETATM   22  C10 UNL     1       0.365   4.089   0.443  1.00  0.00     0.037 C 
HETATM   23  C11 UNL     1       1.042   2.938  -1.580  1.00  0.00     0.037 C 
ENDBRANCH   8  20
ENDBRANCH   1   7
BRANCH   5  24
HETATM   24  C13 UNL     1       3.461  -1.341  -1.261  1.00  0.00     0.120 A 
HETATM   25  C14 UNL     1       3.875  -1.471  -2.558  1.00  0.00     0.172 A 
HETATM   26  N4  UNL     1       5.215  -1.405  -2.586  1.00  0.00    -0.315 N 
HETATM   27  C15 UNL     1       5.703  -1.236  -1.345  1.00  0.00     0.161 A 
ATOM     28  H4  UNL     1       5.783  -1.473  -3.430  1.00  0.00     0.170 HD
HETATM   29  C16 UNL     1       4.605  -1.193  -0.497  1.00  0.00     0.123 A 
BRANCH  25  30
HETATM   30  O3  UNL     1       3.095  -1.645  -3.711  1.00  0.00    -0.344 OA
ATOM     31  H3  UNL     1       3.383  -1.735  -4.612  1.00  0.00     0.219 HD
ENDBRANCH  25  30
BRANCH  27  32
HETATM   32  O4  UNL     1       7.042  -1.132  -1.041  1.00  0.00    -0.345 OA
ATOM     33  H4  UNL     1       7.387  -1.013  -0.164  1.00  0.00     0.219 HD
ENDBRANCH  27  32
BRANCH  29  34
HETATM   34  C17 UNL     1       4.696  -1.020   0.949  1.00  0.00     0.216 C 
HETATM   35  O5  UNL     1       3.648  -0.996   1.613  1.00  0.00    -0.644 OA
HETATM   36  O6  UNL     1       5.920  -0.885   1.571  1.00  0.00    -0.644 OA
ENDBRANCH  29  34
ENDBRANCH   5  24
TORSDOF 7
