REMARK  11 active torsions:
REMARK  status: ('A' for Active; 'I' for Inactive)
REMARK    1  A    between atoms: C2_2  and  O2_4 
REMARK    2  A    between atoms: O2_4  and  C3_5 
REMARK    3  A    between atoms: C4_6  and  O3_7 
REMARK    4  A    between atoms: O3_7  and  C5_8 
REMARK    5  A    between atoms: C5_8  and  C6_10 
REMARK    6  A    between atoms: C9_13  and  C10_14 
REMARK    7  A    between atoms: C11_15  and  C12_16 
REMARK    8  A    between atoms: C19_24  and  C20_25 
REMARK    9  A    between atoms: C20_25  and  O6_26 
REMARK   10  A    between atoms: C21_28  and  O7_29 
REMARK   11  A    between atoms: C22_31  and  O8_32 
ROOT
HETATM    1  C3  UNL     1      -4.170   0.322  -0.051  1.00  0.00     0.218 C 
HETATM    2  C4  UNL     1      -3.354  -0.606  -0.924  1.00  0.00     0.302 C 
HETATM    3  O5  UNL     1      -3.808  -1.891  -0.832  1.00  0.00    -0.348 OA
HETATM    4  C19 UNL     1      -4.820  -2.099   0.066  1.00  0.00     0.179 C 
HETATM    5  C21 UNL     1      -6.033  -1.216  -0.165  1.00  0.00     0.180 C 
HETATM    6  C22 UNL     1      -5.592   0.216  -0.510  1.00  0.00     0.183 C 
ENDROOT
BRANCH   2   7
HETATM    7  O3  UNL     1      -1.972  -0.471  -0.707  1.00  0.00    -0.283 OA
BRANCH   7   8
HETATM    8  C5  UNL     1      -1.082  -0.015  -1.660  1.00  0.00     0.296 C 
HETATM    9  O4  UNL     1      -1.561   0.289  -2.773  1.00  0.00    -0.259 OA
BRANCH   8  10
HETATM   10  C6  UNL     1       0.326   0.075  -1.299  1.00  0.00     0.045 A 
HETATM   11  C7  UNL     1       0.762  -0.289  -0.025  1.00  0.00     0.019 A 
HETATM   12  C8  UNL     1       2.085  -0.217   0.354  1.00  0.00     0.012 A 
HETATM   13  C9  UNL     1       3.046   0.226  -0.530  1.00  0.00    -0.036 A 
HETATM   14  C16 UNL     1       2.608   0.586  -1.792  1.00  0.00     0.019 A 
HETATM   15  C17 UNL     1       1.282   0.511  -2.162  1.00  0.00    -0.045 A 
HETATM   16  C18 UNL     1       0.955   0.930  -3.550  1.00  0.00     0.049 C 
BRANCH  13  17
HETATM   17  C10 UNL     1       4.454   0.322  -0.186  1.00  0.00     0.008 C 
HETATM   18  C11 UNL     1       4.982   0.014   0.960  1.00  0.00    -0.017 C 
BRANCH  18  19
HETATM   19  C12 UNL     1       6.434   0.141   1.231  1.00  0.00    -0.034 C 
HETATM   20  C13 UNL     1       6.765  -0.135   2.676  1.00  0.00     0.018 C 
HETATM   21  C14 UNL     1       6.924   1.555   0.932  1.00  0.00     0.018 C 
HETATM   22  C15 UNL     1       7.179  -0.810   0.321  1.00  0.00     0.018 C 
ENDBRANCH  18  19
ENDBRANCH  13  17
ENDBRANCH   8  10
ENDBRANCH   7   8
ENDBRANCH   2   7
BRANCH   1  23
HETATM   23  O2  UNL     1      -3.645   1.603   0.031  1.00  0.00    -0.309 OA
BRANCH  23  24
HETATM   24  C2  UNL     1      -3.178   2.217   1.166  1.00  0.00     0.255 C 
HETATM   25  C1  UNL     1      -2.638   3.601   1.114  1.00  0.00     0.126 C 
HETATM   26  O1  UNL     1      -3.246   1.536   2.198  1.00  0.00    -0.266 OA
ENDBRANCH  23  24
ENDBRANCH   1  23
BRANCH   6  27
HETATM   27  O8  UNL     1      -6.453   1.056   0.189  1.00  0.00    -0.390 OA
ATOM     28  H8  UNL     1      -7.355   0.989  -0.102  1.00  0.00     0.210 HD
ENDBRANCH   6  27
BRANCH   4  29
HETATM   29  C20 UNL     1      -5.316  -3.536  -0.166  1.00  0.00     0.198 C 
BRANCH  29  30
HETATM   30  O6  UNL     1      -4.285  -4.453   0.040  1.00  0.00    -0.398 OA
ATOM     31  H6  UNL     1      -4.591  -5.341  -0.103  1.00  0.00     0.209 HD
ENDBRANCH  29  30
ENDBRANCH   4  29
BRANCH   5  32
HETATM   32  O7  UNL     1      -6.793  -1.245   0.992  1.00  0.00    -0.390 OA
ATOM     33  H7  UNL     1      -7.552  -0.692   0.847  1.00  0.00     0.210 HD
ENDBRANCH   5  32
TORSDOF 11
