REMARK  9 active torsions:
REMARK  status: ('A' for Active; 'I' for Inactive)
REMARK    1  A    between atoms: C2_2  and  O1_3 
REMARK    2  A    between atoms: O1_3  and  C3_4 
REMARK    3  A    between atoms: C3_4  and  C4_5 
REMARK    4  A    between atoms: C6_7  and  C7_8 
REMARK    5  A    between atoms: C7_8  and  C8_9 
REMARK    6  A    between atoms: C8_9  and  O3_11 
REMARK    7  A    between atoms: C10_13  and  O4_14 
REMARK    8  A    between atoms: C14_19  and  O5_20 
REMARK    9  A    between atoms: C17_24  and  O6_25 
ROOT
HETATM    1  C4  UNL     1      -1.941  -0.992  -1.465  1.00  0.00     0.211 C 
HETATM    2  C5  UNL     1      -1.731   0.498  -1.326  1.00  0.00     0.050 C 
HETATM    3  C6  UNL     1      -0.808   0.806  -0.086  1.00  0.00     0.074 C 
HETATM    4  C10 UNL     1       0.448   1.267  -0.690  1.00  0.00     0.065 C 
HETATM    5  C11 UNL     1       1.757   0.833  -0.142  1.00  0.00     0.038 A 
HETATM    6  C12 UNL     1       2.548   1.704   0.563  1.00  0.00    -0.013 A 
HETATM    7  C13 UNL     1       2.184   3.138   0.726  1.00  0.00     0.052 C 
HETATM    8  C14 UNL     1       3.802   1.375   1.103  1.00  0.00     0.081 A 
HETATM    9  C15 UNL     1       4.292   0.117   0.928  1.00  0.00     0.008 A 
HETATM   10  C16 UNL     1       5.623  -0.297   1.481  1.00  0.00     0.054 C 
HETATM   11  C17 UNL     1       3.521  -0.779   0.220  1.00  0.00     0.111 A 
HETATM   12  C19 UNL     1       2.263  -0.482  -0.332  1.00  0.00     0.116 A 
HETATM   13  O7  UNL     1       1.570  -1.422  -1.028  1.00  0.00    -0.345 OA
HETATM   14  C20 UNL     1       0.569  -2.350  -0.944  1.00  0.00     0.208 C 
HETATM   15  C21 UNL     1      -0.289  -2.508  -2.169  1.00  0.00     0.206 C 
HETATM   16  C22 UNL     1       0.549  -2.911  -3.373  1.00  0.00     0.042 C 
HETATM   17  N1  UNL     1      -1.129  -1.457  -2.533  1.00  0.00    -0.063 N 
ATOM     18  H11 UNL     1      -0.594  -0.691  -2.942  1.00  0.00     0.278 HD
ATOM     19  H12 UNL     1      -1.701  -1.712  -3.338  1.00  0.00     0.278 HD
ENDROOT
BRANCH   3  20
HETATM   20  C7  UNL     1      -1.672   1.667   0.736  1.00  0.00     0.067 C 
BRANCH  20  21
HETATM   21  C8  UNL     1      -1.339   2.145   2.033  1.00  0.00     0.279 C 
HETATM   22  O2  UNL     1      -0.384   1.750   2.730  1.00  0.00    -0.261 OA
BRANCH  21  23
HETATM   23  O3  UNL     1      -2.114   3.158   2.648  1.00  0.00    -0.323 OA
HETATM   24  C9  UNL     1      -1.814   3.649   3.916  1.00  0.00     0.213 C 
ENDBRANCH  21  23
ENDBRANCH  20  21
ENDBRANCH   3  20
BRANCH   4  25
HETATM   25  O4  UNL     1       0.469   2.628  -1.030  1.00  0.00    -0.363 OA
ATOM     26  H4  UNL     1       1.282   2.926  -1.421  1.00  0.00     0.217 HD
ENDBRANCH   4  25
BRANCH   1  27
HETATM   27  C3  UNL     1      -3.429  -1.295  -1.727  1.00  0.00     0.200 C 
BRANCH  27  28
HETATM   28  O1  UNL     1      -4.169  -0.830  -0.670  1.00  0.00    -0.389 OA
BRANCH  28  29
HETATM   29  C2  UNL     1      -5.517  -1.037  -0.779  1.00  0.00     0.163 C 
HETATM   30  C1  UNL     1      -6.169  -0.456   0.478  1.00  0.00     0.033 C 
ENDBRANCH  28  29
ENDBRANCH  27  28
ENDBRANCH   1  27
BRANCH   8  31
HETATM   31  O5  UNL     1       4.559   2.303   1.815  1.00  0.00    -0.359 OA
ATOM     32  H5  UNL     1       5.407   2.080   2.180  1.00  0.00     0.217 HD
ENDBRANCH   8  31
BRANCH  11  33
HETATM   33  O6  UNL     1       4.093  -2.072   0.067  1.00  0.00    -0.352 OA
HETATM   34  C18 UNL     1       3.880  -3.100   0.981  1.00  0.00     0.210 C 
ENDBRANCH  11  33
TORSDOF 9
