REMARK  6 active torsions:
REMARK  status: ('A' for Active; 'I' for Inactive)
REMARK    1  A    between atoms: C4_6  and  C5_7 
REMARK    2  A    between atoms: C5_7  and  N3_11 
REMARK    3  A    between atoms: N3_11  and  C6_13 
REMARK    4  A    between atoms: C6_13  and  C7_14 
REMARK    5  A    between atoms: C7_14  and  O1_15 
REMARK    6  A    between atoms: O1_15  and  C8_16 
ROOT
HETATM    1  C5  UNL     1      -1.924  -1.372   0.014  1.00  0.00     0.140 C 
HETATM    2  N2  UNL     1      -2.003  -2.380  -0.789  1.00  0.00    -0.383 N 
ATOM      3  H21 UNL     1      -1.322  -3.140  -0.775  1.00  0.00     0.157 HD
ATOM      4  H22 UNL     1      -2.778  -2.408  -1.452  1.00  0.00     0.157 HD
ENDROOT
BRANCH   1   5
HETATM    5  C4  UNL     1      -2.896  -0.287  -0.006  1.00  0.00     0.149 A 
HETATM    6  N1  UNL     1      -2.913   0.800   0.782  1.00  0.00    -0.347 N 
HETATM    7  C3  UNL     1      -3.976   1.595   0.476  1.00  0.00     0.114 A 
ATOM      8  H1  UNL     1      -2.226   1.002   1.508  1.00  0.00     0.167 HD
HETATM    9  C2  UNL     1      -4.647   0.964  -0.554  1.00  0.00     0.022 A 
HETATM   10  C1  UNL     1      -5.876   1.511  -1.185  1.00  0.00     0.069 C 
HETATM   11  N4  UNL     1      -3.975  -0.152  -0.812  1.00  0.00    -0.342 N 
ATOM     12  H4  UNL     1      -4.240  -0.826  -1.530  1.00  0.00     0.167 HD
ENDBRANCH   1   5
BRANCH   1  13
HETATM   13  N3  UNL     1      -0.852  -1.333   0.931  1.00  0.00    -0.372 N 
ATOM     14  H3  UNL     1      -0.871  -1.900   1.778  1.00  0.00     0.161 HD
BRANCH  13  15
HETATM   15  C6  UNL     1       0.279  -0.469   0.644  1.00  0.00     0.148 C 
BRANCH  15  16
HETATM   16  C7  UNL     1       0.988  -1.030  -0.545  1.00  0.00     0.195 C 
BRANCH  16  17
HETATM   17  O1  UNL     1       2.094  -0.385  -1.004  1.00  0.00    -0.350 OA
BRANCH  17  18
HETATM   18  C8  UNL     1       3.288  -0.186  -0.398  1.00  0.00     0.068 A 
HETATM   19  C9  UNL     1       3.635  -0.640   0.841  1.00  0.00     0.037 A 
HETATM   20  C10 UNL     1       4.875  -0.394   1.398  1.00  0.00     0.003 A 
HETATM   21  C11 UNL     1       5.781   0.334   0.669  1.00  0.00     0.000 A 
HETATM   22  C12 UNL     1       5.464   0.812  -0.593  1.00  0.00     0.003 A 
HETATM   23  C13 UNL     1       4.236   0.553  -1.113  1.00  0.00     0.037 A 
ENDBRANCH  17  18
ENDBRANCH  16  17
ENDBRANCH  15  16
ENDBRANCH  13  15
ENDBRANCH   1  13
TORSDOF 6
