REMARK  6 active torsions:
REMARK  status: ('A' for Active; 'I' for Inactive)
REMARK    1  A    between atoms: C2_2  and  C3_4 
REMARK    2  A    between atoms: C3_4  and  O1_5 
REMARK    3  A    between atoms: O1_5  and  C4_6 
REMARK    4  A    between atoms: C7_9  and  C8_10 
REMARK    5  A    between atoms: N2_11  and  N3_13 
REMARK    6  A    between atoms: N3_13  and  C9_15 
ROOT
HETATM    1  C4  UNL     1      -1.241  -0.383   0.209  1.00  0.00     0.069 A 
HETATM    2  C5  UNL     1      -0.693   0.653  -0.519  1.00  0.00     0.037 A 
HETATM    3  C6  UNL     1       0.670   0.721  -0.703  1.00  0.00     0.015 A 
HETATM    4  C7  UNL     1       1.547  -0.225  -0.179  1.00  0.00    -0.019 A 
HETATM    5  C10 UNL     1       0.988  -1.255   0.547  1.00  0.00     0.015 A 
HETATM    6  C11 UNL     1      -0.376  -1.322   0.730  1.00  0.00     0.037 A 
ENDROOT
BRANCH   4   7
HETATM    7  C8  UNL     1       2.980  -0.139  -0.382  1.00  0.00     0.118 C 
HETATM    8  N2  UNL     1       3.731  -1.041   0.127  1.00  0.00    -0.309 N 
ATOM      9  H2  UNL     1       3.275  -1.784   0.657  1.00  0.00     0.186 HD
BRANCH   8  10
HETATM   10  N3  UNL     1       5.109  -1.095   0.020  1.00  0.00    -0.279 N 
ATOM     11  H3  UNL     1       5.549  -1.979  -0.234  1.00  0.00     0.189 HD
BRANCH  10  12
HETATM   12  C9  UNL     1       5.933   0.039   0.252  1.00  0.00     0.199 C 
HETATM   13  N4  UNL     1       5.350   1.293   0.610  1.00  0.00    -0.068 NA
HETATM   14  S1  UNL     1       7.553  -0.082   0.112  1.00  0.00    -0.043 SA
ENDBRANCH  10  12
ENDBRANCH   8  10
ENDBRANCH   4   7
BRANCH   1  15
HETATM   15  O1  UNL     1      -2.612  -0.493   0.421  1.00  0.00    -0.346 OA
BRANCH  15  16
HETATM   16  C3  UNL     1      -3.448   0.502  -0.139  1.00  0.00     0.228 C 
BRANCH  16  17
HETATM   17  C2  UNL     1      -4.841   0.172   0.218  1.00  0.00     0.039 C 
HETATM   18  C1  UNL     1      -5.548   1.024   0.919  1.00  0.00     0.037 C 
HETATM   19  N1  UNL     1      -5.420  -1.053  -0.188  1.00  0.00    -0.106 NA
ENDBRANCH  16  17
ENDBRANCH  15  16
ENDBRANCH   1  15
TORSDOF 6
