REMARK  4 active torsions:
REMARK  status: ('A' for Active; 'I' for Inactive)
REMARK    1  A    between atoms: N1_2  and  C2_3 
REMARK    2  A    between atoms: N1_2  and  C5_12 
REMARK    3  A    between atoms: C2_3  and  C3_4 
REMARK    4  A    between atoms: C3_4  and  N2_5 
REMARK       I    between atoms: N2_5  and  C4_7 
ROOT
HETATM    1  C1  UNL     1       0.354  -1.999  -1.565  1.00  0.00     0.150 C 
HETATM    2  N1  UNL     1       0.220  -0.634  -1.182  1.00  0.00    -0.382 N 
ENDROOT
BRANCH   2   3
HETATM    3  C2  UNL     1       1.278   0.349  -1.275  1.00  0.00     0.142 C 
BRANCH   3   4
HETATM    4  C3  UNL     1       2.378   0.019  -0.261  1.00  0.00     0.142 C 
BRANCH   4   5
HETATM    5  N2  UNL     1       3.439   0.983  -0.341  1.00  0.00    -0.363 N 
HETATM    6  C4  UNL     1       4.588   0.955   0.477  1.00  0.00     0.181 C 
HETATM    7  N3  UNL     1       4.442   0.977   1.753  1.00  0.00    -0.374 N 
HETATM    8  N4  UNL     1       5.883   0.906  -0.067  1.00  0.00    -0.064 NA
ATOM      9  H32 UNL     1       3.502   1.013   2.148  1.00  0.00     0.158 HD
ATOM     10  H31 UNL     1       5.273   0.957   2.344  1.00  0.00     0.158 HD
ATOM     11  H2  UNL     1       3.357   1.731  -1.029  1.00  0.00     0.162 HD
ENDBRANCH   4   5
ENDBRANCH   3   4
ENDBRANCH   2   3
BRANCH   2  12
HETATM   12  C5  UNL     1      -1.048  -0.222  -0.667  1.00  0.00     0.058 A 
HETATM   13  C6  UNL     1      -1.865   0.640  -1.356  1.00  0.00     0.121 A 
HETATM   14  N5  UNL     1      -2.972   0.816  -0.634  1.00  0.00    -0.358 N 
HETATM   15  C7  UNL     1      -4.111   1.651  -0.982  1.00  0.00     0.156 C 
HETATM   16  C8  UNL     1      -2.879   0.091   0.492  1.00  0.00     0.046 A 
HETATM   17  C9  UNL     1      -3.721  -0.091   1.581  1.00  0.00     0.030 A 
HETATM   18  C13 UNL     1      -1.669  -0.570   0.483  1.00  0.00     0.019 A 
HETATM   19  C10 UNL     1      -3.332  -0.913   2.606  1.00  0.00     0.002 A 
HETATM   20  C11 UNL     1      -2.119  -1.578   2.602  1.00  0.00     0.001 A 
HETATM   21  C12 UNL     1      -1.280  -1.406   1.534  1.00  0.00     0.016 A 
ENDBRANCH   2  12
TORSDOF 4
