REMARK  6 active torsions:
REMARK  status: ('A' for Active; 'I' for Inactive)
REMARK    1  A    between atoms: N1_2  and  C3_4 
REMARK    2  A    between atoms: C3_4  and  C4_5 
REMARK    3  A    between atoms: C4_5  and  C5_6 
REMARK    4  A    between atoms: C10_11  and  N2_12 
REMARK    5  A    between atoms: N2_12  and  N3_14 
REMARK    6  A    between atoms: N3_14  and  C11_16 
ROOT
HETATM    1  C5  UNL     1      -0.145   1.339   0.648  1.00  0.00    -0.025 A 
HETATM    2  C6  UNL     1      -0.558   2.630   0.857  1.00  0.00     0.010 A 
HETATM    3  C7  UNL     1       0.221   3.711   0.551  1.00  0.00     0.001 A 
HETATM    4  C8  UNL     1       1.493   3.544  -0.000  1.00  0.00     0.002 A 
HETATM    5  C9  UNL     1       1.933   2.260  -0.221  1.00  0.00     0.031 A 
HETATM    6  C10 UNL     1       1.123   1.161   0.102  1.00  0.00     0.054 A 
ENDROOT
BRANCH   6   7
HETATM    7  N2  UNL     1       1.691  -0.108  -0.052  1.00  0.00    -0.298 N 
ATOM      8  H2  UNL     1       1.699  -0.724   0.761  1.00  0.00     0.187 HD
BRANCH   7   9
HETATM    9  N3  UNL     1       2.242  -0.587  -1.225  1.00  0.00    -0.278 N 
ATOM     10  H3  UNL     1       1.795  -0.405  -2.123  1.00  0.00     0.189 HD
BRANCH   9  11
HETATM   11  C11 UNL     1       3.476  -1.358  -1.150  1.00  0.00     0.199 C 
HETATM   12  N4  UNL     1       4.082  -1.584   0.098  1.00  0.00    -0.068 NA
HETATM   13  S1  UNL     1       4.090  -1.943  -2.511  1.00  0.00    -0.043 SA
ENDBRANCH   9  11
ENDBRANCH   7   9
ENDBRANCH   6   7
BRANCH   1  14
HETATM   14  C4  UNL     1      -0.973   0.150   0.888  1.00  0.00     0.085 C 
BRANCH  14  15
HETATM   15  C3  UNL     1      -1.761  -0.283  -0.308  1.00  0.00     0.061 C 
BRANCH  15  16
HETATM   16  N1  UNL     1      -2.562  -1.402  -0.046  1.00  0.00    -0.402 N 
HETATM   17  C1  UNL     1      -3.469  -1.816  -1.067  1.00  0.00     0.148 C 
HETATM   18  C2  UNL     1      -2.493  -2.122   1.145  1.00  0.00     0.148 C 
ENDBRANCH  15  16
ENDBRANCH  14  15
ENDBRANCH   1  14
TORSDOF 6
