REMARK  6 active torsions:
REMARK  status: ('A' for Active; 'I' for Inactive)
REMARK    1  A    between atoms: C4_5  and  N2_6 
REMARK    2  A    between atoms: N2_6  and  C5_8 
REMARK    3  A    between atoms: C5_8  and  C6_9 
REMARK    4  A    between atoms: C6_9  and  O1_10 
REMARK    5  A    between atoms: C6_9  and  C7_12 
REMARK    6  A    between atoms: C7_12  and  N3_13 
ROOT
HETATM    1  C5  UNL     1       0.156   0.638  -0.997  1.00  0.00     0.153 C 
ENDROOT
BRANCH   1   2
HETATM    2  N2  UNL     1       0.933   0.413   0.201  1.00  0.00    -0.387 N 
ATOM      3  H2  UNL     1       0.450   0.248   1.084  1.00  0.00     0.159 HD
BRANCH   2   4
HETATM    4  C4  UNL     1       2.372   0.416   0.176  1.00  0.00     0.028 A 
HETATM    5  C3  UNL     1       3.010   0.640  -1.024  1.00  0.00     0.031 A 
HETATM    6  C2  UNL     1       4.407   0.645  -1.056  1.00  0.00     0.029 A 
HETATM    7  C1  UNL     1       5.107   0.426   0.110  1.00  0.00     0.046 A 
HETATM    8  N1  UNL     1       6.535   0.439   0.036  1.00  0.00    -0.102 NA
HETATM    9  C14 UNL     1       4.475   0.199   1.324  1.00  0.00     0.029 A 
HETATM   10  C13 UNL     1       3.075   0.197   1.340  1.00  0.00     0.031 A 
ENDBRANCH   2   4
ENDBRANCH   1   2
BRANCH   1  11
HETATM   11  C6  UNL     1      -1.307   0.567  -0.685  1.00  0.00     0.154 C 
BRANCH  11  12
HETATM   12  O1  UNL     1      -1.585   1.549   0.262  1.00  0.00    -0.392 OA
ATOM     13  H1  UNL     1      -2.513   1.504   0.460  1.00  0.00     0.210 HD
ENDBRANCH  11  12
BRANCH  11  14
HETATM   14  C7  UNL     1      -1.610  -0.828  -0.166  1.00  0.00     0.161 C 
BRANCH  14  15
HETATM   15  N3  UNL     1      -3.033  -0.880   0.130  1.00  0.00    -0.364 N 
HETATM   16  C8  UNL     1      -3.895  -1.262  -0.820  1.00  0.00     0.090 A 
HETATM   17  C9  UNL     1      -5.243  -1.311  -0.542  1.00  0.00     0.017 A 
HETATM   18  C10 UNL     1      -5.678  -0.963   0.722  1.00  0.00     0.003 A 
HETATM   19  C11 UNL     1      -4.793  -0.568   1.706  1.00  0.00     0.017 A 
HETATM   20  C12 UNL     1      -3.456  -0.541   1.360  1.00  0.00     0.090 A 
ENDBRANCH  14  15
ENDBRANCH  11  14
ENDBRANCH   1  11
TORSDOF 6
