REMARK  6 active torsions:
REMARK  status: ('A' for Active; 'I' for Inactive)
REMARK    1  A    between atoms: C4_7  and  C5_8 
REMARK    2  A    between atoms: C5_8  and  O2_18 
REMARK    3  A    between atoms: N2_9  and  C6_11 
REMARK    4  A    between atoms: C6_11  and  N3_13 
REMARK    5  A    between atoms: N3_13  and  C7_15 
REMARK    6  A    between atoms: O2_18  and  C10_19 
ROOT
HETATM    1  C5  UNL     1       0.220  -1.038  -2.039  1.00  0.00     0.183 C 
HETATM    2  N2  UNL     1       1.106  -1.033  -1.203  1.00  0.00    -0.311 N 
ATOM      3  H2  UNL     1       1.640  -1.872  -1.428  1.00  0.00     0.170 HD
ENDROOT
BRANCH   1   4
HETATM    4  C4  UNL     1       0.130  -2.123  -3.067  1.00  0.00     0.149 A 
HETATM    5  C2  UNL     1       1.018  -3.161  -3.119  1.00  0.00     0.045 A 
HETATM    6  C1  UNL     1       2.159  -3.409  -2.242  1.00  0.00     0.071 C 
HETATM    7  N1  UNL     1       0.647  -3.957  -4.166  1.00  0.00    -0.348 N 
HETATM    8  C3  UNL     1      -0.456  -3.370  -4.712  1.00  0.00     0.234 A 
ATOM      9  H1  UNL     1       1.102  -4.815  -4.476  1.00  0.00     0.167 HD
HETATM   10  O1  UNL     1      -0.728  -2.265  -4.012  1.00  0.00    -0.300 OA
ENDBRANCH   1   4
BRANCH   1  11
HETATM   11  O2  UNL     1      -0.707  -0.016  -2.026  1.00  0.00    -0.299 OA
BRANCH  11  12
HETATM   12  C10 UNL     1      -1.506   0.445  -1.027  1.00  0.00     0.295 C 
HETATM   13  C11 UNL     1      -2.441  -0.685  -0.551  1.00  0.00     0.232 C 
HETATM   14  O3  UNL     1      -2.851  -0.225   0.696  1.00  0.00    -0.350 OA
HETATM   15  C12 UNL     1      -2.134   0.942   0.954  1.00  0.00     0.167 C 
HETATM   16  C13 UNL     1      -2.953   2.107   0.448  1.00  0.00     0.068 C 
HETATM   17  C16 UNL     1      -1.901   1.175   2.401  1.00  0.00     0.068 C 
HETATM   18  O4  UNL     1      -0.968   0.820   0.180  1.00  0.00    -0.323 OA
HETATM   19  C14 UNL     1      -3.497   2.830   1.649  1.00  0.00     0.006 C 
HETATM   20  C15 UNL     1      -2.957   2.157   2.865  1.00  0.00     0.006 C 
ENDBRANCH  11  12
ENDBRANCH   1  11
BRANCH   2  21
HETATM   21  C6  UNL     1       1.767  -0.526  -0.144  1.00  0.00     0.173 C 
HETATM   22  S1  UNL     1       1.711  -1.361   1.290  1.00  0.00    -0.041 SA
BRANCH  21  23
HETATM   23  N3  UNL     1       2.547   0.668  -0.135  1.00  0.00    -0.363 N 
ATOM     24  H3  UNL     1       2.635   1.219  -0.989  1.00  0.00     0.162 HD
BRANCH  23  25
HETATM   25  C7  UNL     1       3.209   1.102   1.061  1.00  0.00     0.075 C 
HETATM   26  C8  UNL     1       2.266   1.424   2.204  1.00  0.00     0.032 C 
HETATM   27  C9  UNL     1       4.180   0.021   1.478  1.00  0.00     0.032 C 
ENDBRANCH  23  25
ENDBRANCH  21  23
ENDBRANCH   2  21
TORSDOF 6
