REMARK  5 active torsions:
REMARK  status: ('A' for Active; 'I' for Inactive)
REMARK    1  A    between atoms: O1_2  and  C2_3 
REMARK    2  A    between atoms: C8_10  and  C9_11 
REMARK    3  A    between atoms: C9_11  and  O3_13 
REMARK    4  A    between atoms: O3_13  and  C10_14 
REMARK    5  A    between atoms: C14_18  and  C15_19 
ROOT
HETATM    1  C2  UNL     1       3.989   0.927   0.928  1.00  0.00     0.120 C 
HETATM    2  C3  UNL     1       2.560   1.374   1.145  1.00  0.00     0.033 C 
HETATM    3  C4  UNL     1       1.777   1.336  -0.173  1.00  0.00     0.013 C 
HETATM    4  C5  UNL     1       1.489  -0.124  -0.583  1.00  0.00    -0.028 C 
HETATM    5  C6  UNL     1       1.459  -0.116  -2.092  1.00  0.00     0.020 C 
HETATM    6  C7  UNL     1       0.662  -1.207  -2.734  1.00  0.00     0.075 C 
HETATM    7  S1  UNL     1      -1.090  -0.871  -2.281  1.00  0.00    -0.153 SA
HETATM    8  C8  UNL     1      -0.910   0.178  -0.807  1.00  0.00     0.159 C 
HETATM    9  C14 UNL     1       0.180  -0.470   0.022  1.00  0.00     0.084 C 
HETATM   10  C18 UNL     1       2.687  -0.881  -0.106  1.00  0.00     0.013 C 
HETATM   11  C19 UNL     1       3.954  -0.007  -0.259  1.00  0.00     0.033 C 
ENDROOT
BRANCH   9  12
HETATM   12  C15 UNL     1      -0.054  -1.877   0.329  1.00  0.00     0.079 C 
HETATM   13  N1  UNL     1       0.836  -2.786   0.451  1.00  0.00    -0.378 N 
HETATM   14  C16 UNL     1       0.322  -4.073   0.753  1.00  0.00     0.140 C 
ATOM     15  H1  UNL     1       1.833  -2.601   0.340  1.00  0.00     0.160 HD
HETATM   16  C17 UNL     1      -1.027  -3.724   1.370  1.00  0.00     0.140 C 
HETATM   17  N2  UNL     1      -1.313  -2.516   0.570  1.00  0.00    -0.378 N 
ATOM     18  H2  UNL     1      -2.228  -2.199   0.251  1.00  0.00     0.160 HD
ENDBRANCH   9  12
BRANCH   8  19
HETATM   19  C9  UNL     1      -2.134   0.501  -0.112  1.00  0.00     0.274 C 
HETATM   20  O2  UNL     1      -2.393   0.394   1.112  1.00  0.00    -0.264 OA
BRANCH  19  21
HETATM   21  O3  UNL     1      -3.194   1.008  -0.874  1.00  0.00    -0.310 OA
BRANCH  21  22
HETATM   22  C10 UNL     1      -4.413   1.355  -0.319  1.00  0.00     0.060 C 
HETATM   23  C11 UNL     1      -5.024   0.140   0.336  1.00  0.00     0.045 C 
HETATM   24  C12 UNL     1      -5.330   1.830  -1.434  1.00  0.00     0.045 C 
HETATM   25  C13 UNL     1      -4.352   2.456   0.704  1.00  0.00     0.045 C 
ENDBRANCH  21  22
ENDBRANCH  19  21
ENDBRANCH   8  19
BRANCH   1  26
HETATM   26  O1  UNL     1       4.854   1.974   0.706  1.00  0.00    -0.391 OA
HETATM   27  C1  UNL     1       5.863   2.034   1.637  1.00  0.00     0.202 C 
ENDBRANCH   1  26
TORSDOF 5
