REMARK  4 active torsions:
REMARK  status: ('A' for Active; 'I' for Inactive)
REMARK    1  A    between atoms: N1_2  and  C2_5 
REMARK    2  A    between atoms: C2_5  and  C3_6 
REMARK    3  A    between atoms: C3_6  and  C4_7 
REMARK    4  A    between atoms: N2_10  and  C7_11 
ROOT
HETATM    1  C7  UNL     1      -0.032   0.338   0.402  1.00  0.00     0.103 C 
HETATM    2  N3  UNL     1      -1.008  -0.460   0.209  1.00  0.00    -0.323 N 
ATOM      3  H3  UNL     1      -0.917  -1.387  -0.206  1.00  0.00     0.166 HD
HETATM    4  C8  UNL     1      -2.268   0.118   0.656  1.00  0.00     0.253 C 
HETATM    5  C9  UNL     1      -2.894  -0.975   1.532  1.00  0.00     0.134 C 
HETATM    6  C10 UNL     1      -3.556  -2.000   0.681  1.00  0.00     0.090 A 
HETATM    7  C11 UNL     1      -2.686  -2.994  -0.035  1.00  0.00     0.049 C 
HETATM    8  O1  UNL     1      -4.686  -2.677   1.379  1.00  0.00    -0.369 OA
HETATM    9  C12 UNL     1      -4.896  -1.837   0.287  1.00  0.00     0.157 A 
HETATM   10  C13 UNL     1      -5.596  -0.557   0.604  1.00  0.00     0.038 C 
HETATM   11  C14 UNL     1      -5.423   0.500  -0.442  1.00  0.00     0.040 C 
HETATM   12  C15 UNL     1      -4.069   1.219  -0.342  1.00  0.00     0.059 C 
HETATM   13  C16 UNL     1      -4.159   2.132   0.836  1.00  0.00     0.045 C 
HETATM   14  C17 UNL     1      -4.051   2.135  -1.581  1.00  0.00     0.045 C 
HETATM   15  O2  UNL     1      -3.002   0.416  -0.430  1.00  0.00    -0.328 OA
HETATM   16  O3  UNL     1      -1.831   1.175   1.423  1.00  0.00    -0.331 OA
HETATM   17  C18 UNL     1      -0.580   1.558   1.009  1.00  0.00     0.249 C 
ENDROOT
BRANCH   1  18
HETATM   18  N2  UNL     1       1.355   0.098   0.084  1.00  0.00    -0.369 N 
HETATM   19  C6  UNL     1       2.251   1.200  -0.107  1.00  0.00     0.124 C 
HETATM   20  C5  UNL     1       3.179   0.907  -1.241  1.00  0.00     0.024 C 
HETATM   21  C4  UNL     1       3.923  -0.371  -1.030  1.00  0.00    -0.010 C 
HETATM   22  C20 UNL     1       2.990  -1.545  -0.827  1.00  0.00     0.024 C 
HETATM   23  C19 UNL     1       1.792  -1.240  -0.017  1.00  0.00     0.124 C 
BRANCH  21  24
HETATM   24  C3  UNL     1       4.961  -0.293   0.052  1.00  0.00     0.032 C 
BRANCH  24  25
HETATM   25  C2  UNL     1       6.003   0.748  -0.272  1.00  0.00     0.232 C 
BRANCH  25  26
HETATM   26  N1  UNL     1       7.020   0.806   0.777  1.00  0.00    -0.079 N 
HETATM   27  C1  UNL     1       7.762  -0.448   0.714  1.00  0.00     0.266 C 
ATOM     28  H12 UNL     1       6.634   0.999   1.701  1.00  0.00     0.276 HD
ATOM     29  H11 UNL     1       7.617   1.630   0.713  1.00  0.00     0.276 HD
ENDBRANCH  25  26
ENDBRANCH  24  25
ENDBRANCH  21  24
ENDBRANCH   1  18
TORSDOF 4
