REMARK  3 active torsions:
REMARK  status: ('A' for Active; 'I' for Inactive)
REMARK    1  A    between atoms: C5_7  and  C6_8 
REMARK    2  A    between atoms: C6_8  and  O3_9 
REMARK    3  A    between atoms: C6_8  and  C7_11 
ROOT
HETATM    1  C1  UNL     1      -2.072  -1.760  -1.228  1.00  0.00     0.082 C 
HETATM    2  C2  UNL     1      -2.152  -0.550  -0.347  1.00  0.00     0.201 C 
HETATM    3  O1  UNL     1      -2.685   0.357  -1.169  1.00  0.00    -0.197 OA
HETATM    4  O2  UNL     1      -1.734   0.732  -1.998  1.00  0.00    -0.190 OA
HETATM    5  C3  UNL     1      -0.875   1.739  -1.597  1.00  0.00     0.247 A 
HETATM    6  C4  UNL     1       0.548   1.329  -1.513  1.00  0.00     0.059 C 
HETATM    7  C5  UNL     1       1.196   0.572  -0.433  1.00  0.00     0.006 C 
HETATM    8  C11 UNL     1       0.893  -0.370   0.573  1.00  0.00     0.059 C 
HETATM    9  C12 UNL     1       0.187  -1.693   0.545  1.00  0.00     0.066 C 
HETATM   10  C13 UNL     1      -1.097  -1.850   1.274  1.00  0.00     0.017 C 
HETATM   11  C14 UNL     1      -2.376  -1.035   0.979  1.00  0.00     0.063 C 
HETATM   12  C15 UNL     1      -2.287   0.332   1.738  1.00  0.00     0.073 C 
HETATM   13  C16 UNL     1      -3.042   1.451   1.057  1.00  0.00    -0.018 C 
HETATM   14  C17 UNL     1      -2.580   2.466   0.181  1.00  0.00     0.007 C 
HETATM   15  C18 UNL     1      -1.411   2.746  -0.656  1.00  0.00     0.217 A 
HETATM   16  O5  UNL     1      -1.353   2.942  -1.998  1.00  0.00    -0.332 OA
HETATM   17  C19 UNL     1      -0.922   0.543   1.313  1.00  0.00     0.277 C 
HETATM   18  O6  UNL     1       0.232   0.098   1.786  1.00  0.00    -0.323 OA
HETATM   19  O7  UNL     1      -1.141   0.072   0.108  1.00  0.00    -0.321 OA
ENDROOT
BRANCH   7  20
HETATM   20  C6  UNL     1       2.521   0.187  -1.097  1.00  0.00     0.188 C 
BRANCH  20  21
HETATM   21  O3  UNL     1       2.251  -0.580  -2.260  1.00  0.00    -0.386 OA
ATOM     22  H3  UNL     1       3.073  -0.819  -2.672  1.00  0.00     0.210 HD
ENDBRANCH  20  21
BRANCH  20  23
HETATM   23  C7  UNL     1       3.458  -0.593  -0.310  1.00  0.00    -0.001 A 
HETATM   24  C8  UNL     1       4.481  -0.005   0.444  1.00  0.00     0.036 A 
HETATM   25  C9  UNL     1       5.165  -1.049   1.006  1.00  0.00     0.142 A 
HETATM   26  O4  UNL     1       4.614  -2.179   0.635  1.00  0.00    -0.334 OA
HETATM   27  C10 UNL     1       3.600  -1.964  -0.145  1.00  0.00     0.151 A 
ENDBRANCH  20  23
ENDBRANCH   7  20
TORSDOF 3
