REMARK  4 active torsions:
REMARK  status: ('A' for Active; 'I' for Inactive)
REMARK    1  A    between atoms: C11_11  and  O1_12 
REMARK    2  A    between atoms: C12_14  and  O2_15 
REMARK    3  A    between atoms: O2_15  and  C13_16 
REMARK    4  A    between atoms: C13_16  and  C14_18 
ROOT
HETATM    1  C1  UNL     1       0.183   0.770  -2.655  1.00  0.00     0.019 C 
HETATM    2  C2  UNL     1       0.009   0.206  -1.474  1.00  0.00    -0.029 C 
HETATM    3  C3  UNL     1      -1.248   0.355  -0.731  1.00  0.00     0.156 C 
HETATM    4  C4  UNL     1      -2.386   1.071  -1.275  1.00  0.00     0.040 C 
HETATM    5  C5  UNL     1      -3.673   0.466  -0.771  1.00  0.00     0.044 C 
HETATM    6  C6  UNL     1      -3.747  -0.130   0.541  1.00  0.00     0.101 C 
HETATM    7  C7  UNL     1      -4.810   0.622   1.366  1.00  0.00     0.049 C 
HETATM    8  C8  UNL     1      -2.535  -0.181   1.439  1.00  0.00     0.112 C 
HETATM    9  C9  UNL     1      -1.623  -1.176   0.837  1.00  0.00     0.206 C 
HETATM   10  C10 UNL     1      -0.199  -1.153   1.175  1.00  0.00     0.106 C 
HETATM   11  C11 UNL     1       0.676  -1.687   0.034  1.00  0.00     0.157 C 
HETATM   12  C12 UNL     1       1.139  -0.596  -0.910  1.00  0.00     0.191 C 
HETATM   13  O4  UNL     1      -2.261  -2.429   1.003  1.00  0.00    -0.170 OA
HETATM   14  O5  UNL     1      -3.337  -2.349   0.223  1.00  0.00    -0.063 OA
HETATM   15  O6  UNL     1      -4.208  -1.471   0.553  1.00  0.00    -0.200 OA
HETATM   16  O7  UNL     1      -1.684  -0.983  -0.564  1.00  0.00    -0.342 OA
ENDROOT
BRANCH  12  17
HETATM   17  O2  UNL     1       2.077   0.200  -0.236  1.00  0.00    -0.308 OA
BRANCH  17  18
HETATM   18  C13 UNL     1       3.412   0.308  -0.588  1.00  0.00     0.263 C 
HETATM   19  O3  UNL     1       3.803  -0.350  -1.575  1.00  0.00    -0.265 OA
BRANCH  18  20
HETATM   20  C14 UNL     1       4.381   1.152   0.138  1.00  0.00     0.077 C 
HETATM   21  C15 UNL     1       5.727   1.015  -0.534  1.00  0.00     0.020 C 
HETATM   22  C16 UNL     1       4.492   0.737   1.588  1.00  0.00     0.020 C 
ENDBRANCH  18  20
ENDBRANCH  17  18
ENDBRANCH  12  17
BRANCH  11  23
HETATM   23  O1  UNL     1      -0.023  -2.695  -0.632  1.00  0.00    -0.392 OA
ATOM     24  H1  UNL     1       0.519  -3.026  -1.339  1.00  0.00     0.210 HD
ENDBRANCH  11  23
TORSDOF 4
