REMARK  5 active torsions:
REMARK  status: ('A' for Active; 'I' for Inactive)
REMARK    1  A    between atoms: C2_2  and  O1_3 
REMARK    2  A    between atoms: O1_3  and  C3_4 
REMARK    3  A    between atoms: C3_4  and  C4_6 
REMARK    4  A    between atoms: C7_10  and  C8_11 
REMARK    5  A    between atoms: C8_11  and  O5_13 
ROOT
HETATM    1  C4  UNL     1       1.514  -0.614   0.467  1.00  0.00     0.055 C 
HETATM    2  C5  UNL     1       0.678   0.365   0.730  1.00  0.00     0.057 C 
HETATM    3  C6  UNL     1       1.323   1.681   0.776  1.00  0.00     0.077 C 
HETATM    4  O3  UNL     1      -0.680   0.382   0.967  1.00  0.00    -0.330 OA
HETATM    5  C7  UNL     1      -1.928  -0.042   0.507  1.00  0.00     0.200 C 
HETATM    6  C10 UNL     1      -2.848  -0.444   1.637  1.00  0.00     0.082 C 
HETATM    7  C11 UNL     1      -2.208  -1.721   2.088  1.00  0.00    -0.018 C 
HETATM    8  C12 UNL     1      -1.713  -2.263   0.974  1.00  0.00     0.013 C 
HETATM    9  C13 UNL     1      -2.005  -1.366  -0.195  1.00  0.00     0.193 C 
HETATM   10  C14 UNL     1      -1.152  -1.523  -1.356  1.00  0.00     0.121 C 
HETATM   11  S1  UNL     1       0.230  -2.605  -0.977  1.00  0.00    -0.161 SA
HETATM   12  C15 UNL     1       1.197  -2.086   0.401  1.00  0.00     0.121 C 
HETATM   13  N1  UNL     1      -3.445  -1.467  -0.400  1.00  0.00    -0.058 N 
ATOM     14  H11 UNL     1      -3.760  -2.406  -0.643  1.00  0.00     0.278 HD
ATOM     15  H12 UNL     1      -3.772  -1.007  -1.250  1.00  0.00     0.278 HD
HETATM   16  C16 UNL     1      -4.046  -0.945   0.814  1.00  0.00     0.246 C 
ENDROOT
BRANCH   1  17
HETATM   17  C3  UNL     1       2.903  -0.305   0.256  1.00  0.00     0.292 C 
HETATM   18  O2  UNL     1       3.646  -1.331   0.003  1.00  0.00    -0.259 OA
BRANCH  17  19
HETATM   19  O1  UNL     1       3.589   0.872   0.271  1.00  0.00    -0.318 OA
BRANCH  19  20
HETATM   20  C2  UNL     1       4.944   1.092   0.054  1.00  0.00     0.174 C 
HETATM   21  C1  UNL     1       5.449   0.675  -1.303  1.00  0.00     0.034 C 
ENDBRANCH  19  20
ENDBRANCH  17  19
ENDBRANCH   1  17
BRANCH   5  22
HETATM   22  C8  UNL     1      -2.595   0.975  -0.325  1.00  0.00     0.297 C 
HETATM   23  O4  UNL     1      -3.656   0.872  -0.933  1.00  0.00    -0.262 OA
BRANCH  22  24
HETATM   24  O5  UNL     1      -1.942   2.219  -0.438  1.00  0.00    -0.324 OA
HETATM   25  C9  UNL     1      -2.504   3.242  -1.207  1.00  0.00     0.213 C 
ENDBRANCH  22  24
ENDBRANCH   5  22
TORSDOF 5
