REMARK  4 active torsions:
REMARK  status: ('A' for Active; 'I' for Inactive)
REMARK    1  A    between atoms: C2_2  and  S1_3 
REMARK    2  A    between atoms: S1_3  and  C3_4 
REMARK    3  A    between atoms: C5_10  and  N3_11 
REMARK       I    between atoms: N4_14  and  C8_15 
REMARK    4  A    between atoms: C8_15  and  C9_17 
ROOT
HETATM    1  C3  UNL     1       5.635  -1.194  -0.327  1.00  0.00     0.176 A 
HETATM    2  N1  UNL     1       4.911  -0.061  -0.319  1.00  0.00    -0.165 N 
ATOM      3  H1  UNL     1       5.305   0.879  -0.344  1.00  0.00     0.186 HD
HETATM    4  C4  UNL     1       3.595  -0.338  -0.274  1.00  0.00     0.736 A 
HETATM    5  N2  UNL     1       2.321   0.090  -0.239  1.00  0.00    -0.018 N 
ATOM      6  H2  UNL     1       2.044   1.072  -0.243  1.00  0.00     0.203 HD
HETATM    7  C5  UNL     1       1.460  -0.938  -0.198  1.00  0.00     0.711 A 
HETATM    8  N5  UNL     1       2.219  -2.044  -0.207  1.00  0.00    -0.095 N 
ATOM      9  H5  UNL     1       1.872  -3.003  -0.183  1.00  0.00     0.208 HD
HETATM   10  N6  UNL     1       3.508  -1.681  -0.252  1.00  0.00    -0.003 N 
HETATM   11  N7  UNL     1       4.736  -2.190  -0.285  1.00  0.00    -0.242 N 
ATOM     12  H7  UNL     1       4.961  -3.185  -0.279  1.00  0.00     0.192 HD
ENDROOT
BRANCH   7  13
HETATM   13  N3  UNL     1       0.020  -0.879  -0.154  1.00  0.00    -0.213 N 
HETATM   14  C6  UNL     1      -0.722  -2.114  -0.112  1.00  0.00     0.161 C 
HETATM   15  C7  UNL     1      -2.168  -1.944  -0.473  1.00  0.00     0.146 C 
HETATM   16  N4  UNL     1      -2.731  -0.696   0.010  1.00  0.00    -0.348 N 
HETATM   17  C8  UNL     1      -4.079  -0.397  -0.235  1.00  0.00     0.227 C 
HETATM   18  C13 UNL     1      -1.885   0.210   0.737  1.00  0.00     0.146 C 
HETATM   19  O1  UNL     1      -4.765  -1.270  -0.891  1.00  0.00    -0.273 OA
HETATM   20  C14 UNL     1      -0.641   0.408  -0.155  1.00  0.00     0.161 C 
BRANCH  17  21
HETATM   21  C9  UNL     1      -4.807   0.804   0.174  1.00  0.00     0.030 C 
HETATM   22  C10 UNL     1      -6.281   0.718  -0.243  1.00  0.00     0.025 C 
HETATM   23  C11 UNL     1      -4.239   2.001  -0.555  1.00  0.00     0.025 C 
HETATM   24  C12 UNL     1      -4.770   1.010   1.669  1.00  0.00     0.025 C 
ENDBRANCH  17  21
ENDBRANCH   7  13
BRANCH   1  25
HETATM   25  S1  UNL     1       7.435  -1.347  -0.384  1.00  0.00    -0.092 SA
BRANCH  25  26
HETATM   26  C2  UNL     1       8.169   0.307  -0.432  1.00  0.00     0.078 C 
HETATM   27  C1  UNL     1       7.891   1.012   0.870  1.00  0.00     0.016 C 
ENDBRANCH  25  26
ENDBRANCH   1  25
TORSDOF 4
