REMARK  4 active torsions:
REMARK  status: ('A' for Active; 'I' for Inactive)
REMARK    1  A    between atoms: O1_1  and  C1_3 
REMARK    2  A    between atoms: N1_6  and  C4_7 
REMARK    3  A    between atoms: C5_10  and  N3_11 
REMARK    4  A    between atoms: C11_19  and  N5_20 
ROOT
HETATM    1  C4  UNL     1       0.982  -0.282   0.387  1.00  0.00     0.709 A 
HETATM    2  N2  UNL     1      -0.137  -1.006   0.120  1.00  0.00    -0.021 N 
ATOM      3  H2  UNL     1      -0.113  -2.024   0.178  1.00  0.00     0.203 HD
HETATM    4  C5  UNL     1      -1.275  -0.379  -0.221  1.00  0.00     0.709 A 
HETATM    5  N4  UNL     1      -1.315   0.976  -0.301  1.00  0.00    -0.021 N 
ATOM      6  H4  UNL     1      -2.183   1.444  -0.561  1.00  0.00     0.203 HD
HETATM    7  C11 UNL     1      -0.206   1.708  -0.036  1.00  0.00     0.709 A 
HETATM    8  N6  UNL     1       0.910   1.044   0.301  1.00  0.00    -0.021 N 
ATOM      9  H6  UNL     1       1.750   1.586   0.503  1.00  0.00     0.203 HD
ENDROOT
BRANCH   1  10
HETATM   10  N1  UNL     1       2.198  -0.932   0.750  1.00  0.00    -0.216 N 
HETATM   11  C3  UNL     1       3.338  -0.114   1.015  1.00  0.00     0.143 C 
HETATM   12  C2  UNL     1       4.647  -0.826   0.980  1.00  0.00     0.052 C 
HETATM   13  C1  UNL     1       4.636  -2.126   0.243  1.00  0.00     0.121 C 
HETATM   14  C17 UNL     1       3.498  -3.027   0.587  1.00  0.00     0.052 C 
HETATM   15  C16 UNL     1       2.193  -2.360   0.825  1.00  0.00     0.143 C 
BRANCH  13  16
HETATM   16  O1  UNL     1       5.825  -2.795   0.536  1.00  0.00    -0.395 OA
ATOM     17  H1  UNL     1       5.818  -3.621   0.067  1.00  0.00     0.210 HD
ENDBRANCH  13  16
ENDBRANCH   1  10
BRANCH   4  18
HETATM   18  N3  UNL     1      -2.438  -1.166  -0.497  1.00  0.00    -0.217 N 
HETATM   19  C6  UNL     1      -2.367  -2.589  -0.394  1.00  0.00     0.141 C 
HETATM   20  C7  UNL     1      -3.668  -3.294  -0.242  1.00  0.00     0.020 C 
HETATM   21  C8  UNL     1      -4.849  -2.561  -0.774  1.00  0.00     0.003 C 
HETATM   22  C9  UNL     1      -4.812  -1.145  -0.188  1.00  0.00     0.020 C 
HETATM   23  C10 UNL     1      -3.647  -0.456  -0.876  1.00  0.00     0.141 C 
ENDBRANCH   4  18
BRANCH   7  24
HETATM   24  N5  UNL     1      -0.224   3.132  -0.114  1.00  0.00    -0.217 N 
HETATM   25  C12 UNL     1       0.928   3.958   0.161  1.00  0.00     0.141 C 
HETATM   26  C13 UNL     1       0.566   5.355  -0.286  1.00  0.00     0.022 C 
HETATM   27  C14 UNL     1      -0.908   5.338  -0.623  1.00  0.00     0.022 C 
HETATM   28  C15 UNL     1      -1.369   3.913  -0.468  1.00  0.00     0.141 C 
ENDBRANCH   7  24
TORSDOF 4
