REMARK  4 active torsions:
REMARK  status: ('A' for Active; 'I' for Inactive)
REMARK    1  A    between atoms: C4_6  and  C6_8 
REMARK    2  A    between atoms: C6_8  and  O3_9 
REMARK    3  A    between atoms: C6_8  and  C7_11 
REMARK    4  A    between atoms: C7_11  and  C8_13 
ROOT
HETATM    1  C7  UNL     1       0.240  -0.268   0.516  1.00  0.00     0.170 C 
HETATM    2  O4  UNL     1       0.554  -0.897   1.527  1.00  0.00    -0.294 OA
ENDROOT
BRANCH   1   3
HETATM    3  C6  UNL     1       1.308  -0.101  -0.501  1.00  0.00     0.252 C 
BRANCH   3   4
HETATM    4  C4  UNL     1       2.549   0.537   0.072  1.00  0.00     0.229 C 
HETATM    5  O2  UNL     1       2.956  -0.246   1.148  1.00  0.00    -0.195 OA
HETATM    6  O1  UNL     1       3.584  -1.233   0.502  1.00  0.00    -0.198 OA
HETATM    7  C2  UNL     1       4.392  -0.527  -0.361  1.00  0.00     0.193 C 
HETATM    8  C1  UNL     1       5.018  -1.405  -1.421  1.00  0.00     0.081 C 
HETATM    9  C3  UNL     1       5.508   0.095   0.438  1.00  0.00     0.081 C 
HETATM   10  O7  UNL     1       3.550   0.423  -0.891  1.00  0.00    -0.312 OA
HETATM   11  C5  UNL     1       2.384   1.975   0.418  1.00  0.00     0.085 C 
ENDBRANCH   3   4
BRANCH   3  12
HETATM   12  O3  UNL     1       0.834   0.619  -1.583  1.00  0.00    -0.382 OA
ATOM     13  H3  UNL     1       0.052   0.217  -1.944  1.00  0.00     0.210 HD
ENDBRANCH   3  12
ENDBRANCH   1   3
BRANCH   1  14
HETATM   14  C8  UNL     1      -1.087   0.308   0.270  1.00  0.00     0.124 C 
HETATM   15  C9  UNL     1      -1.763  -0.227  -0.980  1.00  0.00     0.025 C 
HETATM   16  C10 UNL     1      -3.065  -0.823  -0.419  1.00  0.00     0.023 C 
HETATM   17  C11 UNL     1      -2.542  -1.813   0.637  1.00  0.00     0.045 C 
HETATM   18  C14 UNL     1      -3.821   0.310   0.198  1.00  0.00     0.061 C 
HETATM   19  C12 UNL     1      -2.495  -1.062   1.883  1.00  0.00     0.189 A 
HETATM   20  O5  UNL     1      -1.558  -0.370   2.500  1.00  0.00    -0.341 OA
HETATM   21  C13 UNL     1      -1.982   0.332   1.469  1.00  0.00     0.202 A 
HETATM   22  O6  UNL     1      -3.102   1.001   1.188  1.00  0.00    -0.341 OA
HETATM   23  C15 UNL     1      -4.032   1.340  -0.924  1.00  0.00     0.046 C 
HETATM   24  C16 UNL     1      -5.198  -0.083   0.667  1.00  0.00     0.046 C 
ENDBRANCH   1  14
TORSDOF 4
