REMARK  10 active torsions:
REMARK  status: ('A' for Active; 'I' for Inactive)
REMARK    1  A    between atoms: O1_2  and  C2_3 
REMARK    2  A    between atoms: C2_3  and  C3_4 
REMARK    3  A    between atoms: C3_4  and  C4_5 
REMARK    4  A    between atoms: C4_5  and  C5_6 
REMARK       I    between atoms: C5_6  and  N1_8 
REMARK    5  A    between atoms: N1_8  and  S1_10 
REMARK    6  A    between atoms: S1_10  and  C6_13 
REMARK    7  A    between atoms: C13_23  and  C14_24 
REMARK    8  A    between atoms: C17_27  and  O5_28 
REMARK    9  A    between atoms: O5_28  and  C18_29 
REMARK   10  A    between atoms: C18_29  and  C19_32 
ROOT
HETATM    1  C4  UNL     1      -1.378   1.597  -0.008  1.00  0.00     0.052 A 
HETATM    2  C12 UNL     1      -0.836   1.333   1.429  1.00  0.00     0.031 A 
HETATM    3  C13 UNL     1       0.006   1.770   0.319  1.00  0.00     0.045 A 
ENDROOT
BRANCH   1   4
HETATM    4  C3  UNL     1      -2.324   2.778  -0.076  1.00  0.00     0.046 C 
BRANCH   4   5
HETATM    5  C2  UNL     1      -1.822   4.085   0.377  1.00  0.00     0.168 C 
BRANCH   5   6
HETATM    6  O1  UNL     1      -0.783   4.650  -0.311  1.00  0.00    -0.396 OA
HETATM    7  C1  UNL     1      -0.391   5.880   0.197  1.00  0.00     0.201 C 
ENDBRANCH   5   6
ENDBRANCH   4   5
ENDBRANCH   1   4
BRANCH   1   8
HETATM    8  C5  UNL     1      -2.013   0.355  -0.530  1.00  0.00     0.240 C 
HETATM    9  O2  UNL     1      -1.349  -0.707  -0.542  1.00  0.00    -0.272 OA
HETATM   10  N1  UNL     1      -3.314   0.347  -1.000  1.00  0.00    -0.249 N 
ATOM     11  H1  UNL     1      -3.795   1.245  -0.949  1.00  0.00     0.182 HD
BRANCH  10  12
HETATM   12  S1  UNL     1      -4.238  -0.925  -1.649  1.00  0.00     0.268 S 
HETATM   13  O3  UNL     1      -5.693  -0.543  -1.835  1.00  0.00    -0.200 OA
HETATM   14  O4  UNL     1      -3.709  -1.377  -3.002  1.00  0.00    -0.200 OA
BRANCH  12  15
HETATM   15  C6  UNL     1      -4.221  -2.349  -0.635  1.00  0.00     0.123 A 
HETATM   16  C7  UNL     1      -3.426  -3.438  -0.912  1.00  0.00     0.060 A 
HETATM   17 CL1  UNL     1      -2.472  -3.485  -2.391  1.00  0.00    -0.083 Cl
HETATM   18  C8  UNL     1      -3.387  -4.543  -0.081  1.00  0.00     0.049 A 
HETATM   19  C9  UNL     1      -4.171  -4.554   1.059  1.00  0.00     0.037 A 
HETATM   20 CL2  UNL     1      -4.087  -5.967   2.077  1.00  0.00    -0.084 Cl
HETATM   21  C10 UNL     1      -4.970  -3.478   1.346  1.00  0.00     0.049 A 
HETATM   22  C11 UNL     1      -4.991  -2.405   0.518  1.00  0.00     0.060 A 
HETATM   23 CL3  UNL     1      -6.007  -1.004   0.849  1.00  0.00    -0.083 Cl
ENDBRANCH  12  15
ENDBRANCH  10  12
ENDBRANCH   1   8
BRANCH   3  24
HETATM   24  C14 UNL     1       1.135   0.851  -0.044  1.00  0.00    -0.009 A 
HETATM   25  C15 UNL     1       2.202   1.135  -0.860  1.00  0.00     0.018 A 
HETATM   26  C16 UNL     1       3.129   0.189  -1.021  1.00  0.00     0.046 A 
HETATM   27  C17 UNL     1       2.959  -0.992  -0.367  1.00  0.00     0.116 A 
HETATM   28  S2  UNL     1       1.471  -0.739   0.472  1.00  0.00    -0.070 SA
BRANCH  27  29
HETATM   29  O5  UNL     1       3.765  -2.148  -0.349  1.00  0.00    -0.276 OA
BRANCH  29  30
HETATM   30  C18 UNL     1       4.767  -2.283   0.624  1.00  0.00     0.363 C 
HETATM   31  F1  UNL     1       4.151  -2.208   1.860  1.00  0.00    -0.175 F 
HETATM   32  F2  UNL     1       5.321  -3.566   0.574  1.00  0.00    -0.175 F 
BRANCH  30  33
HETATM   33  C19 UNL     1       5.890  -1.318   0.546  1.00  0.00     0.089 A 
HETATM   34  C20 UNL     1       6.770  -1.224  -0.644  1.00  0.00     0.014 A 
HETATM   35  C21 UNL     1       7.303  -1.894   0.574  1.00  0.00     0.014 A 
ENDBRANCH  30  33
ENDBRANCH  29  30
ENDBRANCH  27  29
ENDBRANCH   3  24
TORSDOF 10
