REMARK  12 active torsions:
REMARK  status: ('A' for Active; 'I' for Inactive)
REMARK    1  A    between atoms: C2_2  and  C3_3 
REMARK    2  A    between atoms: C3_3  and  C4_4 
REMARK    3  A    between atoms: C7_11  and  N3_12 
REMARK    4  A    between atoms: N3_12  and  C8_13 
REMARK    5  A    between atoms: N3_12  and  C10_15 
REMARK    6  A    between atoms: C10_15  and  C11_16 
REMARK    7  A    between atoms: C11_16  and  C12_17 
REMARK    8  A    between atoms: C12_17  and  C13_18 
REMARK    9  A    between atoms: C13_18  and  N4_19 
REMARK   10  A    between atoms: C20_30  and  C21_31 
REMARK   11  A    between atoms: C24_37  and  N7_38 
REMARK   12  A    between atoms: C25_41  and  C26_42 
ROOT
HETATM    1  N4  UNL     1       1.182  -1.351   0.590  1.00  0.00     0.102 N 
HETATM    2  C14 UNL     1       1.242  -1.796  -0.776  1.00  0.00     0.293 C 
HETATM    3  C15 UNL     1       2.538  -1.479  -1.453  1.00  0.00     0.162 C 
HETATM    4  N5  UNL     1       3.555  -0.857  -0.676  1.00  0.00    -0.319 N 
HETATM    5  C16 UNL     1       3.536  -0.871   0.647  1.00  0.00     0.119 A 
HETATM    6  N6  UNL     1       4.502  -0.286   1.345  1.00  0.00    -0.342 N 
ATOM      7  H6  UNL     1       4.470  -0.309   2.364  1.00  0.00     0.167 HD
HETATM    8  C17 UNL     1       5.531   0.342   0.722  1.00  0.00     0.069 A 
HETATM    9  C18 UNL     1       6.539   0.964   1.428  1.00  0.00     0.062 A 
HETATM   10 CL1  UNL     1       6.510   0.948   3.178  1.00  0.00    -0.082 Cl
HETATM   11  C19 UNL     1       7.576   1.607   0.791  1.00  0.00     0.042 A 
HETATM   12  C20 UNL     1       7.629   1.643  -0.599  1.00  0.00     0.050 A 
HETATM   13  C22 UNL     1       6.609   1.012  -1.304  1.00  0.00     0.034 A 
HETATM   14  C23 UNL     1       5.561   0.363  -0.655  1.00  0.00     0.037 A 
HETATM   15  C24 UNL     1       4.555  -0.247  -1.376  1.00  0.00     0.115 A 
HETATM   16  C25 UNL     1       2.390  -1.534   1.316  1.00  0.00     0.289 C 
ENDROOT
BRANCH   1  17
HETATM   17  C13 UNL     1       0.616  -0.040   0.622  1.00  0.00     0.273 C 
BRANCH  17  18
HETATM   18  C12 UNL     1      -0.879  -0.005   0.396  1.00  0.00     0.032 C 
BRANCH  18  19
HETATM   19  C11 UNL     1      -1.380   1.419   0.380  1.00  0.00     0.022 C 
BRANCH  19  20
HETATM   20  C10 UNL     1      -2.867   1.528   0.308  1.00  0.00     0.124 C 
BRANCH  20  21
HETATM   21  N3  UNL     1      -3.518   0.907  -0.806  1.00  0.00    -0.367 N 
BRANCH  21  22
HETATM   22  C7  UNL     1      -4.383  -0.193  -0.524  1.00  0.00     0.111 A 
HETATM   23  C4  UNL     1      -5.410  -0.159   0.348  1.00  0.00     0.001 A 
HETATM   24  C5  UNL     1      -6.077  -1.394   0.572  1.00  0.00     0.099 A 
HETATM   25  N1  UNL     1      -5.682  -2.492  -0.064  1.00  0.00    -0.361 N 
HETATM   26  C6  UNL     1      -4.663  -2.513  -0.928  1.00  0.00     0.181 A 
ATOM     27  H1  UNL     1      -6.182  -3.363   0.117  1.00  0.00     0.166 HD
HETATM   28  N2  UNL     1      -4.034  -1.352  -1.139  1.00  0.00    -0.338 N 
ATOM     29  H2  UNL     1      -3.253  -1.336  -1.795  1.00  0.00     0.168 HD
BRANCH  23  30
HETATM   30  C3  UNL     1      -5.994   0.978   1.031  1.00  0.00     0.043 C 
BRANCH  30  31
HETATM   31  C2  UNL     1      -7.151   1.622   0.340  1.00  0.00     0.000 C 
HETATM   32  C1  UNL     1      -6.824   2.172  -1.001  1.00  0.00     0.005 C 
ENDBRANCH  30  31
ENDBRANCH  23  30
ENDBRANCH  21  22
BRANCH  21  33
HETATM   33  C8  UNL     1      -3.317   1.360  -2.154  1.00  0.00     0.120 C 
HETATM   34  C9  UNL     1      -4.030   0.572  -3.190  1.00  0.00     0.026 C 
ENDBRANCH  21  33
ENDBRANCH  20  21
ENDBRANCH  19  20
ENDBRANCH  18  19
ENDBRANCH  17  18
ENDBRANCH   1  17
BRANCH  16  35
HETATM   35  C26 UNL     1       2.641  -3.030   1.391  1.00  0.00     0.039 C 
HETATM   36  C27 UNL     1       1.472  -3.705   2.100  1.00  0.00     0.007 C 
ENDBRANCH  16  35
BRANCH  15  37
HETATM   37  N7  UNL     1       4.628  -0.204  -2.649  1.00  0.00    -0.385 N 
ATOM     38  H72 UNL     1       3.884  -0.655  -3.182  1.00  0.00     0.157 HD
ATOM     39  H71 UNL     1       5.375   0.252  -3.172  1.00  0.00     0.157 HD
ENDBRANCH  15  37
BRANCH  12  40
HETATM   40  C21 UNL     1       8.740   2.341  -1.293  1.00  0.00     0.417 C 
HETATM   41  F1  UNL     1       9.629   2.781  -0.324  1.00  0.00    -0.166 F 
HETATM   42  F2  UNL     1       8.232   3.455  -1.950  1.00  0.00    -0.166 F 
HETATM   43  F3  UNL     1       9.396   1.537  -2.180  1.00  0.00    -0.166 F 
ENDBRANCH  12  40
TORSDOF 12
