REMARK  13 active torsions:
REMARK  status: ('A' for Active; 'I' for Inactive)
REMARK    1  A    between atoms: O1_2  and  C2_3 
REMARK    2  A    between atoms: C2_3  and  C3_5 
REMARK    3  A    between atoms: C3_5  and  C4_6 
REMARK    4  A    between atoms: C4_6  and  C5_7 
REMARK    5  A    between atoms: C5_7  and  C6_8 
REMARK    6  A    between atoms: C7_9  and  C8_10 
REMARK    7  A    between atoms: C8_10  and  C9_11 
REMARK    8  A    between atoms: C10_12  and  O3_13 
REMARK    9  A    between atoms: O3_13  and  C11_14 
REMARK   10  A    between atoms: C11_14  and  C14_17 
REMARK   11  A    between atoms: C14_17  and  C15_18 
REMARK   12  A    between atoms: C15_18  and  C16_19 
REMARK   13  A    between atoms: C20_31  and  C21_32 
ROOT
HETATM    1  C9  UNL     1      -0.602  -0.410  -0.420  1.00  0.00     0.065 C 
HETATM    2  C10 UNL     1      -1.356   0.703   0.261  1.00  0.00     0.230 C 
HETATM    3  N1  UNL     1      -2.181   0.171   1.298  1.00  0.00    -0.335 N 
ATOM      4  H1  UNL     1      -2.509   0.841   1.994  1.00  0.00     0.165 HD
HETATM    5  C17 UNL     1      -2.558  -1.028   1.464  1.00  0.00     0.176 C 
HETATM    6  N2  UNL     1      -3.391  -1.648   2.484  1.00  0.00    -0.361 N 
ATOM      7  H2  UNL     1      -3.722  -1.209   3.343  1.00  0.00     0.162 HD
HETATM    8  C18 UNL     1      -3.664  -3.012   2.049  1.00  0.00     0.142 C 
HETATM    9  C19 UNL     1      -2.487  -3.315   1.134  1.00  0.00     0.146 C 
HETATM   10  N3  UNL     1      -2.149  -2.030   0.545  1.00  0.00    -0.343 N 
HETATM   11  C20 UNL     1      -1.539  -1.585  -0.676  1.00  0.00     0.129 C 
ENDROOT
BRANCH   1  12
HETATM   12  C8  UNL     1       0.616  -0.831   0.360  1.00  0.00     0.038 C 
BRANCH  12  13
HETATM   13  C7  UNL     1       1.606   0.258   0.554  1.00  0.00    -0.030 C 
HETATM   14  C6  UNL     1       2.846   0.185   0.106  1.00  0.00    -0.031 C 
BRANCH  14  15
HETATM   15  C5  UNL     1       3.784   1.295   0.328  1.00  0.00     0.027 C 
BRANCH  15  16
HETATM   16  C4  UNL     1       5.003   0.876   1.126  1.00  0.00     0.013 C 
BRANCH  16  17
HETATM   17  C3  UNL     1       4.633   0.354   2.484  1.00  0.00     0.111 C 
BRANCH  17  18
HETATM   18  C2  UNL     1       5.888  -0.026   3.178  1.00  0.00     0.258 C 
HETATM   19  O2  UNL     1       6.413  -1.131   2.901  1.00  0.00    -0.265 OA
BRANCH  18  20
HETATM   20  O1  UNL     1       6.452   0.818   4.098  1.00  0.00    -0.326 OA
HETATM   21  C1  UNL     1       7.656   0.480   4.782  1.00  0.00     0.213 C 
ENDBRANCH  18  20
ENDBRANCH  17  18
ENDBRANCH  16  17
ENDBRANCH  15  16
ENDBRANCH  14  15
ENDBRANCH  12  13
ENDBRANCH   1  12
BRANCH   2  22
HETATM   22  O3  UNL     1      -2.200   1.317  -0.657  1.00  0.00    -0.356 OA
BRANCH  22  23
HETATM   23  C11 UNL     1      -2.007   2.646  -0.870  1.00  0.00     0.056 C 
HETATM   24  C12 UNL     1      -0.591   2.854  -1.372  1.00  0.00     0.045 C 
HETATM   25  C13 UNL     1      -2.163   3.512   0.348  1.00  0.00     0.045 C 
BRANCH  23  26
HETATM   26  C14 UNL     1      -2.885   3.106  -2.016  1.00  0.00     0.046 C 
BRANCH  26  27
HETATM   27  C15 UNL     1      -4.336   2.902  -1.783  1.00  0.00     0.120 C 
BRANCH  27  28
HETATM   28  C16 UNL     1      -5.190   3.370  -2.941  1.00  0.00     0.388 C 
HETATM   29  F1  UNL     1      -5.007   4.731  -3.179  1.00  0.00    -0.171 F 
HETATM   30  F2  UNL     1      -4.876   2.727  -4.116  1.00  0.00    -0.171 F 
HETATM   31  F3  UNL     1      -6.535   3.183  -2.702  1.00  0.00    -0.171 F 
ENDBRANCH  27  28
ENDBRANCH  26  27
ENDBRANCH  23  26
ENDBRANCH  22  23
ENDBRANCH   2  22
BRANCH  11  32
HETATM   32  C21 UNL     1      -0.996  -2.633  -1.528  1.00  0.00    -0.033 A 
HETATM   33  C22 UNL     1      -0.249  -3.689  -1.041  1.00  0.00     0.011 A 
HETATM   34  C23 UNL     1       0.270  -4.690  -1.835  1.00  0.00     0.026 A 
HETATM   35  C24 UNL     1       0.018  -4.613  -3.190  1.00  0.00     0.055 A 
HETATM   36 CL1  UNL     1       0.636  -5.831  -4.259  1.00  0.00    -0.083 Cl
HETATM   37  C25 UNL     1      -0.721  -3.583  -3.734  1.00  0.00     0.056 A 
HETATM   38 CL2  UNL     1      -1.013  -3.533  -5.467  1.00  0.00    -0.083 Cl
HETATM   39  C26 UNL     1      -1.224  -2.601  -2.916  1.00  0.00     0.034 A 
ENDBRANCH  11  32
TORSDOF 13
