REMARK  11 active torsions:
REMARK  status: ('A' for Active; 'I' for Inactive)
REMARK    1  A    between atoms: C2_2  and  O1_3 
REMARK    2  A    between atoms: O1_3  and  C3_4 
REMARK    3  A    between atoms: C3_4  and  C4_6 
REMARK    4  A    between atoms: C5_7  and  C6_8 
REMARK    5  A    between atoms: C9_11  and  O3_12 
REMARK    6  A    between atoms: O3_12  and  C10_13 
REMARK    7  A    between atoms: C10_13  and  C11_14 
REMARK    8  A    between atoms: C10_13  and  C12_16 
REMARK    9  A    between atoms: C13_18  and  O4_19 
REMARK   10  A    between atoms: C16_22  and  C17_23 
REMARK   11  A    between atoms: C18_26  and  C19_27 
ROOT
HETATM    1  C4  UNL     1      -1.978  -0.169   0.942  1.00  0.00     0.104 C 
HETATM    2  C5  UNL     1      -1.123   0.562  -0.106  1.00  0.00     0.048 C 
HETATM    3  C16 UNL     1      -1.935  -0.324  -1.120  1.00  0.00     0.105 C 
HETATM    4  C18 UNL     1      -2.013  -1.257  -0.017  1.00  0.00     0.052 C 
ENDROOT
BRANCH   2   5
HETATM    5  C6  UNL     1       0.304   0.286  -0.136  1.00  0.00    -0.049 A 
HETATM    6  C7  UNL     1       1.011  -0.388   0.833  1.00  0.00     0.010 A 
HETATM    7  C8  UNL     1       2.366  -0.579   0.669  1.00  0.00     0.040 A 
HETATM    8  C9  UNL     1       3.041  -0.111  -0.444  1.00  0.00     0.102 A 
HETATM    9  C13 UNL     1       2.342   0.581  -1.448  1.00  0.00     0.102 A 
HETATM   10  C15 UNL     1       0.999   0.755  -1.259  1.00  0.00     0.047 A 
BRANCH   8  11
HETATM   11  O3  UNL     1       4.376  -0.279  -0.641  1.00  0.00    -0.338 OA
BRANCH  11  12
HETATM   12  C10 UNL     1       5.248  -0.934   0.226  1.00  0.00     0.186 C 
BRANCH  12  13
HETATM   13  C11 UNL     1       5.985  -2.081  -0.472  1.00  0.00     0.257 C 
HETATM   14  F1  UNL     1       6.700  -1.537  -1.517  1.00  0.00    -0.253 F 
ENDBRANCH  12  13
BRANCH  12  15
HETATM   15  C12 UNL     1       6.343   0.072   0.596  1.00  0.00     0.257 C 
HETATM   16  F2  UNL     1       5.692   1.148   1.212  1.00  0.00    -0.253 F 
ENDBRANCH  12  15
ENDBRANCH  11  12
ENDBRANCH   8  11
BRANCH   9  17
HETATM   17  O4  UNL     1       3.026   1.047  -2.562  1.00  0.00    -0.353 OA
HETATM   18  C14 UNL     1       2.341   1.745  -3.581  1.00  0.00     0.210 C 
ENDBRANCH   9  17
ENDBRANCH   2   5
BRANCH   1  19
HETATM   19  C3  UNL     1      -3.110   0.705   1.241  1.00  0.00     0.264 C 
HETATM   20  O2  UNL     1      -4.319   0.579   1.070  1.00  0.00    -0.265 OA
BRANCH  19  21
HETATM   21  O1  UNL     1      -2.749   1.942   1.844  1.00  0.00    -0.322 OA
BRANCH  21  22
HETATM   22  C2  UNL     1      -3.731   2.896   2.193  1.00  0.00     0.174 C 
HETATM   23  C1  UNL     1      -3.096   4.104   2.813  1.00  0.00     0.034 C 
ENDBRANCH  21  22
ENDBRANCH  19  21
ENDBRANCH   1  19
BRANCH   3  24
HETATM   24  C17 UNL     1      -3.009   0.456  -1.677  1.00  0.00     0.178 C 
HETATM   25  O5  UNL     1      -2.883   1.746  -1.662  1.00  0.00    -0.648 OA
HETATM   26  O6  UNL     1      -4.197   0.055  -2.254  1.00  0.00    -0.648 OA
ENDBRANCH   3  24
BRANCH   4  27
HETATM   27  C19 UNL     1      -2.893  -2.425   0.041  1.00  0.00     0.001 A 
HETATM   28  C20 UNL     1      -3.104  -3.172  -1.101  1.00  0.00     0.084 A 
HETATM   29 CL1  UNL     1      -2.402  -2.937  -2.723  1.00  0.00    -0.076 Cl
HETATM   30  S1  UNL     1      -4.151  -4.415  -0.589  1.00  0.00    -0.063 SA
HETATM   31  C21 UNL     1      -4.300  -3.980   1.038  1.00  0.00     0.098 A 
HETATM   32 CL2  UNL     1      -5.263  -4.823   2.267  1.00  0.00    -0.074 Cl
HETATM   33  C22 UNL     1      -3.521  -2.858   1.161  1.00  0.00     0.071 A 
HETATM   34 CL3  UNL     1      -3.345  -2.174   2.821  1.00  0.00    -0.081 Cl
ENDBRANCH   4  27
TORSDOF 11
