REMARK  14 active torsions:
REMARK  status: ('A' for Active; 'I' for Inactive)
REMARK    1  A    between atoms: C3_3  and  C4_4 
REMARK    2  A    between atoms: C4_4  and  O1_5 
REMARK    3  A    between atoms: C6_8  and  C7_9 
REMARK    4  A    between atoms: C11_13  and  O2_14 
REMARK    5  A    between atoms: O2_14  and  C12_15 
REMARK    6  A    between atoms: N1_18  and  C15_19 
REMARK    7  A    between atoms: C15_19  and  C16_20 
REMARK    8  A    between atoms: C16_20  and  C17_21 
REMARK    9  A    between atoms: C17_21  and  C18_22 
REMARK   10  A    between atoms: C18_22  and  C19_25 
REMARK   11  A    between atoms: C21_30  and  C23_32 
REMARK   12  A    between atoms: C23_32  and  O4_34 
REMARK   13  A    between atoms: O4_34  and  C24_35 
REMARK   14  A    between atoms: C24_35  and  C25_36 
ROOT
HETATM    1  C12 UNL     1      -0.181   0.349  -0.134  1.00  0.00     0.150 C 
HETATM    2  C13 UNL     1       0.151   1.280   1.003  1.00  0.00     0.053 C 
HETATM    3  C14 UNL     1       1.364   2.098   0.627  1.00  0.00     0.119 C 
HETATM    4  N1  UNL     1       2.505   1.253   0.681  1.00  0.00    -0.411 N 
HETATM    5  C20 UNL     1       2.195  -0.141   0.567  1.00  0.00     0.138 C 
HETATM    6  C21 UNL     1       1.084  -0.374  -0.479  1.00  0.00     0.086 C 
HETATM    7  C22 UNL     1       1.715   0.066  -1.781  1.00  0.00     0.030 C 
ENDROOT
BRANCH   1   8
HETATM    8  O2  UNL     1      -1.309  -0.420  -0.066  1.00  0.00    -0.343 OA
BRANCH   8   9
HETATM    9  C11 UNL     1      -2.603  -0.109  -0.269  1.00  0.00     0.083 A 
HETATM   10  C6  UNL     1      -3.528  -0.019   0.752  1.00  0.00    -0.016 A 
HETATM   11  C5  UNL     1      -4.840   0.331   0.367  1.00  0.00     0.020 A 
HETATM   12  C3  UNL     1      -5.210   0.572  -0.935  1.00  0.00    -0.028 A 
HETATM   13  C2  UNL     1      -4.281   0.475  -1.935  1.00  0.00    -0.045 A 
HETATM   14  C1  UNL     1      -4.612   0.721  -3.367  1.00  0.00     0.049 C 
HETATM   15  C28 UNL     1      -2.997   0.139  -1.601  1.00  0.00    -0.021 A 
HETATM   16  C29 UNL     1      -2.001   0.009  -2.683  1.00  0.00     0.052 C 
BRANCH  10  17
HETATM   17  C7  UNL     1      -3.223  -0.312   2.131  1.00  0.00    -0.021 C 
HETATM   18  C8  UNL     1      -2.633  -1.742   2.295  1.00  0.00     0.019 C 
HETATM   19  C9  UNL     1      -2.661   0.634   3.071  1.00  0.00     0.019 C 
HETATM   20  C10 UNL     1      -4.664  -0.611   2.772  1.00  0.00     0.019 C 
ENDBRANCH  10  17
BRANCH  12  21
HETATM   21  C4  UNL     1      -6.601   0.936  -1.298  1.00  0.00     0.203 C 
BRANCH  21  22
HETATM   22  O1  UNL     1      -7.419   0.993  -0.170  1.00  0.00    -0.396 OA
ATOM     23  H1  UNL     1      -8.310   1.226  -0.403  1.00  0.00     0.209 HD
ENDBRANCH  21  22
ENDBRANCH  12  21
ENDBRANCH   8   9
ENDBRANCH   1   8
BRANCH   6  24
HETATM   24  C23 UNL     1       0.930  -1.865  -0.597  1.00  0.00     0.271 C 
HETATM   25  O3  UNL     1      -0.190  -2.352  -0.390  1.00  0.00    -0.264 OA
BRANCH  24  26
HETATM   26  O4  UNL     1       1.939  -2.689  -0.913  1.00  0.00    -0.320 OA
BRANCH  26  27
HETATM   27  C24 UNL     1       2.168  -4.001  -1.092  1.00  0.00     0.182 C 
BRANCH  27  28
HETATM   28  C25 UNL     1       2.056  -4.980   0.018  1.00  0.00     0.002 C 
HETATM   29  C26 UNL     1       2.434  -6.383  -0.554  1.00  0.00     0.011 C 
HETATM   30  C27 UNL     1       0.662  -5.189   0.549  1.00  0.00     0.011 C 
ENDBRANCH  27  28
ENDBRANCH  26  27
ENDBRANCH  24  26
ENDBRANCH   6  24
BRANCH   4  31
HETATM   31  C15 UNL     1       3.656   1.705  -0.020  1.00  0.00     0.117 C 
BRANCH  31  32
HETATM   32  C16 UNL     1       4.198   2.933   0.692  1.00  0.00     0.026 C 
BRANCH  32  33
HETATM   33  C17 UNL     1       5.430   3.475   0.006  1.00  0.00     0.090 C 
BRANCH  33  34
HETATM   34  C18 UNL     1       5.885   4.689   0.790  1.00  0.00     0.339 C 
HETATM   35  F1  UNL     1       6.191   4.381   2.090  1.00  0.00    -0.196 F 
HETATM   36  F2  UNL     1       4.871   5.652   0.834  1.00  0.00    -0.196 F 
BRANCH  34  37
HETATM   37  C19 UNL     1       7.061   5.377   0.100  1.00  0.00     0.454 C 
HETATM   38  F3  UNL     1       8.116   4.520  -0.008  1.00  0.00    -0.165 F 
HETATM   39  F4  UNL     1       7.431   6.463   0.839  1.00  0.00    -0.165 F 
HETATM   40  F5  UNL     1       6.667   5.789  -1.152  1.00  0.00    -0.165 F 
ENDBRANCH  34  37
ENDBRANCH  33  34
ENDBRANCH  32  33
ENDBRANCH  31  32
ENDBRANCH   4  31
TORSDOF 14
