REMARK  10 active torsions:
REMARK  status: ('A' for Active; 'I' for Inactive)
REMARK    1  A    between atoms: C2_2  and  C3_3 
REMARK    2  A    between atoms: C2_2  and  C19_26 
REMARK    3  A    between atoms: C2_2  and  N1_29 
REMARK    4  A    between atoms: C3_3  and  C4_4 
REMARK    5  A    between atoms: C7_7  and  O1_8 
REMARK    6  A    between atoms: O1_8  and  C8_9 
REMARK    7  A    between atoms: C8_9  and  C9_10 
REMARK    8  A    between atoms: C9_10  and  C10_11 
REMARK    9  A    between atoms: C10_11  and  O2_12 
REMARK   10  A    between atoms: O2_12  and  C11_13 
ROOT
HETATM    1  C4  UNL     1      -1.582   0.164  -0.168  1.00  0.00    -0.032 A 
HETATM    2  C5  UNL     1      -1.003   0.485   1.078  1.00  0.00     0.012 A 
HETATM    3  C6  UNL     1       0.317   0.276   1.367  1.00  0.00     0.039 A 
HETATM    4  C7  UNL     1       1.170  -0.272   0.437  1.00  0.00     0.092 A 
HETATM    5  C17 UNL     1       0.643  -0.595  -0.786  1.00  0.00     0.089 A 
HETATM    6 CL4  UNL     1       1.655  -1.297  -2.032  1.00  0.00    -0.080 Cl
HETATM    7  C18 UNL     1      -0.706  -0.377  -1.075  1.00  0.00     0.065 A 
HETATM    8 CL5  UNL     1      -1.290  -0.729  -2.709  1.00  0.00    -0.082 Cl
ENDROOT
BRANCH   4   9
HETATM    9  O1  UNL     1       2.516  -0.492   0.716  1.00  0.00    -0.349 OA
BRANCH   9  10
HETATM   10  C8  UNL     1       3.005  -0.139   1.994  1.00  0.00     0.178 C 
BRANCH  10  11
HETATM   11  C9  UNL     1       4.464  -0.437   2.125  1.00  0.00     0.053 C 
BRANCH  11  12
HETATM   12  C10 UNL     1       5.219   0.355   1.080  1.00  0.00     0.178 C 
BRANCH  12  13
HETATM   13  O2  UNL     1       6.620   0.112   1.162  1.00  0.00    -0.348 OA
BRANCH  13  14
HETATM   14  C11 UNL     1       7.423   0.784   0.251  1.00  0.00     0.112 A 
HETATM   15  C12 UNL     1       7.943   2.029   0.541  1.00  0.00     0.070 A 
HETATM   16 CL1  UNL     1       7.569   2.746   2.083  1.00  0.00    -0.081 Cl
HETATM   17  C13 UNL     1       8.740   2.729  -0.327  1.00  0.00     0.050 A 
HETATM   18  C14 UNL     1       9.036   2.164  -1.546  1.00  0.00     0.037 A 
HETATM   19 CL2  UNL     1      10.040   2.953  -2.740  1.00  0.00    -0.084 Cl
HETATM   20  C15 UNL     1       8.523   0.902  -1.869  1.00  0.00     0.050 A 
HETATM   21  C16 UNL     1       7.724   0.213  -0.985  1.00  0.00     0.070 A 
HETATM   22 CL3  UNL     1       7.075  -1.374  -1.382  1.00  0.00    -0.081 Cl
ENDBRANCH  13  14
ENDBRANCH  12  13
ENDBRANCH  11  12
ENDBRANCH  10  11
ENDBRANCH   9  10
ENDBRANCH   4   9
BRANCH   1  23
HETATM   23  C3  UNL     1      -3.010   0.388  -0.337  1.00  0.00     0.093 C 
BRANCH  23  24
HETATM   24  C2  UNL     1      -3.920  -0.731   0.009  1.00  0.00     0.246 C 
HETATM   25  C1  UNL     1      -3.712  -1.985  -0.779  1.00  0.00     0.062 C 
BRANCH  24  26
HETATM   26  C19 UNL     1      -3.738  -1.087   1.463  1.00  0.00     0.213 C 
HETATM   27  O3  UNL     1      -2.802  -1.817   1.866  1.00  0.00    -0.646 OA
HETATM   28  O4  UNL     1      -4.633  -0.591   2.386  1.00  0.00    -0.646 OA
ENDBRANCH  24  26
BRANCH  24  29
HETATM   29  N1  UNL     1      -5.309  -0.258  -0.102  1.00  0.00     0.113 N 
HETATM   30  C20 UNL     1      -5.640   0.133  -1.470  1.00  0.00     0.300 C 
HETATM   31  C21 UNL     1      -7.114   0.575  -1.391  1.00  0.00     0.198 C 
HETATM   32  O5  UNL     1      -7.950  -0.433  -0.983  1.00  0.00    -0.388 OA
HETATM   33  C22 UNL     1      -7.573  -0.860   0.310  1.00  0.00     0.198 C 
HETATM   34  C23 UNL     1      -6.173  -1.411   0.152  1.00  0.00     0.300 C 
ENDBRANCH  24  29
ENDBRANCH  23  24
ENDBRANCH   1  23
TORSDOF 10
