REMARK  4 active torsions:
REMARK  status: ('A' for Active; 'I' for Inactive)
REMARK    1  A    between atoms: N1_1  and  C1_5 
REMARK    2  A    between atoms: C1_5  and  C2_6 
REMARK    3  A    between atoms: C2_6  and  N2_7 
REMARK    4  A    between atoms: N2_7  and  C3_9 
ROOT
HETATM    1  C3  UNL     1      -0.519  -0.587  -0.106  1.00  0.00     0.677 A 
HETATM    2  N3  UNL     1      -1.315  -1.587   0.057  1.00  0.00    -0.210 N 
ATOM      3  H3  UNL     1      -0.900  -2.518   0.092  1.00  0.00     0.179 HD
HETATM    4  C4  UNL     1      -2.744  -1.490   0.193  1.00  0.00     0.264 A 
HETATM    5  N4  UNL     1      -3.253  -0.152   0.135  1.00  0.00    -0.347 N 
ATOM      6  H4  UNL     1      -4.261  -0.024   0.226  1.00  0.00     0.163 HD
HETATM    7  C5  UNL     1      -2.526   0.905  -0.025  1.00  0.00     0.204 A 
HETATM    8  N5  UNL     1      -3.130   2.187  -0.069  1.00  0.00    -0.063 NA
HETATM    9  N6  UNL     1      -1.125   0.697  -0.150  1.00  0.00    -0.164 N 
ATOM     10  H6  UNL     1      -0.524   1.511  -0.278  1.00  0.00     0.187 HD
ENDROOT
BRANCH   1  11
HETATM   11  N2  UNL     1       0.882  -0.786  -0.232  1.00  0.00    -0.225 N 
ATOM     12  H2  UNL     1       1.275  -1.674   0.081  1.00  0.00     0.177 HD
BRANCH  11  13
HETATM   13  C2  UNL     1       1.774   0.200  -0.778  1.00  0.00     0.165 C 
BRANCH  13  14
HETATM   14  C1  UNL     1       3.209  -0.295  -0.780  1.00  0.00     0.249 C 
BRANCH  14  15
HETATM   15  N1  UNL     1       3.648  -0.591   0.570  1.00  0.00    -0.078 N 
ATOM     16  H13 UNL     1       3.524   0.208   1.192  1.00  0.00     0.274 HD
ATOM     17  H12 UNL     1       3.022  -1.247   1.037  1.00  0.00     0.274 HD
ATOM     18  H11 UNL     1       4.612  -0.924   0.569  1.00  0.00     0.274 HD
ENDBRANCH  14  15
ENDBRANCH  13  14
ENDBRANCH  11  13
ENDBRANCH   1  11
TORSDOF 4
