REMARK  4 active torsions:
REMARK  status: ('A' for Active; 'I' for Inactive)
REMARK    1  A    between atoms: C2_2  and  O1_3 
REMARK    2  A    between atoms: C2_2  and  N1_5 
REMARK    3  A    between atoms: N1_5  and  N2_6 
REMARK    4  A    between atoms: N2_6  and  C4_8 
ROOT
HETATM    1  C4  UNL     1       1.190   0.171  -0.223  1.00  0.00     0.206 C 
HETATM    2  N3  UNL     1       1.283   1.259   0.467  1.00  0.00    -0.345 N 
ATOM      3  H3  UNL     1       0.487   1.826   0.759  1.00  0.00     0.164 HD
HETATM    4  C5  UNL     1       2.655   1.567   0.771  1.00  0.00     0.259 C 
HETATM    5  N4  UNL     1       3.337   0.312   0.564  1.00  0.00    -0.119 NA
HETATM    6  N5  UNL     1       2.545  -0.281  -0.393  1.00  0.00    -0.273 N 
ATOM      7  H5  UNL     1       2.867  -0.935  -1.107  1.00  0.00     0.185 HD
ENDROOT
BRANCH   1   8
HETATM    8  N2  UNL     1       0.011  -0.455  -0.712  1.00  0.00    -0.267 N 
HETATM    9  C3  UNL     1      -0.033  -1.891  -0.791  1.00  0.00     0.176 C 
BRANCH   8  10
HETATM   10  N1  UNL     1      -1.099   0.275  -1.114  1.00  0.00    -0.105 NA
BRANCH  10  11
HETATM   11  C2  UNL     1      -1.989   0.618  -0.046  1.00  0.00     0.227 C 
HETATM   12  C1  UNL     1      -2.554  -0.588   0.674  1.00  0.00     0.060 C 
BRANCH  11  13
HETATM   13  O1  UNL     1      -3.074   1.301  -0.605  1.00  0.00    -0.378 OA
ATOM     14  H1  UNL     1      -2.719   2.058  -1.057  1.00  0.00     0.211 HD
ENDBRANCH  11  13
ENDBRANCH  10  11
ENDBRANCH   8  10
ENDBRANCH   1   8
TORSDOF 4
