REMARK  6 active torsions:
REMARK  status: ('A' for Active; 'I' for Inactive)
REMARK    1  A    between atoms: N1_1  and  C1_4 
REMARK    2  A    between atoms: C1_4  and  C2_5 
REMARK    3  A    between atoms: C2_5  and  C3_6 
REMARK    4  A    between atoms: C3_6  and  N2_7 
REMARK    5  A    between atoms: N2_7  and  N3_9 
REMARK    6  A    between atoms: N3_9  and  C4_11 
ROOT
HETATM    1  N3  UNL     1      -0.868  -0.518  -0.727  1.00  0.00    -0.134 N 
ATOM      2  H3  UNL     1      -1.052  -1.333  -1.312  1.00  0.00     0.205 HD
ENDROOT
BRANCH   1   3
HETATM    3  N2  UNL     1       0.400   0.044  -0.694  1.00  0.00    -0.321 N 
ATOM      4  H2  UNL     1       0.522   1.039  -0.503  1.00  0.00     0.180 HD
BRANCH   3   5
HETATM    5  C3  UNL     1       1.541  -0.802  -0.934  1.00  0.00     0.152 C 
BRANCH   5   6
HETATM    6  C2  UNL     1       2.818  -0.091  -0.872  1.00  0.00     0.125 C 
BRANCH   6   7
HETATM    7  C1  UNL     1       3.498  -0.008   0.263  1.00  0.00    -0.076 C 
BRANCH   7   8
HETATM    8  N1  UNL     1       4.007   0.367   1.383  1.00  0.00    -0.370 N 
ATOM      9  H12 UNL     1       3.509   1.257   1.374  1.00  0.00     0.165 HD
ATOM     10  H11 UNL     1       4.530   0.431   2.256  1.00  0.00     0.165 HD
ENDBRANCH   7   8
ENDBRANCH   6   7
ENDBRANCH   5   6
ENDBRANCH   3   5
ENDBRANCH   1   3
BRANCH   1  11
HETATM   11  C4  UNL     1      -1.831   0.003  -0.002  1.00  0.00     0.728 A 
HETATM   12  N4  UNL     1      -1.711   1.071   0.805  1.00  0.00    -0.114 N 
HETATM   13  N5  UNL     1      -2.898   1.264   1.342  1.00  0.00    -0.213 N 
ATOM     14  H4  UNL     1      -0.869   1.622   0.969  1.00  0.00     0.207 HD
HETATM   15  N6  UNL     1      -3.755   0.359   0.905  1.00  0.00    -0.213 N 
ATOM     16  H5  UNL     1      -3.124   2.008   2.002  1.00  0.00     0.210 HD
HETATM   17  N7  UNL     1      -3.101  -0.412   0.082  1.00  0.00    -0.114 N 
ATOM     18  H6  UNL     1      -4.739   0.279   1.162  1.00  0.00     0.210 HD
ATOM     19  H7  UNL     1      -3.496  -1.208  -0.420  1.00  0.00     0.207 HD
ENDBRANCH   1  11
TORSDOF 6
