REMARK  5 active torsions:
REMARK  status: ('A' for Active; 'I' for Inactive)
REMARK    1  A    between atoms: N1_2  and  C2_5 
REMARK    2  A    between atoms: C2_5  and  O1_6 
REMARK    3  A    between atoms: C2_5  and  C3_8 
REMARK    4  A    between atoms: C3_8  and  N2_9 
REMARK    5  A    between atoms: C3_8  and  C4_13 
ROOT
HETATM    1  C3  UNL     1      -0.363  -1.015   0.571  1.00  0.00     0.308 C 
ENDROOT
BRANCH   1   2
HETATM    2  C2  UNL     1       0.724  -0.033   0.857  1.00  0.00     0.356 C 
BRANCH   2   3
HETATM    3  N1  UNL     1       1.381   0.505  -0.301  1.00  0.00    -0.050 N 
HETATM    4  C1  UNL     1       2.800   0.724   0.041  1.00  0.00     0.270 C 
ATOM      5  H12 UNL     1       0.927   1.346  -0.658  1.00  0.00     0.279 HD
ATOM      6  H11 UNL     1       1.260  -0.077  -1.130  1.00  0.00     0.279 HD
ENDBRANCH   2   3
BRANCH   2   7
HETATM    7  O1  UNL     1       0.157   1.069   1.541  1.00  0.00    -0.368 OA
ATOM      8  H1  UNL     1      -0.278   0.713   2.307  1.00  0.00     0.212 HD
ENDBRANCH   2   7
ENDBRANCH   1   2
BRANCH   1   9
HETATM    9  N2  UNL     1       0.049  -2.180  -0.120  1.00  0.00    -0.064 N 
ATOM     10  H23 UNL     1       0.530  -1.926  -0.983  1.00  0.00     0.275 HD
ATOM     11  H22 UNL     1       0.812  -2.635   0.381  1.00  0.00     0.275 HD
ATOM     12  H21 UNL     1      -0.694  -2.851  -0.315  1.00  0.00     0.275 HD
ENDBRANCH   1   9
BRANCH   1  13
HETATM   13  C4  UNL     1      -1.557  -0.368  -0.085  1.00  0.00     0.148 A 
HETATM   14  N3  UNL     1      -1.812  -0.216  -1.379  1.00  0.00    -0.270 N 
HETATM   15  N4  UNL     1      -2.962   0.420  -1.500  1.00  0.00    -0.227 N 
ATOM     16  H3  UNL     1      -1.221  -0.535  -2.147  1.00  0.00     0.190 HD
HETATM   17  N5  UNL     1      -3.459   0.682  -0.283  1.00  0.00    -0.227 N 
ATOM     18  H4  UNL     1      -3.404   0.673  -2.383  1.00  0.00     0.210 HD
HETATM   19  N6  UNL     1      -2.588   0.194   0.572  1.00  0.00    -0.270 N 
ATOM     20  H5  UNL     1      -4.333   1.161  -0.065  1.00  0.00     0.210 HD
ATOM     21  H6  UNL     1      -2.680   0.235   1.587  1.00  0.00     0.190 HD
ENDBRANCH   1  13
TORSDOF 5
