REMARK  5 active torsions:
REMARK  status: ('A' for Active; 'I' for Inactive)
REMARK    1  A    between atoms: N1_1  and  N2_4 
REMARK    2  A    between atoms: N2_4  and  C1_6 
REMARK    3  A    between atoms: C3_12  and  C4_13 
REMARK    4  A    between atoms: C4_13  and  N5_14 
REMARK    5  A    between atoms: C4_13  and  C5_18 
ROOT
HETATM    1  C1  UNL     1       0.891   0.304   0.267  1.00  0.00     0.146 A 
HETATM    2  N3  UNL     1       1.675   1.409   0.266  1.00  0.00    -0.336 N 
ATOM      3  H3  UNL     1       2.691   1.396   0.352  1.00  0.00     0.168 HD
HETATM    4  C2  UNL     1       0.931   2.535   0.136  1.00  0.00     0.182 A 
HETATM    5  N4  UNL     1      -0.332   2.118   0.058  1.00  0.00    -0.351 N 
ATOM      6  H4  UNL     1      -1.142   2.730  -0.043  1.00  0.00     0.166 HD
HETATM    7  C3  UNL     1      -0.390   0.756   0.132  1.00  0.00     0.093 A 
ENDROOT
BRANCH   7   8
HETATM    8  C4  UNL     1      -1.636  -0.055   0.077  1.00  0.00     0.297 C 
BRANCH   8   9
HETATM    9  N5  UNL     1      -1.815  -0.551  -1.246  1.00  0.00    -0.063 N 
ATOM     10  H53 UNL     1      -1.807   0.194  -1.943  1.00  0.00     0.275 HD
ATOM     11  H52 UNL     1      -1.001  -1.069  -1.579  1.00  0.00     0.275 HD
ATOM     12  H51 UNL     1      -2.669  -1.107  -1.284  1.00  0.00     0.275 HD
ENDBRANCH   8   9
BRANCH   8  13
HETATM   13  C5  UNL     1      -1.685  -1.129   1.073  1.00  0.00     0.270 C 
HETATM   14  O1  UNL     1      -1.538  -0.851   2.251  1.00  0.00    -0.304 OA
ENDBRANCH   8  13
ENDBRANCH   7   8
BRANCH   1  15
HETATM   15  N2  UNL     1       1.318  -1.060   0.379  1.00  0.00    -0.290 N 
ATOM     16  H2  UNL     1       1.177  -1.569   1.252  1.00  0.00     0.188 HD
BRANCH  15  17
HETATM   17  N1  UNL     1       1.931  -1.696  -0.714  1.00  0.00    -0.344 N 
ATOM     18  H12 UNL     1       2.065  -1.173  -1.580  1.00  0.00     0.176 HD
ATOM     19  H11 UNL     1       2.235  -2.666  -0.634  1.00  0.00     0.176 HD
ENDBRANCH  15  17
ENDBRANCH   1  15
TORSDOF 5
