REMARK  6 active torsions:
REMARK  status: ('A' for Active; 'I' for Inactive)
REMARK    1  A    between atoms: C2_2  and  C3_3 
REMARK    2  A    between atoms: C3_3  and  N1_6 
REMARK    3  A    between atoms: N1_6  and  N2_7 
REMARK    4  A    between atoms: N2_7  and  C6_9 
REMARK    5  A    between atoms: C9_12  and  S1_13 
REMARK    6  A    between atoms: S1_13  and  N3_14 
ROOT
HETATM    1  C6  UNL     1       0.737   0.250   0.108  1.00  0.00     0.044 A 
HETATM    2  C7  UNL     1       1.373  -0.390   1.151  1.00  0.00     0.032 A 
HETATM    3  C8  UNL     1       2.738  -0.586   1.155  1.00  0.00     0.027 A 
HETATM    4  C9  UNL     1       3.503  -0.145   0.115  1.00  0.00     0.079 A 
HETATM    5  C10 UNL     1       2.845   0.498  -0.925  1.00  0.00     0.027 A 
HETATM    6  C11 UNL     1       1.487   0.702  -0.949  1.00  0.00     0.032 A 
ENDROOT
BRANCH   1   7
HETATM    7  N2  UNL     1      -0.672   0.452   0.100  1.00  0.00    -0.303 N 
ATOM      8  H2  UNL     1      -1.102   1.275   0.522  1.00  0.00     0.182 HD
BRANCH   7   9
HETATM    9  N1  UNL     1      -1.437  -0.552  -0.526  1.00  0.00    -0.127 NA
BRANCH   9  10
HETATM   10  C3  UNL     1      -2.846  -0.361  -0.299  1.00  0.00     0.060 C 
HETATM   11  C4  UNL     1      -3.573  -1.459  -1.067  1.00  0.00     0.040 C 
HETATM   12  C5  UNL     1      -3.082  -0.479   1.194  1.00  0.00     0.040 C 
BRANCH  10  13
HETATM   13  C2  UNL     1      -3.255   0.948  -0.817  1.00  0.00    -0.009 C 
HETATM   14  C1  UNL     1      -4.519   1.329  -0.783  1.00  0.00     0.009 C 
ENDBRANCH  10  13
ENDBRANCH   9  10
ENDBRANCH   7   9
ENDBRANCH   1   7
BRANCH   4  15
HETATM   15  S1  UNL     1       5.249  -0.353   0.042  1.00  0.00     0.256 S 
HETATM   16  O1  UNL     1       5.625  -1.597   0.783  1.00  0.00    -0.201 OA
HETATM   17  O2  UNL     1       5.632  -0.431  -1.406  1.00  0.00    -0.201 OA
BRANCH  15  18
HETATM   18  N3  UNL     1       5.933   1.056   0.800  1.00  0.00    -0.324 N 
ATOM     19  H32 UNL     1       5.414   1.837   1.201  1.00  0.00     0.169 HD
ATOM     20  H31 UNL     1       6.945   0.935   0.758  1.00  0.00     0.169 HD
ENDBRANCH  15  18
ENDBRANCH   4  15
TORSDOF 6
