REMARK  8 active torsions:
REMARK  status: ('A' for Active; 'I' for Inactive)
REMARK    1  A    between atoms: C2_2  and  C3_3 
REMARK    2  A    between atoms: C3_3  and  C4_4 
REMARK    3  A    between atoms: C4_4  and  C5_5 
REMARK    4  A    between atoms: C6_6  and  C7_7 
REMARK    5  A    between atoms: C7_7  and  N1_8 
REMARK    6  A    between atoms: N1_8  and  N2_10 
REMARK    7  A    between atoms: N4_16  and  C9_17 
REMARK    8  A    between atoms: C9_17  and  C10_18 
ROOT
HETATM    1  C5  UNL     1      -0.770   0.391  -0.682  1.00  0.00     0.060 A 
HETATM    2  C6  UNL     1      -0.953   1.805  -0.748  1.00  0.00     0.026 A 
HETATM    3  C8  UNL     1       0.030   2.299  -1.553  1.00  0.00     0.122 A 
HETATM    4  N3  UNL     1       0.771   1.312  -1.964  1.00  0.00    -0.308 N 
ATOM      5  H3  UNL     1       1.579   1.398  -2.581  1.00  0.00     0.186 HD
HETATM    6  N4  UNL     1       0.297   0.138  -1.439  1.00  0.00    -0.288 N 
ENDROOT
BRANCH   6   7
HETATM    7  C9  UNL     1       1.074  -1.049  -1.724  1.00  0.00     0.187 C 
BRANCH   7   8
HETATM    8  C10 UNL     1       2.303  -1.002  -0.869  1.00  0.00    -0.038 A 
HETATM    9  C11 UNL     1       3.323  -0.096  -1.210  1.00  0.00     0.009 A 
HETATM   10  C12 UNL     1       4.470  -0.043  -0.462  1.00  0.00     0.001 A 
HETATM   11  C13 UNL     1       4.597  -0.885   0.614  1.00  0.00     0.000 A 
HETATM   12  C14 UNL     1       3.609  -1.778   0.962  1.00  0.00     0.001 A 
HETATM   13  C15 UNL     1       2.439  -1.831   0.196  1.00  0.00     0.009 A 
ENDBRANCH   7   8
ENDBRANCH   6   7
BRANCH   1  14
HETATM   14  C4  UNL     1      -1.569  -0.403  -0.019  1.00  0.00     0.005 C 
BRANCH  14  15
HETATM   15  C3  UNL     1      -1.480  -1.833   0.108  1.00  0.00     0.029 C 
BRANCH  15  16
HETATM   16  C2  UNL     1      -2.709  -2.420   0.833  1.00  0.00    -0.001 C 
HETATM   17  C1  UNL     1      -2.863  -1.875   2.204  1.00  0.00     0.005 C 
ENDBRANCH  15  16
ENDBRANCH  14  15
ENDBRANCH   1  14
BRANCH   2  18
HETATM   18  C7  UNL     1      -1.900   2.495  -0.138  1.00  0.00     0.121 C 
BRANCH  18  19
HETATM   19  N1  UNL     1      -1.937   3.902  -0.312  1.00  0.00    -0.318 N 
ATOM     20  H1  UNL     1      -1.909   4.270  -1.263  1.00  0.00     0.185 HD
BRANCH  19  21
HETATM   21  N2  UNL     1      -2.010   4.811   0.744  1.00  0.00    -0.345 N 
ATOM     22  H22 UNL     1      -2.038   4.425   1.688  1.00  0.00     0.176 HD
ATOM     23  H21 UNL     1      -2.037   5.823   0.619  1.00  0.00     0.176 HD
ENDBRANCH  19  21
ENDBRANCH  18  19
ENDBRANCH   2  18
TORSDOF 8
