REMARK  6 active torsions:
REMARK  status: ('A' for Active; 'I' for Inactive)
REMARK    1  A    between atoms: C7_7  and  C8_8 
REMARK    2  A    between atoms: C8_8  and  N1_9 
REMARK    3  A    between atoms: C8_8  and  C11_17 
REMARK    4  A    between atoms: N1_9  and  C9_11 
REMARK    5  A    between atoms: C9_11  and  C10_12 
REMARK    6  A    between atoms: C10_12  and  N2_13 
ROOT
HETATM    1  C8  UNL     1       0.516   0.145   0.054  1.00  0.00     0.164 C 
ENDROOT
BRANCH   1   2
HETATM    2  C7  UNL     1      -0.795  -0.474  -0.180  1.00  0.00    -0.024 A 
HETATM    3  C2  UNL     1      -1.396  -1.317   0.708  1.00  0.00    -0.053 A 
HETATM    4  C1  UNL     1      -0.688  -1.649   1.954  1.00  0.00     0.049 C 
HETATM    5  C3  UNL     1      -2.649  -1.860   0.446  1.00  0.00     0.007 A 
HETATM    6  C4  UNL     1      -3.293  -1.545  -0.720  1.00  0.00     0.001 A 
HETATM    7  C5  UNL     1      -2.716  -0.695  -1.644  1.00  0.00     0.001 A 
HETATM    8  C6  UNL     1      -1.462  -0.170  -1.349  1.00  0.00     0.010 A 
ENDBRANCH   1   2
BRANCH   1   9
HETATM    9  N1  UNL     1       1.172   0.371  -1.183  1.00  0.00    -0.387 N 
ATOM     10  H1  UNL     1       1.399   1.323  -1.469  1.00  0.00     0.159 HD
BRANCH   9  11
HETATM   11  C9  UNL     1       1.511  -0.706  -2.017  1.00  0.00     0.083 C 
BRANCH  11  12
HETATM   12  C10 UNL     1       2.597  -1.633  -1.550  1.00  0.00     0.273 C 
BRANCH  12  13
HETATM   13  N2  UNL     1       2.281  -2.294  -0.314  1.00  0.00    -0.075 N 
ATOM     14  H23 UNL     1       2.045  -1.616   0.411  1.00  0.00     0.274 HD
ATOM     15  H22 UNL     1       1.389  -2.784  -0.382  1.00  0.00     0.274 HD
ATOM     16  H21 UNL     1       3.018  -2.923   0.003  1.00  0.00     0.274 HD
ENDBRANCH  12  13
ENDBRANCH  11  12
ENDBRANCH   9  11
ENDBRANCH   1   9
BRANCH   1  17
HETATM   17  C11 UNL     1       0.290   1.506   0.663  1.00  0.00     0.036 A 
HETATM   18  C12 UNL     1       1.285   2.458   0.709  1.00  0.00     0.027 A 
HETATM   19  C13 UNL     1       1.068   3.706   1.265  1.00  0.00     0.003 A 
HETATM   20  C14 UNL     1      -0.161   4.025   1.788  1.00  0.00     0.017 A 
HETATM   21  C15 UNL     1      -1.140   3.049   1.727  1.00  0.00     0.088 A 
HETATM   22  N3  UNL     1      -0.897   1.843   1.179  1.00  0.00    -0.367 N 
ATOM     23  H3  UNL     1      -1.651   1.157   1.157  1.00  0.00     0.165 HD
ENDBRANCH   1  17
TORSDOF 6
