REMARK  5 active torsions:
REMARK  status: ('A' for Active; 'I' for Inactive)
REMARK    1  A    between atoms: O1_2  and  C2_3 
REMARK    2  A    between atoms: C6_7  and  C7_8 
REMARK    3  A    between atoms: C7_8  and  C8_9 
REMARK    4  A    between atoms: C10_13  and  C11_14 
REMARK    5  A    between atoms: N3_16  and  N4_18 
ROOT
HETATM    1  C8  UNL     1      -0.831  -0.731  -1.345  1.00  0.00    -0.036 A 
HETATM    2  C9  UNL     1      -1.236  -2.021  -1.091  1.00  0.00     0.096 A 
HETATM    3  N1  UNL     1      -2.329  -1.933  -0.320  1.00  0.00    -0.363 N 
ATOM      4  H1  UNL     1      -2.846  -2.742   0.024  1.00  0.00     0.165 HD
HETATM    5  C10 UNL     1      -2.667  -0.662  -0.051  1.00  0.00     0.075 A 
HETATM    6  C12 UNL     1      -1.714   0.103  -0.704  1.00  0.00     0.041 A 
ENDROOT
BRANCH   1   7
HETATM    7  C7  UNL     1       0.363  -0.355  -2.177  1.00  0.00     0.078 C 
BRANCH   7   8
HETATM    8  C6  UNL     1       1.586  -0.249  -1.339  1.00  0.00    -0.051 A 
HETATM    9  C5  UNL     1       2.395  -1.346  -1.131  1.00  0.00     0.007 A 
HETATM   10  C4  UNL     1       3.545  -1.267  -0.350  1.00  0.00     0.003 A 
HETATM   11  C3  UNL     1       3.912  -0.078   0.245  1.00  0.00     0.037 A 
HETATM   12  C2  UNL     1       3.103   1.019   0.038  1.00  0.00     0.068 A 
HETATM   13  C13 UNL     1       1.962   0.934  -0.740  1.00  0.00     0.044 A 
BRANCH  12  14
HETATM   14  O1  UNL     1       3.414   2.232   0.604  1.00  0.00    -0.356 OA
HETATM   15  C1  UNL     1       4.568   2.414   1.419  1.00  0.00     0.210 C 
ENDBRANCH  12  14
ENDBRANCH   7   8
ENDBRANCH   1   7
BRANCH   5  16
HETATM   16  C11 UNL     1      -3.792  -0.183   0.753  1.00  0.00     0.157 C 
HETATM   17  N2  UNL     1      -4.674  -1.106   1.352  1.00  0.00    -0.079 NA
HETATM   18  N3  UNL     1      -3.977   1.072   0.914  1.00  0.00    -0.293 N 
ATOM     19  H3  UNL     1      -3.319   1.710   0.466  1.00  0.00     0.187 HD
BRANCH  18  20
HETATM   20  N4  UNL     1      -5.004   1.624   1.651  1.00  0.00    -0.344 N 
ATOM     21  H42 UNL     1      -5.652   0.971   2.092  1.00  0.00     0.176 HD
ATOM     22  H41 UNL     1      -5.152   2.625   1.779  1.00  0.00     0.176 HD
ENDBRANCH  18  20
ENDBRANCH   5  16
TORSDOF 5
