REMARK  5 active torsions:
REMARK  status: ('A' for Active; 'I' for Inactive)
REMARK    1  A    between atoms: C1_4  and  C2_6 
REMARK    2  A    between atoms: C6_10  and  C7_11 
REMARK    3  A    between atoms: C7_11  and  O1_12 
REMARK    4  A    between atoms: O1_12  and  C8_13 
REMARK    5  A    between atoms: N3_17  and  N4_18 
ROOT
HETATM    1  C2  UNL     1      -3.660  -0.143  -0.141  1.00  0.00     0.005 A 
HETATM    2  C3  UNL     1      -3.816   0.659  -1.244  1.00  0.00     0.015 A 
HETATM    3  C4  UNL     1      -2.675   1.183  -1.848  1.00  0.00     0.002 A 
HETATM    4  C5  UNL     1      -1.441   0.898  -1.347  1.00  0.00     0.009 A 
HETATM    5  C6  UNL     1      -1.283   0.094  -0.242  1.00  0.00    -0.033 A 
HETATM    6  C13 UNL     1      -2.385  -0.431   0.367  1.00  0.00     0.024 A 
ENDROOT
BRANCH   5   7
HETATM    7  C7  UNL     1       0.107  -0.192   0.276  1.00  0.00     0.214 C 
BRANCH   7   8
HETATM    8  O1  UNL     1       1.033   0.466  -0.531  1.00  0.00    -0.345 OA
BRANCH   8   9
HETATM    9  C8  UNL     1       2.404   0.425  -0.349  1.00  0.00     0.086 A 
HETATM   10  C9  UNL     1       3.219   1.122  -1.218  1.00  0.00     0.039 A 
HETATM   11  C10 UNL     1       4.609   1.105  -1.066  1.00  0.00     0.022 A 
HETATM   12  C11 UNL     1       5.191   0.389  -0.040  1.00  0.00     0.115 A 
HETATM   13  N3  UNL     1       4.369  -0.279   0.789  1.00  0.00    -0.283 N 
HETATM   14  C12 UNL     1       3.026  -0.277   0.662  1.00  0.00     0.151 A 
BRANCH  13  15
HETATM   15  N4  UNL     1       4.935  -1.005   1.827  1.00  0.00    -0.339 N 
ATOM     16  H42 UNL     1       5.950  -1.007   1.923  1.00  0.00     0.177 HD
ATOM     17  H41 UNL     1       4.312  -1.512   2.456  1.00  0.00     0.177 HD
ENDBRANCH  13  15
ENDBRANCH   8   9
ENDBRANCH   7   8
ENDBRANCH   5   7
BRANCH   1  18
HETATM   18  C1  UNL     1      -4.811  -0.703   0.512  1.00  0.00     0.120 C 
HETATM   19  N1  UNL     1      -5.992  -0.472   0.088  1.00  0.00    -0.387 N 
ATOM     20  H12 UNL     1      -6.809  -0.870   0.552  1.00  0.00     0.157 HD
ATOM     21  H11 UNL     1      -6.151   0.119  -0.728  1.00  0.00     0.157 HD
HETATM   22  N2  UNL     1      -4.587  -1.536   1.661  1.00  0.00    -0.082 NA
ENDBRANCH   1  18
TORSDOF 5
