REMARK  5 active torsions:
REMARK  status: ('A' for Active; 'I' for Inactive)
REMARK    1  A    between atoms: N3_4  and  C2_6 
REMARK    2  A    between atoms: C6_10  and  C7_11 
REMARK    3  A    between atoms: C7_11  and  N4_12 
REMARK    4  A    between atoms: N4_12  and  C8_14 
REMARK    5  A    between atoms: C8_14  and  C9_15 
ROOT
HETATM    1  C2  UNL     1       3.049   0.158  -0.900  1.00  0.00     0.035 A 
HETATM    2  C3  UNL     1       3.557  -1.040  -1.421  1.00  0.00     0.029 A 
HETATM    3  C4  UNL     1       2.813  -2.196  -1.330  1.00  0.00     0.003 A 
HETATM    4  C5  UNL     1       1.580  -2.156  -0.724  1.00  0.00     0.013 A 
HETATM    5  C6  UNL     1       1.040  -1.023  -0.200  1.00  0.00    -0.019 A 
HETATM    6  C14 UNL     1       1.805   0.154  -0.301  1.00  0.00     0.042 A 
ENDROOT
BRANCH   5   7
HETATM    7  C7  UNL     1      -0.200  -1.039   0.500  1.00  0.00     0.094 C 
BRANCH   7   8
HETATM    8  N4  UNL     1      -1.407  -0.526  -0.111  1.00  0.00    -0.394 N 
ATOM      9  H4  UNL     1      -1.515  -0.082  -1.023  1.00  0.00     0.159 HD
BRANCH   8  10
HETATM   10  C8  UNL     1      -2.435  -0.796   0.892  1.00  0.00     0.159 C 
BRANCH  10  11
HETATM   11  C9  UNL     1      -3.777  -0.301   0.533  1.00  0.00    -0.025 A 
HETATM   12  C10 UNL     1      -4.008   0.940   0.003  1.00  0.00     0.011 A 
HETATM   13  C11 UNL     1      -5.325   1.363  -0.272  1.00  0.00     0.018 A 
HETATM   14  C12 UNL     1      -6.376   0.534  -0.008  1.00  0.00     0.087 A 
HETATM   15  N5  UNL     1      -6.162  -0.677   0.506  1.00  0.00    -0.375 N 
HETATM   16  C13 UNL     1      -4.877  -1.095   0.777  1.00  0.00     0.096 A 
ATOM     17  H5  UNL     1      -6.950  -1.295   0.699  1.00  0.00     0.164 HD
ENDBRANCH  10  11
ENDBRANCH   8  10
ENDBRANCH   7   8
ENDBRANCH   5   7
BRANCH   1  18
HETATM   18  N3  UNL     1       3.917   1.275  -0.942  1.00  0.00    -0.333 N 
HETATM   19  C1  UNL     1       4.530   1.840  -0.018  1.00  0.00     0.201 C 
HETATM   20  N1  UNL     1       5.381   2.951  -0.259  1.00  0.00    -0.066 NA
HETATM   21  N2  UNL     1       4.356   1.501   1.360  1.00  0.00    -0.066 NA
ATOM     22  H3  UNL     1       4.062   1.677  -1.868  1.00  0.00     0.168 HD
ENDBRANCH   1  18
TORSDOF 5
