REMARK  6 active torsions:
REMARK  status: ('A' for Active; 'I' for Inactive)
REMARK    1  A    between atoms: C4_6  and  N2_7 
REMARK    2  A    between atoms: N2_7  and  C5_9 
REMARK    3  A    between atoms: C5_9  and  C6_10 
REMARK       I    between atoms: C6_10  and  N3_12 
REMARK    4  A    between atoms: N3_12  and  C7_14 
REMARK    5  A    between atoms: C8_19  and  C9_20 
REMARK    6  A    between atoms: C9_20  and  C10_21 
ROOT
HETATM    1  C1  UNL     1       7.635  -1.100   0.213  1.00  0.00     0.052 C 
HETATM    2  C2  UNL     1       6.164  -0.965   0.370  1.00  0.00    -0.008 A 
HETATM    3  C3  UNL     1       5.398  -2.006   0.820  1.00  0.00     0.115 A 
HETATM    4  N1  UNL     1       4.069  -1.906   0.968  1.00  0.00    -0.201 N 
ATOM      5  H1  UNL     1       3.520  -2.697   1.305  1.00  0.00     0.183 HD
HETATM    6  C4  UNL     1       3.477  -0.738   0.662  1.00  0.00     0.679 A 
HETATM    7  N6  UNL     1       4.197   0.305   0.218  1.00  0.00    -0.181 N 
ATOM      8  H6  UNL     1       3.721   1.179  -0.006  1.00  0.00     0.185 HD
HETATM    9  C13 UNL     1       5.538   0.224   0.061  1.00  0.00     0.137 A 
HETATM   10  C14 UNL     1       6.315   1.331  -0.412  1.00  0.00     0.118 C 
HETATM   11  N7  UNL     1       6.951   2.226  -0.812  1.00  0.00    -0.190 NA
ENDROOT
BRANCH   6  12
HETATM   12  N2  UNL     1       2.209  -0.630   0.800  1.00  0.00    -0.217 N 
ATOM     13  H2  UNL     1       1.691  -1.440   1.140  1.00  0.00     0.178 HD
BRANCH  12  14
HETATM   14  C5  UNL     1       1.477   0.564   0.504  1.00  0.00     0.241 C 
BRANCH  14  15
HETATM   15  C6  UNL     1       0.657   0.454  -0.718  1.00  0.00     0.241 C 
HETATM   16  O1  UNL     1       0.647  -0.603  -1.384  1.00  0.00    -0.271 OA
HETATM   17  N3  UNL     1      -0.119   1.565  -1.125  1.00  0.00    -0.305 N 
ATOM     18  H3  UNL     1       0.263   2.311  -1.707  1.00  0.00     0.171 HD
BRANCH  17  19
HETATM   19  C7  UNL     1      -1.364   1.573  -0.704  1.00  0.00     0.167 A 
HETATM   20  N4  UNL     1      -2.298   2.500  -0.946  1.00  0.00    -0.279 N 
HETATM   21  N5  UNL     1      -3.455   2.343  -0.455  1.00  0.00    -0.296 N 
ATOM     22  H4  UNL     1      -2.082   3.318  -1.516  1.00  0.00     0.189 HD
HETATM   23  C8  UNL     1      -3.734   1.279   0.285  1.00  0.00     0.070 A 
ATOM     24  H5  UNL     1      -4.178   3.041  -0.630  1.00  0.00     0.187 HD
HETATM   25  S1  UNL     1      -2.230   0.458   0.267  1.00  0.00    -0.038 SA
BRANCH  23  26
HETATM   26  C9  UNL     1      -5.028   0.903   0.955  1.00  0.00     0.070 C 
BRANCH  26  27
HETATM   27  C10 UNL     1      -5.826   0.071  -0.026  1.00  0.00    -0.017 C 
HETATM   28  C11 UNL     1      -7.141  -0.367   0.527  1.00  0.00     0.010 C 
HETATM   29  C12 UNL     1      -4.951  -1.076  -0.464  1.00  0.00     0.010 C 
ENDBRANCH  26  27
ENDBRANCH  23  26
ENDBRANCH  17  19
ENDBRANCH  14  15
ENDBRANCH  12  14
ENDBRANCH   6  12
TORSDOF 6
