REMARK  6 active torsions:
REMARK  status: ('A' for Active; 'I' for Inactive)
REMARK    1  A    between atoms: C2_2  and  N1_4 
REMARK    2  A    between atoms: N1_4  and  C4_6 
REMARK    3  A    between atoms: C5_9  and  N3_10 
REMARK    4  A    between atoms: C11_17  and  N4_18 
REMARK    5  A    between atoms: N4_18  and  C12_20 
REMARK    6  A    between atoms: C12_20  and  C13_21 
ROOT
HETATM    1  C4  UNL     1      -1.181  -1.915  -0.289  1.00  0.00     0.681 A 
HETATM    2  N2  UNL     1      -2.058  -0.912  -0.160  1.00  0.00    -0.177 N 
ATOM      3  H2  UNL     1      -3.056  -1.116  -0.106  1.00  0.00     0.185 HD
HETATM    4  C5  UNL     1      -1.639   0.344  -0.102  1.00  0.00     0.122 A 
HETATM    5  C10 UNL     1      -0.270   0.589  -0.177  1.00  0.00     0.097 A 
HETATM    6  C11 UNL     1       0.614  -0.456  -0.309  1.00  0.00     0.120 A 
HETATM    7  N5  UNL     1       0.164  -1.722  -0.366  1.00  0.00    -0.177 N 
ATOM      8  H5  UNL     1       0.807  -2.508  -0.463  1.00  0.00     0.185 HD
ENDROOT
BRANCH   6   9
HETATM    9  N4  UNL     1       1.897  -0.218  -0.381  1.00  0.00    -0.373 N 
ATOM     10  H4  UNL     1       2.566  -0.982  -0.479  1.00  0.00     0.161 HD
BRANCH   9  11
HETATM   11  C12 UNL     1       2.337   1.137  -0.319  1.00  0.00     0.153 C 
BRANCH  11  12
HETATM   12  C13 UNL     1       3.833   1.282  -0.417  1.00  0.00     0.139 C 
HETATM   13  C14 UNL     1       4.536   0.749   0.813  1.00  0.00     0.034 C 
HETATM   14  C15 UNL     1       6.020   1.083   0.632  1.00  0.00     0.005 C 
HETATM   15  C16 UNL     1       6.486   0.254  -0.553  1.00  0.00     0.026 C 
HETATM   16  C17 UNL     1       5.324  -0.182  -1.404  1.00  0.00     0.168 C 
HETATM   17  O2  UNL     1       4.364   0.783  -1.587  1.00  0.00    -0.384 OA
ENDBRANCH  11  12
ENDBRANCH   9  11
ENDBRANCH   6   9
BRANCH   4  18
HETATM   18  N3  UNL     1      -2.466   1.486   0.039  1.00  0.00    -0.363 N 
HETATM   19  C6  UNL     1      -1.950   2.837   0.052  1.00  0.00     0.150 C 
HETATM   20  C7  UNL     1      -3.137   3.758  -0.261  1.00  0.00     0.187 C 
HETATM   21  O1  UNL     1      -4.113   3.670   0.698  1.00  0.00    -0.388 OA
HETATM   22  C8  UNL     1      -4.377   2.401   1.138  1.00  0.00     0.187 C 
HETATM   23  C9  UNL     1      -3.889   1.316   0.182  1.00  0.00     0.150 C 
ENDBRANCH   4  18
BRANCH   1  24
HETATM   24  N1  UNL     1      -1.611  -3.127  -0.340  1.00  0.00    -0.222 N 
ATOM     25  H1  UNL     1      -0.925  -3.876  -0.438  1.00  0.00     0.178 HD
BRANCH  24  26
HETATM   26  C2  UNL     1      -2.988  -3.484  -0.268  1.00  0.00     0.091 C 
HETATM   27  C1  UNL     1      -3.725  -3.242  -1.571  1.00  0.00     0.032 C 
HETATM   28  C3  UNL     1      -3.035  -4.988   0.062  1.00  0.00     0.032 C 
ENDBRANCH  24  26
ENDBRANCH   1  24
TORSDOF 6
