REMARK  9 active torsions:
REMARK  status: ('A' for Active; 'I' for Inactive)
REMARK    1  A    between atoms: C2_2  and  C3_3 
REMARK    2  A    between atoms: C3_3  and  C4_4 
REMARK    3  A    between atoms: C4_4  and  C5_5 
REMARK    4  A    between atoms: C5_5  and  C6_6 
REMARK    5  A    between atoms: C7_7  and  C8_8 
REMARK    6  A    between atoms: C9_9  and  C10_10 
REMARK    7  A    between atoms: C10_10  and  O1_11 
REMARK    8  A    between atoms: C15_20  and  C16_21 
REMARK    9  A    between atoms: C16_21  and  O5_22 
ROOT
HETATM    1  C10 UNL     1      -2.365  -2.189  -0.381  1.00  0.00     0.197 C 
HETATM    2  C11 UNL     1      -2.392  -3.165   0.748  1.00  0.00     0.241 C 
HETATM    3  O2  UNL     1      -1.909  -4.317   0.473  1.00  0.00    -0.285 OA
HETATM    4  C12 UNL     1      -2.919  -2.854   2.062  1.00  0.00     0.201 C 
HETATM    5  O3  UNL     1      -2.721  -3.631   3.009  1.00  0.00    -0.289 OA
HETATM    6  C13 UNL     1      -3.687  -1.605   2.242  1.00  0.00     0.119 C 
HETATM    7  C14 UNL     1      -3.150  -0.599   1.280  1.00  0.00     0.138 C 
HETATM    8  O4  UNL     1      -3.836   0.587   1.227  1.00  0.00    -0.377 OA
HETATM    9  C15 UNL     1      -3.310   1.177   0.078  1.00  0.00     0.149 C 
HETATM   10  C17 UNL     1      -3.288   0.080  -0.958  1.00  0.00     0.023 C 
HETATM   11  C18 UNL     1      -4.552   0.159  -1.823  1.00  0.00     0.013 C 
HETATM   12  C19 UNL     1      -3.408  -1.157  -0.127  1.00  0.00     0.076 C 
ENDROOT
BRANCH   1  13
HETATM   13  C9  UNL     1      -1.038  -1.593  -0.534  1.00  0.00    -0.045 C 
HETATM   14  C8  UNL     1       0.077  -1.109  -0.648  1.00  0.00    -0.011 C 
BRANCH  14  15
HETATM   15  C7  UNL     1       1.378  -0.567  -0.766  1.00  0.00    -0.015 C 
HETATM   16  C6  UNL     1       2.496  -0.122  -0.859  1.00  0.00    -0.092 C 
BRANCH  16  17
HETATM   17  C5  UNL     1       3.881   0.401  -0.977  1.00  0.00     0.095 C 
BRANCH  17  18
HETATM   18  C4  UNL     1       4.716  -0.178   0.142  1.00  0.00     0.012 C 
BRANCH  18  19
HETATM   19  C3  UNL     1       6.137   0.269   0.133  1.00  0.00     0.000 C 
BRANCH  19  20
HETATM   20  C2  UNL     1       6.175   1.776   0.270  1.00  0.00    -0.005 C 
HETATM   21  C1  UNL     1       7.625   2.218   0.264  1.00  0.00     0.005 C 
ENDBRANCH  19  20
ENDBRANCH  18  19
ENDBRANCH  17  18
ENDBRANCH  16  17
ENDBRANCH  14  15
ENDBRANCH   1  13
BRANCH   1  22
HETATM   22  O1  UNL     1      -2.670  -2.898  -1.551  1.00  0.00    -0.370 OA
ATOM     23  H1  UNL     1      -3.532  -3.285  -1.452  1.00  0.00     0.212 HD
ENDBRANCH   1  22
BRANCH   9  24
HETATM   24  C16 UNL     1      -4.127   2.370  -0.361  1.00  0.00     0.196 C 
BRANCH  24  25
HETATM   25  O5  UNL     1      -4.093   3.283   0.713  1.00  0.00    -0.398 OA
ATOM     26  H5  UNL     1      -4.607   4.033   0.437  1.00  0.00     0.209 HD
ENDBRANCH  24  25
ENDBRANCH   9  24
TORSDOF 9
