REMARK  3 active torsions:
REMARK  status: ('A' for Active; 'I' for Inactive)
REMARK    1  A    between atoms: C2_2  and  C3_3 
REMARK    2  A    between atoms: C6_6  and  C7_7 
REMARK    3  A    between atoms: C7_7  and  N1_8 
ROOT
HETATM    1  N1  UNL     1      -1.963  -0.796  -0.159  1.00  0.00    -0.247 N 
HETATM    2  C8  UNL     1      -2.606  -0.525   0.985  1.00  0.00     0.333 C 
HETATM    3  O1  UNL     1      -2.535  -1.399   1.882  1.00  0.00    -0.246 OA
HETATM    4  N2  UNL     1      -3.339   0.558   1.348  1.00  0.00    -0.271 N 
ATOM      5  H2  UNL     1      -3.579   0.636   2.336  1.00  0.00     0.174 HD
HETATM    6  C9  UNL     1      -3.777   1.528   0.550  1.00  0.00     0.317 C 
HETATM    7  O2  UNL     1      -4.573   2.360   1.053  1.00  0.00    -0.262 OA
HETATM    8  C10 UNL     1      -3.466   1.742  -0.780  1.00  0.00     0.317 C 
HETATM    9  O3  UNL     1      -3.869   2.876  -1.194  1.00  0.00    -0.262 OA
HETATM   10  N3  UNL     1      -2.827   0.946  -1.644  1.00  0.00    -0.271 N 
ATOM     11  H3  UNL     1      -2.763   1.265  -2.611  1.00  0.00     0.174 HD
HETATM   12  C11 UNL     1      -2.257  -0.247  -1.349  1.00  0.00     0.333 C 
HETATM   13  O4  UNL     1      -1.968  -0.931  -2.361  1.00  0.00    -0.246 OA
ENDROOT
BRANCH   1  14
HETATM   14  C7  UNL     1      -0.899  -1.728  -0.113  1.00  0.00     0.177 C 
BRANCH  14  15
HETATM   15  C6  UNL     1       0.439  -1.147   0.166  1.00  0.00    -0.040 A 
HETATM   16  C5  UNL     1       1.241  -0.756  -0.879  1.00  0.00     0.009 A 
HETATM   17  C4  UNL     1       2.508  -0.203  -0.675  1.00  0.00     0.012 A 
HETATM   18  C3  UNL     1       3.010  -0.026   0.594  1.00  0.00    -0.037 A 
HETATM   19  C13 UNL     1       2.186  -0.427   1.650  1.00  0.00     0.012 A 
HETATM   20  C12 UNL     1       0.938  -0.971   1.432  1.00  0.00     0.009 A 
BRANCH  18  21
HETATM   21  C2  UNL     1       4.322   0.545   0.872  1.00  0.00     0.001 C 
HETATM   22  C1  UNL     1       5.142   0.939  -0.057  1.00  0.00     0.012 C 
ENDBRANCH  18  21
ENDBRANCH  14  15
ENDBRANCH   1  14
TORSDOF 3
