REMARK  4 active torsions:
REMARK  status: ('A' for Active; 'I' for Inactive)
REMARK    1  A    between atoms: C5_6  and  S1_7 
REMARK    2  A    between atoms: S1_7  and  N2_10 
REMARK    3  A    between atoms: N2_10  and  S2_12 
REMARK    4  A    between atoms: S2_12  and  N3_13 
ROOT
HETATM    1  N1  UNL     1      -5.687  -0.433  -1.747  1.00  0.00    -0.191 NA
HETATM    2  C1  UNL     1      -4.623  -0.292  -1.312  1.00  0.00     0.099 C 
HETATM    3  C2  UNL     1      -3.312  -0.099  -0.763  1.00  0.00     0.044 A 
HETATM    4  C3  UNL     1      -2.983  -0.455   0.528  1.00  0.00     0.024 A 
HETATM    5  C4  UNL     1      -1.709  -0.250   1.013  1.00  0.00     0.027 A 
HETATM    6  C5  UNL     1      -0.689   0.321   0.240  1.00  0.00     0.080 A 
HETATM    7  C6  UNL     1      -1.035   0.671  -1.046  1.00  0.00     0.027 A 
HETATM    8  C7  UNL     1      -2.331   0.462  -1.537  1.00  0.00     0.024 A 
ENDROOT
BRANCH   6   9
HETATM    9  S1  UNL     1       0.885   0.550   0.937  1.00  0.00     0.272 S 
HETATM   10  O1  UNL     1       1.624   1.696   0.259  1.00  0.00    -0.200 OA
HETATM   11  O2  UNL     1       0.773   0.973   2.395  1.00  0.00    -0.200 OA
BRANCH   9  12
HETATM   12  N2  UNL     1       1.901  -0.817   0.850  1.00  0.00    -0.190 N 
ATOM     13  H2  UNL     1       1.882  -1.601   1.502  1.00  0.00     0.193 HD
BRANCH  12  14
HETATM   14  S2  UNL     1       2.962  -0.683  -0.495  1.00  0.00     0.326 S 
HETATM   15  O3  UNL     1       3.302  -2.029  -1.072  1.00  0.00    -0.182 OA
HETATM   16  O4  UNL     1       2.382   0.135  -1.605  1.00  0.00    -0.182 OA
BRANCH  14  17
HETATM   17  N3  UNL     1       4.429   0.104   0.011  1.00  0.00    -0.311 N 
ATOM     18  H32 UNL     1       4.615   0.429   0.960  1.00  0.00     0.170 HD
ATOM     19  H31 UNL     1       5.059   0.184  -0.787  1.00  0.00     0.170 HD
ENDBRANCH  14  17
ENDBRANCH  12  14
ENDBRANCH   9  12
ENDBRANCH   6   9
TORSDOF 4
