REMARK  3 active torsions:
REMARK  status: ('A' for Active; 'I' for Inactive)
REMARK    1  A    between atoms: C3_7  and  C4_8 
REMARK    2  A    between atoms: C4_8  and  C5_9 
REMARK    3  A    between atoms: C9_13  and  N2_14 
ROOT
HETATM    1  O1  UNL     1      -5.194   0.316  -1.752  1.00  0.00    -0.262 OA
HETATM    2  C1  UNL     1      -4.110   0.284  -1.099  1.00  0.00     0.316 A 
HETATM    3  N1  UNL     1      -2.913  -0.201  -1.659  1.00  0.00    -0.284 N 
ATOM      4  H1  UNL     1      -2.917  -0.538  -2.622  1.00  0.00     0.172 HD
HETATM    5  C2  UNL     1      -1.676  -0.235  -0.907  1.00  0.00     0.275 A 
HETATM    6  O2  UNL     1      -0.674  -0.681  -1.508  1.00  0.00    -0.266 OA
HETATM    7  C3  UNL     1      -1.609   0.227   0.462  1.00  0.00     0.104 A 
HETATM    8  N3  UNL     1      -2.853   0.716   0.997  1.00  0.00    -0.314 N 
ATOM      9  H3  UNL     1      -2.859   1.056   1.959  1.00  0.00     0.169 HD
HETATM   10  C11 UNL     1      -4.066   0.755   0.273  1.00  0.00     0.314 A 
HETATM   11  O5  UNL     1      -5.121   1.192   0.792  1.00  0.00    -0.262 OA
ENDROOT
BRANCH   7  12
HETATM   12  C4  UNL     1      -0.533   0.192   1.209  1.00  0.00     0.046 C 
BRANCH  12  13
HETATM   13  C5  UNL     1       0.789  -0.288   0.911  1.00  0.00    -0.032 A 
HETATM   14  C6  UNL     1       1.127  -1.570   0.566  1.00  0.00     0.011 A 
HETATM   15  C7  UNL     1       2.426  -1.920   0.284  1.00  0.00     0.003 A 
HETATM   16  C8  UNL     1       3.427  -0.974   0.344  1.00  0.00     0.036 A 
HETATM   17  C9  UNL     1       3.124   0.317   0.685  1.00  0.00     0.103 A 
HETATM   18  C10 UNL     1       1.827   0.645   0.962  1.00  0.00     0.047 A 
BRANCH  17  19
HETATM   19  N2  UNL     1       4.120   1.344   0.765  1.00  0.00    -0.116 N 
HETATM   20  O3  UNL     1       3.822   2.512   1.078  1.00  0.00    -0.532 OA
HETATM   21  O4  UNL     1       5.442   1.092   0.501  1.00  0.00    -0.532 OA
ENDBRANCH  17  19
ENDBRANCH  12  13
ENDBRANCH   7  12
TORSDOF 3
