REMARK  4 active torsions:
REMARK  status: ('A' for Active; 'I' for Inactive)
REMARK    1  A    between atoms: C1_2  and  C2_3 
REMARK    2  A    between atoms: C5_6  and  N1_7 
REMARK    3  A    between atoms: N1_7  and  S1_9 
REMARK    4  A    between atoms: S1_9  and  C6_11 
ROOT
HETATM    1  N1  UNL     1      -0.338  -0.259   0.453  1.00  0.00    -0.286 N 
ATOM      2  H1  UNL     1       0.022  -1.071   0.954  1.00  0.00     0.178 HD
ENDROOT
BRANCH   1   3
HETATM    3  C5  UNL     1      -1.624  -0.103   0.290  1.00  0.00     0.127 A 
HETATM    4  C4  UNL     1      -2.524  -1.023   0.785  1.00  0.00     0.053 A 
HETATM    5  C3  UNL     1      -3.902  -0.860   0.612  1.00  0.00     0.038 A 
HETATM    6  C2  UNL     1      -4.350   0.249  -0.069  1.00  0.00     0.085 A 
HETATM    7  N4  UNL     1      -3.432   1.126  -0.538  1.00  0.00    -0.296 N 
HETATM    8  N3  UNL     1      -2.131   0.955  -0.365  1.00  0.00    -0.285 N 
ATOM      9  H4  UNL     1      -3.755   1.950  -1.044  1.00  0.00     0.187 HD
ATOM     10  H3  UNL     1      -1.489   1.652  -0.743  1.00  0.00     0.188 HD
BRANCH   6  11
HETATM   11  C1  UNL     1      -5.773   0.507  -0.300  1.00  0.00     0.289 C 
HETATM   12  O1  UNL     1      -6.588  -0.352   0.164  1.00  0.00    -0.300 OA
ENDBRANCH   6  11
ENDBRANCH   1   3
BRANCH   1  13
HETATM   13  S1  UNL     1       0.762   0.935  -0.194  1.00  0.00     0.153 S 
HETATM   14  O2  UNL     1       0.619   2.190   0.667  1.00  0.00    -0.230 OA
BRANCH  13  15
HETATM   15  C6  UNL     1       2.409   0.316  -0.198  1.00  0.00     0.068 A 
HETATM   16  C7  UNL     1       3.267   0.492   0.887  1.00  0.00     0.029 A 
HETATM   17  C8  UNL     1       4.559   0.009   0.889  1.00  0.00     0.076 A 
HETATM   18  C9  UNL     1       5.029  -0.675  -0.220  1.00  0.00     0.245 A 
HETATM   19  O3  UNL     1       6.205  -1.118  -0.226  1.00  0.00    -0.268 OA
HETATM   20  N2  UNL     1       4.198  -0.841  -1.262  1.00  0.00    -0.332 N 
HETATM   21  C10 UNL     1       2.930  -0.374  -1.280  1.00  0.00     0.114 A 
ATOM     22  H2  UNL     1       4.541  -1.344  -2.080  1.00  0.00     0.168 HD
ENDBRANCH  13  15
ENDBRANCH   1  13
TORSDOF 4
