REMARK  6 active torsions:
REMARK  status: ('A' for Active; 'I' for Inactive)
REMARK    1  A    between atoms: N1_1  and  N2_4 
REMARK    2  A    between atoms: N2_4  and  S1_6 
REMARK    3  A    between atoms: S1_6  and  C1_8 
REMARK    4  A    between atoms: S1_6  and  N4_16 
REMARK    5  A    between atoms: C1_8  and  C2_9 
REMARK    6  A    between atoms: N4_16  and  C7_18 
ROOT
HETATM    1  S1  UNL     1       0.118   1.471  -0.666  1.00  0.00     0.130 S 
HETATM    2  O1  UNL     1       1.238   1.948  -1.546  1.00  0.00    -0.227 OA
ENDROOT
BRANCH   1   3
HETATM    3  N2  UNL     1      -0.741   2.776  -0.382  1.00  0.00    -0.250 N 
ATOM      4  H2  UNL     1      -1.744   2.824  -0.563  1.00  0.00     0.197 HD
BRANCH   3   5
HETATM    5  N1  UNL     1      -0.018   3.853   0.134  1.00  0.00    -0.337 N 
ATOM      6  H12 UNL     1       0.985   3.790   0.309  1.00  0.00     0.177 HD
ATOM      7  H11 UNL     1      -0.570   4.691   0.316  1.00  0.00     0.177 HD
ENDBRANCH   3   5
ENDBRANCH   1   3
BRANCH   1   8
HETATM    8  C1  UNL     1       0.813   0.973   0.886  1.00  0.00     0.198 C 
BRANCH   8   9
HETATM    9  C2  UNL     1       1.714  -0.200   0.642  1.00  0.00     0.023 A 
HETATM   10  C3  UNL     1       3.021   0.043   0.363  1.00  0.00     0.026 A 
HETATM   11  C4  UNL     1       3.862  -1.007   0.137  1.00  0.00     0.003 A 
HETATM   12  C5  UNL     1       3.350  -2.296   0.199  1.00  0.00     0.017 A 
HETATM   13  C6  UNL     1       2.026  -2.491   0.483  1.00  0.00     0.088 A 
HETATM   14  N3  UNL     1       1.212  -1.444   0.703  1.00  0.00    -0.368 N 
ATOM     15  H3  UNL     1       0.225  -1.593   0.914  1.00  0.00     0.165 HD
ENDBRANCH   8   9
ENDBRANCH   1   8
BRANCH   1  16
HETATM   16  N4  UNL     1      -0.763   0.201  -1.332  1.00  0.00    -0.284 N 
ATOM     17  H4  UNL     1      -0.354  -0.221  -2.166  1.00  0.00     0.178 HD
BRANCH  16  18
HETATM   18  C7  UNL     1      -1.862  -0.311  -0.951  1.00  0.00     0.129 A 
HETATM   19  C8  UNL     1      -2.407  -1.369  -1.670  1.00  0.00     0.137 A 
HETATM   20  N5  UNL     1      -3.566  -1.945  -1.308  1.00  0.00    -0.371 N 
HETATM   21  C9  UNL     1      -4.247  -1.518  -0.231  1.00  0.00     0.104 A 
ATOM     22  H5  UNL     1      -3.935  -2.719  -1.860  1.00  0.00     0.164 HD
HETATM   23  C10 UNL     1      -3.720  -0.471   0.491  1.00  0.00     0.106 A 
HETATM   24  N6  UNL     1      -2.541   0.115   0.123  1.00  0.00    -0.349 N 
ATOM     25  H6  UNL     1      -2.172   0.889   0.675  1.00  0.00     0.167 HD
ENDBRANCH  16  18
ENDBRANCH   1  16
TORSDOF 6
