REMARK  2 active torsions:
REMARK  status: ('A' for Active; 'I' for Inactive)
REMARK    1  A    between atoms: O1_2  and  C2_3 
REMARK    2  A    between atoms: C3_4  and  O2_5 
ROOT
HETATM    1  O2  UNL     1       2.458   1.506   2.192  1.00  0.00    -0.247 OA
HETATM    2  C4  UNL     1       3.555   1.482   3.007  1.00  0.00     0.231 C 
HETATM    3  N1  UNL     1       4.491   1.448   3.686  1.00  0.00    -0.164 NA
ENDROOT
BRANCH   1   4
HETATM    4  C3  UNL     1       1.887   0.287   1.822  1.00  0.00     0.315 C 
HETATM    5  C2  UNL     1       1.818   0.173   0.260  1.00  0.00     0.124 C 
HETATM    6  C6  UNL     1       0.768   1.187   0.062  1.00  0.00     0.062 C 
HETATM    7  C17 UNL     1       0.840  -0.967   0.262  1.00  0.00     0.065 C 
HETATM    8  C5  UNL     1      -0.052   0.131   0.793  1.00  0.00     0.085 C 
HETATM    9  C7  UNL     1       0.241   1.617  -1.225  1.00  0.00     0.011 C 
HETATM   10  O3  UNL     1       0.486   0.267   2.075  1.00  0.00    -0.344 OA
HETATM   11  C11 UNL     1      -1.452   0.102   0.547  1.00  0.00    -0.008 C 
HETATM   12  C9  UNL     1      -1.908   1.472   0.048  1.00  0.00    -0.007 C 
HETATM   13  C12 UNL     1      -2.199  -0.152   1.851  1.00  0.00     0.019 C 
HETATM   14  C13 UNL     1      -1.962  -0.903  -0.459  1.00  0.00     0.013 C 
HETATM   15  C8  UNL     1      -1.259   1.877  -1.232  1.00  0.00     0.005 C 
HETATM   16  C10 UNL     1      -3.401   1.545  -0.090  1.00  0.00     0.011 C 
HETATM   17  C14 UNL     1      -1.074  -2.080  -0.639  1.00  0.00     0.005 C 
HETATM   18  C15 UNL     1       0.399  -1.707  -0.879  1.00  0.00    -0.009 C 
HETATM   19  C16 UNL     1       1.098  -3.089  -0.892  1.00  0.00     0.010 C 
BRANCH   5  20
HETATM   20  O1  UNL     1       2.980   0.149  -0.317  1.00  0.00    -0.379 OA
HETATM   21  C1  UNL     1       3.228   0.100  -1.626  1.00  0.00     0.202 C 
ENDBRANCH   5  20
ENDBRANCH   1   4
TORSDOF 2
