REMARK  2 active torsions:
REMARK  status: ('A' for Active; 'I' for Inactive)
REMARK    1  A    between atoms: C2_2  and  C3_3 
REMARK    2  A    between atoms: C13_14  and  C15_17 
ROOT
HETATM    1  C1  UNL     1       2.071  -0.053  -1.823  1.00  0.00     0.049 C 
HETATM    2  C2  UNL     1       1.742  -0.062  -0.400  1.00  0.00    -0.041 C 
HETATM    3  C13 UNL     1       2.782  -0.122   0.447  1.00  0.00     0.079 C 
HETATM    4  C14 UNL     1       2.365  -0.124   1.890  1.00  0.00     0.099 C 
HETATM    5  N1  UNL     1       2.078  -0.127   3.019  1.00  0.00    -0.192 NA
ENDROOT
BRANCH   3   6
HETATM    6  C15 UNL     1       4.208  -0.192   0.249  1.00  0.00     0.261 C 
HETATM    7  C16 UNL     1       4.822  -0.284  -1.009  1.00  0.00     0.106 C 
HETATM    8  N2  UNL     1       5.377  -0.370  -2.037  1.00  0.00    -0.194 NA
HETATM    9  C17 UNL     1       4.695  -1.324   1.147  1.00  0.00     0.106 C 
HETATM   10  N3  UNL     1       5.051  -2.191   1.812  1.00  0.00    -0.194 NA
HETATM   11  C18 UNL     1       4.858   1.000   0.934  1.00  0.00     0.106 C 
HETATM   12  N4  UNL     1       5.340   1.919   1.443  1.00  0.00    -0.194 NA
ENDBRANCH   3   6
BRANCH   2  13
HETATM   13  C3  UNL     1       0.382   0.001   0.103  1.00  0.00     0.015 C 
HETATM   14  C4  UNL     1      -0.793   0.053  -0.399  1.00  0.00    -0.051 C 
HETATM   15  C5  UNL     1      -1.142   0.063  -1.818  1.00  0.00     0.039 C 
HETATM   16  C9  UNL     1      -1.931   0.128   0.568  1.00  0.00    -0.042 C 
HETATM   17  C6  UNL     1      -2.651   0.066  -2.083  1.00  0.00     0.009 C 
HETATM   18  C7  UNL     1      -3.296  -0.913  -1.120  1.00  0.00     0.043 C 
HETATM   19  C8  UNL     1      -3.107  -0.322   0.239  1.00  0.00    -0.005 C 
HETATM   20  C12 UNL     1      -4.077  -0.138   1.341  1.00  0.00     0.156 C 
HETATM   21  C11 UNL     1      -3.460   0.980   2.132  1.00  0.00     0.088 C 
HETATM   22  O1  UNL     1      -5.141  -0.754   1.563  1.00  0.00    -0.293 OA
HETATM   23  C10 UNL     1      -1.999   0.659   1.957  1.00  0.00     0.047 C 
ENDBRANCH   2  13
TORSDOF 2
