REMARK  3 active torsions:
REMARK  status: ('A' for Active; 'I' for Inactive)
REMARK    1  A    between atoms: C2_2  and  O2_4 
REMARK    2  A    between atoms: O2_4  and  C3_5 
REMARK    3  A    between atoms: C7_9  and  C8_10 
ROOT
HETATM    1  C3  UNL     1       1.382   0.356   0.137  1.00  0.00     0.100 A 
HETATM    2  C4  UNL     1       1.520   1.725   0.179  1.00  0.00    -0.026 A 
HETATM    3  C5  UNL     1       2.892   2.311   0.049  1.00  0.00     0.051 C 
HETATM    4  C6  UNL     1       0.404   2.507   0.339  1.00  0.00     0.025 A 
HETATM    5  C7  UNL     1      -0.893   1.973   0.463  1.00  0.00     0.025 A 
HETATM    6  C10 UNL     1      -1.024   0.617   0.416  1.00  0.00     0.040 A 
HETATM    7  C11 UNL     1       0.126  -0.188   0.254  1.00  0.00     0.060 A 
HETATM    8  C12 UNL     1      -0.080  -1.624   0.250  1.00  0.00     0.171 C 
HETATM    9  O4  UNL     1       0.959  -2.343   0.243  1.00  0.00    -0.291 OA
HETATM   10  C13 UNL     1      -1.406  -2.261   0.255  1.00  0.00     0.025 C 
HETATM   11  C14 UNL     1      -1.950  -2.300  -1.166  1.00  0.00     0.024 C 
HETATM   12  C15 UNL     1      -1.355  -3.665   0.830  1.00  0.00     0.024 C 
HETATM   13  C16 UNL     1      -2.374  -1.393   1.066  1.00  0.00     0.101 C 
HETATM   14  C17 UNL     1      -2.317  -0.063   0.438  1.00  0.00     0.162 C 
HETATM   15  O5  UNL     1      -3.313   0.472  -0.059  1.00  0.00    -0.292 OA
ENDROOT
BRANCH   1  16
HETATM   16  O2  UNL     1       2.505  -0.429  -0.023  1.00  0.00    -0.278 OA
BRANCH  16  17
HETATM   17  C2  UNL     1       3.078  -0.713  -1.254  1.00  0.00     0.260 C 
HETATM   18  C1  UNL     1       4.294  -1.582  -1.235  1.00  0.00     0.126 C 
HETATM   19  O1  UNL     1       2.572  -0.249  -2.283  1.00  0.00    -0.265 OA
ENDBRANCH  16  17
ENDBRANCH   1  16
BRANCH   5  20
HETATM   20  C8  UNL     1      -2.014   2.849   0.723  1.00  0.00     0.156 C 
HETATM   21  C9  UNL     1      -2.028   4.267   0.223  1.00  0.00     0.097 C 
HETATM   22  O3  UNL     1      -3.028   2.520   1.360  1.00  0.00    -0.293 OA
ENDBRANCH   5  20
TORSDOF 3
