REMARK  11 active torsions:
REMARK  status: ('A' for Active; 'I' for Inactive)
REMARK    1  A    between atoms: C2_2  and  C4_4 
REMARK    2  A    between atoms: C7_7  and  C8_8 
REMARK    3  A    between atoms: C8_8  and  N1_9 
REMARK    4  A    between atoms: N1_9  and  S1_11 
REMARK    5  A    between atoms: S1_11  and  C9_14 
REMARK    6  A    between atoms: C14_19  and  C15_20 
REMARK    7  A    between atoms: C18_23  and  N2_24 
REMARK       I    between atoms: N2_24  and  C19_26 
REMARK    8  A    between atoms: C19_26  and  C20_28 
REMARK    9  A    between atoms: C21_29  and  O4_30 
REMARK   10  A    between atoms: N3_33  and  C23_34 
REMARK   11  A    between atoms: C25_39  and  C26_40 
ROOT
HETATM    1  C15 UNL     1      -0.281  -2.243   2.089  1.00  0.00    -0.021 A 
HETATM    2  C16 UNL     1      -1.353  -1.572   2.614  1.00  0.00     0.014 A 
HETATM    3  C17 UNL     1      -2.349  -0.983   1.797  1.00  0.00     0.034 A 
HETATM    4  C18 UNL     1      -2.262  -1.075   0.445  1.00  0.00     0.074 A 
HETATM    5  C27 UNL     1      -1.148  -1.772  -0.054  1.00  0.00     0.143 A 
HETATM    6  F5  UNL     1      -1.051  -1.873  -1.415  1.00  0.00    -0.204 F 
HETATM    7  C28 UNL     1      -0.189  -2.339   0.729  1.00  0.00     0.057 A 
ENDROOT
BRANCH   1   8
HETATM    8  C14 UNL     1       0.702  -2.796   3.000  1.00  0.00    -0.003 A 
HETATM    9  C9  UNL     1       1.609  -2.006   3.645  1.00  0.00     0.090 A 
HETATM   10  C10 UNL     1       2.536  -2.560   4.552  1.00  0.00     0.026 A 
HETATM   11  C11 UNL     1       2.500  -3.911   4.767  1.00  0.00     0.002 A 
HETATM   12  C12 UNL     1       1.605  -4.752   4.140  1.00  0.00     0.001 A 
HETATM   13  C13 UNL     1       0.716  -4.173   3.263  1.00  0.00     0.014 A 
BRANCH   9  14
HETATM   14  S1  UNL     1       1.650  -0.291   3.312  1.00  0.00     0.259 S 
HETATM   15  O1  UNL     1       0.517   0.480   3.883  1.00  0.00    -0.201 OA
HETATM   16  O2  UNL     1       2.902   0.256   4.020  1.00  0.00    -0.201 OA
BRANCH  14  17
HETATM   17  N1  UNL     1       1.919   0.013   1.632  1.00  0.00    -0.313 N 
ATOM     18  H1  UNL     1       1.264   0.502   1.022  1.00  0.00     0.172 HD
BRANCH  17  19
HETATM   19  C8  UNL     1       3.199  -0.519   1.203  1.00  0.00     0.165 C 
BRANCH  19  20
HETATM   20  C7  UNL     1       3.454  -0.272  -0.255  1.00  0.00     0.204 C 
HETATM   21  C6  UNL     1       4.784  -0.829  -0.678  1.00  0.00     0.037 C 
HETATM   22  C5  UNL     1       5.377   0.087  -1.696  1.00  0.00     0.035 C 
HETATM   23  C4  UNL     1       4.302   1.155  -1.833  1.00  0.00     0.189 C 
HETATM   24  N4  UNL     1       3.529   1.105  -0.628  1.00  0.00    -0.065 N 
ATOM     25  H42 UNL     1       3.893   1.705   0.112  1.00  0.00     0.278 HD
ATOM     26  H41 UNL     1       2.616   1.551  -0.714  1.00  0.00     0.278 HD
BRANCH  23  27
HETATM   27  C2  UNL     1       5.010   2.468  -2.047  1.00  0.00     0.008 C 
HETATM   28  C1  UNL     1       5.837   2.334  -3.320  1.00  0.00     0.011 C 
HETATM   29  C3  UNL     1       5.978   2.801  -0.946  1.00  0.00     0.011 C 
ENDBRANCH  23  27
ENDBRANCH  19  20
ENDBRANCH  17  19
ENDBRANCH  14  17
ENDBRANCH   9  14
ENDBRANCH   1   8
BRANCH   4  30
HETATM   30  N2  UNL     1      -3.189  -0.497  -0.460  1.00  0.00    -0.320 N 
HETATM   31  C19 UNL     1      -4.407   0.115  -0.171  1.00  0.00     0.260 C 
HETATM   32  O3  UNL     1      -4.733   0.152   1.031  1.00  0.00    -0.267 OA
ATOM     33  H2  UNL     1      -2.932  -0.534  -1.446  1.00  0.00     0.169 HD
BRANCH  31  34
HETATM   34  C20 UNL     1      -5.311   0.703  -1.131  1.00  0.00     0.084 A 
HETATM   35  C21 UNL     1      -5.030   0.724  -2.504  1.00  0.00     0.098 A 
HETATM   36  C22 UNL     1      -5.942   1.305  -3.373  1.00  0.00     0.137 A 
HETATM   37  N3  UNL     1      -7.091   1.858  -3.002  1.00  0.00    -0.264 N 
HETATM   38  C24 UNL     1      -7.385   1.855  -1.716  1.00  0.00     0.264 A 
HETATM   39  O5  UNL     1      -8.452   2.360  -1.306  1.00  0.00    -0.267 OA
HETATM   40  C25 UNL     1      -6.516   1.285  -0.759  1.00  0.00     0.092 A 
BRANCH  35  41
HETATM   41  O4  UNL     1      -3.873   0.185  -3.026  1.00  0.00    -0.358 OA
ATOM     42  H4  UNL     1      -3.683   0.199  -3.957  1.00  0.00     0.217 HD
ENDBRANCH  35  41
BRANCH  37  43
HETATM   43  C23 UNL     1      -7.997   2.454  -4.001  1.00  0.00     0.467 C 
HETATM   44  F1  UNL     1      -8.540   1.406  -4.711  1.00  0.00    -0.190 F 
HETATM   45  F2  UNL     1      -7.265   3.287  -4.844  1.00  0.00    -0.190 F 
ENDBRANCH  37  43
BRANCH  40  46
HETATM   46  C26 UNL     1      -6.990   1.349   0.624  1.00  0.00     0.393 C 
HETATM   47  F3  UNL     1      -7.139   2.744   0.897  1.00  0.00    -0.209 F 
HETATM   48  F4  UNL     1      -8.353   0.908   0.669  1.00  0.00    -0.209 F 
ENDBRANCH  40  46
ENDBRANCH  31  34
ENDBRANCH   4  30
TORSDOF 11
