REMARK  10 active torsions:
REMARK  status: ('A' for Active; 'I' for Inactive)
REMARK    1  A    between atoms: C9_12  and  C10_13 
REMARK    2  A    between atoms: C10_13  and  C11_14 
REMARK    3  A    between atoms: C10_13  and  C15_24 
REMARK    4  A    between atoms: C11_14  and  C12_15 
REMARK    5  A    between atoms: C14_18  and  N2_19 
REMARK    6  A    between atoms: C15_24  and  C16_25 
REMARK    7  A    between atoms: C16_25  and  C17_28 
REMARK    8  A    between atoms: C22_39  and  N7_40 
REMARK    9  A    between atoms: N7_40  and  C23_42 
REMARK   10  A    between atoms: C25_44  and  C26_45 
ROOT
HETATM    1  C1  UNL     1       3.317  -3.195   1.904  1.00  0.00     0.048 C 
HETATM    2  C2  UNL     1       2.842  -2.256   0.850  1.00  0.00    -0.056 A 
HETATM    3  C3  UNL     1       1.639  -2.387   0.183  1.00  0.00     0.037 A 
HETATM    4  C4  UNL     1       1.265  -1.540  -0.843  1.00  0.00     0.045 A 
HETATM    5  C5  UNL     1       0.071  -1.790  -1.622  1.00  0.00     0.004 A 
HETATM    6  C6  UNL     1       0.231  -2.044  -2.995  1.00  0.00     0.031 A 
HETATM    7  C7  UNL     1      -0.835  -2.294  -3.789  1.00  0.00     0.092 A 
HETATM    8  N1  UNL     1      -2.055  -2.293  -3.248  1.00  0.00    -0.333 N 
ATOM      9  H1  UNL     1      -2.864  -2.483  -3.839  1.00  0.00     0.168 HD
HETATM   10  C8  UNL     1      -2.242  -2.043  -1.919  1.00  0.00     0.253 A 
HETATM   11  O1  UNL     1      -3.437  -2.064  -1.588  1.00  0.00    -0.268 OA
HETATM   12  C9  UNL     1      -1.197  -1.782  -1.040  1.00  0.00     0.030 A 
HETATM   13  N6  UNL     1       2.100  -0.566  -1.189  1.00  0.00    -0.342 N 
ATOM     14  H6  UNL     1       1.842   0.068  -1.945  1.00  0.00     0.167 HD
HETATM   15  C22 UNL     1       3.311  -0.394  -0.546  1.00  0.00     0.107 A 
HETATM   16  C29 UNL     1       3.679  -1.236   0.466  1.00  0.00     0.055 A 
ENDROOT
BRANCH  12  17
HETATM   17  C10 UNL     1      -1.417  -1.200   0.323  1.00  0.00     0.056 C 
BRANCH  17  18
HETATM   18  C11 UNL     1      -1.947  -2.125   1.293  1.00  0.00     0.013 C 
BRANCH  18  19
HETATM   19  C12 UNL     1      -3.156  -2.961   1.228  1.00  0.00     0.037 A 
HETATM   20  C13 UNL     1      -3.012  -4.298   0.785  1.00  0.00     0.082 A 
HETATM   21  S1  UNL     1      -4.586  -4.901   0.873  1.00  0.00    -0.064 SA
HETATM   22  C14 UNL     1      -5.362  -3.499   1.443  1.00  0.00     0.142 A 
HETATM   23  N3  UNL     1      -4.379  -2.617   1.548  1.00  0.00    -0.337 N 
ATOM     24  H3  UNL     1      -4.574  -1.672   1.877  1.00  0.00     0.168 HD
BRANCH  22  25
HETATM   25  N2  UNL     1      -6.659  -3.329   1.701  1.00  0.00    -0.380 N 
ATOM     26  H22 UNL     1      -7.416  -4.008   1.620  1.00  0.00     0.158 HD
ATOM     27  H21 UNL     1      -7.124  -2.488   2.043  1.00  0.00     0.158 HD
ENDBRANCH  22  25
ENDBRANCH  18  19
ENDBRANCH  17  18
BRANCH  17  28
HETATM   28  C15 UNL     1      -2.094   0.151   0.149  1.00  0.00     0.099 C 
BRANCH  28  29
HETATM   29  C16 UNL     1      -2.339   0.994   1.324  1.00  0.00     0.287 C 
HETATM   30  F1  UNL     1      -3.086   0.525   2.365  1.00  0.00    -0.199 F 
HETATM   31  F2  UNL     1      -1.119   1.405   1.896  1.00  0.00    -0.199 F 
BRANCH  29  32
HETATM   32  C17 UNL     1      -3.131   2.210   0.884  1.00  0.00     0.097 A 
HETATM   33  C18 UNL     1      -3.448   2.504  -0.398  1.00  0.00     0.034 A 
HETATM   34  C19 UNL     1      -4.220   3.626  -0.729  1.00  0.00     0.028 A 
HETATM   35  C20 UNL     1      -4.651   4.433   0.286  1.00  0.00     0.022 A 
HETATM   36  C21 UNL     1      -5.485   5.652   0.012  1.00  0.00     0.069 C 
HETATM   37  N4  UNL     1      -4.306   4.102   1.556  1.00  0.00    -0.305 N 
HETATM   38  N5  UNL     1      -3.581   3.044   1.867  1.00  0.00    -0.299 N 
ATOM     39  H4  UNL     1      -4.625   4.706   2.314  1.00  0.00     0.186 HD
ATOM     40  H5  UNL     1      -3.357   2.849   2.843  1.00  0.00     0.186 HD
ENDBRANCH  29  32
ENDBRANCH  28  29
ENDBRANCH  17  28
ENDBRANCH  12  17
BRANCH  15  41
HETATM   41  N7  UNL     1       4.050   0.578  -0.911  1.00  0.00    -0.329 N 
ATOM     42  H7  UNL     1       3.663   1.144  -1.666  1.00  0.00     0.169 HD
BRANCH  41  43
HETATM   43  C23 UNL     1       5.290   0.995  -0.455  1.00  0.00     0.107 A 
HETATM   44  C24 UNL     1       5.390   2.387  -0.206  1.00  0.00     0.061 A 
HETATM   45  C25 UNL     1       6.492   2.997   0.283  1.00  0.00     0.010 A 
HETATM   46  C27 UNL     1       7.605   2.233   0.565  1.00  0.00     0.029 A 
HETATM   47  C28 UNL     1       7.486   0.859   0.310  1.00  0.00     0.090 A 
HETATM   48  N8  UNL     1       6.376   0.294  -0.173  1.00  0.00    -0.352 N 
ATOM     49  H8  UNL     1       6.365  -0.714  -0.330  1.00  0.00     0.166 HD
BRANCH  45  50
HETATM   50  C26 UNL     1       6.554   4.458   0.550  1.00  0.00     0.386 C 
HETATM   51  F3  UNL     1       5.740   4.877   1.554  1.00  0.00    -0.209 F 
HETATM   52  F4  UNL     1       6.211   5.076  -0.659  1.00  0.00    -0.209 F 
ENDBRANCH  45  50
ENDBRANCH  41  43
ENDBRANCH  15  41
TORSDOF 10
