REMARK  11 active torsions:
REMARK  status: ('A' for Active; 'I' for Inactive)
REMARK    1  A    between atoms: O1_2  and  C2_3 
REMARK    2  A    between atoms: C2_3  and  C3_4 
REMARK    3  A    between atoms: C3_4  and  N1_5 
REMARK    4  A    between atoms: C3_4  and  C28_51 
REMARK    5  A    between atoms: N1_5  and  C4_7 
REMARK    6  A    between atoms: C6_9  and  C7_10 
REMARK    7  A    between atoms: C10_14  and  N2_15 
REMARK    8  A    between atoms: N2_15  and  C11_17 
REMARK    9  A    between atoms: C17_26  and  C18_27 
REMARK   10  A    between atoms: C20_33  and  C21_34 
REMARK   11  A    between atoms: C23_40  and  C24_41 
ROOT
HETATM    1  C7  UNL     1      -0.221   2.195   0.326  1.00  0.00     0.026 A 
HETATM    2  C8  UNL     1      -0.546   3.293   1.097  1.00  0.00     0.130 A 
HETATM    3  F1  UNL     1       0.454   4.156   1.437  1.00  0.00    -0.205 F 
HETATM    4  C9  UNL     1      -1.850   3.503   1.507  1.00  0.00     0.072 A 
HETATM    5  C10 UNL     1      -2.874   2.641   1.173  1.00  0.00     0.032 A 
HETATM    6  C16 UNL     1      -2.558   1.548   0.407  1.00  0.00     0.044 A 
HETATM    7  C17 UNL     1      -1.239   1.330  -0.012  1.00  0.00     0.010 A 
ENDROOT
BRANCH   7   8
HETATM    8  C18 UNL     1      -0.902   0.180  -0.820  1.00  0.00     0.086 A 
HETATM    9  N4  UNL     1      -0.357   0.264  -2.038  1.00  0.00    -0.349 N 
HETATM   10  C19 UNL     1      -0.069  -0.849  -2.732  1.00  0.00     0.181 A 
ATOM     11  H4  UNL     1      -0.159   1.179  -2.443  1.00  0.00     0.166 HD
HETATM   12  N5  UNL     1      -0.316  -2.067  -2.235  1.00  0.00    -0.348 N 
HETATM   13  C20 UNL     1      -0.861  -2.247  -1.021  1.00  0.00     0.103 A 
ATOM     14  H5  UNL     1      -0.083  -2.886  -2.797  1.00  0.00     0.167 HD
HETATM   15  C25 UNL     1      -1.157  -1.076  -0.307  1.00  0.00     0.172 A 
HETATM   16  F5  UNL     1      -1.713  -1.233   0.932  1.00  0.00    -0.201 F 
BRANCH  13  17
HETATM   17  C21 UNL     1      -1.152  -3.525  -0.428  1.00  0.00     0.095 A 
HETATM   18  N6  UNL     1      -1.706  -3.708   0.805  1.00  0.00    -0.349 N 
HETATM   19  C22 UNL     1      -1.837  -5.006   1.037  1.00  0.00     0.181 A 
ATOM     20  H6  UNL     1      -1.977  -2.963   1.447  1.00  0.00     0.167 HD
HETATM   21  N7  UNL     1      -1.385  -5.706  -0.007  1.00  0.00    -0.347 N 
HETATM   22  C23 UNL     1      -0.959  -4.788  -0.920  1.00  0.00     0.146 A 
ATOM     23  H7  UNL     1      -1.363  -6.721  -0.102  1.00  0.00     0.166 HD
BRANCH  22  24
HETATM   24  C24 UNL     1      -0.372  -5.154  -2.252  1.00  0.00     0.434 C 
HETATM   25  F2  UNL     1      -0.353  -6.556  -2.360  1.00  0.00    -0.165 F 
HETATM   26  F3  UNL     1      -1.167  -4.728  -3.305  1.00  0.00    -0.165 F 
HETATM   27  F4  UNL     1       0.940  -4.773  -2.367  1.00  0.00    -0.165 F 
ENDBRANCH  22  24
ENDBRANCH  13  17
ENDBRANCH   7   8
BRANCH   1  28
HETATM   28  C6  UNL     1       1.143   1.937  -0.125  1.00  0.00    -0.017 A 
HETATM   29  C5  UNL     1       1.863   0.851   0.314  1.00  0.00     0.060 A 
HETATM   30  C4  UNL     1       3.176   0.632  -0.147  1.00  0.00     0.102 A 
HETATM   31  N8  UNL     1       3.762   1.466  -1.021  1.00  0.00    -0.353 N 
HETATM   32  C27 UNL     1       3.068   2.532  -1.458  1.00  0.00     0.090 A 
ATOM     33  H8  UNL     1       4.713   1.295  -1.347  1.00  0.00     0.166 HD
HETATM   34  C26 UNL     1       1.787   2.764  -1.021  1.00  0.00     0.029 A 
BRANCH  30  35
HETATM   35  N1  UNL     1       3.771  -0.390   0.310  1.00  0.00    -0.369 N 
ATOM     36  H1  UNL     1       3.232  -0.952   0.969  1.00  0.00     0.161 HD
BRANCH  35  37
HETATM   37  C3  UNL     1       5.077  -0.861   0.035  1.00  0.00     0.110 C 
BRANCH  37  38
HETATM   38  C2  UNL     1       5.606  -1.523   1.291  1.00  0.00     0.192 C 
BRANCH  38  39
HETATM   39  O1  UNL     1       5.655  -0.684   2.373  1.00  0.00    -0.394 OA
HETATM   40  C1  UNL     1       6.469   0.409   2.188  1.00  0.00     0.201 C 
ENDBRANCH  38  39
ENDBRANCH  37  38
BRANCH  37  41
HETATM   41  C28 UNL     1       5.093  -1.931  -1.058  1.00  0.00     0.002 C 
HETATM   42  C29 UNL     1       4.220  -3.104  -0.669  1.00  0.00     0.011 C 
HETATM   43  C30 UNL     1       6.508  -2.446  -1.225  1.00  0.00     0.011 C 
ENDBRANCH  37  41
ENDBRANCH  35  37
ENDBRANCH  30  35
ENDBRANCH   1  28
BRANCH   5  44
HETATM   44  N2  UNL     1      -4.206   2.924   1.643  1.00  0.00    -0.385 N 
ATOM     45  H2  UNL     1      -4.346   3.724   2.259  1.00  0.00     0.160 HD
BRANCH  44  46
HETATM   46  C11 UNL     1      -5.344   2.128   1.281  1.00  0.00     0.085 C 
HETATM   47  C12 UNL     1      -6.567   2.680   1.972  1.00  0.00     0.052 C 
HETATM   48  C13 UNL     1      -6.834   4.091   1.480  1.00  0.00     0.234 C 
HETATM   49  N3  UNL     1      -7.347   3.992   0.132  1.00  0.00    -0.075 N 
HETATM   50  C14 UNL     1      -7.021   2.742  -0.491  1.00  0.00     0.234 C 
ATOM     51  H32 UNL     1      -8.352   4.162   0.109  1.00  0.00     0.277 HD
ATOM     52  H31 UNL     1      -7.034   4.778  -0.438  1.00  0.00     0.277 HD
HETATM   53  C15 UNL     1      -5.609   2.271  -0.214  1.00  0.00     0.052 C 
ENDBRANCH  44  46
ENDBRANCH   5  44
TORSDOF 11
