REMARK  13 active torsions:
REMARK  status: ('A' for Active; 'I' for Inactive)
REMARK    1  A    between atoms: O1_1  and  C1_3 
REMARK    2  A    between atoms: C2_4  and  O2_5 
REMARK    3  A    between atoms: C3_7  and  O3_8 
REMARK    4  A    between atoms: C4_10  and  C5_11 
REMARK    5  A    between atoms: C4_10  and  N1_20 
REMARK    6  A    between atoms: C5_11  and  O4_12 
REMARK    7  A    between atoms: O4_12  and  C6_13 
REMARK    8  A    between atoms: C6_13  and  C7_14 
REMARK    9  A    between atoms: N1_20  and  C13_22 
REMARK   10  A    between atoms: C18_28  and  C19_29 
REMARK   11  A    between atoms: C25_36  and  C26_37 
REMARK   12  A    between atoms: C26_37  and  C27_38 
REMARK   13  A    between atoms: C26_37  and  C31_44 
ROOT
HETATM    1  C1  UNL     1      -2.315  -2.033  -0.561  1.00  0.00     0.179 C 
HETATM    2  C2  UNL     1      -1.417  -2.236  -1.724  1.00  0.00     0.183 C 
HETATM    3  C3  UNL     1      -0.039  -1.725  -1.612  1.00  0.00     0.207 C 
HETATM    4  C4  UNL     1       0.161  -0.592  -0.617  1.00  0.00     0.185 C 
HETATM    5  O5  UNL     1      -0.562  -0.741   0.512  1.00  0.00    -0.347 OA
HETATM    6  C25 UNL     1      -1.899  -1.016   0.424  1.00  0.00     0.175 C 
ENDROOT
BRANCH   4   7
HETATM    7  C5  UNL     1      -0.073   0.705  -1.388  1.00  0.00     0.231 C 
BRANCH   7   8
HETATM    8  O4  UNL     1      -1.385   0.817  -1.781  1.00  0.00    -0.382 OA
BRANCH   8   9
HETATM    9  C6  UNL     1      -1.726   1.935  -2.477  1.00  0.00     0.206 C 
BRANCH   9  10
HETATM   10  C7  UNL     1      -1.453   3.130  -1.609  1.00  0.00    -0.035 A 
HETATM   11  C8  UNL     1      -0.379   3.963  -1.848  1.00  0.00     0.009 A 
HETATM   12  C9  UNL     1      -0.151   5.062  -1.022  1.00  0.00     0.001 A 
HETATM   13  C10 UNL     1      -1.027   5.286   0.032  1.00  0.00     0.000 A 
HETATM   14  C11 UNL     1      -2.093   4.451   0.263  1.00  0.00     0.001 A 
HETATM   15  C12 UNL     1      -2.306   3.385  -0.547  1.00  0.00     0.009 A 
ENDBRANCH   9  10
ENDBRANCH   8   9
ENDBRANCH   7   8
ENDBRANCH   4   7
BRANCH   4  16
HETATM   16  N1  UNL     1       1.574  -0.602  -0.266  1.00  0.00    -0.354 N 
ATOM     17  H1  UNL     1       2.158  -1.288  -0.744  1.00  0.00     0.163 HD
BRANCH  16  18
HETATM   18  C13 UNL     1       2.217   0.233   0.660  1.00  0.00     0.041 A 
HETATM   19  C14 UNL     1       1.505   1.076   1.463  1.00  0.00     0.033 A 
HETATM   20  C15 UNL     1       2.102   1.884   2.430  1.00  0.00     0.044 A 
HETATM   21  C16 UNL     1       3.466   1.848   2.600  1.00  0.00     0.117 A 
HETATM   22  F1  UNL     1       4.049   2.640   3.551  1.00  0.00    -0.206 F 
HETATM   23  C17 UNL     1       4.192   1.011   1.804  1.00  0.00     0.056 A 
HETATM   24  C18 UNL     1       3.596   0.195   0.828  1.00  0.00     0.004 A 
BRANCH  24  25
HETATM   25  C19 UNL     1       4.502  -0.603   0.032  1.00  0.00    -0.024 A 
HETATM   26  C20 UNL     1       4.518  -0.505  -1.331  1.00  0.00     0.012 A 
HETATM   27  C21 UNL     1       5.388  -1.266  -2.119  1.00  0.00     0.001 A 
HETATM   28  C22 UNL     1       6.257  -2.144  -1.526  1.00  0.00     0.000 A 
HETATM   29  C23 UNL     1       6.251  -2.252  -0.158  1.00  0.00     0.001 A 
HETATM   30  C24 UNL     1       5.383  -1.489   0.603  1.00  0.00     0.012 A 
ENDBRANCH  24  25
ENDBRANCH  16  18
ENDBRANCH   4  16
BRANCH   3  31
HETATM   31  O3  UNL     1       0.868  -2.761  -1.281  1.00  0.00    -0.388 OA
ATOM     32  H3  UNL     1       1.756  -2.432  -1.209  1.00  0.00     0.210 HD
ENDBRANCH   3  31
BRANCH   2  33
HETATM   33  O2  UNL     1      -2.010  -1.766  -2.922  1.00  0.00    -0.390 OA
ATOM     34  H2  UNL     1      -1.435  -1.896  -3.667  1.00  0.00     0.210 HD
ENDBRANCH   2  33
BRANCH   6  35
HETATM   35  C26 UNL     1      -2.319  -1.321   1.867  1.00  0.00     0.182 C 
BRANCH  35  36
HETATM   36  C27 UNL     1      -3.772  -1.453   2.012  1.00  0.00     0.070 A 
HETATM   37  C28 UNL     1      -4.585  -0.572   2.666  1.00  0.00     0.037 A 
HETATM   38  C29 UNL     1      -5.868  -1.062   2.569  1.00  0.00     0.052 A 
HETATM   39  C30 UNL     1      -5.748  -2.226   1.851  1.00  0.00     0.145 A 
HETATM   40 CL1  UNL     1      -7.137  -3.245   1.453  1.00  0.00    -0.057 Cl
HETATM   41  O6  UNL     1      -4.499  -2.433   1.535  1.00  0.00    -0.302 OA
ENDBRANCH  35  36
BRANCH  35  42
HETATM   42  C31 UNL     1      -1.515  -2.361   2.550  1.00  0.00     0.399 C 
HETATM   43  F2  UNL     1      -2.052  -2.479   3.850  1.00  0.00    -0.170 F 
HETATM   44  F3  UNL     1      -0.196  -1.971   2.754  1.00  0.00    -0.170 F 
HETATM   45  F4  UNL     1      -1.596  -3.634   2.042  1.00  0.00    -0.170 F 
ENDBRANCH  35  42
ENDBRANCH   6  35
BRANCH   1  46
HETATM   46  O1  UNL     1      -3.585  -1.662  -1.094  1.00  0.00    -0.390 OA
ATOM     47  H1  UNL     1      -4.160  -1.532  -0.349  1.00  0.00     0.210 HD
ENDBRANCH   1  46
TORSDOF 13
