REMARK  10 active torsions:
REMARK  status: ('A' for Active; 'I' for Inactive)
REMARK    1  A    between atoms: C4_6  and  C5_7 
REMARK    2  A    between atoms: C7_11  and  C8_12 
REMARK    3  A    between atoms: C13_17  and  C14_18 
REMARK    4  A    between atoms: C18_24  and  N3_25 
REMARK    5  A    between atoms: N3_25  and  S1_27 
REMARK    6  A    between atoms: S1_27  and  C19_30 
REMARK    7  A    between atoms: C20_31  and  N4_32 
REMARK    8  A    between atoms: N4_32  and  N5_34 
REMARK    9  A    between atoms: C26_45  and  O3_46 
REMARK   10  A    between atoms: O3_46  and  C27_47 
ROOT
HETATM    1  C14 UNL     1      -0.786   0.217  -0.188  1.00  0.00     0.056 A 
HETATM    2  C15 UNL     1      -0.291   1.358  -0.790  1.00  0.00     0.133 A 
HETATM    3  F1  UNL     1      -0.874   1.925  -1.895  1.00  0.00    -0.205 F 
HETATM    4  C16 UNL     1       0.838   1.951  -0.267  1.00  0.00     0.088 A 
HETATM    5  C17 UNL     1       1.459   1.393   0.854  1.00  0.00     0.149 A 
HETATM    6  F2  UNL     1       2.571   1.990   1.367  1.00  0.00    -0.203 F 
HETATM    7  C18 UNL     1       0.947   0.253   1.437  1.00  0.00     0.120 A 
HETATM    8  C25 UNL     1      -0.183  -0.344   0.917  1.00  0.00     0.161 A 
HETATM    9  F3  UNL     1      -0.657  -1.466   1.523  1.00  0.00    -0.203 F 
ENDROOT
BRANCH   1  10
HETATM   10  C13 UNL     1      -1.979  -0.400  -0.739  1.00  0.00     0.010 A 
HETATM   11  C5  UNL     1      -3.197   0.162  -0.418  1.00  0.00     0.073 A 
HETATM   12  N2  UNL     1      -4.298  -0.427  -0.958  1.00  0.00    -0.363 N 
HETATM   13  C6  UNL     1      -4.197  -1.495  -1.756  1.00  0.00     0.096 A 
ATOM     14  H2  UNL     1      -5.221  -0.046  -0.750  1.00  0.00     0.165 HD
HETATM   15  C7  UNL     1      -2.977  -2.090  -2.101  1.00  0.00    -0.038 A 
HETATM   16  C12 UNL     1      -1.856  -1.502  -1.560  1.00  0.00     0.023 A 
BRANCH  11  17
HETATM   17  C4  UNL     1      -3.351   1.318   0.461  1.00  0.00     0.093 A 
HETATM   18  N1  UNL     1      -2.945   1.413   1.708  1.00  0.00    -0.361 N 
HETATM   19  C3  UNL     1      -3.110   2.491   2.477  1.00  0.00     0.095 A 
ATOM     20  H1  UNL     1      -2.471   0.607   2.116  1.00  0.00     0.165 HD
HETATM   21  C2  UNL     1      -3.741   3.603   1.976  1.00  0.00    -0.044 A 
HETATM   22  C1  UNL     1      -3.945   4.829   2.816  1.00  0.00     0.049 C 
HETATM   23  C28 UNL     1      -4.192   3.558   0.663  1.00  0.00     0.047 A 
HETATM   24  C26 UNL     1      -4.004   2.436  -0.093  1.00  0.00     0.104 A 
BRANCH  24  25
HETATM   25  O3  UNL     1      -4.446   2.380  -1.393  1.00  0.00    -0.288 OA
BRANCH  25  26
HETATM   26  C27 UNL     1      -5.104   3.397  -2.069  1.00  0.00     0.505 C 
HETATM   27  F4  UNL     1      -6.328   2.916  -2.534  1.00  0.00    -0.184 F 
HETATM   28  F5  UNL     1      -4.389   3.751  -3.218  1.00  0.00    -0.184 F 
ENDBRANCH  25  26
ENDBRANCH  24  25
ENDBRANCH  11  17
BRANCH  15  29
HETATM   29  C8  UNL     1      -2.994  -3.250  -2.983  1.00  0.00     0.020 C 
HETATM   30  C9  UNL     1      -2.716  -4.539  -2.181  1.00  0.00     0.009 C 
HETATM   31  C10 UNL     1      -1.343  -4.556  -2.808  1.00  0.00     0.001 C 
HETATM   32  C11 UNL     1      -1.830  -3.572  -3.829  1.00  0.00     0.009 C 
ENDBRANCH  15  29
ENDBRANCH   1  10
BRANCH   7  33
HETATM   33  N3  UNL     1       1.579  -0.312   2.578  1.00  0.00    -0.274 N 
ATOM     34  H3  UNL     1       1.301  -0.002   3.509  1.00  0.00     0.179 HD
BRANCH  33  35
HETATM   35  S1  UNL     1       2.810  -1.514   2.417  1.00  0.00     0.267 S 
HETATM   36  O1  UNL     1       3.298  -1.949   3.777  1.00  0.00    -0.200 OA
HETATM   37  O2  UNL     1       2.225  -2.700   1.718  1.00  0.00    -0.200 OA
BRANCH  35  38
HETATM   38  C19 UNL     1       4.210  -0.916   1.536  1.00  0.00     0.132 A 
HETATM   39  C20 UNL     1       4.433  -0.942   0.182  1.00  0.00     0.144 A 
HETATM   40  N6  UNL     1       5.633  -0.388  -0.038  1.00  0.00    -0.344 N 
HETATM   41  C21 UNL     1       6.183  -0.010   1.124  1.00  0.00     0.014 A 
ATOM     42  H6  UNL     1       6.064  -0.271  -0.955  1.00  0.00     0.167 HD
HETATM   43  C22 UNL     1       7.511   0.646   1.326  1.00  0.00     0.068 C 
HETATM   44  C23 UNL     1       5.302  -0.335   2.126  1.00  0.00    -0.013 A 
HETATM   45  C24 UNL     1       5.544  -0.078   3.582  1.00  0.00     0.052 C 
BRANCH  39  46
HETATM   46  N4  UNL     1       3.549  -1.455  -0.794  1.00  0.00    -0.291 N 
ATOM     47  H4  UNL     1       2.645  -1.838  -0.517  1.00  0.00     0.188 HD
BRANCH  46  48
HETATM   48  N5  UNL     1       3.921  -1.434  -2.139  1.00  0.00    -0.344 N 
ATOM     49  H52 UNL     1       4.828  -1.047  -2.399  1.00  0.00     0.176 HD
ATOM     50  H51 UNL     1       3.283  -1.804  -2.843  1.00  0.00     0.176 HD
ENDBRANCH  46  48
ENDBRANCH  39  46
ENDBRANCH  35  38
ENDBRANCH  33  35
ENDBRANCH   7  33
TORSDOF 10
