REMARK  2 active torsions:
REMARK  status: ('A' for Active; 'I' for Inactive)
REMARK    1  A    between atoms: C4_4  and  C5_5 
REMARK    2  A    between atoms: C11_15  and  N2_16 
ROOT
HETATM    1  C1  UNL     1      -0.020   2.957  -0.485  1.00  0.00     0.050 C 
HETATM    2  C2  UNL     1      -0.358   1.556  -0.195  1.00  0.00    -0.032 A 
HETATM    3  C3  UNL     1      -1.700   1.147  -0.142  1.00  0.00     0.022 A 
HETATM    4  C4  UNL     1      -1.995  -0.152   0.182  1.00  0.00     0.017 A 
HETATM    5  C7  UNL     1      -0.985  -1.070   0.459  1.00  0.00     0.156 A 
HETATM    6  F2  UNL     1      -1.355  -2.331   0.783  1.00  0.00    -0.203 F 
HETATM    7  C8  UNL     1       0.291  -0.662   0.398  1.00  0.00     0.125 A 
HETATM    8  C9  UNL     1       0.651   0.653   0.072  1.00  0.00     0.072 A 
HETATM    9  N1  UNL     1       1.993   0.701   0.051  1.00  0.00    -0.337 N 
ATOM     10  H1  UNL     1       2.548   1.532  -0.153  1.00  0.00     0.167 HD
HETATM   11  C10 UNL     1       2.497  -0.520   0.341  1.00  0.00     0.158 A 
HETATM   12  C11 UNL     1       3.637  -1.279   0.471  1.00  0.00     0.110 A 
HETATM   13  C12 UNL     1       3.220  -2.552   0.761  1.00  0.00     0.142 A 
HETATM   14  N4  UNL     1       1.855  -2.583   0.813  1.00  0.00    -0.301 N 
ATOM     15  H4  UNL     1       1.270  -3.394   1.013  1.00  0.00     0.186 HD
HETATM   16  N5  UNL     1       1.443  -1.358   0.554  1.00  0.00    -0.233 N 
ENDROOT
BRANCH  12  17
HETATM   17  N2  UNL     1       5.011  -0.807   0.316  1.00  0.00    -0.302 N 
HETATM   18  N3  UNL     1       5.289   0.277  -0.227  1.00  0.00    -0.345 N 
ATOM     19  H32 UNL     1       4.516   0.846  -0.572  1.00  0.00     0.176 HD
ATOM     20  H31 UNL     1       6.248   0.607  -0.335  1.00  0.00     0.176 HD
ATOM     21  H2  UNL     1       5.772  -1.389   0.667  1.00  0.00     0.186 HD
ENDBRANCH  12  17
BRANCH   4  22
HETATM   22  C5  UNL     1      -3.379  -0.565   0.346  1.00  0.00     0.202 C 
HETATM   23  C6  UNL     1      -4.136  -0.803  -0.936  1.00  0.00     0.050 C 
HETATM   24  F1  UNL     1      -4.027   0.623   0.894  1.00  0.00    -0.245 F 
ENDBRANCH   4  22
TORSDOF 2
