REMARK  4 active torsions:
REMARK  status: ('A' for Active; 'I' for Inactive)
REMARK    1  A    between atoms: C2_2  and  C4_5 
REMARK    2  A    between atoms: C6_9  and  N1_10 
REMARK    3  A    between atoms: N1_10  and  N2_12 
REMARK    4  A    between atoms: C7_15  and  C8_16 
ROOT
HETATM    1  C4  UNL     1       0.703  -0.500   0.912  1.00  0.00     0.003 A 
HETATM    2  C5  UNL     1       0.599  -1.451   1.941  1.00  0.00     0.085 A 
HETATM    3 CL2  UNL     1       1.914  -2.102   2.937  1.00  0.00    -0.075 Cl
HETATM    4  S1  UNL     1      -1.038  -1.821   2.022  1.00  0.00    -0.058 SA
HETATM    5  C6  UNL     1      -1.609  -0.797   0.781  1.00  0.00     0.097 A 
HETATM    6  C7  UNL     1      -0.469  -0.167   0.319  1.00  0.00    -0.008 A 
ENDROOT
BRANCH   5   7
HETATM    7  N1  UNL     1      -2.982  -0.722   0.339  1.00  0.00    -0.300 N 
ATOM      8  H1  UNL     1      -3.644  -0.174   0.889  1.00  0.00     0.187 HD
BRANCH   7   9
HETATM    9  N2  UNL     1      -3.437  -1.366  -0.805  1.00  0.00    -0.344 N 
ATOM     10  H22 UNL     1      -2.762  -1.909  -1.343  1.00  0.00     0.176 HD
ATOM     11  H21 UNL     1      -4.407  -1.313  -1.117  1.00  0.00     0.176 HD
ENDBRANCH   7   9
ENDBRANCH   5   7
BRANCH   6  12
HETATM   12  C8  UNL     1      -0.644   0.838  -0.804  1.00  0.00     0.022 A 
HETATM   13  C9  UNL     1      -1.972   1.454  -1.085  1.00  0.00     0.010 A 
HETATM   14  C10 UNL     1      -0.849   2.280  -0.556  1.00  0.00     0.010 A 
ENDBRANCH   6  12
BRANCH   1  15
HETATM   15  C2  UNL     1       2.105  -0.012   0.616  1.00  0.00     0.059 C 
HETATM   16  C1  UNL     1       2.947  -1.266   0.242  1.00  0.00     0.037 C 
HETATM   17  C3  UNL     1       2.297   0.880  -0.540  1.00  0.00     0.037 C 
HETATM   18 CL1  UNL     1       2.898   0.655   2.052  1.00  0.00    -0.115 Cl
ENDBRANCH   1  15
TORSDOF 4
