REMARK  4 active torsions:
REMARK  status: ('A' for Active; 'I' for Inactive)
REMARK    1  A    between atoms: C2_2  and  N1_4 
REMARK    2  A    between atoms: N1_4  and  C4_6 
REMARK    3  A    between atoms: C4_6  and  N2_8 
REMARK    4  A    between atoms: N2_8  and  C5_10 
ROOT
HETATM    1  N2  UNL     1       1.037  -0.167   1.147  1.00  0.00    -0.331 N 
ATOM      2  H2  UNL     1       1.143  -0.314   2.151  1.00  0.00     0.168 HD
ENDROOT
BRANCH   1   3
HETATM    3  C4  UNL     1      -0.263  -0.166   0.691  1.00  0.00     0.172 C 
HETATM    4  S1  UNL     1      -1.419  -0.489   1.873  1.00  0.00    -0.041 SA
BRANCH   3   5
HETATM    5  N1  UNL     1      -0.710   0.065  -0.607  1.00  0.00    -0.363 N 
ATOM      6  H1  UNL     1      -0.027   0.278  -1.334  1.00  0.00     0.162 HD
BRANCH   5   7
HETATM    7  C2  UNL     1      -2.137   0.011  -0.964  1.00  0.00     0.075 C 
HETATM    8  C1  UNL     1      -2.831   1.065  -0.146  1.00  0.00     0.032 C 
HETATM    9  C3  UNL     1      -2.724  -1.329  -0.639  1.00  0.00     0.032 C 
ENDBRANCH   5   7
ENDBRANCH   3   5
ENDBRANCH   1   3
BRANCH   1  10
HETATM   10  C5  UNL     1       2.281   0.009   0.416  1.00  0.00     0.065 A 
HETATM   11  C6  UNL     1       2.420  -0.316  -0.901  1.00  0.00     0.082 A 
HETATM   12  S2  UNL     1       4.075  -0.029  -1.229  1.00  0.00    -0.086 SA
HETATM   13  C7  UNL     1       4.557   0.494   0.309  1.00  0.00     0.098 A 
HETATM   14 CL1  UNL     1       6.175   1.009   0.860  1.00  0.00    -0.074 Cl
HETATM   15  C8  UNL     1       3.415   0.436   1.051  1.00  0.00     0.089 A 
HETATM   16 CL2  UNL     1       3.466   0.929   2.784  1.00  0.00    -0.080 Cl
ENDBRANCH   1  10
TORSDOF 4
