REMARK  4 active torsions:
REMARK  status: ('A' for Active; 'I' for Inactive)
REMARK    1  A    between atoms: C4_5  and  N1_6 
REMARK    2  A    between atoms: N1_6  and  N2_8 
REMARK    3  A    between atoms: C5_10  and  N3_12 
REMARK    4  A    between atoms: N4_14  and  C6_16 
ROOT
HETATM    1  N2  UNL     1      -0.143  -0.197   1.706  1.00  0.00    -0.274 N 
ATOM      2  H2  UNL     1       0.034  -0.024   2.695  1.00  0.00     0.189 HD
HETATM    3  C5  UNL     1       0.813  -0.094   0.884  1.00  0.00     0.208 C 
HETATM    4 CL1  UNL     1       2.430   0.322   1.313  1.00  0.00    -0.042 Cl
ENDROOT
BRANCH   1   5
HETATM    5  N1  UNL     1      -1.435  -0.541   1.299  1.00  0.00    -0.299 N 
ATOM      6  H1  UNL     1      -1.782  -0.307   0.369  1.00  0.00     0.187 HD
BRANCH   5   7
HETATM    7  C4  UNL     1      -2.236  -1.227   2.234  1.00  0.00     0.048 A 
HETATM    8  C3  UNL     1      -3.013  -2.294   1.914  1.00  0.00     0.034 A 
HETATM    9  C2  UNL     1      -3.753  -2.967   2.834  1.00  0.00     0.044 A 
HETATM   10  C1  UNL     1      -3.715  -2.546   4.154  1.00  0.00     0.116 A 
HETATM   11  F1  UNL     1      -4.426  -3.194   5.084  1.00  0.00    -0.206 F 
HETATM   12  C12 UNL     1      -2.919  -1.451   4.479  1.00  0.00     0.044 A 
HETATM   13  C11 UNL     1      -2.179  -0.778   3.568  1.00  0.00     0.034 A 
ENDBRANCH   5   7
ENDBRANCH   1   5
BRANCH   3  14
HETATM   14  N3  UNL     1       0.449  -0.382  -0.483  1.00  0.00    -0.279 N 
HETATM   15  N4  UNL     1       0.810   0.198  -1.458  1.00  0.00    -0.329 N 
ATOM     16  H4  UNL     1       0.432  -0.167  -2.332  1.00  0.00     0.180 HD
ATOM     17  H3  UNL     1      -0.186  -1.167  -0.629  1.00  0.00     0.189 HD
BRANCH  15  18
HETATM   18  C6  UNL     1       1.675   1.309  -1.611  1.00  0.00     0.099 C 
HETATM   19  C7  UNL     1       3.036   0.800  -2.070  1.00  0.00     0.026 C 
HETATM   20  C8  UNL     1       3.254   1.255  -3.458  1.00  0.00     0.002 C 
HETATM   21  C9  UNL     1       2.126   2.165  -3.784  1.00  0.00     0.002 C 
HETATM   22  C10 UNL     1       1.177   2.266  -2.662  1.00  0.00     0.026 C 
ENDBRANCH  15  18
ENDBRANCH   3  14
TORSDOF 4
