REMARK  4 active torsions:
REMARK  status: ('A' for Active; 'I' for Inactive)
REMARK    1  A    between atoms: C2_2  and  C5_5 
REMARK       I    between atoms: C5_5  and  N1_7 
REMARK    2  A    between atoms: C8_10  and  C9_12 
REMARK    3  A    between atoms: N2_13  and  C10_15 
REMARK    4  A    between atoms: C16_25  and  C17_26 
ROOT
HETATM    1  C17 UNL     1      -4.892   1.608  -0.977  1.00  0.00     0.139 C 
HETATM    2  C18 UNL     1      -4.166   2.644  -1.642  1.00  0.00     0.112 C 
HETATM    3  N5  UNL     1      -3.612   3.520  -2.206  1.00  0.00    -0.191 NA
HETATM    4  C19 UNL     1      -6.322   1.988  -0.844  1.00  0.00     0.112 C 
HETATM    5  N6  UNL     1      -7.446   2.327  -0.750  1.00  0.00    -0.191 NA
ENDROOT
BRANCH   1   6
HETATM    6  C16 UNL     1      -4.405   0.504  -0.523  1.00  0.00     0.046 C 
HETATM    7  C10 UNL     1      -3.050  -0.053  -0.511  1.00  0.00     0.024 C 
HETATM    8  C11 UNL     1      -2.785  -0.671   0.851  1.00  0.00     0.063 C 
HETATM    9  C12 UNL     1      -3.725  -1.867   1.087  1.00  0.00     0.048 C 
HETATM   10  C13 UNL     1      -5.100  -1.519   0.762  1.00  0.00    -0.012 A 
HETATM   11  C14 UNL     1      -6.287  -2.156   1.088  1.00  0.00     0.116 A 
HETATM   12  C15 UNL     1      -5.446  -0.428   0.031  1.00  0.00     0.070 A 
HETATM   13  N3  UNL     1      -7.317  -1.468   0.569  1.00  0.00    -0.311 N 
HETATM   14  N4  UNL     1      -6.813  -0.430  -0.065  1.00  0.00    -0.300 N 
ATOM     15  H3  UNL     1      -8.306  -1.705   0.651  1.00  0.00     0.186 HD
ATOM     16  H4  UNL     1      -7.363   0.274  -0.558  1.00  0.00     0.187 HD
BRANCH   7  17
HETATM   17  N2  UNL     1      -1.992   0.380  -1.244  1.00  0.00    -0.369 N 
HETATM   18  C9  UNL     1      -0.967   1.258  -1.098  1.00  0.00     0.104 C 
ATOM     19  H2  UNL     1      -1.958  -0.081  -2.153  1.00  0.00     0.165 HD
BRANCH  18  20
HETATM   20  C8  UNL     1       0.165   0.987  -0.124  1.00  0.00     0.138 C 
HETATM   21  C7  UNL     1       1.206   2.124  -0.238  1.00  0.00     0.069 C 
HETATM   22  C6  UNL     1       2.316   1.772   0.727  1.00  0.00     0.129 C 
HETATM   23  N1  UNL     1       3.082   0.651   0.152  1.00  0.00    -0.351 N 
HETATM   24  C5  UNL     1       4.453   0.548   0.446  1.00  0.00     0.227 C 
HETATM   25  C21 UNL     1       2.312  -0.228  -0.684  1.00  0.00     0.129 C 
HETATM   26  O1  UNL     1       4.960   1.469   1.179  1.00  0.00    -0.273 OA
HETATM   27  C20 UNL     1       0.864  -0.291  -0.299  1.00  0.00     0.069 C 
HETATM   28  F1  UNL     1      -0.331   1.187   1.169  1.00  0.00    -0.237 F 
BRANCH  24  29
HETATM   29  C2  UNL     1       5.361  -0.506   0.004  1.00  0.00     0.030 C 
HETATM   30  C1  UNL     1       5.092  -1.806   0.774  1.00  0.00     0.025 C 
HETATM   31  C3  UNL     1       6.787  -0.116   0.304  1.00  0.00     0.025 C 
HETATM   32  C4  UNL     1       5.282  -0.764  -1.489  1.00  0.00     0.025 C 
ENDBRANCH  24  29
ENDBRANCH  18  20
ENDBRANCH   7  17
ENDBRANCH   1   6
TORSDOF 4
