REMARK  6 active torsions:
REMARK  status: ('A' for Active; 'I' for Inactive)
REMARK    1  A    between atoms: N2_9  and  C6_10 
REMARK    2  A    between atoms: C6_10  and  O2_12 
REMARK    3  A    between atoms: O2_12  and  C7_13 
REMARK    4  A    between atoms: C7_13  and  C8_14 
REMARK    5  A    between atoms: C18_24  and  C19_25 
REMARK    6  A    between atoms: C19_25  and  O3_26 
ROOT
HETATM    1  O1  UNL     1       4.402  -3.316  -0.875  1.00  0.00    -0.238 OA
HETATM    2  C1  UNL     1       4.627  -2.061  -0.941  1.00  0.00     0.361 C 
HETATM    3  N1  UNL     1       5.901  -1.450  -0.739  1.00  0.00    -0.334 N 
ATOM      4  H1  UNL     1       6.800  -1.929  -0.691  1.00  0.00     0.164 HD
HETATM    5  C2  UNL     1       5.677   0.003  -0.612  1.00  0.00     0.166 C 
HETATM    6  C3  UNL     1       4.215   0.082  -0.463  1.00  0.00     0.112 C 
HETATM    7  C4  UNL     1       3.567   1.359  -0.947  1.00  0.00     0.062 C 
HETATM    8  C5  UNL     1       2.171   1.246  -0.313  1.00  0.00     0.129 C 
HETATM    9  N2  UNL     1       2.199   0.106   0.562  1.00  0.00    -0.343 N 
HETATM   10  C18 UNL     1       3.643  -0.039   0.911  1.00  0.00     0.147 C 
HETATM   11  O4  UNL     1       3.723  -1.041  -1.213  1.00  0.00    -0.289 OA
ENDROOT
BRANCH   9  12
HETATM   12  C6  UNL     1       1.198  -0.749   1.055  1.00  0.00     0.212 C 
HETATM   13  S1  UNL     1       1.622  -1.993   2.069  1.00  0.00    -0.033 SA
BRANCH  12  14
HETATM   14  O2  UNL     1      -0.148  -0.672   0.783  1.00  0.00    -0.326 OA
BRANCH  14  15
HETATM   15  C7  UNL     1      -0.775   0.044  -0.231  1.00  0.00     0.187 C 
BRANCH  15  16
HETATM   16  C8  UNL     1      -2.283  -0.118  -0.213  1.00  0.00    -0.017 C 
HETATM   17  C9  UNL     1      -2.767   0.391   1.127  1.00  0.00     0.016 C 
HETATM   18  C10 UNL     1      -4.285   0.371   1.167  1.00  0.00    -0.013 C 
HETATM   19  C11 UNL     1      -4.764   1.271   0.050  1.00  0.00     0.009 C 
HETATM   20  C15 UNL     1      -4.736  -1.042   0.961  1.00  0.00     0.009 C 
HETATM   21  C12 UNL     1      -4.344   0.697  -1.266  1.00  0.00    -0.013 C 
HETATM   22  C13 UNL     1      -4.804  -0.717  -1.450  1.00  0.00     0.009 C 
HETATM   23  C17 UNL     1      -2.836   0.728  -1.351  1.00  0.00     0.016 C 
HETATM   24  C14 UNL     1      -4.215  -1.589  -0.350  1.00  0.00    -0.013 C 
HETATM   25  C16 UNL     1      -2.709  -1.545  -0.362  1.00  0.00     0.016 C 
ENDBRANCH  15  16
ENDBRANCH  14  15
ENDBRANCH  12  14
ENDBRANCH   9  12
BRANCH  10  26
HETATM   26  C19 UNL     1       3.974   1.090   1.840  1.00  0.00     0.192 C 
BRANCH  26  27
HETATM   27  O3  UNL     1       5.291   1.055   2.263  1.00  0.00    -0.399 OA
ATOM     28  H3  UNL     1       5.501   1.770   2.852  1.00  0.00     0.209 HD
ENDBRANCH  26  27
ENDBRANCH  10  26
TORSDOF 6
