REMARK  3 active torsions:
REMARK  status: ('A' for Active; 'I' for Inactive)
REMARK       I    between atoms: N1_2  and  C2_4 
REMARK       I    between atoms: C2_4  and  N2_6 
REMARK    1  A    between atoms: N2_6  and  C3_8 
REMARK    2  A    between atoms: N3_11  and  C6_12 
REMARK    3  A    between atoms: C8_18  and  C9_19 
ROOT
HETATM    1  C6  UNL     1       1.058   0.182   1.315  1.00  0.00     0.145 A 
HETATM    2  N4  UNL     1       0.861   1.521   1.353  1.00  0.00    -0.336 N 
ATOM      3  H4  UNL     1       1.661   2.153   1.363  1.00  0.00     0.168 HD
HETATM    4  C7  UNL     1      -0.381   2.016   1.378  1.00  0.00     0.182 A 
HETATM    5  N5  UNL     1      -1.455   1.203   1.366  1.00  0.00    -0.351 N 
ATOM      6  H5  UNL     1      -2.388   1.614   1.385  1.00  0.00     0.166 HD
HETATM    7  C8  UNL     1      -1.330  -0.145   1.329  1.00  0.00     0.082 A 
HETATM    8  C19 UNL     1      -0.031  -0.630   1.304  1.00  0.00     0.185 A 
HETATM    9  F1  UNL     1       0.153  -1.974   1.269  1.00  0.00    -0.200 F 
ENDROOT
BRANCH   1  10
HETATM   10  N3  UNL     1       2.400  -0.242   1.286  1.00  0.00    -0.365 N 
HETATM   11  C5  UNL     1       2.886  -0.989   0.159  1.00  0.00     0.126 C 
HETATM   12  C4  UNL     1       4.355  -1.298   0.254  1.00  0.00     0.045 C 
HETATM   13  C3  UNL     1       5.198  -0.240   0.874  1.00  0.00     0.089 C 
HETATM   14  C21 UNL     1       4.501   0.728   1.764  1.00  0.00     0.045 C 
HETATM   15  C20 UNL     1       3.277   0.080   2.384  1.00  0.00     0.126 C 
BRANCH  13  16
HETATM   16  N2  UNL     1       6.000   0.482  -0.105  1.00  0.00    -0.338 N 
HETATM   17  C2  UNL     1       7.420   0.435  -0.147  1.00  0.00     0.316 C 
HETATM   18  N1  UNL     1       8.120   1.167  -1.133  1.00  0.00    -0.347 N 
HETATM   19  O1  UNL     1       8.096  -0.242   0.669  1.00  0.00    -0.247 OA
HETATM   20  C1  UNL     1       9.563   1.123  -1.181  1.00  0.00     0.151 C 
ATOM     21  H1  UNL     1       7.605   1.727  -1.812  1.00  0.00     0.163 HD
ATOM     22  H2  UNL     1       5.516   1.052  -0.798  1.00  0.00     0.164 HD
ENDBRANCH  13  16
ENDBRANCH   1  10
BRANCH   7  23
HETATM   23  C9  UNL     1      -2.504  -1.062   1.315  1.00  0.00     0.174 C 
HETATM   24  C10 UNL     1      -3.749  -0.243   1.315  1.00  0.00     0.043 C 
HETATM   25  C11 UNL     1      -4.898  -0.866   0.575  1.00  0.00    -0.005 C 
HETATM   26  C12 UNL     1      -5.892   0.228   0.259  1.00  0.00     0.014 C 
HETATM   27  C17 UNL     1      -4.517  -1.498  -0.725  1.00  0.00     0.014 C 
HETATM   28  C13 UNL     1      -5.996   0.330  -1.228  1.00  0.00    -0.047 C 
HETATM   29  C14 UNL     1      -7.431  -0.027  -1.607  1.00  0.00     0.015 C 
HETATM   30  C15 UNL     1      -5.680   1.716  -1.744  1.00  0.00     0.015 C 
HETATM   31  C16 UNL     1      -5.009  -0.625  -1.835  1.00  0.00     0.015 C 
HETATM   32  C18 UNL     1      -3.026  -1.651  -0.856  1.00  0.00     0.173 C 
HETATM   33  O2  UNL     1      -2.424  -2.018   0.341  1.00  0.00    -0.379 OA
ENDBRANCH   7  23
TORSDOF 3
