REMARK  1 active torsions:
REMARK  status: ('A' for Active; 'I' for Inactive)
REMARK    1  A    between atoms: C2_2  and  N1_4 
REMARK       I    between atoms: N1_4  and  C4_6 
ROOT
HETATM    1  N1  UNL     1      -0.785   0.948  -0.126  1.00  0.00    -0.222 N 
ATOM      2  H1  UNL     1      -0.909   1.918   0.164  1.00  0.00     0.178 HD
HETATM    3  C4  UNL     1       0.427   0.507  -0.196  1.00  0.00     0.685 C 
HETATM    4  N2  UNL     1       1.420   1.376   0.122  1.00  0.00    -0.141 N 
ATOM      5  H2  UNL     1       1.112   2.332   0.299  1.00  0.00     0.189 HD
HETATM    6  C5  UNL     1       2.757   1.177   0.242  1.00  0.00     0.339 C 
HETATM    7  O1  UNL     1       3.464   2.215   0.273  1.00  0.00    -0.246 OA
HETATM    8  N3  UNL     1       3.421   0.004   0.333  1.00  0.00    -0.294 N 
ATOM      9  H3  UNL     1       4.415   0.079   0.551  1.00  0.00     0.171 HD
HETATM   10  C6  UNL     1       2.956  -1.252   0.176  1.00  0.00     0.173 C 
HETATM   11  S1  UNL     1       3.957  -2.487   0.550  1.00  0.00    -0.054 SA
HETATM   12  C7  UNL     1       1.690  -1.574  -0.278  1.00  0.00     0.297 C 
HETATM   13  O2  UNL     1       1.491  -2.789  -0.439  1.00  0.00    -0.264 OA
HETATM   14  N4  UNL     1       0.635  -0.769  -0.575  1.00  0.00    -0.153 N 
ATOM     15  H4  UNL     1      -0.091  -1.184  -1.159  1.00  0.00     0.187 HD
ENDROOT
BRANCH   1  16
HETATM   16  C2  UNL     1      -1.963   0.206  -0.416  1.00  0.00     0.091 C 
HETATM   17  C1  UNL     1      -3.137   1.193  -0.357  1.00  0.00     0.032 C 
HETATM   18  C3  UNL     1      -2.278  -0.842   0.643  1.00  0.00     0.032 C 
ENDBRANCH   1  16
TORSDOF 1
