REMARK  2 active torsions:
REMARK  status: ('A' for Active; 'I' for Inactive)
REMARK    1  A    between atoms: C2_2  and  C3_3 
REMARK    2  A    between atoms: C8_18  and  N6_19 
ROOT
HETATM    1  C3  UNL     1      -1.771   0.931   0.446  1.00  0.00     0.077 A 
HETATM    2  N1  UNL     1      -1.251   1.362  -0.715  1.00  0.00    -0.336 N 
ATOM      3  H1  UNL     1      -1.740   2.072  -1.260  1.00  0.00     0.168 HD
HETATM    4  C4  UNL     1      -0.083   0.857  -1.161  1.00  0.00     0.151 A 
HETATM    5  N2  UNL     1       0.673   1.082  -2.260  1.00  0.00    -0.282 N 
ATOM      6  H2  UNL     1       0.444   1.745  -3.000  1.00  0.00     0.188 HD
HETATM    7  N3  UNL     1       1.752   0.317  -2.235  1.00  0.00    -0.282 N 
ATOM      8  H3  UNL     1       2.474   0.309  -2.955  1.00  0.00     0.188 HD
HETATM    9  C5  UNL     1       1.766  -0.449  -1.128  1.00  0.00     0.146 A 
HETATM   10  N4  UNL     1       2.651  -1.314  -0.760  1.00  0.00    -0.378 N 
ATOM     11  H4  UNL     1       2.541  -1.833   0.111  1.00  0.00     0.160 HD
HETATM   12  C6  UNL     1       3.806  -1.533  -1.612  1.00  0.00     0.148 C 
HETATM   13  C7  UNL     1       0.603  -0.108  -0.446  1.00  0.00     0.125 A 
HETATM   14  N5  UNL     1       0.087  -0.551   0.728  1.00  0.00    -0.335 N 
ATOM     15  H5  UNL     1       0.572  -1.262   1.276  1.00  0.00     0.168 HD
HETATM   16  C8  UNL     1      -1.080  -0.031   1.153  1.00  0.00     0.128 A 
ENDROOT
BRANCH  16  17
HETATM   17  N6  UNL     1      -1.577  -0.447   2.267  1.00  0.00    -0.379 N 
HETATM   18  C9  UNL     1      -0.954  -1.444   3.094  1.00  0.00     0.147 C 
ATOM     19  H6  UNL     1      -2.462  -0.046   2.579  1.00  0.00     0.160 HD
ENDBRANCH  16  17
BRANCH   1  20
HETATM   20  C2  UNL     1      -3.053   1.477   0.948  1.00  0.00     0.023 C 
HETATM   21  C1  UNL     1      -3.679   2.380   0.260  1.00  0.00     0.013 C 
ENDBRANCH   1  20
TORSDOF 2
