REMARK  2 active torsions:
REMARK  status: ('A' for Active; 'I' for Inactive)
REMARK    1  A    between atoms: C2_2  and  N1_5 
REMARK    2  A    between atoms: N1_5  and  C5_7 
ROOT
HETATM    1  C5  UNL     1       0.700  -0.547  -0.105  1.00  0.00     0.695 A 
HETATM    2  N2  UNL     1       1.017   0.698   0.210  1.00  0.00    -0.169 N 
ATOM      3  H2  UNL     1       0.258   1.368   0.334  1.00  0.00     0.186 HD
HETATM    4  C6  UNL     1       2.279   1.137   0.377  1.00  0.00     0.185 A 
HETATM    5  S1  UNL     1       2.602   2.855   0.806  1.00  0.00    -0.012 SA
HETATM    6  N3  UNL     1       3.269   0.233   0.208  1.00  0.00    -0.169 N 
ATOM      7  H3  UNL     1       4.240   0.522   0.325  1.00  0.00     0.186 HD
HETATM    8  C7  UNL     1       2.990  -1.038  -0.111  1.00  0.00     0.692 A 
HETATM    9  N4  UNL     1       3.929  -1.905  -0.273  1.00  0.00    -0.234 N 
ATOM     10  H41 UNL     1       3.717  -2.873  -0.516  1.00  0.00     0.174 HD
ATOM     11  H42 UNL     1       4.897  -1.607  -0.154  1.00  0.00     0.174 HD
HETATM   12  N5  UNL     1       1.693  -1.437  -0.270  1.00  0.00    -0.023 N 
ATOM     13  H5  UNL     1       1.480  -2.405  -0.512  1.00  0.00     0.203 HD
ENDROOT
BRANCH   1  14
HETATM   14  N1  UNL     1      -0.529  -0.882  -0.246  1.00  0.00    -0.217 N 
ATOM     15  H1  UNL     1      -0.723  -1.853  -0.490  1.00  0.00     0.178 HD
BRANCH  14  16
HETATM   16  C2  UNL     1      -1.644  -0.017  -0.092  1.00  0.00     0.036 C 
HETATM   17  C1  UNL     1      -1.891   0.385   1.366  1.00  0.00     0.038 C 
HETATM   18  C3  UNL     1      -1.583   1.248  -0.888  1.00  0.00     0.038 C 
HETATM   19  C4  UNL     1      -2.920  -0.750  -0.525  1.00  0.00     0.038 C 
ENDBRANCH  14  16
ENDBRANCH   1  14
TORSDOF 2
