REMARK  2 active torsions:
REMARK  status: ('A' for Active; 'I' for Inactive)
REMARK    1  A    between atoms: C2_2  and  N1_3 
REMARK       I    between atoms: N1_3  and  C3_5 
REMARK       I    between atoms: C3_5  and  N2_6 
REMARK       I    between atoms: C3_5  and  N4_10 
REMARK    2  A    between atoms: N4_10  and  C5_12 
ROOT
HETATM    1  N1  UNL     1      -2.287   1.207  -0.041  1.00  0.00    -0.226 N 
ATOM      2  H1  UNL     1      -2.799   2.061   0.179  1.00  0.00     0.177 HD
HETATM    3  C3  UNL     1      -0.930   1.117   0.341  1.00  0.00     0.689 C 
HETATM    4  N2  UNL     1      -0.359   2.132   0.891  1.00  0.00    -0.126 N 
ATOM      5  H2  UNL     1       0.620   2.087   1.174  1.00  0.00     0.197 HD
HETATM    6  C4  UNL     1      -1.104   3.295   1.093  1.00  0.00     0.196 C 
HETATM    7  N3  UNL     1      -1.734   4.261   1.272  1.00  0.00    -0.171 NA
HETATM    8  N4  UNL     1      -0.181  -0.064   0.130  1.00  0.00    -0.168 N 
ATOM      9  H4  UNL     1      -0.648  -0.961  -0.007  1.00  0.00     0.186 HD
ENDROOT
BRANCH   1  10
HETATM   10  C2  UNL     1      -2.979   0.150  -0.726  1.00  0.00     0.133 C 
HETATM   11  C1  UNL     1      -3.215  -1.081   0.084  1.00  0.00     0.027 C 
ENDBRANCH   1  10
BRANCH   8  12
HETATM   12  C5  UNL     1       1.133   0.021   0.114  1.00  0.00     0.181 A 
HETATM   13  N5  UNL     1       2.011  -0.971  -0.068  1.00  0.00    -0.325 N 
HETATM   14  C6  UNL     1       3.278  -0.661  -0.046  1.00  0.00     0.085 A 
ATOM     15  H5  UNL     1       1.702  -1.932  -0.218  1.00  0.00     0.169 HD
HETATM   16  C7  UNL     1       4.369  -1.695  -0.246  1.00  0.00     0.089 C 
HETATM   17  N6  UNL     1       3.617   0.609   0.154  1.00  0.00    -0.313 N 
HETATM   18  S1  UNL     1       2.133   1.384   0.315  1.00  0.00     0.024 SA
ATOM     19  H6  UNL     1       4.552   1.015   0.199  1.00  0.00     0.175 HD
ENDBRANCH   8  12
TORSDOF 2
