REMARK  3 active torsions:
REMARK  status: ('A' for Active; 'I' for Inactive)
REMARK    1  A    between atoms: C3_3  and  N1_4 
REMARK    2  A    between atoms: N1_4  and  C4_6 
REMARK    3  A    between atoms: C5_9  and  N3_10 
ROOT
HETATM    1  C1  UNL     1       4.039  -1.431   1.412  1.00  0.00     0.014 C 
HETATM    2  C2  UNL     1       3.290  -1.597   0.489  1.00  0.00    -0.098 C 
HETATM    3  C3  UNL     1       2.379  -1.798  -0.641  1.00  0.00     0.215 C 
ENDROOT
BRANCH   3   4
HETATM    4  N1  UNL     1       1.085  -1.237  -0.427  1.00  0.00    -0.363 N 
ATOM      5  H1  UNL     1       0.311  -1.897  -0.350  1.00  0.00     0.162 HD
BRANCH   4   6
HETATM    6  C4  UNL     1       0.793  -0.009  -0.322  1.00  0.00     0.148 A 
HETATM    7  N2  UNL     1       1.679   1.001  -0.397  1.00  0.00    -0.175 N 
HETATM    8  C5  UNL     1       1.319   2.288  -0.279  1.00  0.00     0.679 A 
ATOM      9  H2  UNL     1       2.663   0.779  -0.550  1.00  0.00     0.186 HD
HETATM   10  N4  UNL     1       0.034   2.665  -0.076  1.00  0.00    -0.174 N 
HETATM   11  C6  UNL     1      -0.893   1.676   0.006  1.00  0.00     0.153 A 
ATOM     12  H4  UNL     1      -0.226   3.648   0.011  1.00  0.00     0.186 HD
HETATM   13  N5  UNL     1      -2.201   1.721   0.197  1.00  0.00    -0.330 N 
HETATM   14  C10 UNL     1      -0.523   0.344  -0.115  1.00  0.00     0.125 A 
HETATM   15  C7  UNL     1      -2.642   0.461   0.195  1.00  0.00     0.081 A 
ATOM     16  H5  UNL     1      -2.766   2.561   0.322  1.00  0.00     0.168 HD
HETATM   17  C8  UNL     1      -4.052   0.035   0.376  1.00  0.00     0.089 C 
HETATM   18  N6  UNL     1      -1.617  -0.411   0.003  1.00  0.00    -0.335 N 
HETATM   19  C9  UNL     1      -1.701  -1.857  -0.059  1.00  0.00     0.158 C 
BRANCH   8  20
HETATM   20  N3  UNL     1       2.198   3.239  -0.357  1.00  0.00    -0.234 N 
ATOM     21  H32 UNL     1       3.166   2.955  -0.510  1.00  0.00     0.174 HD
ATOM     22  H31 UNL     1       1.924   4.217  -0.267  1.00  0.00     0.174 HD
ENDBRANCH   8  20
ENDBRANCH   4   6
ENDBRANCH   3   4
TORSDOF 3
