REMARK  2 active torsions:
REMARK  status: ('A' for Active; 'I' for Inactive)
REMARK    1  A    between atoms: C2_2  and  N1_3 
REMARK    2  A    between atoms: N1_3  and  C4_5 
ROOT
HETATM    1  C4  UNL     1      -0.353  -0.236   0.289  1.00  0.00     0.682 A 
HETATM    2  N2  UNL     1       0.258   0.932   0.535  1.00  0.00    -0.174 N 
ATOM      3  H2  UNL     1      -0.213   1.825   0.678  1.00  0.00     0.186 HD
HETATM    4  C5  UNL     1       1.588   0.742   0.564  1.00  0.00     0.158 A 
HETATM    5  N3  UNL     1       2.672   1.545   0.766  1.00  0.00    -0.292 N 
ATOM      6  H3  UNL     1       2.535   2.540   0.943  1.00  0.00     0.172 HD
HETATM    7  C6  UNL     1       3.919   1.041   0.735  1.00  0.00     0.328 A 
HETATM    8  O1  UNL     1       4.871   1.833   0.927  1.00  0.00    -0.247 OA
HETATM    9  N4  UNL     1       4.102  -0.266   0.502  1.00  0.00    -0.273 N 
ATOM     10  H4  UNL     1       5.056  -0.626   0.481  1.00  0.00     0.173 HD
HETATM   11  C7  UNL     1       3.098  -1.118   0.296  1.00  0.00     0.280 A 
HETATM   12  O2  UNL     1       3.251  -2.350   0.077  1.00  0.00    -0.265 OA
HETATM   13  C8  UNL     1       1.802  -0.590   0.330  1.00  0.00     0.161 A 
HETATM   14  N5  UNL     1       0.607  -1.161   0.165  1.00  0.00    -0.182 N 
ATOM     15  H5  UNL     1       0.449  -2.150  -0.026  1.00  0.00     0.184 HD
ENDROOT
BRANCH   1  16
HETATM   16  N1  UNL     1      -1.752  -0.401   0.203  1.00  0.00    -0.222 N 
HETATM   17  C3  UNL     1      -2.420  -1.039   1.314  1.00  0.00     0.168 C 
BRANCH  16  18
HETATM   18  C2  UNL     1      -2.487   0.019  -0.948  1.00  0.00     0.136 C 
HETATM   19  C1  UNL     1      -3.439   1.155  -0.660  1.00  0.00     0.027 C 
ENDBRANCH  16  18
ENDBRANCH   1  16
TORSDOF 2
