REMARK  3 active torsions:
REMARK  status: ('A' for Active; 'I' for Inactive)
REMARK    1  A    between atoms: N1_2  and  C2_4 
REMARK    2  A    between atoms: C3_7  and  C4_8 
REMARK    3  A    between atoms: C8_18  and  N6_19 
ROOT
HETATM    1  C2  UNL     1       1.321   0.981  -1.250  1.00  0.00     0.694 A 
HETATM    2  N2  UNL     1       0.140   0.705  -0.669  1.00  0.00    -0.173 N 
ATOM      3  H2  UNL     1      -0.672   1.258  -0.944  1.00  0.00     0.186 HD
HETATM    4  C3  UNL     1      -0.032  -0.257   0.252  1.00  0.00     0.165 A 
HETATM    5  N5  UNL     1       1.067  -0.970   0.591  1.00  0.00    -0.173 N 
ATOM      6  H5  UNL     1       0.979  -1.710   1.287  1.00  0.00     0.186 HD
HETATM    7  C8  UNL     1       2.268  -0.736   0.043  1.00  0.00     0.694 A 
HETATM    8  N7  UNL     1       2.385   0.239  -0.874  1.00  0.00    -0.022 N 
ATOM      9  H7  UNL     1       3.296   0.423  -1.295  1.00  0.00     0.203 HD
ENDROOT
BRANCH   4  10
HETATM   10  C4  UNL     1      -1.319  -0.544   0.871  1.00  0.00     0.101 A 
HETATM   11  N3  UNL     1      -1.598  -1.478   1.797  1.00  0.00    -0.348 N 
HETATM   12  C5  UNL     1      -2.925  -1.416   2.112  1.00  0.00     0.181 A 
ATOM     13  H3  UNL     1      -0.925  -2.130   2.200  1.00  0.00     0.167 HD
HETATM   14  N4  UNL     1      -3.470  -0.438   1.377  1.00  0.00    -0.354 N 
HETATM   15  C6  UNL     1      -2.506   0.106   0.614  1.00  0.00     0.037 A 
ATOM     16  H4  UNL     1      -4.450  -0.154   1.393  1.00  0.00     0.166 HD
HETATM   17  C7  UNL     1      -2.696   1.218  -0.342  1.00  0.00     0.070 C 
ENDBRANCH   4  10
BRANCH   1  18
HETATM   18  N1  UNL     1       1.483   1.899  -2.128  1.00  0.00    -0.230 N 
HETATM   19  C1  UNL     1       0.441   2.767  -2.624  1.00  0.00     0.165 C 
ATOM     20  H1  UNL     1       2.421   2.027  -2.507  1.00  0.00     0.177 HD
ENDBRANCH   1  18
BRANCH   7  21
HETATM   21  N6  UNL     1       3.340  -1.388   0.335  1.00  0.00    -0.230 N 
HETATM   22  C9  UNL     1       3.350  -2.462   1.306  1.00  0.00     0.165 C 
ATOM     23  H6  UNL     1       4.211  -1.139  -0.134  1.00  0.00     0.177 HD
ENDBRANCH   7  21
TORSDOF 3
