REMARK  2 active torsions:
REMARK  status: ('A' for Active; 'I' for Inactive)
REMARK    1  A    between atoms: C1_4  and  C2_5 
REMARK    2  A    between atoms: C6_10  and  O2_11 
ROOT
HETATM    1  C2  UNL     1       1.708  -0.285   0.209  1.00  0.00     0.086 C 
HETATM    2  C3  UNL     1       0.809   0.043   1.313  1.00  0.00     0.028 C 
HETATM    3  C4  UNL     1      -0.600  -0.135   1.029  1.00  0.00     0.029 C 
HETATM    4  C5  UNL     1      -1.366   1.171   0.790  1.00  0.00     0.177 C 
HETATM    5  O1  UNL     1      -2.527   0.675   0.187  1.00  0.00    -0.360 OA
HETATM    6  C6  UNL     1      -2.112  -0.236  -0.774  1.00  0.00     0.270 C 
HETATM    7  C7  UNL     1      -0.874  -0.890  -0.208  1.00  0.00     0.109 C 
HETATM    8  S1  UNL     1       0.601  -0.471  -1.220  1.00  0.00    -0.149 SA
ENDROOT
BRANCH   1   9
HETATM    9  C1  UNL     1       2.797   0.670  -0.044  1.00  0.00     0.068 C 
HETATM   10  N1  UNL     1       4.005   0.272  -0.193  1.00  0.00    -0.410 N 
ATOM     11  H12 UNL     1       4.198  -0.728  -0.132  1.00  0.00     0.155 HD
ATOM     12  H11 UNL     1       4.760   0.934  -0.369  1.00  0.00     0.155 HD
ENDBRANCH   1   9
BRANCH   6  13
HETATM   13  O2  UNL     1      -3.057  -1.258  -0.964  1.00  0.00    -0.370 OA
ATOM     14  H2  UNL     1      -2.773  -1.882  -1.622  1.00  0.00     0.212 HD
ENDBRANCH   6  13
TORSDOF 2
