REMARK  2 active torsions:
REMARK  status: ('A' for Active; 'I' for Inactive)
REMARK    1  A    between atoms: C2_2  and  C3_7 
REMARK    2  A    between atoms: N1_3  and  O1_5 
ROOT
HETATM    1  C3  UNL     1       0.134  -0.071   0.332  1.00  0.00     0.188 C 
HETATM    2  C4  UNL     1      -0.080  -1.128   1.326  1.00  0.00     0.104 C 
HETATM    3  N2  UNL     1      -0.236  -1.968   2.112  1.00  0.00    -0.194 NA
HETATM    4  C5  UNL     1      -0.930  -0.292  -0.735  1.00  0.00     0.062 C 
HETATM    5  C6  UNL     1      -2.161   0.182   0.040  1.00  0.00     0.031 C 
HETATM    6  C7  UNL     1      -1.553   1.303   0.853  1.00  0.00     0.170 C 
HETATM    7  O2  UNL     1      -0.186   1.176   0.782  1.00  0.00    -0.360 OA
ENDROOT
BRANCH   1   8
HETATM    8  C2  UNL     1       1.428  -0.186  -0.327  1.00  0.00     0.054 C 
HETATM    9  C1  UNL     1       1.787  -1.403  -1.113  1.00  0.00     0.070 C 
HETATM   10  N1  UNL     1       2.305   0.741  -0.259  1.00  0.00    -0.274 N 
ATOM     11  H1  UNL     1       3.204   0.635  -0.728  1.00  0.00     0.193 HD
BRANCH  10  12
HETATM   12  O1  UNL     1       2.025   1.877   0.450  1.00  0.00    -0.290 OA
ATOM     13  H1  UNL     1       2.677   2.566   0.501  1.00  0.00     0.244 HD
ENDBRANCH  10  12
ENDBRANCH   1   8
TORSDOF 2
