REMARK  14 active torsions:
REMARK  status: ('A' for Active; 'I' for Inactive)
REMARK    1  A    between atoms: O1_1  and  C1_3 
REMARK    2  A    between atoms: C1_3  and  C2_4 
REMARK    3  A    between atoms: C1_3  and  C22_31 
REMARK    4  A    between atoms: C2_4  and  N1_5 
REMARK    5  A    between atoms: N2_8  and  C5_9 
REMARK    6  A    between atoms: C5_9  and  C6_10 
REMARK    7  A    between atoms: C6_10  and  C7_11 
REMARK    8  A    between atoms: C7_11  and  O2_12 
REMARK    9  A    between atoms: C7_11  and  C8_14 
REMARK   10  A    between atoms: C7_11  and  C14_22 
REMARK   11  A    between atoms: C8_14  and  C9_15 
REMARK   12  A    between atoms: C9_15  and  N3_16 
REMARK   13  A    between atoms: C22_31  and  N4_32 
REMARK   14  A    between atoms: C24_39  and  C25_40 
ROOT
HETATM    1  N1  UNL     1       2.742   0.938   0.124  1.00  0.00     0.094 N 
HETATM    2  C3  UNL     1       1.707   1.913   0.503  1.00  0.00     0.302 C 
HETATM    3  C4  UNL     1       0.634   2.066  -0.528  1.00  0.00     0.302 C 
HETATM    4  N2  UNL     1      -0.241   0.873  -0.529  1.00  0.00     0.092 N 
HETATM    5  C20 UNL     1       0.650  -0.220  -0.107  1.00  0.00     0.302 C 
HETATM    6  C21 UNL     1       1.997   0.042  -0.776  1.00  0.00     0.302 C 
ENDROOT
BRANCH   1   7
HETATM    7  C2  UNL     1       3.130   0.247   1.316  1.00  0.00     0.305 C 
BRANCH   7   8
HETATM    8  C1  UNL     1       4.536  -0.298   1.362  1.00  0.00     0.166 C 
BRANCH   8   9
HETATM    9  O1  UNL     1       5.427   0.744   1.326  1.00  0.00    -0.392 OA
ATOM     10  H1  UNL     1       6.312   0.401   1.355  1.00  0.00     0.210 HD
ENDBRANCH   8   9
BRANCH   8  11
HETATM   11  C22 UNL     1       4.736  -1.369   0.357  1.00  0.00     0.184 C 
BRANCH  11  12
HETATM   12  N4  UNL     1       5.966  -2.124   0.448  1.00  0.00    -0.272 N 
HETATM   13  N5  UNL     1       6.043  -3.469   0.920  1.00  0.00    -0.239 N 
HETATM   14  N6  UNL     1       7.238  -3.864   0.919  1.00  0.00    -0.277 N 
ATOM     15  H5  UNL     1       5.244  -4.030   1.216  1.00  0.00     0.208 HD
HETATM   16  C23 UNL     1       8.100  -2.828   0.446  1.00  0.00     0.125 A 
ATOM     17  H6  UNL     1       7.546  -4.791   1.214  1.00  0.00     0.189 HD
HETATM   18 BR1  UNL     1       9.993  -2.850   0.215  1.00  0.00    -0.027 Br
HETATM   19  C24 UNL     1       7.284  -1.768   0.163  1.00  0.00     0.098 A 
BRANCH  19  20
HETATM   20  C25 UNL     1       7.822  -0.511  -0.338  1.00  0.00    -0.005 A 
HETATM   21  C26 UNL     1       7.388   0.149  -1.466  1.00  0.00     0.015 A 
HETATM   22  C27 UNL     1       7.938   1.346  -1.842  1.00  0.00     0.024 A 
HETATM   23  C28 UNL     1       8.945   1.897  -1.080  1.00  0.00     0.034 A 
HETATM   24 CL1  UNL     1       9.669   3.444  -1.537  1.00  0.00    -0.084 Cl
HETATM   25  C29 UNL     1       9.427   1.282   0.064  1.00  0.00     0.024 A 
HETATM   26  C30 UNL     1       8.847   0.088   0.402  1.00  0.00     0.015 A 
ENDBRANCH  19  20
ENDBRANCH  11  12
ENDBRANCH   8  11
ENDBRANCH   7   8
ENDBRANCH   1   7
BRANCH   4  27
HETATM   27  C5  UNL     1      -1.251   1.101   0.482  1.00  0.00     0.276 C 
BRANCH  27  28
HETATM   28  C6  UNL     1      -2.169  -0.010   0.761  1.00  0.00     0.073 C 
BRANCH  28  29
HETATM   29  C7  UNL     1      -3.064  -0.512  -0.317  1.00  0.00     0.088 C 
BRANCH  29  30
HETATM   30  O2  UNL     1      -2.250  -0.954  -1.394  1.00  0.00    -0.385 OA
ATOM     31  H2  UNL     1      -2.821  -1.274  -2.082  1.00  0.00     0.211 HD
ENDBRANCH  29  30
BRANCH  29  32
HETATM   32  C8  UNL     1      -4.008   0.488  -0.908  1.00  0.00     0.073 C 
BRANCH  32  33
HETATM   33  C9  UNL     1      -4.958   1.090   0.050  1.00  0.00     0.276 C 
BRANCH  33  34
HETATM   34  N3  UNL     1      -5.877   2.064  -0.505  1.00  0.00     0.092 N 
HETATM   35  C10 UNL     1      -6.785   2.555   0.539  1.00  0.00     0.298 C 
HETATM   36  C11 UNL     1      -8.158   1.895   0.408  1.00  0.00     0.198 C 
HETATM   37  O3  UNL     1      -7.972   0.554   0.198  1.00  0.00    -0.388 OA
HETATM   38  C12 UNL     1      -7.424   0.281  -1.067  1.00  0.00     0.198 C 
HETATM   39  C13 UNL     1      -6.672   1.480  -1.579  1.00  0.00     0.298 C 
ENDBRANCH  33  34
ENDBRANCH  32  33
ENDBRANCH  29  32
BRANCH  29  40
HETATM   40  C14 UNL     1      -3.769  -1.705   0.239  1.00  0.00    -0.024 A 
HETATM   41  C15 UNL     1      -4.244  -1.717   1.508  1.00  0.00     0.013 A 
HETATM   42  C16 UNL     1      -4.899  -2.856   1.962  1.00  0.00     0.043 A 
HETATM   43  C17 UNL     1      -5.074  -3.960   1.169  1.00  0.00     0.116 A 
HETATM   44  F1  UNL     1      -5.724  -5.079   1.632  1.00  0.00    -0.206 F 
HETATM   45  C18 UNL     1      -4.590  -3.934  -0.109  1.00  0.00     0.043 A 
HETATM   46  C19 UNL     1      -3.939  -2.808  -0.568  1.00  0.00     0.013 A 
ENDBRANCH  29  40
ENDBRANCH  28  29
ENDBRANCH  27  28
ENDBRANCH   4  27
TORSDOF 14
