REMARK  14 active torsions:
REMARK  status: ('A' for Active; 'I' for Inactive)
REMARK    1  A    between atoms: C1_2  and  C2_4 
REMARK    2  A    between atoms: C2_4  and  C3_5 
REMARK    3  A    between atoms: C3_5  and  S1_6 
REMARK    4  A    between atoms: S1_6  and  N1_9 
REMARK    5  A    between atoms: C7_15  and  O6_16 
REMARK    6  A    between atoms: C8_18  and  C9_19 
REMARK    7  A    between atoms: C9_19  and  C10_20 
REMARK    8  A    between atoms: C10_20  and  O7_21 
REMARK    9  A    between atoms: O7_21  and  C11_22 
REMARK   10  A    between atoms: C11_22  and  C12_23 
REMARK   11  A    between atoms: C13_24  and  C14_25 
REMARK   12  A    between atoms: C14_25  and  N2_26 
REMARK   13  A    between atoms: C18_32  and  C19_33 
REMARK   14  A    between atoms: C19_33  and  C20_34 
ROOT
HETATM    1  N1  UNL     1      -2.356  -0.453  -0.307  1.00  0.00    -0.280 N 
HETATM    2  C4  UNL     1      -1.511  -0.766  -1.391  1.00  0.00     0.100 C 
HETATM    3  C5  UNL     1      -0.675  -1.967  -0.996  1.00  0.00     0.169 C 
HETATM    4 BR1  UNL     1       0.880  -2.040  -2.166  1.00  0.00    -0.077 Br
HETATM    5  C6  UNL     1      -0.207  -1.722   0.382  1.00  0.00     0.175 C 
HETATM    6  O5  UNL     1       0.771  -2.467   0.603  1.00  0.00    -0.293 OA
HETATM    7  C7  UNL     1      -0.576  -0.888   1.468  1.00  0.00     0.195 C 
HETATM    8  C8  UNL     1      -0.904   0.585   1.234  1.00  0.00     0.051 C 
HETATM    9  C18 UNL     1      -2.048   0.830   0.381  1.00  0.00     0.131 C 
ENDROOT
BRANCH   8  10
HETATM   10  C9  UNL     1       0.315   1.423   1.270  1.00  0.00     0.036 C 
BRANCH  10  11
HETATM   11  C10 UNL     1       1.384   1.133   0.249  1.00  0.00     0.169 C 
BRANCH  11  12
HETATM   12  O7  UNL     1       2.406   2.083   0.517  1.00  0.00    -0.379 OA
BRANCH  12  13
HETATM   13  C11 UNL     1       3.412   1.848  -0.405  1.00  0.00     0.261 C 
BRANCH  13  14
HETATM   14  C12 UNL     1       3.968   0.499  -0.312  1.00  0.00    -0.079 C 
HETATM   15  C13 UNL     1       4.434  -0.598  -0.253  1.00  0.00    -0.084 C 
BRANCH  15  16
HETATM   16  C14 UNL     1       5.022  -1.957  -0.204  1.00  0.00     0.223 C 
BRANCH  16  17
HETATM   17  N2  UNL     1       6.454  -1.902  -0.104  1.00  0.00    -0.341 N 
HETATM   18  C15 UNL     1       7.327  -1.878  -1.116  1.00  0.00     0.110 A 
HETATM   19  C16 UNL     1       8.614  -1.825  -0.621  1.00  0.00     0.106 A 
HETATM   20  N3  UNL     1       8.498  -1.818   0.715  1.00  0.00    -0.361 N 
HETATM   21  C17 UNL     1       7.176  -1.865   1.022  1.00  0.00     0.183 A 
ATOM     22  H3  UNL     1       9.268  -1.783   1.383  1.00  0.00     0.166 HD
ENDBRANCH  16  17
ENDBRANCH  15  16
ENDBRANCH  13  14
ENDBRANCH  12  13
ENDBRANCH  11  12
ENDBRANCH  10  11
ENDBRANCH   8  10
BRANCH   7  23
HETATM   23  O6  UNL     1      -1.630  -1.443   2.224  1.00  0.00    -0.388 OA
ATOM     24  H6  UNL     1      -1.877  -0.884   2.952  1.00  0.00     0.210 HD
ENDBRANCH   7  23
BRANCH   9  25
HETATM   25  C19 UNL     1      -2.248   1.901  -0.572  1.00  0.00     0.011 C 
BRANCH  25  26
HETATM   26  C20 UNL     1      -2.045   3.312  -0.257  1.00  0.00    -0.033 A 
HETATM   27  C21 UNL     1      -0.951   3.985  -0.724  1.00  0.00     0.053 A 
HETATM   28  C22 UNL     1      -0.720   5.313  -0.453  1.00  0.00     0.118 A 
HETATM   29  F1  UNL     1       0.386   5.947  -0.939  1.00  0.00    -0.206 F 
HETATM   30  C23 UNL     1      -1.609   5.999   0.311  1.00  0.00     0.066 A 
HETATM   31  C24 UNL     1      -2.735   5.369   0.811  1.00  0.00     0.037 A 
HETATM   32 CL1  UNL     1      -3.854   6.293   1.792  1.00  0.00    -0.084 Cl
HETATM   33  C25 UNL     1      -2.938   4.029   0.519  1.00  0.00     0.035 A 
ENDBRANCH  25  26
ENDBRANCH   9  25
BRANCH   1  34
HETATM   34  S1  UNL     1      -4.007  -0.724  -0.544  1.00  0.00     0.233 S 
HETATM   35  O3  UNL     1      -4.764  -0.307   0.685  1.00  0.00    -0.205 OA
HETATM   36  O4  UNL     1      -4.484   0.068  -1.749  1.00  0.00    -0.205 OA
BRANCH  34  37
HETATM   37  C3  UNL     1      -4.398  -2.422  -0.846  1.00  0.00     0.174 C 
BRANCH  37  38
HETATM   38  C2  UNL     1      -4.041  -3.332   0.270  1.00  0.00     0.130 C 
BRANCH  38  39
HETATM   39  C1  UNL     1      -4.436  -4.732  -0.102  1.00  0.00     0.173 C 
HETATM   40  O1  UNL     1      -4.974  -4.964  -1.211  1.00  0.00    -0.648 OA
HETATM   41  O2  UNL     1      -4.172  -5.725   0.838  1.00  0.00    -0.648 OA
ENDBRANCH  38  39
ENDBRANCH  37  38
ENDBRANCH  34  37
ENDBRANCH   1  34
TORSDOF 14
