REMARK  12 active torsions:
REMARK  status: ('A' for Active; 'I' for Inactive)
REMARK    1  A    between atoms: N1_1  and  C1_5 
REMARK    2  A    between atoms: C1_5  and  C2_6 
REMARK    3  A    between atoms: C1_5  and  C13_25 
REMARK    4  A    between atoms: C2_6  and  S1_8 
REMARK    5  A    between atoms: S1_8  and  C3_9 
REMARK    6  A    between atoms: C3_9  and  C4_10 
REMARK    7  A    between atoms: C9_15  and  C10_16 
REMARK    8  A    between atoms: N6_30  and  N7_31 
REMARK    9  A    between atoms: N8_34  and  C17_35 
REMARK   10  A    between atoms: C17_35  and  C18_36 
REMARK   11  A    between atoms: N9_42  and  C21_43 
REMARK   12  A    between atoms: C21_43  and  C22_44 
ROOT
HETATM    1  C13 UNL     1      -0.509  -0.532  -1.743  1.00  0.00     0.225 C 
HETATM    2  C14 UNL     1      -0.174   0.918  -1.721  1.00  0.00     0.259 C 
HETATM    3  O2  UNL     1       0.277   1.452  -2.750  1.00  0.00    -0.270 OA
HETATM    4  N5  UNL     1      -0.374   1.650  -0.554  1.00  0.00    -0.260 N 
ATOM      5  H5  UNL     1       0.167   2.505  -0.426  1.00  0.00     0.186 HD
HETATM    6  N6  UNL     1      -1.255   1.291   0.433  1.00  0.00    -0.038 NA
HETATM    7  C20 UNL     1      -1.749  -0.045   0.311  1.00  0.00     0.341 C 
HETATM    8  O3  UNL     1      -2.238  -0.595   1.313  1.00  0.00    -0.250 OA
HETATM    9  N9  UNL     1      -1.696  -0.754  -0.918  1.00  0.00    -0.295 N 
ENDROOT
BRANCH   1  10
HETATM   10  C1  UNL     1       0.703  -1.306  -1.319  1.00  0.00     0.296 C 
BRANCH  10  11
HETATM   11  N1  UNL     1       1.223  -1.030  -0.030  1.00  0.00    -0.065 N 
ATOM     12  H13 UNL     1       1.964  -1.696   0.187  1.00  0.00     0.275 HD
ATOM     13  H12 UNL     1       1.753  -0.159  -0.057  1.00  0.00     0.275 HD
ATOM     14  H11 UNL     1       0.558  -0.999   0.743  1.00  0.00     0.275 HD
ENDBRANCH  10  11
BRANCH  10  15
HETATM   15  C2  UNL     1       1.665  -1.351  -2.436  1.00  0.00     0.219 C 
HETATM   16  O1  UNL     1       1.099  -1.437  -3.561  1.00  0.00    -0.283 OA
BRANCH  15  17
HETATM   17  S1  UNL     1       3.395  -1.310  -2.470  1.00  0.00    -0.086 SA
BRANCH  17  18
HETATM   18  C3  UNL     1       4.292  -0.931  -0.980  1.00  0.00     0.121 C 
BRANCH  18  19
HETATM   19  C4  UNL     1       4.286   0.492  -0.588  1.00  0.00    -0.035 A 
HETATM   20  C5  UNL     1       3.643   1.441  -1.408  1.00  0.00     0.009 A 
HETATM   21  C6  UNL     1       3.611   2.778  -1.130  1.00  0.00     0.001 A 
HETATM   22  C7  UNL     1       4.235   3.239   0.006  1.00  0.00     0.001 A 
HETATM   23  C8  UNL     1       4.862   2.341   0.810  1.00  0.00     0.016 A 
HETATM   24  C9  UNL     1       4.902   0.954   0.535  1.00  0.00     0.016 A 
BRANCH  24  25
HETATM   25  C10 UNL     1       5.602   0.088   1.458  1.00  0.00     0.130 A 
HETATM   26  N2  UNL     1       6.168   0.656   2.566  1.00  0.00    -0.349 N 
HETATM   27  C11 UNL     1       6.833  -0.057   3.465  1.00  0.00     0.108 A 
ATOM     28  H2  UNL     1       6.076   1.662   2.706  1.00  0.00     0.167 HD
HETATM   29  C12 UNL     1       6.960  -1.418   3.278  1.00  0.00     0.124 A 
HETATM   30  N3  UNL     1       6.403  -1.972   2.190  1.00  0.00    -0.309 N 
HETATM   31  N4  UNL     1       5.757  -1.210   1.337  1.00  0.00    -0.285 N 
ATOM     32  H3  UNL     1       6.481  -2.976   2.027  1.00  0.00     0.186 HD
ATOM     33  H4  UNL     1       5.345  -1.660   0.520  1.00  0.00     0.188 HD
ENDBRANCH  24  25
ENDBRANCH  18  19
ENDBRANCH  17  18
ENDBRANCH  15  17
ENDBRANCH  10  15
ENDBRANCH   1  10
BRANCH   9  34
HETATM   34  C21 UNL     1      -2.739  -1.586  -1.365  1.00  0.00     0.107 C 
BRANCH  34  35
HETATM   35  C22 UNL     1      -2.743  -3.005  -1.052  1.00  0.00    -0.020 A 
HETATM   36  C23 UNL     1      -3.293  -3.498   0.089  1.00  0.00     0.014 A 
HETATM   37  C24 UNL     1      -3.291  -4.854   0.322  1.00  0.00     0.024 A 
HETATM   38  C25 UNL     1      -2.740  -5.734  -0.584  1.00  0.00     0.034 A 
HETATM   39 CL3  UNL     1      -2.746  -7.472  -0.270  1.00  0.00    -0.084 Cl
HETATM   40  C26 UNL     1      -2.175  -5.265  -1.753  1.00  0.00     0.024 A 
HETATM   41  C27 UNL     1      -2.198  -3.908  -1.943  1.00  0.00     0.014 A 
ENDBRANCH  34  35
ENDBRANCH   9  34
BRANCH   6  42
HETATM   42  N7  UNL     1      -2.307   2.213   0.459  1.00  0.00    -0.254 N 
HETATM   43  C15 UNL     1      -2.227   3.549   0.562  1.00  0.00     0.131 A 
HETATM   44  C16 UNL     1      -3.496   4.084   0.553  1.00  0.00     0.110 A 
HETATM   45  N8  UNL     1      -4.343   3.056   0.443  1.00  0.00    -0.348 N 
HETATM   46  C19 UNL     1      -3.628   1.925   0.386  1.00  0.00     0.205 A 
BRANCH  45  47
HETATM   47  C17 UNL     1      -5.779   3.141   0.394  1.00  0.00     0.165 C 
BRANCH  47  48
HETATM   48  C18 UNL     1      -6.344   3.065   1.797  1.00  0.00     0.196 C 
HETATM   49 CL1  UNL     1      -5.917   1.560   2.607  1.00  0.00    -0.106 Cl
HETATM   50 CL2  UNL     1      -8.134   3.132   1.702  1.00  0.00    -0.106 Cl
ENDBRANCH  47  48
ENDBRANCH  45  47
ENDBRANCH   6  42
TORSDOF 12
