REMARK  15 active torsions:
REMARK  status: ('A' for Active; 'I' for Inactive)
REMARK    1  A    between atoms: C2_2  and  C3_3 
REMARK    2  A    between atoms: N1_5  and  C5_6 
REMARK    3  A    between atoms: C5_6  and  C6_7 
REMARK    4  A    between atoms: C6_7  and  C7_8 
REMARK       I    between atoms: C7_8  and  N2_10 
REMARK    5  A    between atoms: C9_12  and  O2_13 
REMARK    6  A    between atoms: C11_16  and  C12_17 
REMARK    7  A    between atoms: N3_22  and  C15_23 
REMARK    8  A    between atoms: C15_23  and  C16_24 
REMARK    9  A    between atoms: C17_25  and  C19_27 
REMARK   10  A    between atoms: C19_27  and  C20_28 
REMARK   11  A    between atoms: C19_27  and  O5_34 
REMARK   12  A    between atoms: C20_28  and  C21_29 
REMARK   13  A    between atoms: C21_29  and  C22_30 
REMARK   14  A    between atoms: O5_34  and  C23_35 
REMARK       I    between atoms: C23_35  and  N4_37 
REMARK       I    between atoms: N5_40  and  C26_41 
REMARK   15  A    between atoms: C26_41  and  O8_43 
ROOT
HETATM    1  C15 UNL     1       0.353   2.187  -0.482  1.00  0.00     0.300 C 
ENDROOT
BRANCH   1   2
HETATM    2  N3  UNL     1      -0.767   1.297  -0.405  1.00  0.00     0.099 N 
HETATM    3  C3  UNL     1      -0.440  -0.036  -0.070  1.00  0.00     0.240 C 
HETATM    4  C4  UNL     1      -1.568  -0.662   0.770  1.00  0.00     0.152 C 
HETATM    5  N1  UNL     1      -2.812  -0.176   0.326  1.00  0.00    -0.408 N 
HETATM    6  C13 UNL     1      -3.002   1.209   0.625  1.00  0.00     0.147 C 
HETATM    7  C14 UNL     1      -1.639   1.860   0.633  1.00  0.00     0.292 C 
BRANCH   3   8
HETATM    8  C2  UNL     1      -0.250  -0.973  -1.235  1.00  0.00     0.033 C 
HETATM    9  C1  UNL     1      -1.472  -1.100  -2.078  1.00  0.00     0.007 C 
ENDBRANCH   3   8
BRANCH   5  10
HETATM   10  C5  UNL     1      -3.956  -1.014   0.503  1.00  0.00     0.126 C 
BRANCH  10  11
HETATM   11  C6  UNL     1      -5.154  -0.245  -0.023  1.00  0.00     0.122 C 
BRANCH  11  12
HETATM   12  C7  UNL     1      -6.402  -1.072   0.096  1.00  0.00     0.222 C 
HETATM   13  O1  UNL     1      -6.320  -2.266   0.486  1.00  0.00    -0.273 OA
HETATM   14  N2  UNL     1      -7.633  -0.468  -0.236  1.00  0.00    -0.335 N 
HETATM   15  C8  UNL     1      -7.787   0.905  -0.681  1.00  0.00     0.158 C 
HETATM   16  C11 UNL     1      -8.928  -1.087  -0.200  1.00  0.00     0.190 C 
HETATM   17  C9  UNL     1      -9.193   1.259  -0.200  1.00  0.00     0.138 C 
HETATM   18  C10 UNL     1      -9.942   0.007  -0.542  1.00  0.00     0.070 C 
BRANCH  17  19
HETATM   19  O2  UNL     1      -9.666   2.373  -0.876  1.00  0.00    -0.394 OA
ATOM     20  H2  UNL     1     -10.540   2.593  -0.577  1.00  0.00     0.210 HD
ENDBRANCH  17  19
BRANCH  16  21
HETATM   21  C12 UNL     1      -9.310  -1.656   1.099  1.00  0.00     0.197 C 
HETATM   22  O3  UNL     1     -10.463  -2.197   1.158  1.00  0.00    -0.646 OA
HETATM   23  O4  UNL     1      -8.529  -1.646   2.233  1.00  0.00    -0.646 OA
ENDBRANCH  16  21
ENDBRANCH  11  12
ENDBRANCH  10  11
ENDBRANCH   5  10
ENDBRANCH   1   2
BRANCH   1  24
HETATM   24  C16 UNL     1       1.214   1.846  -1.637  1.00  0.00     0.008 C 
HETATM   25  C17 UNL     1       2.496   1.565  -1.584  1.00  0.00    -0.057 C 
HETATM   26  C18 UNL     1       3.159   1.242  -2.925  1.00  0.00     0.046 C 
BRANCH  25  27
HETATM   27  C19 UNL     1       3.370   1.548  -0.389  1.00  0.00     0.162 C 
BRANCH  27  28
HETATM   28  C20 UNL     1       4.465   2.603  -0.503  1.00  0.00     0.046 C 
BRANCH  28  29
HETATM   29  C21 UNL     1       3.891   3.989  -0.625  1.00  0.00     0.120 C 
BRANCH  29  30
HETATM   30  C22 UNL     1       5.016   5.000  -0.743  1.00  0.00     0.388 C 
HETATM   31  F1  UNL     1       5.846   4.960   0.389  1.00  0.00    -0.171 F 
HETATM   32  F2  UNL     1       4.487   6.242  -0.883  1.00  0.00    -0.171 F 
HETATM   33  F3  UNL     1       5.856   4.669  -1.808  1.00  0.00    -0.171 F 
ENDBRANCH  29  30
ENDBRANCH  28  29
ENDBRANCH  27  28
BRANCH  27  34
HETATM   34  O5  UNL     1       3.969   0.243  -0.349  1.00  0.00    -0.294 OA
BRANCH  34  35
HETATM   35  C23 UNL     1       3.829  -0.591   0.758  1.00  0.00     0.363 C 
HETATM   36  O6  UNL     1       3.156  -0.111   1.707  1.00  0.00    -0.238 OA
HETATM   37  N4  UNL     1       4.410  -1.876   0.787  1.00  0.00    -0.325 N 
HETATM   38  C24 UNL     1       5.133  -2.347  -0.359  1.00  0.00     0.148 C 
HETATM   39  C29 UNL     1       4.273  -2.690   1.957  1.00  0.00     0.148 C 
HETATM   40  C25 UNL     1       6.329  -3.222  -0.003  1.00  0.00     0.148 C 
HETATM   41  N5  UNL     1       6.562  -3.055   1.408  1.00  0.00    -0.325 N 
HETATM   42  C26 UNL     1       7.786  -2.524   1.868  1.00  0.00     0.362 C 
HETATM   43  C28 UNL     1       5.529  -3.446   2.326  1.00  0.00     0.148 C 
HETATM   44  O7  UNL     1       8.032  -2.359   3.113  1.00  0.00    -0.238 OA
BRANCH  42  45
HETATM   45  O8  UNL     1       8.810  -2.142   1.013  1.00  0.00    -0.309 OA
HETATM   46  C27 UNL     1      10.049  -1.604   1.508  1.00  0.00     0.215 C 
ENDBRANCH  42  45
ENDBRANCH  34  35
ENDBRANCH  27  34
ENDBRANCH  25  27
ENDBRANCH   1  24
TORSDOF 15
