REMARK  7 active torsions:
REMARK  status: ('A' for Active; 'I' for Inactive)
REMARK    1  A    between atoms: C2_2  and  N1_4 
REMARK    2  A    between atoms: N1_4  and  N2_5 
REMARK    3  A    between atoms: N1_4  and  C9_23 
REMARK    4  A    between atoms: N2_5  and  N3_7 
REMARK    5  A    between atoms: N3_7  and  C4_9 
REMARK    6  A    between atoms: C6_13  and  C7_14 
REMARK    7  A    between atoms: C7_14  and  O1_15 
ROOT
HETATM    1  C4  UNL     1       1.597  -0.323  -0.149  1.00  0.00     0.167 A 
HETATM    2  N4  UNL     1       2.733  -0.211   0.517  1.00  0.00    -0.331 N 
ATOM      3  H4  UNL     1       2.751  -0.377   1.523  1.00  0.00     0.168 HD
HETATM    4  C5  UNL     1       3.823   0.108  -0.103  1.00  0.00     0.096 A 
HETATM    5  C6  UNL     1       5.180   0.322   0.206  1.00  0.00     0.078 A 
HETATM    6  N5  UNL     1       5.811   0.640  -0.935  1.00  0.00    -0.299 N 
ATOM      7  H5  UNL     1       6.808   0.848  -0.999  1.00  0.00     0.186 HD
HETATM    8  N6  UNL     1       4.998   0.651  -1.949  1.00  0.00    -0.291 N 
ATOM      9  H6  UNL     1       5.232   0.861  -2.919  1.00  0.00     0.187 HD
HETATM   10  C8  UNL     1       3.763   0.324  -1.453  1.00  0.00     0.121 A 
HETATM   11  S1  UNL     1       2.087   0.044  -1.750  1.00  0.00    -0.031 SA
ENDROOT
BRANCH   1  12
HETATM   12  N3  UNL     1       0.282  -0.665   0.347  1.00  0.00    -0.265 N 
ATOM     13  H3  UNL     1       0.120  -1.353   1.082  1.00  0.00     0.190 HD
BRANCH  12  14
HETATM   14  N2  UNL     1      -0.661  -0.012  -0.234  1.00  0.00    -0.242 N 
ATOM     15  H2  UNL     1      -0.428   0.663  -0.962  1.00  0.00     0.208 HD
BRANCH  14  16
HETATM   16  N1  UNL     1      -2.007  -0.213   0.117  1.00  0.00    -0.301 N 
BRANCH  16  17
HETATM   17  C2  UNL     1      -2.620  -1.439  -0.320  1.00  0.00     0.096 C 
HETATM   18  C1  UNL     1      -3.791  -1.306  -1.219  1.00  0.00     0.033 C 
HETATM   19  C3  UNL     1      -1.591  -2.336  -0.970  1.00  0.00     0.033 C 
ENDBRANCH  16  17
BRANCH  16  20
HETATM   20  C9  UNL     1      -2.643   0.815   0.871  1.00  0.00     0.039 C 
HETATM   21  C10 UNL     1      -3.186   0.353   2.198  1.00  0.00     0.039 C 
HETATM   22  C11 UNL     1      -1.632   1.898   1.188  1.00  0.00     0.039 C 
HETATM   23  C12 UNL     1      -3.696   1.477   0.008  1.00  0.00     0.039 C 
ENDBRANCH  16  20
ENDBRANCH  14  16
ENDBRANCH  12  14
ENDBRANCH   1  12
BRANCH   5  24
HETATM   24  C7  UNL     1       5.812   0.219   1.556  1.00  0.00     0.225 C 
BRANCH  24  25
HETATM   25  O1  UNL     1       7.151   0.500   1.454  1.00  0.00    -0.395 OA
ATOM     26  H1  UNL     1       7.553   0.435   2.312  1.00  0.00     0.209 HD
ENDBRANCH  24  25
ENDBRANCH   5  24
TORSDOF 7
