REMARK  6 active torsions:
REMARK  status: ('A' for Active; 'I' for Inactive)
REMARK    1  A    between atoms: O1_1  and  C1_3 
REMARK    2  A    between atoms: C4_6  and  O2_7 
REMARK    3  A    between atoms: N1_9  and  C5_10 
REMARK    4  A    between atoms: C5_10  and  C6_11 
REMARK    5  A    between atoms: C6_11  and  C7_12 
REMARK    6  A    between atoms: C7_12  and  N2_13 
ROOT
HETATM    1  C1  UNL     1       0.077   0.712   0.489  1.00  0.00     0.151 A 
HETATM    2  C2  UNL     1      -1.222   0.683   0.049  1.00  0.00     0.004 A 
HETATM    3  C3  UNL     1      -1.419  -0.584  -0.453  1.00  0.00     0.008 A 
HETATM    4  C4  UNL     1      -0.244  -1.294  -0.309  1.00  0.00     0.151 A 
HETATM    5  N1  UNL     1       0.680  -0.481   0.277  1.00  0.00    -0.308 N 
HETATM    6  C9  UNL     1      -2.732  -0.938  -1.010  1.00  0.00     0.024 C 
HETATM    7  C10 UNL     1      -3.770  -1.033   0.100  1.00  0.00     0.010 C 
HETATM    8  C11 UNL     1      -4.308   0.352   0.310  1.00  0.00     0.005 C 
HETATM    9  C12 UNL     1      -3.520   1.243  -0.657  1.00  0.00    -0.009 C 
HETATM   10  C13 UNL     1      -2.301   1.719   0.050  1.00  0.00     0.048 C 
HETATM   11  C14 UNL     1      -3.241   0.272  -1.778  1.00  0.00     0.014 C 
ENDROOT
BRANCH   5  12
HETATM   12  C5  UNL     1       2.044  -0.769   0.629  1.00  0.00     0.135 C 
BRANCH  12  13
HETATM   13  C6  UNL     1       2.975  -0.438  -0.512  1.00  0.00     0.041 C 
BRANCH  13  14
HETATM   14  C7  UNL     1       4.402  -0.714  -0.208  1.00  0.00     0.141 C 
BRANCH  14  15
HETATM   15  N2  UNL     1       4.926   0.013   0.908  1.00  0.00    -0.299 N 
HETATM   16  C8  UNL     1       5.540   1.180   1.176  1.00  0.00     0.199 A 
HETATM   17  N3  UNL     1       5.748   1.202   2.505  1.00  0.00    -0.308 N 
HETATM   18  S1  UNL     1       5.018  -0.298   2.556  1.00  0.00     0.071 SA
ATOM     19  H3  UNL     1       6.164   1.845   3.178  1.00  0.00     0.176 HD
ENDBRANCH  14  15
ENDBRANCH  13  14
ENDBRANCH  12  13
ENDBRANCH   5  12
BRANCH   1  20
HETATM   20  O1  UNL     1       0.654   1.851   1.073  1.00  0.00    -0.345 OA
ATOM     21  H1  UNL     1       1.554   1.871   1.378  1.00  0.00     0.219 HD
ENDBRANCH   1  20
BRANCH   4  22
HETATM   22  O2  UNL     1      -0.024  -2.618  -0.694  1.00  0.00    -0.345 OA
ATOM     23  H2  UNL     1       0.785  -3.107  -0.595  1.00  0.00     0.219 HD
ENDBRANCH   4  22
TORSDOF 6
