REMARK  6 active torsions:
REMARK  status: ('A' for Active; 'I' for Inactive)
REMARK    1  A    between atoms: C1_2  and  C2_3 
REMARK    2  A    between atoms: C1_2  and  O2_10 
REMARK    3  A    between atoms: C3_4  and  C4_5 
REMARK    4  A    between atoms: O2_10  and  C8_11 
REMARK    5  A    between atoms: N1_13  and  O3_15 
REMARK    6  A    between atoms: C13_20  and  O4_21 
ROOT
HETATM    1  C8  UNL     1      -1.615   0.435   0.111  1.00  0.00     0.208 C 
HETATM    2  C9  UNL     1      -2.594  -0.617   0.464  1.00  0.00     0.042 C 
HETATM    3  N1  UNL     1      -2.362  -1.867   0.374  1.00  0.00    -0.275 N 
ATOM      4  H1  UNL     1      -1.454  -2.192   0.041  1.00  0.00     0.193 HD
HETATM    5  C10 UNL     1      -3.931  -0.140   0.953  1.00  0.00     0.057 C 
HETATM    6  C11 UNL     1      -4.481   0.942   0.055  1.00  0.00     0.008 C 
HETATM    7  C12 UNL     1      -3.454   1.973  -0.303  1.00  0.00     0.035 C 
HETATM    8  C13 UNL     1      -2.275   1.289  -0.978  1.00  0.00     0.153 C 
ENDROOT
BRANCH   1   9
HETATM    9  O2  UNL     1      -0.398  -0.065  -0.344  1.00  0.00    -0.304 OA
BRANCH   9  10
HETATM   10  C1  UNL     1       0.814   0.271   0.270  1.00  0.00     0.283 C 
HETATM   11  O1  UNL     1       0.735   1.047   1.251  1.00  0.00    -0.260 OA
BRANCH  10  12
HETATM   12  C2  UNL     1       2.086  -0.240  -0.190  1.00  0.00     0.083 C 
HETATM   13  C3  UNL     1       3.189   0.119   0.436  1.00  0.00     0.025 C 
BRANCH  13  14
HETATM   14  C4  UNL     1       4.505  -0.393  -0.018  1.00  0.00     0.005 A 
HETATM   15  C5  UNL     1       5.739  -0.127   0.509  1.00  0.00     0.019 A 
HETATM   16  C6  UNL     1       6.791  -0.708  -0.073  1.00  0.00     0.008 A 
HETATM   17  C7  UNL     1       6.555  -1.520  -1.148  1.00  0.00     0.050 A 
HETATM   18  S1  UNL     1       4.857  -1.445  -1.309  1.00  0.00    -0.102 SA
ENDBRANCH  13  14
ENDBRANCH  10  12
ENDBRANCH   9  10
ENDBRANCH   1   9
BRANCH   8  19
HETATM   19  O4  UNL     1      -2.736   0.478  -2.022  1.00  0.00    -0.393 OA
ATOM     20  H4  UNL     1      -3.145   1.007  -2.697  1.00  0.00     0.210 HD
ENDBRANCH   8  19
BRANCH   3  21
HETATM   21  O3  UNL     1      -3.328  -2.779   0.723  1.00  0.00    -0.290 OA
ATOM     22  H3  UNL     1      -3.155  -3.711   0.656  1.00  0.00     0.244 HD
ENDBRANCH   3  21
TORSDOF 6
