REMARK  5 active torsions:
REMARK  status: ('A' for Active; 'I' for Inactive)
REMARK    1  A    between atoms: C3_3  and  C4_4 
REMARK    2  A    between atoms: C6_6  and  C7_7 
REMARK    3  A    between atoms: N1_8  and  O1_10 
REMARK    4  A    between atoms: C9_15  and  N2_16 
REMARK    5  A    between atoms: N2_16  and  N3_18 
ROOT
HETATM    1  C1  UNL     1       0.490   2.165   1.895  1.00  0.00     0.012 C 
HETATM    2  C2  UNL     1       1.097   1.107   1.908  1.00  0.00    -0.113 C 
HETATM    3  C3  UNL     1       1.829  -0.146   1.957  1.00  0.00     0.136 C 
ENDROOT
BRANCH   3   4
HETATM    4  C4  UNL     1       2.492  -0.417   0.671  1.00  0.00     0.007 A 
HETATM    5  C5  UNL     1       3.870  -0.177   0.585  1.00  0.00     0.031 A 
HETATM    6  C6  UNL     1       4.497  -0.431  -0.603  1.00  0.00     0.058 A 
HETATM    7  C8  UNL     1       3.775  -0.915  -1.692  1.00  0.00     0.301 A 
HETATM    8  O2  UNL     1       4.354  -1.155  -2.799  1.00  0.00    -0.259 OA
HETATM    9  O3  UNL     1       2.505  -1.116  -1.548  1.00  0.00    -0.256 OA
HETATM   10  C9  UNL     1       1.837  -0.894  -0.438  1.00  0.00     0.173 A 
BRANCH   6  11
HETATM   11  C7  UNL     1       5.920  -0.205  -0.742  1.00  0.00     0.131 C 
HETATM   12  N1  UNL     1       6.738   0.227   0.107  1.00  0.00    -0.280 N 
ATOM     13  H1  UNL     1       7.685   0.286  -0.266  1.00  0.00     0.193 HD
BRANCH  12  14
HETATM   14  O1  UNL     1       6.672   0.624   1.367  1.00  0.00    -0.290 OA
ATOM     15  H1  UNL     1       7.291   0.951   2.009  1.00  0.00     0.244 HD
ENDBRANCH  12  14
ENDBRANCH   6  11
BRANCH  10  16
HETATM   16  N2  UNL     1       0.443  -1.134  -0.345  1.00  0.00    -0.279 N 
ATOM     17  H2  UNL     1       0.095  -1.984   0.098  1.00  0.00     0.189 HD
BRANCH  16  18
HETATM   18  N3  UNL     1      -0.436  -0.208  -0.859  1.00  0.00    -0.307 N 
HETATM   19  C10 UNL     1      -1.681  -0.093  -0.670  1.00  0.00     0.004 C 
HETATM   20  C11 UNL     1      -2.455  -0.994   0.191  1.00  0.00     0.054 C 
HETATM   21  C16 UNL     1      -2.263   1.073  -1.428  1.00  0.00     0.054 C 
HETATM   22  C12 UNL     1      -3.706  -1.500  -0.519  1.00  0.00     0.006 C 
HETATM   23  C13 UNL     1      -4.798  -0.509  -0.301  1.00  0.00     0.000 C 
HETATM   24  C14 UNL     1      -4.685   0.726  -1.156  1.00  0.00     0.000 C 
HETATM   25  C15 UNL     1      -3.513   1.593  -0.763  1.00  0.00     0.006 C 
ATOM     26  H3  UNL     1      -0.023   0.486  -1.483  1.00  0.00     0.186 HD
ENDBRANCH  16  18
ENDBRANCH  10  16
ENDBRANCH   3   4
TORSDOF 5
