REMARK  9 active torsions:
REMARK  status: ('A' for Active; 'I' for Inactive)
REMARK    1  A    between atoms: N1_1  and  C1_4 
REMARK    2  A    between atoms: C3_8  and  C4_9 
REMARK    3  A    between atoms: C4_9  and  C5_10 
REMARK    4  A    between atoms: C4_9  and  C7_15 
REMARK    5  A    between atoms: C5_10  and  C6_11 
REMARK    6  A    between atoms: C6_11  and  N3_12 
REMARK    7  A    between atoms: C7_15  and  N4_16 
REMARK    8  A    between atoms: N4_16  and  C8_19 
REMARK    9  A    between atoms: C8_19  and  C9_20 
ROOT
HETATM    1  C4  UNL     1      -1.031  -0.438  -0.015  1.00  0.00     0.051 C 
ENDROOT
BRANCH   1   2
HETATM    2  C3  UNL     1      -2.277   0.374   0.294  1.00  0.00     0.005 A 
HETATM    3  C2  UNL     1      -2.704   0.562   1.572  1.00  0.00     0.117 A 
HETATM    4  N2  UNL     1      -3.820   1.330   1.767  1.00  0.00    -0.202 N 
HETATM    5  C1  UNL     1      -4.476   1.884   0.697  1.00  0.00     0.676 A 
ATOM      6  H2  UNL     1      -4.166   1.491   2.713  1.00  0.00     0.183 HD
HETATM    7  N6  UNL     1      -4.026   1.676  -0.555  1.00  0.00    -0.179 N 
HETATM    8  C12 UNL     1      -2.917   0.921  -0.813  1.00  0.00     0.140 A 
ATOM      9  H6  UNL     1      -4.530   2.096  -1.336  1.00  0.00     0.185 HD
HETATM   10  N5  UNL     1      -2.488   0.714  -2.156  1.00  0.00    -0.082 NA
BRANCH   5  11
HETATM   11  N1  UNL     1      -5.535   2.588   0.937  1.00  0.00    -0.234 N 
ATOM     12  H12 UNL     1      -5.876   2.746   1.885  1.00  0.00     0.174 HD
ATOM     13  H11 UNL     1      -6.023   3.000   0.141  1.00  0.00     0.174 HD
ENDBRANCH   5  11
ENDBRANCH   1   2
BRANCH   1  14
HETATM   14  C5  UNL     1      -0.781  -1.311   1.185  1.00  0.00     0.037 C 
BRANCH  14  15
HETATM   15  C6  UNL     1       0.363  -2.272   1.100  1.00  0.00     0.202 C 
BRANCH  15  16
HETATM   16  N3  UNL     1       0.391  -3.095   2.339  1.00  0.00    -0.156 N 
HETATM   17  O1  UNL     1       1.340  -3.099   3.110  1.00  0.00    -0.537 OA
HETATM   18  O2  UNL     1      -0.725  -3.838   2.543  1.00  0.00    -0.537 OA
ENDBRANCH  15  16
ENDBRANCH  14  15
ENDBRANCH   1  14
BRANCH   1  19
HETATM   19  C7  UNL     1       0.118   0.565  -0.121  1.00  0.00     0.241 C 
BRANCH  19  20
HETATM   20  N4  UNL     1       1.332  -0.082  -0.414  1.00  0.00    -0.074 N 
ATOM     21  H42 UNL     1       1.401  -0.959   0.103  1.00  0.00     0.277 HD
ATOM     22  H41 UNL     1       1.322  -0.442  -1.368  1.00  0.00     0.277 HD
BRANCH  20  23
HETATM   23  C8  UNL     1       2.517   0.733  -0.192  1.00  0.00     0.237 C 
BRANCH  23  24
HETATM   24  C9  UNL     1       3.699  -0.181  -0.379  1.00  0.00     0.011 A 
HETATM   25  C10 UNL     1       5.106   0.248  -0.205  1.00  0.00     0.007 A 
HETATM   26  C11 UNL     1       4.556   0.237  -1.585  1.00  0.00     0.007 A 
ENDBRANCH  23  24
ENDBRANCH  20  23
ENDBRANCH  19  20
ENDBRANCH   1  19
TORSDOF 9
