REMARK  8 active torsions:
REMARK  status: ('A' for Active; 'I' for Inactive)
REMARK    1  A    between atoms: C1_2  and  C2_3 
REMARK    2  A    between atoms: C2_3  and  N1_4 
REMARK    3  A    between atoms: N1_4  and  C3_7 
REMARK    4  A    between atoms: C3_7  and  C4_8 
REMARK       I    between atoms: C4_8  and  N2_10 
REMARK    5  A    between atoms: N2_10  and  C5_12 
REMARK    6  A    between atoms: C5_12  and  C6_13 
REMARK    7  A    between atoms: C6_13  and  N3_14 
REMARK    8  A    between atoms: N3_14  and  C7_16 
ROOT
HETATM    1  N3  UNL     1      -1.933  -0.541  -0.196  1.00  0.00    -0.386 N 
ATOM      2  H3  UNL     1      -1.782  -1.266  -0.897  1.00  0.00     0.159 HD
ENDROOT
BRANCH   1   3
HETATM    3  C6  UNL     1      -0.797   0.040   0.485  1.00  0.00     0.139 C 
BRANCH   3   4
HETATM    4  C5  UNL     1       0.510  -0.485  -0.054  1.00  0.00     0.142 C 
BRANCH   4   5
HETATM    5  N2  UNL     1       1.597   0.131   0.677  1.00  0.00    -0.358 N 
HETATM    6  C4  UNL     1       2.963  -0.160   0.363  1.00  0.00     0.243 C 
HETATM    7  O2  UNL     1       3.172  -0.963  -0.574  1.00  0.00    -0.272 OA
ATOM      8  H2  UNL     1       1.386   0.785   1.431  1.00  0.00     0.162 HD
BRANCH   6   9
HETATM    9  C3  UNL     1       4.013   0.510   1.169  1.00  0.00     0.335 C 
BRANCH   9  10
HETATM   10  N1  UNL     1       5.358   0.181   0.753  1.00  0.00    -0.061 N 
ATOM     11  H12 UNL     1       5.516  -0.826   0.732  1.00  0.00     0.278 HD
ATOM     12  H11 UNL     1       6.048   0.425   1.463  1.00  0.00     0.278 HD
BRANCH  10  13
HETATM   13  C2  UNL     1       5.643   0.794  -0.504  1.00  0.00     0.301 C 
BRANCH  13  14
HETATM   14  C1  UNL     1       6.995   0.427  -1.027  1.00  0.00     0.258 C 
HETATM   15  O1  UNL     1       7.676  -0.317  -0.330  1.00  0.00    -0.305 OA
ENDBRANCH  13  14
ENDBRANCH  10  13
ENDBRANCH   9  10
ENDBRANCH   6   9
ENDBRANCH   4   5
ENDBRANCH   3   4
ENDBRANCH   1   3
BRANCH   1  16
HETATM   16  C7  UNL     1      -3.251  -0.117   0.097  1.00  0.00     0.060 A 
HETATM   17  C8  UNL     1      -3.461   0.898   1.009  1.00  0.00     0.048 A 
HETATM   18  C9  UNL     1      -4.745   1.325   1.292  1.00  0.00     0.092 A 
HETATM   19  N4  UNL     1      -5.798   0.749   0.675  1.00  0.00    -0.350 N 
HETATM   20  C10 UNL     1      -5.650  -0.248  -0.226  1.00  0.00     0.135 A 
ATOM     21  H4  UNL     1      -6.738   1.077   0.896  1.00  0.00     0.166 HD
HETATM   22  N5  UNL     1      -6.548  -0.949  -0.939  1.00  0.00    -0.337 N 
HETATM   23  C12 UNL     1      -4.365  -0.665  -0.499  1.00  0.00     0.104 A 
HETATM   24  C11 UNL     1      -5.827  -1.818  -1.670  1.00  0.00     0.182 A 
ATOM     25  H5  UNL     1      -7.563  -0.844  -0.928  1.00  0.00     0.168 HD
HETATM   26  N6  UNL     1      -4.517  -1.658  -1.416  1.00  0.00    -0.347 N 
ATOM     27  H6  UNL     1      -3.760  -2.194  -1.841  1.00  0.00     0.167 HD
ENDBRANCH   1  16
TORSDOF 8
