REMARK  13 active torsions:
REMARK  status: ('A' for Active; 'I' for Inactive)
REMARK    1  A    between atoms: C2_2  and  C4_4 
REMARK    2  A    between atoms: C4_4  and  O1_5 
REMARK    3  A    between atoms: C4_4  and  C5_7 
REMARK    4  A    between atoms: C5_7  and  C6_8 
REMARK    5  A    between atoms: C5_7  and  N4_16 
REMARK    6  A    between atoms: C6_8  and  N1_9 
REMARK    7  A    between atoms: N1_9  and  N2_11 
REMARK    8  A    between atoms: C15_31  and  N7_32 
REMARK    9  A    between atoms: N7_32  and  C16_35 
REMARK   10  A    between atoms: C16_35  and  C17_36 
REMARK   11  A    between atoms: C17_36  and  C18_37 
REMARK   12  A    between atoms: C18_37  and  O2_38 
REMARK   13  A    between atoms: O2_38  and  N8_39 
ROOT
HETATM    1  N4  UNL     1      -2.249  -0.570   0.563  1.00  0.00    -0.343 N 
HETATM    2  C7  UNL     1      -2.645   0.767   0.922  1.00  0.00     0.126 C 
HETATM    3  C8  UNL     1      -1.583   1.770   1.171  1.00  0.00     0.022 C 
HETATM    4  C9  UNL     1      -2.293   3.140   1.154  1.00  0.00     0.029 C 
HETATM    5  C10 UNL     1      -1.291   4.257   1.036  1.00  0.00     0.232 C 
HETATM    6  N5  UNL     1      -0.363   4.058  -0.043  1.00  0.00    -0.074 N 
ATOM      7  H51 UNL     1      -0.542   4.675  -0.836  1.00  0.00     0.277 HD
ATOM      8  H52 UNL     1      -0.504   3.171  -0.526  1.00  0.00     0.277 HD
HETATM    9  C11 UNL     1       0.980   4.201   0.488  1.00  0.00     0.259 C 
HETATM   10  C12 UNL     1       2.030   4.024  -0.577  1.00  0.00     0.259 C 
HETATM   11  N6  UNL     1       3.096   3.150  -0.182  1.00  0.00    -0.073 N 
ATOM     12  H61 UNL     1       3.093   3.004   0.827  1.00  0.00     0.277 HD
ATOM     13  H62 UNL     1       4.001   3.611  -0.280  1.00  0.00     0.277 HD
HETATM   14  C13 UNL     1       3.079   1.886  -0.888  1.00  0.00     0.234 C 
HETATM   15  C14 UNL     1       2.868   0.797   0.161  1.00  0.00     0.060 C 
HETATM   16  C15 UNL     1       2.396  -0.483  -0.450  1.00  0.00     0.188 C 
HETATM   17  C19 UNL     1       0.910  -0.596  -0.481  1.00  0.00     0.042 C 
HETATM   18  C20 UNL     1       0.328  -0.701   0.910  1.00  0.00     0.105 C 
HETATM   19  C21 UNL     1      -1.062  -1.243   0.856  1.00  0.00     0.220 C 
HETATM   20  O5  UNL     1      -1.173  -2.496   1.112  1.00  0.00    -0.273 OA
ENDROOT
BRANCH   1  21
HETATM   21  C5  UNL     1      -3.278  -1.288  -0.215  1.00  0.00     0.139 C 
BRANCH  21  22
HETATM   22  C4  UNL     1      -4.625  -1.358   0.336  1.00  0.00     0.170 C 
BRANCH  22  23
HETATM   23  C2  UNL     1      -4.879  -2.294   1.460  1.00  0.00    -0.063 C 
HETATM   24  C1  UNL     1      -5.711  -3.333   1.293  1.00  0.00     0.016 C 
HETATM   25  C3  UNL     1      -4.265  -2.174   2.808  1.00  0.00     0.045 C 
ENDBRANCH  22  23
BRANCH  22  26
HETATM   26  O1  UNL     1      -5.227  -0.109   0.575  1.00  0.00    -0.389 OA
ATOM     27  H1  UNL     1      -5.064   0.490  -0.144  1.00  0.00     0.210 HD
ENDBRANCH  22  26
ENDBRANCH  21  22
BRANCH  21  28
HETATM   28  C6  UNL     1      -3.317  -0.658  -1.612  1.00  0.00     0.169 C 
BRANCH  28  29
HETATM   29  N1  UNL     1      -4.122  -1.498  -2.473  1.00  0.00    -0.321 N 
ATOM     30  H1  UNL     1      -4.513  -2.373  -2.123  1.00  0.00     0.181 HD
BRANCH  29  31
HETATM   31  N2  UNL     1      -4.359  -1.092  -3.800  1.00  0.00    -0.254 N 
HETATM   32  N3  UNL     1      -5.472  -0.651  -4.179  1.00  0.00    -0.331 N 
ATOM     33  H32 UNL     1      -6.220  -0.591  -3.488  1.00  0.00     0.178 HD
ATOM     34  H31 UNL     1      -5.644  -0.357  -5.140  1.00  0.00     0.178 HD
ATOM     35  H2  UNL     1      -3.600  -1.158  -4.478  1.00  0.00     0.207 HD
ENDBRANCH  29  31
ENDBRANCH  28  29
ENDBRANCH  21  28
ENDBRANCH   1  21
BRANCH  16  36
HETATM   36  N7  UNL     1       2.971  -1.651   0.163  1.00  0.00    -0.071 N 
ATOM     37  H72 UNL     1       2.731  -1.693   1.154  1.00  0.00     0.277 HD
ATOM     38  H71 UNL     1       2.501  -2.496  -0.162  1.00  0.00     0.277 HD
BRANCH  36  39
HETATM   39  C16 UNL     1       4.412  -1.760  -0.022  1.00  0.00     0.235 C 
BRANCH  39  40
HETATM   40  C17 UNL     1       4.810  -2.034  -1.443  1.00  0.00     0.056 C 
BRANCH  40  41
HETATM   41  C18 UNL     1       6.338  -2.133  -1.472  1.00  0.00     0.209 C 
BRANCH  41  42
HETATM   42  O2  UNL     1       6.763  -3.185  -0.620  1.00  0.00    -0.221 OA
BRANCH  42  43
HETATM   43  N8  UNL     1       8.081  -3.499  -0.451  1.00  0.00     0.004 N 
HETATM   44  O3  UNL     1       8.984  -2.945  -1.109  1.00  0.00    -0.511 OA
HETATM   45  O4  UNL     1       8.441  -4.451   0.469  1.00  0.00    -0.511 OA
ENDBRANCH  42  43
ENDBRANCH  41  42
ENDBRANCH  40  41
ENDBRANCH  39  40
ENDBRANCH  36  39
ENDBRANCH  16  36
TORSDOF 13
