REMARK  11 active torsions:
REMARK  status: ('A' for Active; 'I' for Inactive)
REMARK    1  A    between atoms: C2_2  and  N1_3 
REMARK    2  A    between atoms: N1_3  and  C3_4 
REMARK    3  A    between atoms: N1_3  and  C5_6 
REMARK    4  A    between atoms: C5_6  and  O1_7 
REMARK    5  A    between atoms: C5_6  and  C6_9 
REMARK    6  A    between atoms: C9_12  and  N2_13 
REMARK    7  A    between atoms: C13_17  and  C14_18 
REMARK    8  A    between atoms: C17_23  and  N3_24 
REMARK       I    between atoms: N3_24  and  C18_26 
REMARK       I    between atoms: C18_26  and  N4_28 
REMARK    9  A    between atoms: N4_28  and  C19_30 
REMARK   10  A    between atoms: C19_30  and  C20_31 
REMARK       I    between atoms: C20_31  and  N5_33 
REMARK   11  A    between atoms: N5_33  and  C21_35 
ROOT
HETATM    1  C21 UNL     1      -6.497   5.339   0.578  1.00  0.00     0.247 C 
HETATM    2  C22 UNL     1      -6.106   5.487   1.962  1.00  0.00     0.078 C 
HETATM    3  N6  UNL     1      -5.770   5.601   3.067  1.00  0.00    -0.196 NA
ENDROOT
BRANCH   1   4
HETATM    4  N5  UNL     1      -6.616   3.906   0.251  1.00  0.00    -0.347 N 
HETATM    5  C20 UNL     1      -5.475   3.068   0.376  1.00  0.00     0.246 C 
HETATM    6  O3  UNL     1      -4.400   3.606   0.760  1.00  0.00    -0.271 OA
ATOM      7  H5  UNL     1      -7.507   3.521  -0.061  1.00  0.00     0.163 HD
BRANCH   5   8
HETATM    8  C19 UNL     1      -5.540   1.585   0.061  1.00  0.00     0.115 C 
HETATM    9  C23 UNL     1      -6.470   1.001   1.067  1.00  0.00     0.041 C 
HETATM   10  C24 UNL     1      -7.584   0.161   0.596  1.00  0.00     0.003 C 
HETATM   11  C25 UNL     1      -8.164   0.580  -0.710  1.00  0.00     0.000 C 
HETATM   12  C26 UNL     1      -7.063   0.589  -1.719  1.00  0.00     0.003 C 
HETATM   13  C27 UNL     1      -5.949   1.489  -1.359  1.00  0.00     0.041 C 
BRANCH   8  14
HETATM   14  N4  UNL     1      -4.182   1.114   0.242  1.00  0.00    -0.325 N 
HETATM   15  C18 UNL     1      -3.745  -0.227   0.098  1.00  0.00     0.321 C 
HETATM   16  N3  UNL     1      -2.396  -0.549   0.295  1.00  0.00    -0.308 N 
HETATM   17  O2  UNL     1      -4.593  -1.073  -0.201  1.00  0.00    -0.247 OA
ATOM     18  H3  UNL     1      -1.787   0.236   0.525  1.00  0.00     0.170 HD
ATOM     19  H4  UNL     1      -3.479   1.808   0.495  1.00  0.00     0.165 HD
BRANCH  16  20
HETATM   20  C17 UNL     1      -1.760  -1.812   0.220  1.00  0.00     0.045 A 
HETATM   21  C16 UNL     1      -2.409  -3.008   0.026  1.00  0.00     0.043 A 
HETATM   22  C13 UNL     1      -1.740  -4.245  -0.014  1.00  0.00     0.015 A 
HETATM   23  C12 UNL     1      -0.377  -4.231   0.150  1.00  0.00     0.022 A 
HETATM   24  C11 UNL     1       0.325  -3.056   0.346  1.00  0.00    -0.019 A 
HETATM   25  C10 UNL     1       1.767  -2.832   0.552  1.00  0.00     0.312 A 
HETATM   26  C28 UNL     1      -0.360  -1.878   0.379  1.00  0.00     0.005 A 
HETATM   27  N2  UNL     1       1.894  -1.405   0.763  1.00  0.00     0.101 N 
HETATM   28  C29 UNL     1       0.625  -0.794   0.573  1.00  0.00     0.315 A 
BRANCH  22  29
HETATM   29  C14 UNL     1      -2.489  -5.506  -0.229  1.00  0.00     0.267 C 
HETATM   30  C15 UNL     1      -2.095  -6.462   0.893  1.00  0.00     0.096 C 
HETATM   31  F1  UNL     1      -2.121  -6.101  -1.435  1.00  0.00    -0.201 F 
HETATM   32  F2  UNL     1      -3.844  -5.218  -0.190  1.00  0.00    -0.201 F 
ENDBRANCH  22  29
BRANCH  27  33
HETATM   33  C9  UNL     1       2.881  -0.844  -0.158  1.00  0.00     0.224 C 
HETATM   34  C8  UNL     1       3.276   0.519   0.347  1.00  0.00     0.036 C 
HETATM   35  C7  UNL     1       4.199   1.211  -0.657  1.00  0.00     0.015 C 
HETATM   36  C6  UNL     1       5.296   0.273  -0.994  1.00  0.00     0.060 C 
HETATM   37  C31 UNL     1       5.382  -0.910  -0.006  1.00  0.00     0.015 C 
HETATM   38  C30 UNL     1       4.108  -1.728  -0.168  1.00  0.00     0.036 C 
BRANCH  36  39
HETATM   39  C5  UNL     1       6.616   0.785  -1.307  1.00  0.00     0.117 C 
BRANCH  39  40
HETATM   40  N1  UNL     1       7.563   1.462  -0.534  1.00  0.00    -0.366 N 
BRANCH  40  41
HETATM   41  C2  UNL     1       7.369   1.894   0.813  1.00  0.00     0.120 C 
HETATM   42  C1  UNL     1       6.924   3.358   0.915  1.00  0.00     0.026 C 
ENDBRANCH  40  41
BRANCH  40  43
HETATM   43  C3  UNL     1       8.878   1.743  -1.159  1.00  0.00     0.120 C 
HETATM   44  C4  UNL     1       9.846   0.605  -0.901  1.00  0.00     0.026 C 
ENDBRANCH  40  43
ENDBRANCH  39  40
BRANCH  39  45
HETATM   45  O1  UNL     1       7.018   0.576  -2.549  1.00  0.00    -0.349 OA
ATOM     46  H1  UNL     1       6.374   0.116  -3.075  1.00  0.00     0.219 HD
ENDBRANCH  39  45
ENDBRANCH  36  39
ENDBRANCH  27  33
ENDBRANCH  16  20
ENDBRANCH   8  14
ENDBRANCH   5   8
ENDBRANCH   1   4
TORSDOF 11
