REMARK  13 active torsions:
REMARK  status: ('A' for Active; 'I' for Inactive)
REMARK    1  A    between atoms: C2_2  and  O1_3 
REMARK    2  A    between atoms: C2_2  and  C8_12 
REMARK    3  A    between atoms: O1_3  and  C3_4 
REMARK       I    between atoms: C3_4  and  N1_6 
REMARK    4  A    between atoms: N1_6  and  C4_8 
REMARK    5  A    between atoms: C8_12  and  C9_13 
REMARK    6  A    between atoms: C8_12  and  C14_20 
REMARK    7  A    between atoms: C9_13  and  C10_14 
REMARK    8  A    between atoms: C10_14  and  C12_16 
REMARK       I    between atoms: C14_20  and  N2_22 
REMARK    9  A    between atoms: C18_26  and  C19_27 
REMARK       I    between atoms: C19_27  and  N3_29 
REMARK   10  A    between atoms: N3_29  and  C20_31 
REMARK   11  A    between atoms: C20_31  and  C21_32 
REMARK   12  A    between atoms: C21_32  and  O5_33 
REMARK   13  A    between atoms: C21_32  and  C22_35 
ROOT
HETATM    1  C14 UNL     1      -2.015  -0.863   2.798  1.00  0.00     0.227 C 
HETATM    2  O3  UNL     1      -2.226  -1.032   4.050  1.00  0.00    -0.273 OA
HETATM    3  N2  UNL     1      -0.735  -1.141   2.319  1.00  0.00    -0.335 N 
HETATM    4  C15 UNL     1      -0.244  -1.070   0.968  1.00  0.00     0.166 C 
HETATM    5  C16 UNL     1       1.208  -0.759   1.088  1.00  0.00    -0.030 A 
HETATM    6  C17 UNL     1       2.087  -0.288   0.152  1.00  0.00     0.026 A 
HETATM    7  C18 UNL     1       3.408  -0.058   0.482  1.00  0.00     0.032 A 
HETATM    8  C26 UNL     1       3.767  -0.326   1.782  1.00  0.00     0.017 A 
HETATM    9  C27 UNL     1       2.883  -0.802   2.731  1.00  0.00     0.011 A 
HETATM   10  C28 UNL     1       1.556  -1.029   2.378  1.00  0.00    -0.023 A 
HETATM   11  C29 UNL     1       0.383  -1.554   3.124  1.00  0.00     0.056 C 
HETATM   12  C30 UNL     1       0.399  -0.902   4.491  1.00  0.00     0.044 C 
HETATM   13  C31 UNL     1       0.403  -3.069   3.219  1.00  0.00     0.044 C 
ENDROOT
BRANCH   1  14
HETATM   14  C8  UNL     1      -3.187  -0.374   1.975  1.00  0.00     0.108 C 
BRANCH  14  15
HETATM   15  C2  UNL     1      -3.607  -1.488   1.066  1.00  0.00     0.142 C 
HETATM   16  C1  UNL     1      -4.140  -2.709   1.768  1.00  0.00     0.041 C 
BRANCH  15  17
HETATM   17  O1  UNL     1      -4.489  -1.115   0.060  1.00  0.00    -0.298 OA
BRANCH  17  18
HETATM   18  C3  UNL     1      -4.265  -1.026  -1.288  1.00  0.00     0.361 C 
HETATM   19  O2  UNL     1      -3.104  -1.324  -1.679  1.00  0.00    -0.238 OA
HETATM   20  N1  UNL     1      -5.313  -0.614  -2.139  1.00  0.00    -0.329 N 
ATOM     21  H1  UNL     1      -6.228  -0.401  -1.742  1.00  0.00     0.165 HD
BRANCH  20  22
HETATM   22  C4  UNL     1      -5.107  -0.489  -3.577  1.00  0.00     0.024 C 
HETATM   23  C5  UNL     1      -6.407  -0.035  -4.246  1.00  0.00     0.037 C 
HETATM   24  C6  UNL     1      -4.711  -1.787  -4.208  1.00  0.00     0.037 C 
HETATM   25  C7  UNL     1      -4.023   0.529  -3.838  1.00  0.00     0.037 C 
ENDBRANCH  20  22
ENDBRANCH  17  18
ENDBRANCH  15  17
ENDBRANCH  14  15
BRANCH  14  26
HETATM   26  C9  UNL     1      -4.122   0.250   2.887  1.00  0.00     0.027 C 
BRANCH  26  27
HETATM   27  C10 UNL     1      -5.332   0.970   2.572  1.00  0.00     0.054 C 
HETATM   28  C11 UNL     1      -6.468   0.299   1.865  1.00  0.00     0.016 C 
BRANCH  27  29
HETATM   29  C12 UNL     1      -5.145   2.322   1.897  1.00  0.00     0.243 C 
HETATM   30  C13 UNL     1      -4.355   3.301   2.695  1.00  0.00     0.090 C 
HETATM   31  F1  UNL     1      -6.448   2.852   1.822  1.00  0.00    -0.206 F 
HETATM   32  F2  UNL     1      -4.729   2.222   0.588  1.00  0.00    -0.206 F 
ENDBRANCH  27  29
ENDBRANCH  26  27
ENDBRANCH  14  26
ENDBRANCH   1  14
BRANCH   7  33
HETATM   33  C19 UNL     1       4.393   0.398  -0.491  1.00  0.00     0.251 C 
HETATM   34  O4  UNL     1       4.407  -0.286  -1.571  1.00  0.00    -0.268 OA
HETATM   35  N3  UNL     1       5.264   1.483  -0.292  1.00  0.00    -0.354 N 
ATOM     36  H3  UNL     1       5.199   2.002   0.584  1.00  0.00     0.162 HD
BRANCH  35  37
HETATM   37  C20 UNL     1       6.235   1.896  -1.254  1.00  0.00     0.155 C 
BRANCH  37  38
HETATM   38  C21 UNL     1       7.242   0.806  -1.485  1.00  0.00     0.143 C 
BRANCH  38  39
HETATM   39  O5  UNL     1       7.909   0.495  -0.278  1.00  0.00    -0.393 OA
ATOM     40  H5  UNL     1       8.546  -0.194  -0.424  1.00  0.00     0.210 HD
ENDBRANCH  38  39
BRANCH  38  41
HETATM   41  C22 UNL     1       8.258   1.139  -2.561  1.00  0.00    -0.024 C 
HETATM   42  C23 UNL     1       7.533   1.365  -3.855  1.00  0.00     0.017 C 
HETATM   43  C24 UNL     1       9.245  -0.000  -2.609  1.00  0.00     0.017 C 
HETATM   44  C25 UNL     1       9.028   2.405  -2.206  1.00  0.00     0.017 C 
ENDBRANCH  38  41
ENDBRANCH  37  38
ENDBRANCH  35  37
ENDBRANCH   7  33
TORSDOF 13
