REMARK  11 active torsions:
REMARK  status: ('A' for Active; 'I' for Inactive)
REMARK    1  A    between atoms: C3_8  and  C4_9 
REMARK    2  A    between atoms: C6_13  and  N5_14 
REMARK    3  A    between atoms: N5_14  and  C7_16 
REMARK    4  A    between atoms: C7_16  and  C8_17 
REMARK    5  A    between atoms: C8_17  and  O1_18 
REMARK    6  A    between atoms: C8_17  and  C9_20 
REMARK    7  A    between atoms: C8_17  and  C10_23 
REMARK    8  A    between atoms: C9_20  and  O2_21 
REMARK    9  A    between atoms: C10_23  and  O3_24 
REMARK   10  A    between atoms: C13_35  and  N8_36 
REMARK   11  A    between atoms: N8_36  and  N9_38 
ROOT
HETATM    1  N1  UNL     1       7.881   0.284  -2.817  1.00  0.00    -0.190 NA
HETATM    2  C1  UNL     1       6.916   0.122  -2.203  1.00  0.00     0.123 C 
HETATM    3  C2  UNL     1       5.708  -0.101  -1.459  1.00  0.00     0.174 A 
HETATM    4  N2  UNL     1       4.826  -1.047  -1.887  1.00  0.00    -0.286 N 
ATOM      5  H2  UNL     1       5.048  -1.576  -2.730  1.00  0.00     0.188 HD
HETATM    6  N3  UNL     1       3.694  -1.308  -1.256  1.00  0.00    -0.287 N 
ATOM      7  H3  UNL     1       3.067  -2.026  -1.619  1.00  0.00     0.188 HD
HETATM    8  C3  UNL     1       3.364  -0.639  -0.146  1.00  0.00     0.118 A 
HETATM    9  N7  UNL     1       4.212   0.297   0.298  1.00  0.00    -0.326 N 
ATOM     10  H7  UNL     1       3.964   0.811   1.144  1.00  0.00     0.169 HD
HETATM   11  C13 UNL     1       5.390   0.601  -0.320  1.00  0.00     0.160 A 
ENDROOT
BRANCH  11  12
HETATM   12  N8  UNL     1       6.153   1.508   0.161  1.00  0.00    -0.290 N 
ATOM     13  H8  UNL     1       5.817   1.963   1.010  1.00  0.00     0.188 HD
BRANCH  12  14
HETATM   14  N9  UNL     1       7.348   1.946  -0.306  1.00  0.00    -0.344 N 
ATOM     15  H92 UNL     1       7.666   1.479  -1.155  1.00  0.00     0.176 HD
ATOM     16  H91 UNL     1       7.956   2.669   0.078  1.00  0.00     0.176 HD
ENDBRANCH  12  14
ENDBRANCH  11  12
BRANCH   8  17
HETATM   17  C4  UNL     1       2.125  -0.891   0.589  1.00  0.00     0.202 C 
HETATM   18  C5  UNL     1       0.886  -0.773  -0.207  1.00  0.00     0.134 C 
HETATM   19  N4  UNL     1      -0.038   0.240   0.289  1.00  0.00    -0.354 N 
HETATM   20  C11 UNL     1       0.118  -2.013  -0.238  1.00  0.00     0.122 C 
HETATM   21  C6  UNL     1      -1.248  -0.199   0.243  1.00  0.00     0.172 C 
ATOM     22  H4  UNL     1       0.235   1.164   0.624  1.00  0.00     0.163 HD
HETATM   23  N6  UNL     1      -1.273  -1.536  -0.282  1.00  0.00    -0.355 N 
ATOM     24  H6  UNL     1      -2.088  -2.049  -0.617  1.00  0.00     0.163 HD
HETATM   25  C12 UNL     1       0.346  -2.835   0.976  1.00  0.00     0.168 C 
HETATM   26  S1  UNL     1       2.082  -2.561   1.258  1.00  0.00     0.159 S 
HETATM   27  O4  UNL     1       2.868  -3.501   0.411  1.00  0.00    -0.227 OA
HETATM   28  O5  UNL     1       2.446  -2.594   2.687  1.00  0.00    -0.227 OA
BRANCH  21  29
HETATM   29  N5  UNL     1      -2.405   0.514   0.645  1.00  0.00    -0.359 N 
ATOM     30  H5  UNL     1      -2.333   1.246   1.352  1.00  0.00     0.162 HD
BRANCH  29  31
HETATM   31  C7  UNL     1      -3.679   0.207   0.058  1.00  0.00     0.165 C 
BRANCH  31  32
HETATM   32  C8  UNL     1      -4.794   1.051   0.594  1.00  0.00     0.116 C 
BRANCH  32  33
HETATM   33  O1  UNL     1      -4.866   0.824   1.968  1.00  0.00    -0.384 OA
ATOM     34  H1  UNL     1      -5.573   1.359   2.308  1.00  0.00     0.210 HD
ENDBRANCH  32  33
BRANCH  32  35
HETATM   35  C9  UNL     1      -6.135   0.654   0.019  1.00  0.00     0.205 C 
BRANCH  35  36
HETATM   36  O2  UNL     1      -6.200   0.832  -1.356  1.00  0.00    -0.398 OA
ATOM     37  H2  UNL     1      -7.042   0.583  -1.717  1.00  0.00     0.209 HD
ENDBRANCH  35  36
ENDBRANCH  32  35
BRANCH  32  38
HETATM   38  C10 UNL     1      -4.519   2.523   0.370  1.00  0.00     0.205 C 
BRANCH  38  39
HETATM   39  O3  UNL     1      -4.440   2.799  -1.007  1.00  0.00    -0.398 OA
ATOM     40  H3  UNL     1      -4.267   3.723  -1.148  1.00  0.00     0.209 HD
ENDBRANCH  38  39
ENDBRANCH  32  38
ENDBRANCH  31  32
ENDBRANCH  29  31
ENDBRANCH  21  29
ENDBRANCH   8  17
TORSDOF 11
