REMARK  9 active torsions:
REMARK  status: ('A' for Active; 'I' for Inactive)
REMARK       I    between atoms: C2_2  and  N1_4 
REMARK    1  A    between atoms: N1_4  and  C3_6 
REMARK    2  A    between atoms: C3_6  and  C4_7 
REMARK    3  A    between atoms: C5_13  and  O4_14 
REMARK    4  A    between atoms: C6_16  and  O5_17 
REMARK    5  A    between atoms: C6_16  and  C7_19 
REMARK    6  A    between atoms: N3_21  and  C9_22 
REMARK    7  A    between atoms: C9_22  and  C11_24 
REMARK       I    between atoms: C11_24  and  N4_26 
REMARK    8  A    between atoms: N4_26  and  C12_28 
REMARK    9  A    between atoms: C13_32  and  O7_33 
ROOT
HETATM    1  C7  UNL     1      -0.770   0.292   0.687  1.00  0.00     0.110 A 
HETATM    2  C8  UNL     1       0.109  -0.048  -0.320  1.00  0.00     0.144 A 
HETATM    3  N3  UNL     1       1.376  -0.050   0.167  1.00  0.00    -0.274 N 
HETATM    4  N6  UNL     1       1.289   0.274   1.435  1.00  0.00    -0.240 N 
ATOM      5  H6  UNL     1       2.077   0.356   2.078  1.00  0.00     0.208 HD
HETATM    6  N7  UNL     1      -0.002   0.482   1.756  1.00  0.00    -0.283 N 
ATOM      7  H7  UNL     1      -0.341   0.746   2.681  1.00  0.00     0.188 HD
ENDROOT
BRANCH   1   8
HETATM    8  C6  UNL     1      -2.253   0.385   0.505  1.00  0.00     0.266 C 
HETATM    9  C5  UNL     1      -2.618  -0.020  -0.909  1.00  0.00     0.395 C 
HETATM   10  N2  UNL     1      -3.986  -0.407  -0.792  1.00  0.00     0.019 N 
HETATM   11  C3  UNL     1      -4.139  -0.801   0.593  1.00  0.00     0.404 C 
ATOM     12  H22 UNL     1      -4.274  -1.121  -1.461  1.00  0.00     0.287 HD
ATOM     13  H21 UNL     1      -4.647   0.308  -1.096  1.00  0.00     0.287 HD
HETATM   14  O9  UNL     1      -2.935  -0.567   1.246  1.00  0.00    -0.282 OA
BRANCH   9  15
HETATM   15  O4  UNL     1      -2.405   1.076  -1.723  1.00  0.00    -0.365 OA
ATOM     16  H4  UNL     1      -1.494   1.334  -1.801  1.00  0.00     0.212 HD
ENDBRANCH   9  15
BRANCH  11  17
HETATM   17  N1  UNL     1      -5.235  -0.043   1.142  1.00  0.00    -0.297 N 
HETATM   18  C2  UNL     1      -6.535   0.056   0.592  1.00  0.00     0.217 C 
HETATM   19  C1  UNL     1      -7.517   0.923   1.322  1.00  0.00     0.117 C 
HETATM   20  O1  UNL     1      -6.891  -0.524  -0.445  1.00  0.00    -0.274 OA
ATOM     21  H1  UNL     1      -5.057   0.469   2.006  1.00  0.00     0.167 HD
ENDBRANCH  11  17
BRANCH  11  22
HETATM   22  C4  UNL     1      -4.496  -2.243   0.581  1.00  0.00     0.263 C 
HETATM   23  O2  UNL     1      -5.597  -2.656   0.994  1.00  0.00    -0.643 OA
HETATM   24  O3  UNL     1      -3.515  -3.093   0.077  1.00  0.00    -0.643 OA
ENDBRANCH  11  22
BRANCH   8  25
HETATM   25  O5  UNL     1      -2.663   1.670   0.773  1.00  0.00    -0.357 OA
ATOM     26  H5  UNL     1      -2.434   1.924   1.659  1.00  0.00     0.213 HD
ENDBRANCH   8  25
ENDBRANCH   1   8
BRANCH   3  27
HETATM   27  C9  UNL     1       2.581  -0.339  -0.614  1.00  0.00     0.196 C 
HETATM   28  C10 UNL     1       2.605   0.693  -1.737  1.00  0.00     0.044 C 
BRANCH  27  29
HETATM   29  C11 UNL     1       3.820  -0.276   0.134  1.00  0.00     0.245 C 
HETATM   30  O6  UNL     1       3.820  -0.376   1.387  1.00  0.00    -0.271 OA
HETATM   31  N4  UNL     1       5.056  -0.112  -0.515  1.00  0.00    -0.310 N 
ATOM     32  H4  UNL     1       5.038  -0.028  -1.531  1.00  0.00     0.166 HD
BRANCH  31  33
HETATM   33  C12 UNL     1       6.350  -0.051   0.127  1.00  0.00     0.440 C 
HETATM   34  N5  UNL     1       6.926   1.314   0.125  1.00  0.00     0.020 N 
HETATM   35  C13 UNL     1       8.176   0.614  -0.141  1.00  0.00     0.475 C 
ATOM     36  H52 UNL     1       6.573   2.061  -0.473  1.00  0.00     0.288 HD
ATOM     37  H51 UNL     1       6.811   1.963   0.904  1.00  0.00     0.288 HD
HETATM   38  O8  UNL     1       7.409  -0.412  -0.713  1.00  0.00    -0.289 OA
BRANCH  35  39
HETATM   39  O7  UNL     1       8.868   0.206   1.003  1.00  0.00    -0.349 OA
ATOM     40  H7  UNL     1       9.683  -0.250   0.830  1.00  0.00     0.214 HD
ENDBRANCH  35  39
ENDBRANCH  31  33
ENDBRANCH  27  29
ENDBRANCH   3  27
TORSDOF 9
