REMARK  9 active torsions:
REMARK  status: ('A' for Active; 'I' for Inactive)
REMARK       I    between atoms: C2_2  and  N1_4 
REMARK    1  A    between atoms: N1_4  and  C3_6 
REMARK    2  A    between atoms: C4_7  and  O2_8 
REMARK    3  A    between atoms: C6_11  and  N2_12 
REMARK    4  A    between atoms: C8_16  and  N4_17 
REMARK    5  A    between atoms: N4_17  and  O3_18 
REMARK    6  A    between atoms: N4_17  and  N5_20 
REMARK    7  A    between atoms: N5_20  and  N6_22 
REMARK    8  A    between atoms: N8_29  and  C11_30 
REMARK    9  A    between atoms: C13_36  and  O7_37 
ROOT
HETATM    1  N2  UNL     1      -0.246   0.973   0.755  1.00  0.00    -0.321 N 
HETATM    2  C7  UNL     1      -0.853   0.997   1.981  1.00  0.00     0.186 A 
HETATM    3  N3  UNL     1      -2.154   1.227   1.849  1.00  0.00    -0.339 N 
ATOM      4  H3  UNL     1      -2.828   1.292   2.612  1.00  0.00     0.167 HD
HETATM    5  C8  UNL     1      -2.433   1.360   0.543  1.00  0.00     0.147 A 
HETATM    6  C12 UNL     1      -1.240   1.199  -0.119  1.00  0.00     0.140 A 
ENDROOT
BRANCH   1   7
HETATM    7  C6  UNL     1       1.150   0.745   0.615  1.00  0.00     0.296 C 
HETATM    8  C5  UNL     1       1.731   1.275  -0.659  1.00  0.00     0.089 C 
HETATM    9  C4  UNL     1       3.239   1.156  -0.634  1.00  0.00     0.148 C 
HETATM   10  C3  UNL     1       3.638  -0.237  -0.260  1.00  0.00     0.169 C 
HETATM   11  C13 UNL     1       2.964  -0.629   1.027  1.00  0.00     0.346 C 
HETATM   12  N9  UNL     1       1.533  -0.665   0.794  1.00  0.00    -0.025 N 
ATOM     13  H92 UNL     1       1.006  -1.150   1.520  1.00  0.00     0.282 HD
ATOM     14  H91 UNL     1       1.253  -1.273   0.024  1.00  0.00     0.282 HD
BRANCH   9  15
HETATM   15  O2  UNL     1       3.698   1.508  -1.904  1.00  0.00    -0.393 OA
ATOM     16  H2  UNL     1       3.445   2.392  -2.141  1.00  0.00     0.210 HD
ENDBRANCH   9  15
BRANCH  10  17
HETATM   17  N1  UNL     1       5.072  -0.408  -0.188  1.00  0.00    -0.350 N 
HETATM   18  C2  UNL     1       5.821  -1.275  -0.998  1.00  0.00     0.214 C 
HETATM   19  C1  UNL     1       7.286  -1.376  -0.841  1.00  0.00     0.117 C 
HETATM   20  O1  UNL     1       5.248  -1.969  -1.862  1.00  0.00    -0.274 OA
ATOM     21  H1  UNL     1       5.578   0.144   0.505  1.00  0.00     0.163 HD
ENDBRANCH  10  17
BRANCH  11  22
HETATM   22  O7  UNL     1       3.407  -1.891   1.424  1.00  0.00    -0.368 OA
ATOM     23  H7  UNL     1       2.981  -2.138   2.237  1.00  0.00     0.212 HD
ENDBRANCH  11  22
ENDBRANCH   1   7
BRANCH   5  24
HETATM   24  N4  UNL     1      -3.719   1.612   0.018  1.00  0.00    -0.036 NA
BRANCH  24  25
HETATM   25  O3  UNL     1      -4.602   1.880   1.010  1.00  0.00    -0.287 OA
ATOM     26  H3  UNL     1      -5.467   2.050   0.657  1.00  0.00     0.239 HD
ENDBRANCH  24  25
BRANCH  24  27
HETATM   27  N5  UNL     1      -4.186   0.604  -0.805  1.00  0.00    -0.206 N 
ATOM     28  H5  UNL     1      -3.927   0.631  -1.791  1.00  0.00     0.207 HD
BRANCH  27  29
HETATM   29  N6  UNL     1      -4.992  -0.449  -0.365  1.00  0.00    -0.116 N 
HETATM   30  C9  UNL     1      -4.477  -1.551   0.183  1.00  0.00     0.366 A 
HETATM   31  O4  UNL     1      -3.243  -1.823   0.392  1.00  0.00    -0.243 OA
HETATM   32  N7  UNL     1      -5.496  -2.365   0.494  1.00  0.00    -0.256 N 
HETATM   33  C10 UNL     1      -6.628  -1.753   0.133  1.00  0.00     0.353 A 
ATOM     34  H7  UNL     1      -5.421  -3.285   0.928  1.00  0.00     0.175 HD
HETATM   35  O5  UNL     1      -7.824  -2.187   0.255  1.00  0.00    -0.244 OA
HETATM   36  N8  UNL     1      -6.297  -0.567  -0.397  1.00  0.00    -0.153 N 
BRANCH  36  37
HETATM   37  C11 UNL     1      -7.243   0.399  -0.920  1.00  0.00     0.383 C 
HETATM   38  O6  UNL     1      -6.915   1.491  -1.419  1.00  0.00    -0.281 OA
ENDBRANCH  36  37
ENDBRANCH  27  29
ENDBRANCH  24  27
ENDBRANCH   5  24
TORSDOF 9
