REMARK  2 active torsions:
REMARK  status: ('A' for Active; 'I' for Inactive)
REMARK    1  A    between atoms: N1_1  and  C1_4 
REMARK    2  A    between atoms: N4_12  and  C4_13 
ROOT
HETATM    1  C1  UNL     1      -1.298  -0.711   0.233  1.00  0.00     0.702 A 
HETATM    2  N2  UNL     1      -2.600  -0.384   0.146  1.00  0.00    -0.153 N 
ATOM      3  H2  UNL     1      -3.302  -1.123   0.097  1.00  0.00     0.187 HD
HETATM    4  C2  UNL     1      -2.995   0.921   0.123  1.00  0.00     0.276 A 
HETATM    5  O1  UNL     1      -4.201   1.256   0.042  1.00  0.00    -0.266 OA
HETATM    6  C3  UNL     1      -2.000   1.866   0.194  1.00  0.00     0.183 A 
HETATM    7  N3  UNL     1      -0.731   1.492   0.278  1.00  0.00    -0.284 N 
ATOM      8  H3  UNL     1      -0.014   2.215   0.328  1.00  0.00     0.187 HD
HETATM    9  N4  UNL     1      -0.346   0.209   0.300  1.00  0.00    -0.069 N 
ENDROOT
BRANCH   9  10
HETATM   10  C4  UNL     1       1.041  -0.089   0.393  1.00  0.00     0.161 A 
HETATM   11  C5  UNL     1       1.984   0.187  -0.596  1.00  0.00     0.071 A 
HETATM   12  C6  UNL     1       3.224  -0.238  -0.165  1.00  0.00     0.111 A 
HETATM   13  N5  UNL     1       3.009  -0.756   1.060  1.00  0.00    -0.310 N 
HETATM   14  N6  UNL     1       1.732  -0.671   1.389  1.00  0.00    -0.284 N 
ATOM     15  H5  UNL     1       3.734  -1.159   1.653  1.00  0.00     0.186 HD
ATOM     16  H6  UNL     1       1.330  -0.998   2.268  1.00  0.00     0.188 HD
ENDBRANCH   9  10
BRANCH   1  17
HETATM   17  N1  UNL     1      -0.983  -1.962   0.250  1.00  0.00    -0.233 N 
ATOM     18  H12 UNL     1      -1.716  -2.670   0.198  1.00  0.00     0.174 HD
ATOM     19  H11 UNL     1       0.004  -2.210   0.316  1.00  0.00     0.174 HD
ENDBRANCH   1  17
TORSDOF 2
