REMARK  13 active torsions:
REMARK  status: ('A' for Active; 'I' for Inactive)
REMARK    1  A    between atoms: C2_2  and  N1_3 
REMARK    2  A    between atoms: C2_2  and  C12_26 
REMARK       I    between atoms: N1_3  and  C3_5 
REMARK    3  A    between atoms: C3_5  and  C4_7 
REMARK    4  A    between atoms: C4_7  and  N2_8 
REMARK    5  A    between atoms: N2_8  and  C5_10 
REMARK    6  A    between atoms: C5_10  and  C6_11 
REMARK    7  A    between atoms: C5_10  and  C10_20 
REMARK    8  A    between atoms: C7_14  and  C8_15 
REMARK    9  A    between atoms: C10_20  and  N5_22 
REMARK       I    between atoms: C12_26  and  N6_28 
REMARK   10  A    between atoms: N6_28  and  C13_30 
REMARK   11  A    between atoms: C13_30  and  C14_31 
REMARK   12  A    between atoms: C13_30  and  O4_33 
REMARK   13  A    between atoms: O4_33  and  C15_34 
ROOT
HETATM    1  N1  UNL     1       1.696   0.982  -0.696  1.00  0.00    -0.347 N 
ATOM      2  H1  UNL     1       1.981   0.180  -1.258  1.00  0.00     0.163 HD
HETATM    3  C3  UNL     1       2.595   1.552   0.237  1.00  0.00     0.235 C 
HETATM    4  O1  UNL     1       2.171   2.567   0.892  1.00  0.00    -0.272 OA
ENDROOT
BRANCH   1   5
HETATM    5  C2  UNL     1       0.353   1.550  -0.851  1.00  0.00     0.172 C 
HETATM    6  C1  UNL     1      -0.048   1.717  -2.287  1.00  0.00     0.042 C 
BRANCH   5   7
HETATM    7  C12 UNL     1      -0.620   0.658  -0.120  1.00  0.00     0.242 C 
HETATM    8  O3  UNL     1      -0.246  -0.489   0.193  1.00  0.00    -0.271 OA
HETATM    9  N6  UNL     1      -1.904   1.125   0.199  1.00  0.00    -0.331 N 
ATOM     10  H6  UNL     1      -2.205   2.064  -0.064  1.00  0.00     0.165 HD
BRANCH   9  11
HETATM   11  C13 UNL     1      -2.806   0.208   0.930  1.00  0.00     0.252 C 
BRANCH  11  12
HETATM   12  C14 UNL     1      -2.589   0.513   2.425  1.00  0.00     0.275 C 
HETATM   13  F1  UNL     1      -3.379  -0.281   3.214  1.00  0.00    -0.251 F 
ENDBRANCH  11  12
BRANCH  11  14
HETATM   14  O4  UNL     1      -4.106   0.432   0.621  1.00  0.00    -0.358 OA
BRANCH  14  15
HETATM   15  C15 UNL     1      -4.824  -0.669   0.149  1.00  0.00     0.132 C 
HETATM   16  C16 UNL     1      -5.318  -0.265  -1.228  1.00  0.00     0.016 C 
HETATM   17  C17 UNL     1      -6.222  -1.265  -1.865  1.00  0.00     0.012 C 
HETATM   18  C21 UNL     1      -6.083   1.045  -1.140  1.00  0.00     0.012 C 
HETATM   19  C18 UNL     1      -7.437  -1.459  -0.996  1.00  0.00    -0.013 C 
HETATM   20  C19 UNL     1      -8.176  -0.169  -0.738  1.00  0.00     0.009 C 
HETATM   21  C24 UNL     1      -6.927  -1.948   0.346  1.00  0.00     0.012 C 
HETATM   22  C20 UNL     1      -7.232   0.876  -0.171  1.00  0.00    -0.013 C 
HETATM   23  C22 UNL     1      -6.747   0.404   1.170  1.00  0.00     0.012 C 
HETATM   24  C23 UNL     1      -6.039  -0.926   1.001  1.00  0.00     0.016 C 
ENDBRANCH  14  15
ENDBRANCH  11  14
ENDBRANCH   9  11
ENDBRANCH   5   7
ENDBRANCH   1   5
BRANCH   3  25
HETATM   25  C4  UNL     1       3.976   1.038   0.493  1.00  0.00     0.218 C 
BRANCH  25  26
HETATM   26  N2  UNL     1       4.243  -0.075  -0.335  1.00  0.00    -0.401 N 
ATOM     27  H2  UNL     1       3.635  -0.301  -1.122  1.00  0.00     0.154 HD
BRANCH  26  28
HETATM   28  C5  UNL     1       5.377  -0.867  -0.042  1.00  0.00     0.164 C 
BRANCH  28  29
HETATM   29  C6  UNL     1       6.663  -0.080  -0.028  1.00  0.00     0.076 A 
HETATM   30  N3  UNL     1       7.788  -0.333  -0.676  1.00  0.00    -0.348 N 
HETATM   31  C7  UNL     1       8.814   0.440  -0.525  1.00  0.00     0.105 A 
ATOM     32  H3  UNL     1       7.847  -1.140  -1.297  1.00  0.00     0.166 HD
HETATM   33  C9  UNL     1       8.680   1.512   0.323  1.00  0.00     0.086 A 
HETATM   34  S1  UNL     1       7.067   1.334   0.851  1.00  0.00    -0.084 SA
BRANCH  31  35
HETATM   35  C8  UNL     1      10.102   0.205  -1.228  1.00  0.00     0.281 C 
HETATM   36  N4  UNL     1      11.232   1.041  -1.009  1.00  0.00    -0.056 NA
HETATM   37  O2  UNL     1      10.244  -0.737  -2.041  1.00  0.00    -0.269 OA
ENDBRANCH  31  35
ENDBRANCH  28  29
BRANCH  28  38
HETATM   38  C10 UNL     1       5.254  -1.570   1.304  1.00  0.00     0.208 C 
HETATM   39  C11 UNL     1       4.036  -2.479   1.325  1.00  0.00     0.042 C 
BRANCH  38  40
HETATM   40  N5  UNL     1       6.430  -2.369   1.514  1.00  0.00    -0.073 N 
ATOM     41  H53 UNL     1       6.602  -3.020   0.748  1.00  0.00     0.274 HD
ATOM     42  H52 UNL     1       7.290  -1.827   1.434  1.00  0.00     0.274 HD
ATOM     43  H51 UNL     1       6.348  -2.840   2.415  1.00  0.00     0.274 HD
ENDBRANCH  38  40
ENDBRANCH  28  38
ENDBRANCH  26  28
ENDBRANCH  25  26
ENDBRANCH   3  25
TORSDOF 13
