REMARK  16 active torsions:
REMARK  status: ('A' for Active; 'I' for Inactive)
REMARK    1  A    between atoms: N1_2  and  C2_4 
REMARK    2  A    between atoms: N3_10  and  C6_12 
REMARK    3  A    between atoms: C6_12  and  C7_13 
REMARK    4  A    between atoms: C7_13  and  C8_14 
REMARK    5  A    between atoms: C8_14  and  C9_15 
REMARK    6  A    between atoms: C9_15  and  C10_16 
REMARK    7  A    between atoms: C10_16  and  C11_17 
REMARK    8  A    between atoms: C11_17  and  C12_18 
REMARK    9  A    between atoms: C12_18  and  C13_19 
REMARK   10  A    between atoms: C13_19  and  C14_20 
REMARK   11  A    between atoms: C14_20  and  N4_21 
REMARK   12  A    between atoms: C19_32  and  O1_33 
REMARK   13  A    between atoms: C20_35  and  C21_36 
REMARK   14  A    between atoms: C21_36  and  O2_37 
REMARK   15  A    between atoms: N7_39  and  C22_40 
REMARK   16  A    between atoms: C22_40  and  C23_41 
ROOT
HETATM    1  C2  UNL     1      -3.667   2.840  -0.527  1.00  0.00     0.680 A 
HETATM    2  N2  UNL     1      -4.859   2.232  -0.387  1.00  0.00    -0.176 N 
ATOM      3  H2  UNL     1      -5.711   2.754  -0.589  1.00  0.00     0.186 HD
HETATM    4  C3  UNL     1      -4.952   0.966   0.009  1.00  0.00     0.129 A 
HETATM    5  C4  UNL     1      -3.743   0.278   0.277  1.00  0.00     0.033 A 
HETATM    6  C5  UNL     1      -2.541   0.872   0.142  1.00  0.00     0.127 A 
HETATM    7  N3  UNL     1      -1.446   0.357   0.370  1.00  0.00    -0.375 N 
ATOM      8  H3  UNL     1      -0.728   1.054   0.174  1.00  0.00     0.161 HD
HETATM    9  N6  UNL     1      -2.533   2.206  -0.279  1.00  0.00    -0.176 N 
ATOM     10  H6  UNL     1      -1.645   2.694  -0.396  1.00  0.00     0.186 HD
HETATM   11  C18 UNL     1      -3.959  -1.126   0.686  1.00  0.00     0.080 C 
HETATM   12  C19 UNL     1      -4.925  -1.695  -0.358  1.00  0.00     0.147 C 
HETATM   13  C20 UNL     1      -6.294  -1.095  -0.207  1.00  0.00     0.138 C 
HETATM   14  N7  UNL     1      -6.224   0.292   0.185  1.00  0.00    -0.356 N 
ENDROOT
BRANCH   7  15
HETATM   15  C6  UNL     1      -0.827  -0.765   0.776  1.00  0.00     0.121 C 
BRANCH  15  16
HETATM   16  C7  UNL     1       0.714  -0.633   0.893  1.00  0.00     0.020 C 
BRANCH  16  17
HETATM   17  C8  UNL     1       1.233  -0.275  -0.460  1.00  0.00     0.002 C 
BRANCH  17  18
HETATM   18  C9  UNL     1       2.732  -0.136  -0.424  1.00  0.00     0.000 C 
BRANCH  18  19
HETATM   19  C10 UNL     1       3.379  -1.421  -0.003  1.00  0.00     0.000 C 
BRANCH  19  20
HETATM   20  C11 UNL     1       4.907  -1.218   0.001  1.00  0.00     0.000 C 
BRANCH  20  21
HETATM   21  C12 UNL     1       5.601  -2.466   0.409  1.00  0.00     0.002 C 
BRANCH  21  22
HETATM   22  C13 UNL     1       7.076  -2.402   0.514  1.00  0.00     0.020 C 
BRANCH  22  23
HETATM   23  C14 UNL     1       7.815  -2.059  -0.727  1.00  0.00     0.121 C 
BRANCH  23  24
HETATM   24  N4  UNL     1       7.528  -0.765  -1.236  1.00  0.00    -0.371 N 
HETATM   25  C15 UNL     1       8.001   0.345  -0.811  1.00  0.00     0.136 C 
HETATM   26  N5  UNL     1       8.906   0.660   0.232  1.00  0.00    -0.370 N 
HETATM   27  S1  UNL     1       7.568   1.936  -1.525  1.00  0.00    -0.093 SA
HETATM   28  C16 UNL     1       9.611   1.895   0.010  1.00  0.00     0.132 C 
ATOM     29  H5  UNL     1       9.044   0.073   1.055  1.00  0.00     0.161 HD
HETATM   30  C17 UNL     1       8.563   2.958  -0.356  1.00  0.00     0.102 C 
ATOM     31  H4  UNL     1       6.878  -0.715  -2.021  1.00  0.00     0.161 HD
ENDBRANCH  23  24
ENDBRANCH  22  23
ENDBRANCH  21  22
ENDBRANCH  20  21
ENDBRANCH  19  20
ENDBRANCH  18  19
ENDBRANCH  17  18
ENDBRANCH  16  17
ENDBRANCH  15  16
ENDBRANCH   7  15
BRANCH   1  32
HETATM   32  N1  UNL     1      -3.629   4.089  -0.922  1.00  0.00    -0.230 N 
HETATM   33  C1  UNL     1      -4.879   4.769  -1.191  1.00  0.00     0.165 C 
ATOM     34  H1  UNL     1      -2.738   4.572  -1.038  1.00  0.00     0.177 HD
ENDBRANCH   1  32
BRANCH  14  35
HETATM   35  C22 UNL     1      -7.262   1.087   0.746  1.00  0.00     0.140 C 
BRANCH  35  36
HETATM   36  C23 UNL     1      -7.669   0.772   2.151  1.00  0.00     0.134 C 
HETATM   37 CL1  UNL     1      -6.259   0.978   3.251  1.00  0.00    -0.129 Cl
ENDBRANCH  35  36
ENDBRANCH  14  35
BRANCH  12  38
HETATM   38  O1  UNL     1      -4.883  -3.061  -0.431  1.00  0.00    -0.393 OA
ATOM     39  H1  UNL     1      -5.482  -3.414  -1.078  1.00  0.00     0.210 HD
ENDBRANCH  12  38
BRANCH  13  40
HETATM   40  C21 UNL     1      -7.122  -1.965   0.681  1.00  0.00     0.192 C 
BRANCH  40  41
HETATM   41  O2  UNL     1      -7.120  -3.310   0.230  1.00  0.00    -0.399 OA
ATOM     42  H2  UNL     1      -7.647  -3.863   0.795  1.00  0.00     0.209 HD
ENDBRANCH  40  41
ENDBRANCH  13  40
TORSDOF 16
