REMARK  17 active torsions:
REMARK  status: ('A' for Active; 'I' for Inactive)
REMARK    1  A    between atoms: C2_2  and  C3_3 
REMARK    2  A    between atoms: C3_3  and  C5_5 
REMARK    3  A    between atoms: C5_5  and  O1_6 
REMARK    4  A    between atoms: C5_5  and  C6_8 
REMARK    5  A    between atoms: C6_8  and  C7_10 
REMARK    6  A    between atoms: C7_10  and  C9_12 
REMARK    7  A    between atoms: C9_12  and  C10_13 
REMARK    8  A    between atoms: C10_13  and  C11_14 
REMARK    9  A    between atoms: C11_14  and  C12_15 
REMARK   10  A    between atoms: C12_15  and  C13_16 
REMARK   11  A    between atoms: C13_16  and  N1_17 
REMARK       I    between atoms: N1_17  and  C14_19 
REMARK   12  A    between atoms: C14_19  and  C15_21 
REMARK   13  A    between atoms: C16_23  and  N2_24 
REMARK   14  A    between atoms: C20_28  and  C21_29 
REMARK   15  A    between atoms: C24_32  and  O4_33 
REMARK   16  A    between atoms: C25_35  and  O5_36 
REMARK   17  A    between atoms: C26_38  and  O6_39 
ROOT
HETATM    1  C15 UNL     1      -3.047  -0.262  -0.496  1.00  0.00     0.147 C 
HETATM    2  O3  UNL     1      -4.167   0.438  -0.344  1.00  0.00    -0.309 OA
HETATM    3  C16 UNL     1      -4.972   0.471   0.704  1.00  0.00     0.396 C 
HETATM    4  C24 UNL     1      -4.547  -0.294   1.925  1.00  0.00     0.209 C 
HETATM    5  C25 UNL     1      -3.708  -1.481   1.636  1.00  0.00     0.186 C 
HETATM    6  C26 UNL     1      -2.885  -1.416   0.397  1.00  0.00     0.211 C 
ENDROOT
BRANCH   1   7
HETATM    7  C14 UNL     1      -1.819   0.564  -0.683  1.00  0.00     0.273 C 
HETATM    8  N1  UNL     1      -0.582  -0.058  -0.897  1.00  0.00    -0.355 N 
ATOM      9  H1  UNL     1      -0.500  -1.075  -0.900  1.00  0.00     0.162 HD
HETATM   10  O2  UNL     1      -1.918   1.798  -0.653  1.00  0.00    -0.266 OA
BRANCH   8  11
HETATM   11  C13 UNL     1       0.581   0.787  -1.115  1.00  0.00     0.123 C 
BRANCH  11  12
HETATM   12  C12 UNL     1       1.833   0.054  -1.360  1.00  0.00     0.020 C 
BRANCH  12  13
HETATM   13  C11 UNL     1       2.245  -0.752  -0.150  1.00  0.00     0.002 C 
BRANCH  13  14
HETATM   14  C10 UNL     1       3.497  -1.515  -0.551  1.00  0.00     0.001 C 
BRANCH  14  15
HETATM   15  C9  UNL     1       4.622  -0.688  -1.022  1.00  0.00     0.007 C 
BRANCH  15  16
HETATM   16  C7  UNL     1       5.203   0.307  -0.048  1.00  0.00     0.018 C 
HETATM   17  C8  UNL     1       5.535  -0.409   1.217  1.00  0.00     0.013 C 
BRANCH  16  18
HETATM   18  C6  UNL     1       6.320   1.085  -0.705  1.00  0.00     0.202 C 
HETATM   19  F1  UNL     1       5.671   1.502  -1.929  1.00  0.00    -0.246 F 
BRANCH  18  20
HETATM   20  C5  UNL     1       7.512   0.364  -1.160  1.00  0.00     0.156 C 
BRANCH  20  21
HETATM   21  C3  UNL     1       8.449  -0.133  -0.127  1.00  0.00     0.013 C 
HETATM   22  C4  UNL     1       9.498  -1.007  -0.832  1.00  0.00     0.012 C 
BRANCH  21  23
HETATM   23  C2  UNL     1       9.150   1.057   0.541  1.00  0.00     0.002 C 
HETATM   24  C1  UNL     1      10.140   0.526   1.548  1.00  0.00     0.005 C 
ENDBRANCH  21  23
ENDBRANCH  20  21
BRANCH  20  25
HETATM   25  O1  UNL     1       8.232   1.121  -2.123  1.00  0.00    -0.392 OA
ATOM     26  H1  UNL     1       7.631   1.440  -2.786  1.00  0.00     0.210 HD
ENDBRANCH  20  25
ENDBRANCH  18  20
ENDBRANCH  16  18
ENDBRANCH  15  16
ENDBRANCH  14  15
ENDBRANCH  13  14
ENDBRANCH  12  13
ENDBRANCH  11  12
ENDBRANCH   8  11
ENDBRANCH   1   7
BRANCH   6  27
HETATM   27  O6  UNL     1      -3.126  -2.606  -0.343  1.00  0.00    -0.386 OA
ATOM     28  H6  UNL     1      -3.021  -3.353   0.235  1.00  0.00     0.210 HD
ENDBRANCH   6  27
BRANCH   3  29
HETATM   29  N2  UNL     1      -6.310   0.053   0.258  1.00  0.00     0.125 N 
HETATM   30  C17 UNL     1      -6.392  -0.157  -1.152  1.00  0.00     0.276 C 
HETATM   31  C18 UNL     1      -7.042   1.089  -1.734  1.00  0.00     0.033 C 
HETATM   32  C19 UNL     1      -7.311   1.952  -0.534  1.00  0.00     0.038 C 
HETATM   33  C20 UNL     1      -7.353   0.958   0.619  1.00  0.00     0.229 C 
BRANCH  33  34
HETATM   34  C21 UNL     1      -8.707   0.235   0.541  1.00  0.00     0.011 C 
HETATM   35  C22 UNL     1      -9.856   1.110   0.915  1.00  0.00     0.011 C 
HETATM   36  C23 UNL     1      -8.747  -1.041   1.301  1.00  0.00     0.011 C 
ENDBRANCH  33  34
ENDBRANCH   3  29
BRANCH   5  37
HETATM   37  O5  UNL     1      -2.821  -1.757   2.708  1.00  0.00    -0.390 OA
ATOM     38  H5  UNL     1      -2.283  -2.518   2.523  1.00  0.00     0.210 HD
ENDBRANCH   5  37
BRANCH   4  39
HETATM   39  O4  UNL     1      -3.911   0.558   2.859  1.00  0.00    -0.388 OA
ATOM     40  H4  UNL     1      -3.642   0.074   3.631  1.00  0.00     0.210 HD
ENDBRANCH   4  39
TORSDOF 17
