REMARK  10 active torsions:
REMARK  status: ('A' for Active; 'I' for Inactive)
REMARK    1  A    between atoms: S1_2  and  C1_3 
REMARK    2  A    between atoms: S1_2  and  C15_27 
REMARK    3  A    between atoms: C6_9  and  C7_10 
REMARK    4  A    between atoms: C7_10  and  C8_11 
REMARK    5  A    between atoms: C8_11  and  N1_12 
REMARK    6  A    between atoms: N1_12  and  C9_15 
REMARK    7  A    between atoms: C9_15  and  C10_16 
REMARK    8  A    between atoms: C10_16  and  C11_17 
REMARK    9  A    between atoms: C11_17  and  N2_18 
REMARK   10  A    between atoms: N2_18  and  C12_20 
ROOT
HETATM    1  C7  UNL     1      -0.052   1.360  -0.073  1.00  0.00     0.067 C 
ENDROOT
BRANCH   1   2
HETATM    2  C6  UNL     1      -1.030   1.632   0.984  1.00  0.00    -0.036 A 
HETATM    3  C1  UNL     1      -2.359   1.256   0.725  1.00  0.00     0.038 A 
HETATM    4  C2  UNL     1      -3.309   1.502   1.711  1.00  0.00     0.023 A 
HETATM    5  C3  UNL     1      -2.975   2.105   2.925  1.00  0.00     0.020 A 
HETATM    6  C4  UNL     1      -1.672   2.468   3.161  1.00  0.00     0.011 A 
HETATM    7 BR1  UNL     1      -1.106   3.298   4.779  1.00  0.00    -0.051 Br
HETATM    8  C5  UNL     1      -0.747   2.214   2.178  1.00  0.00     0.027 A 
BRANCH   3   9
HETATM    9  S1  UNL     1      -2.799   0.545  -0.764  1.00  0.00     0.054 S 
HETATM   10  O1  UNL     1      -2.598   1.476  -2.105  1.00  0.00    -0.252 OA
BRANCH   9  11
HETATM   11  C15 UNL     1      -4.255  -0.383  -0.742  1.00  0.00     0.084 C 
HETATM   12  C16 UNL     1      -5.506   0.460  -0.855  1.00  0.00     0.018 C 
HETATM   13  C17 UNL     1      -6.704  -0.350  -0.391  1.00  0.00     0.001 C 
HETATM   14  C18 UNL     1      -6.764  -1.650  -1.176  1.00  0.00     0.000 C 
HETATM   15  C19 UNL     1      -5.727  -1.700  -2.261  1.00  0.00     0.001 C 
HETATM   16  C20 UNL     1      -4.310  -1.536  -1.745  1.00  0.00     0.018 C 
ENDBRANCH   9  11
ENDBRANCH   3   9
ENDBRANCH   1   2
BRANCH   1  17
HETATM   17  C8  UNL     1       1.364   1.338   0.372  1.00  0.00     0.237 C 
BRANCH  17  18
HETATM   18  N1  UNL     1       2.251   1.093  -0.738  1.00  0.00    -0.075 N 
ATOM     19  H12 UNL     1       1.955   0.282  -1.281  1.00  0.00     0.277 HD
ATOM     20  H11 UNL     1       2.155   1.809  -1.458  1.00  0.00     0.277 HD
BRANCH  18  21
HETATM   21  C9  UNL     1       3.646   0.962  -0.291  1.00  0.00     0.234 C 
BRANCH  21  22
HETATM   22  C10 UNL     1       3.853  -0.340   0.438  1.00  0.00     0.047 C 
BRANCH  22  23
HETATM   23  C11 UNL     1       5.290  -0.443   0.927  1.00  0.00     0.123 C 
BRANCH  23  24
HETATM   24  N2  UNL     1       6.272  -0.350  -0.087  1.00  0.00    -0.370 N 
ATOM     25  H2  UNL     1       6.209   0.400  -0.776  1.00  0.00     0.161 HD
BRANCH  24  26
HETATM   26  C12 UNL     1       7.264  -1.209  -0.161  1.00  0.00     0.145 A 
HETATM   27  N3  UNL     1       8.246  -1.215  -1.075  1.00  0.00    -0.345 N 
HETATM   28  C13 UNL     1       9.149  -2.150  -0.994  1.00  0.00     0.121 A 
ATOM     29  H3  UNL     1       8.284  -0.509  -1.810  1.00  0.00     0.167 HD
HETATM   30  C14 UNL     1       9.053  -3.066  -0.002  1.00  0.00     0.093 A 
HETATM   31 CL1  UNL     1      10.121  -4.441   0.347  1.00  0.00    -0.075 Cl
HETATM   32  S2  UNL     1       7.639  -2.556   0.821  1.00  0.00    -0.041 SA
ENDBRANCH  24  26
ENDBRANCH  23  24
ENDBRANCH  22  23
ENDBRANCH  21  22
ENDBRANCH  18  21
ENDBRANCH  17  18
ENDBRANCH   1  17
TORSDOF 10
