REMARK  10 active torsions:
REMARK  status: ('A' for Active; 'I' for Inactive)
REMARK    1  A    between atoms: C2_2  and  C3_3 
REMARK    2  A    between atoms: C3_3  and  C4_4 
REMARK    3  A    between atoms: C3_3  and  N5_37 
REMARK    4  A    between atoms: C4_4  and  C5_5 
REMARK       I    between atoms: C5_5  and  N1_7 
REMARK    5  A    between atoms: N1_7  and  C6_9 
REMARK    6  A    between atoms: N2_13  and  C10_14 
REMARK    7  A    between atoms: C13_17  and  C14_18 
REMARK    8  A    between atoms: C14_18  and  N3_19 
REMARK    9  A    between atoms: C17_22  and  C18_23 
REMARK   10  A    between atoms: C32_40  and  C34_42 
ROOT
HETATM    1  C6  UNL     1      -2.358  -0.363  -0.905  1.00  0.00     0.102 C 
HETATM    2  C7  UNL     1      -2.033   0.427  -2.156  1.00  0.00     0.028 C 
HETATM    3  C8  UNL     1      -0.691   1.061  -2.010  1.00  0.00     0.021 C 
HETATM    4  C9  UNL     1       0.359   0.029  -1.530  1.00  0.00     0.117 C 
HETATM    5  N2  UNL     1       0.019  -0.268  -0.210  1.00  0.00    -0.406 N 
HETATM    6  C29 UNL     1      -1.342  -0.066   0.148  1.00  0.00     0.142 C 
ENDROOT
BRANCH   5   7
HETATM    7  C10 UNL     1       0.965  -0.438   0.801  1.00  0.00     0.079 C 
HETATM    8  C11 UNL     1       1.836  -1.626   0.529  1.00  0.00     0.025 C 
HETATM    9  C12 UNL     1       3.075  -1.376  -0.243  1.00  0.00     0.008 C 
HETATM   10  C13 UNL     1       3.890  -0.317   0.456  1.00  0.00     0.014 C 
HETATM   11  C27 UNL     1       3.082   0.927   0.573  1.00  0.00     0.008 C 
HETATM   12  C28 UNL     1       1.738   0.778   1.217  1.00  0.00     0.025 C 
BRANCH  10  13
HETATM   13  C14 UNL     1       5.162  -0.015  -0.298  1.00  0.00     0.277 C 
BRANCH  13  14
HETATM   14  N3  UNL     1       5.970   1.014   0.356  1.00  0.00     0.089 N 
HETATM   15  C15 UNL     1       6.511   0.539   1.632  1.00  0.00     0.273 C 
HETATM   16  C16 UNL     1       7.553   1.639   1.884  1.00  0.00     0.041 C 
HETATM   17  C17 UNL     1       8.285   1.586   0.548  1.00  0.00     0.051 C 
HETATM   18  C26 UNL     1       7.190   1.228  -0.411  1.00  0.00     0.281 C 
BRANCH  17  19
HETATM   19  C18 UNL     1       9.331   0.530   0.595  1.00  0.00    -0.024 A 
HETATM   20  C19 UNL     1       9.737  -0.297   1.608  1.00  0.00     0.096 A 
HETATM   21  N4  UNL     1      10.732  -1.089   1.154  1.00  0.00    -0.365 N 
HETATM   22  C20 UNL     1      11.009  -0.817  -0.146  1.00  0.00     0.042 A 
ATOM     23  H4  UNL     1      11.210  -1.796   1.713  1.00  0.00     0.165 HD
HETATM   24  C21 UNL     1      11.912  -1.343  -1.032  1.00  0.00     0.030 A 
HETATM   25  C25 UNL     1      10.133   0.197  -0.499  1.00  0.00    -0.001 A 
HETATM   26  C22 UNL     1      11.983  -0.875  -2.326  1.00  0.00     0.002 A 
HETATM   27  C23 UNL     1      11.111   0.129  -2.669  1.00  0.00     0.001 A 
HETATM   28  C24 UNL     1      10.199   0.672  -1.800  1.00  0.00     0.014 A 
ENDBRANCH  17  19
ENDBRANCH  13  14
ENDBRANCH  10  13
ENDBRANCH   5   7
BRANCH   1  29
HETATM   29  N1  UNL     1      -3.679   0.036  -0.392  1.00  0.00    -0.355 N 
HETATM   30  C5  UNL     1      -4.845  -0.761  -0.610  1.00  0.00     0.220 C 
HETATM   31  O1  UNL     1      -4.695  -1.823  -1.272  1.00  0.00    -0.274 OA
ATOM     32  H1  UNL     1      -3.764   0.906   0.134  1.00  0.00     0.162 HD
BRANCH  30  33
HETATM   33  C4  UNL     1      -6.139  -0.367  -0.097  1.00  0.00     0.128 C 
BRANCH  33  34
HETATM   34  C3  UNL     1      -7.316  -1.175  -0.458  1.00  0.00     0.096 C 
BRANCH  34  35
HETATM   35  C2  UNL     1      -7.210  -2.584   0.051  1.00  0.00     0.021 C 
HETATM   36  C1  UNL     1      -8.465  -3.390  -0.344  1.00  0.00     0.007 C 
ENDBRANCH  34  35
BRANCH  34  37
HETATM   37  N5  UNL     1      -8.573  -0.621  -0.014  1.00  0.00    -0.368 N 
HETATM   38  C30 UNL     1      -8.770  -0.500   1.361  1.00  0.00     0.065 C 
HETATM   39  C31 UNL     1      -9.148   0.937   1.611  1.00  0.00     0.068 C 
HETATM   40  C32 UNL     1      -9.698   1.386   0.268  1.00  0.00     0.090 C 
HETATM   41  C33 UNL     1     -11.217   1.173   0.204  1.00  0.00     0.031 C 
HETATM   42  C35 UNL     1      -9.023   0.490  -0.744  1.00  0.00     0.082 C 
BRANCH  40  43
HETATM   43  C34 UNL     1      -9.417   2.854  -0.003  1.00  0.00     0.399 C 
HETATM   44  F1  UNL     1      -9.957   3.148  -1.244  1.00  0.00    -0.170 F 
HETATM   45  F2  UNL     1     -10.042   3.572   1.004  1.00  0.00    -0.170 F 
HETATM   46  F3  UNL     1      -8.062   3.042   0.028  1.00  0.00    -0.170 F 
ENDBRANCH  40  43
ENDBRANCH  34  37
ENDBRANCH  33  34
ENDBRANCH  30  33
ENDBRANCH   1  29
TORSDOF 10
