REMARK  10 active torsions:
REMARK  status: ('A' for Active; 'I' for Inactive)
REMARK    1  A    between atoms: C5_5  and  C6_6 
REMARK    2  A    between atoms: C6_6  and  N1_7 
REMARK    3  A    between atoms: N1_7  and  C7_9 
REMARK    4  A    between atoms: C7_9  and  C8_10 
REMARK    5  A    between atoms: C7_9  and  C20_30 
REMARK       I    between atoms: C8_10  and  N2_12 
REMARK    6  A    between atoms: C12_17  and  C13_18 
REMARK       I    between atoms: C13_18  and  N3_20 
REMARK    7  A    between atoms: N3_20  and  C14_22 
REMARK    8  A    between atoms: C23_33  and  N4_34 
REMARK    9  A    between atoms: N4_34  and  C24_35 
REMARK   10  A    between atoms: N4_34  and  C27_38 
ROOT
HETATM    1  C7  UNL     1       0.245   1.860  -0.966  1.00  0.00     0.177 C 
ENDROOT
BRANCH   1   2
HETATM    2  N1  UNL     1      -0.246   3.155  -0.667  1.00  0.00    -0.385 N 
ATOM      3  H1  UNL     1      -0.542   3.762  -1.431  1.00  0.00     0.159 HD
BRANCH   2   4
HETATM    4  C6  UNL     1      -0.335   3.622   0.647  1.00  0.00     0.095 C 
BRANCH   4   5
HETATM    5  C5  UNL     1      -0.873   5.044   0.576  1.00  0.00    -0.021 A 
HETATM    6  C4  UNL     1      -0.711   5.759  -0.589  1.00  0.00     0.013 A 
HETATM    7  C3  UNL     1      -1.175   7.066  -0.711  1.00  0.00     0.007 A 
HETATM    8  C2  UNL     1      -1.810   7.665   0.351  1.00  0.00    -0.062 A 
HETATM    9  C1  UNL     1      -2.305   9.078   0.217  1.00  0.00     0.048 C 
HETATM   10  C35 UNL     1      -1.974   6.954   1.517  1.00  0.00     0.007 A 
HETATM   11  C34 UNL     1      -1.506   5.641   1.634  1.00  0.00     0.013 A 
ENDBRANCH   4   5
ENDBRANCH   2   4
ENDBRANCH   1   2
BRANCH   1  12
HETATM   12  C8  UNL     1       1.664   1.621  -0.618  1.00  0.00     0.243 C 
HETATM   13  O1  UNL     1       2.078   2.024   0.518  1.00  0.00    -0.271 OA
HETATM   14  N2  UNL     1       2.566   0.978  -1.496  1.00  0.00    -0.334 N 
HETATM   15  C9  UNL     1       2.302   0.438  -2.809  1.00  0.00     0.164 C 
HETATM   16  C12 UNL     1       4.004   0.807  -1.243  1.00  0.00     0.182 C 
HETATM   17  C10 UNL     1       3.591   0.615  -3.586  1.00  0.00     0.190 C 
HETATM   18  F1  UNL     1       3.438   1.483  -4.664  1.00  0.00    -0.248 F 
HETATM   19  C11 UNL     1       4.543   1.288  -2.626  1.00  0.00     0.074 C 
BRANCH  16  20
HETATM   20  C13 UNL     1       4.434  -0.571  -1.024  1.00  0.00     0.241 C 
HETATM   21  O2  UNL     1       4.180  -1.476  -1.867  1.00  0.00    -0.271 OA
HETATM   22  N3  UNL     1       5.151  -0.956   0.131  1.00  0.00    -0.355 N 
ATOM     23  H3  UNL     1       5.337  -0.237   0.830  1.00  0.00     0.162 HD
BRANCH  22  24
HETATM   24  C14 UNL     1       5.642  -2.289   0.401  1.00  0.00     0.084 C 
HETATM   25  C15 UNL     1       6.667  -2.314   1.473  1.00  0.00     0.031 C 
HETATM   26  C16 UNL     1       7.210  -3.706   1.665  1.00  0.00     0.081 C 
HETATM   27  C17 UNL     1       6.132  -4.732   1.789  1.00  0.00     0.243 C 
HETATM   28  F2  UNL     1       6.114  -5.458   0.594  1.00  0.00    -0.206 F 
HETATM   29  F3  UNL     1       6.368  -5.656   2.795  1.00  0.00    -0.206 F 
HETATM   30  C18 UNL     1       4.784  -4.095   1.931  1.00  0.00     0.081 C 
HETATM   31  C19 UNL     1       4.463  -3.203   0.778  1.00  0.00     0.031 C 
ENDBRANCH  22  24
ENDBRANCH  16  20
ENDBRANCH   1  12
BRANCH   1  32
HETATM   32  C20 UNL     1      -0.670   0.888  -0.220  1.00  0.00     0.018 C 
HETATM   33  C21 UNL     1      -2.074   1.162  -0.784  1.00  0.00     0.013 C 
HETATM   34  C22 UNL     1      -3.078   0.268  -0.037  1.00  0.00     0.053 C 
HETATM   35  C23 UNL     1      -2.695  -1.144  -0.315  1.00  0.00    -0.015 C 
HETATM   36  C32 UNL     1      -1.341  -1.420   0.285  1.00  0.00     0.053 C 
HETATM   37  C33 UNL     1      -0.304  -0.547  -0.454  1.00  0.00     0.013 C 
BRANCH  35  38
HETATM   38  N4  UNL     1      -3.675  -2.165  -0.174  1.00  0.00    -0.379 N 
BRANCH  38  39
HETATM   39  C24 UNL     1      -4.750  -2.185  -1.097  1.00  0.00     0.076 C 
HETATM   40  C25 UNL     1      -4.188  -2.283  -2.534  1.00  0.00     0.032 C 
HETATM   41  C26 UNL     1      -5.800  -1.160  -1.076  1.00  0.00     0.032 C 
ENDBRANCH  38  39
BRANCH  38  42
HETATM   42  C27 UNL     1      -4.064  -2.447   1.177  1.00  0.00     0.084 C 
HETATM   43  C28 UNL     1      -3.021  -3.041   2.076  1.00  0.00     0.025 C 
HETATM   44  C29 UNL     1      -3.774  -4.060   2.976  1.00  0.00     0.002 C 
HETATM   45  C30 UNL     1      -4.783  -4.593   1.975  1.00  0.00     0.002 C 
HETATM   46  C31 UNL     1      -5.273  -3.232   1.426  1.00  0.00     0.025 C 
ENDBRANCH  38  42
ENDBRANCH  35  38
ENDBRANCH   1  32
TORSDOF 10
