REMARK  9 active torsions:
REMARK  status: ('A' for Active; 'I' for Inactive)
REMARK    1  A    between atoms: C2_2  and  C4_4 
REMARK    2  A    between atoms: N1_6  and  C6_7 
REMARK    3  A    between atoms: C6_7  and  C7_8 
REMARK    4  A    between atoms: C6_7  and  C9_11 
REMARK    5  A    between atoms: C7_8  and  C8_9 
REMARK       I    between atoms: C9_11  and  N2_13 
REMARK    6  A    between atoms: N2_13  and  C10_15 
REMARK    7  A    between atoms: C21_26  and  C22_27 
REMARK    8  A    between atoms: N4_34  and  C26_35 
REMARK    9  A    between atoms: C26_35  and  C27_36 
ROOT
HETATM    1  C4  UNL     1      -2.533   0.904  -0.672  1.00  0.00     0.095 C 
HETATM    2  C5  UNL     1      -1.694   1.170   0.576  1.00  0.00     0.294 C 
HETATM    3  N1  UNL     1      -0.322   1.143   0.300  1.00  0.00     0.105 N 
HETATM    4  C20 UNL     1      -0.019   0.140  -0.717  1.00  0.00     0.299 C 
HETATM    5  C21 UNL     1      -1.029  -0.924  -0.900  1.00  0.00     0.141 C 
HETATM    6  N4  UNL     1      -2.383  -0.421  -1.072  1.00  0.00    -0.274 NA
ENDROOT
BRANCH   3   7
HETATM    7  C6  UNL     1       0.598   1.014   1.377  1.00  0.00     0.316 C 
BRANCH   7   8
HETATM    8  C7  UNL     1       0.635   2.064   2.402  1.00  0.00     0.077 C 
BRANCH   8   9
HETATM    9  C8  UNL     1      -0.560   2.345   3.240  1.00  0.00     0.225 C 
HETATM   10  F1  UNL     1      -0.999   1.232   3.934  1.00  0.00    -0.255 F 
ENDBRANCH   8   9
ENDBRANCH   7   8
BRANCH   7  11
HETATM   11  C9  UNL     1       1.998   1.034   0.759  1.00  0.00     0.251 C 
HETATM   12  O1  UNL     1       2.123   1.654  -0.316  1.00  0.00    -0.271 OA
HETATM   13  N2  UNL     1       3.067   0.381   1.379  1.00  0.00    -0.354 N 
ATOM     14  H2  UNL     1       2.912  -0.110   2.259  1.00  0.00     0.162 HD
BRANCH  13  15
HETATM   15  C10 UNL     1       4.379   0.390   0.798  1.00  0.00     0.092 C 
HETATM   16  C11 UNL     1       5.476   0.624   1.777  1.00  0.00     0.009 C 
HETATM   17  C12 UNL     1       5.673  -0.558   2.712  1.00  0.00     0.011 C 
HETATM   18  C16 UNL     1       6.751   0.860   0.972  1.00  0.00     0.011 C 
HETATM   19  C13 UNL     1       6.022  -1.780   1.921  1.00  0.00    -0.013 C 
HETATM   20  C14 UNL     1       7.259  -1.559   1.090  1.00  0.00     0.009 C 
HETATM   21  C19 UNL     1       4.855  -2.076   1.000  1.00  0.00     0.011 C 
HETATM   22  C15 UNL     1       7.036  -0.392   0.178  1.00  0.00    -0.013 C 
HETATM   23  C17 UNL     1       5.894  -0.727  -0.762  1.00  0.00     0.011 C 
HETATM   24  C18 UNL     1       4.662  -0.919   0.064  1.00  0.00     0.009 C 
ENDBRANCH  13  15
ENDBRANCH   7  11
ENDBRANCH   3   7
BRANCH   1  25
HETATM   25  C2  UNL     1      -2.250   1.999  -1.664  1.00  0.00    -0.003 C 
HETATM   26  C1  UNL     1      -3.001   1.840  -2.959  1.00  0.00     0.011 C 
HETATM   27  C3  UNL     1      -2.832   3.296  -1.039  1.00  0.00     0.011 C 
ENDBRANCH   1  25
BRANCH   5  28
HETATM   28  C22 UNL     1      -0.601  -1.776  -2.059  1.00  0.00     0.031 A 
HETATM   29  C23 UNL     1       0.029  -2.996  -2.021  1.00  0.00     0.031 A 
HETATM   30  C24 UNL     1       0.245  -3.418  -3.300  1.00  0.00     0.063 A 
HETATM   31  C25 UNL     1      -0.260  -2.441  -4.161  1.00  0.00     0.188 A 
HETATM   32  F2  UNL     1      -0.259  -2.446  -5.522  1.00  0.00    -0.186 F 
HETATM   33  N3  UNL     1      -0.758  -1.478  -3.363  1.00  0.00    -0.335 N 
ATOM     34  H3  UNL     1      -1.201  -0.625  -3.705  1.00  0.00     0.168 HD
ENDBRANCH   5  28
BRANCH   6  35
HETATM   35  C26 UNL     1      -3.243  -1.361  -0.456  1.00  0.00     0.069 C 
BRANCH  35  36
HETATM   36  C27 UNL     1      -4.676  -1.441  -0.744  1.00  0.00    -0.035 C 
HETATM   37  C28 UNL     1      -5.042  -1.680  -2.161  1.00  0.00     0.046 C 
HETATM   38  C29 UNL     1      -6.011  -0.575  -2.500  1.00  0.00     0.062 C 
HETATM   39  C30 UNL     1      -6.402   0.010  -1.192  1.00  0.00     0.020 A 
HETATM   40  N5  UNL     1      -7.387   0.901  -0.961  1.00  0.00    -0.367 N 
HETATM   41  C34 UNL     1      -5.629  -0.513  -0.192  1.00  0.00    -0.005 A 
HETATM   42  C31 UNL     1      -7.675   1.334   0.273  1.00  0.00     0.112 A 
ATOM     43  H5  UNL     1      -7.929   1.256  -1.749  1.00  0.00     0.165 HD
HETATM   44  C32 UNL     1      -6.932   0.846   1.345  1.00  0.00     0.050 A 
HETATM   45 CL1  UNL     1      -7.308   1.414   2.974  1.00  0.00    -0.083 Cl
HETATM   46  C33 UNL     1      -5.940  -0.052   1.100  1.00  0.00     0.039 A 
ENDBRANCH  35  36
ENDBRANCH   6  35
TORSDOF 9
