REMARK  11 active torsions:
REMARK  status: ('A' for Active; 'I' for Inactive)
REMARK    1  A    between atoms: C2_2  and  C4_4 
REMARK    2  A    between atoms: C4_4  and  C6_6 
REMARK    3  A    between atoms: C4_4  and  C7_9 
REMARK    4  A    between atoms: C10_12  and  C11_13 
REMARK    5  A    between atoms: C12_17  and  C13_18 
REMARK    6  A    between atoms: C13_18  and  N1_19 
REMARK    7  A    between atoms: N2_28  and  C22_29 
REMARK    8  A    between atoms: C22_29  and  C23_30 
REMARK    9  A    between atoms: C23_30  and  C24_31 
REMARK   10  A    between atoms: C23_30  and  N3_37 
REMARK   11  A    between atoms: C24_31  and  C25_32 
ROOT
HETATM    1  N1  UNL     1       1.049   0.304  -0.129  1.00  0.00     0.094 N 
HETATM    2  C14 UNL     1       1.035  -0.698  -1.120  1.00  0.00     0.275 C 
HETATM    3  C15 UNL     1      -0.288  -0.996  -1.767  1.00  0.00     0.066 C 
HETATM    4  C16 UNL     1      -1.230  -1.816  -0.979  1.00  0.00     0.225 C 
HETATM    5  C17 UNL     1      -0.647  -3.070  -0.427  1.00  0.00     0.036 C 
HETATM    6  C18 UNL     1      -0.477  -2.966   1.060  1.00  0.00     0.004 C 
HETATM    7  C19 UNL     1      -0.189  -1.597   1.591  1.00  0.00     0.038 C 
HETATM    8  C20 UNL     1      -1.003  -0.501   1.001  1.00  0.00     0.251 C 
HETATM    9  C21 UNL     1      -0.181   0.638   0.506  1.00  0.00     0.308 C 
HETATM   10  N2  UNL     1      -1.933  -1.044   0.028  1.00  0.00     0.101 N 
ENDROOT
BRANCH   1  11
HETATM   11  C13 UNL     1       1.623   1.519  -0.654  1.00  0.00     0.311 C 
BRANCH  11  12
HETATM   12  C12 UNL     1       3.048   1.508  -0.953  1.00  0.00    -0.015 A 
HETATM   13  C10 UNL     1       3.602   2.658  -1.535  1.00  0.00     0.056 A 
HETATM   14  C9  UNL     1       4.961   2.621  -1.776  1.00  0.00     0.017 A 
HETATM   15  C8  UNL     1       5.743   1.530  -1.472  1.00  0.00     0.009 A 
HETATM   16  C7  UNL     1       5.201   0.390  -0.896  1.00  0.00    -0.038 A 
HETATM   17  C34 UNL     1       3.840   0.420  -0.650  1.00  0.00     0.018 A 
BRANCH  13  18
HETATM   18  C11 UNL     1       2.775   3.828  -1.871  1.00  0.00     0.418 C 
HETATM   19  F1  UNL     1       2.137   4.427  -0.823  1.00  0.00    -0.166 F 
HETATM   20  F2  UNL     1       3.645   4.817  -2.372  1.00  0.00    -0.166 F 
HETATM   21  F3  UNL     1       1.919   3.590  -2.956  1.00  0.00    -0.166 F 
ENDBRANCH  13  18
BRANCH  16  22
HETATM   22  C4  UNL     1       6.080  -0.765  -0.584  1.00  0.00     0.075 C 
HETATM   23  C5  UNL     1       7.353  -0.582  -1.429  1.00  0.00     0.032 C 
BRANCH  22  24
HETATM   24  C2  UNL     1       6.517  -0.694   0.862  1.00  0.00     0.001 C 
HETATM   25  C1  UNL     1       5.356  -0.862   1.816  1.00  0.00     0.011 C 
HETATM   26  C3  UNL     1       7.648  -1.629   1.197  1.00  0.00     0.011 C 
ENDBRANCH  22  24
BRANCH  22  27
HETATM   27  C6  UNL     1       5.538  -2.067  -0.976  1.00  0.00     0.186 C 
HETATM   28  O1  UNL     1       4.441  -2.210  -1.549  1.00  0.00    -0.647 OA
HETATM   29  O2  UNL     1       6.283  -3.198  -0.696  1.00  0.00    -0.647 OA
ENDBRANCH  22  27
ENDBRANCH  16  22
ENDBRANCH  11  12
ENDBRANCH   1  11
BRANCH  10  30
HETATM   30  C22 UNL     1      -2.801  -0.085  -0.551  1.00  0.00     0.298 C 
BRANCH  30  31
HETATM   31  C23 UNL     1      -3.670   0.726   0.287  1.00  0.00     0.116 C 
BRANCH  31  32
HETATM   32  C24 UNL     1      -4.777   0.296   1.108  1.00  0.00     0.031 C 
BRANCH  32  33
HETATM   33  C25 UNL     1      -4.757  -0.666   2.210  1.00  0.00    -0.013 C 
HETATM   34  C26 UNL     1      -4.407  -2.052   1.814  1.00  0.00     0.005 C 
HETATM   35  C27 UNL     1      -5.458  -2.991   2.425  1.00  0.00     0.000 C 
HETATM   36  C28 UNL     1      -6.094  -2.127   3.495  1.00  0.00     0.000 C 
HETATM   37  C29 UNL     1      -6.133  -0.746   2.908  1.00  0.00     0.005 C 
ENDBRANCH  32  33
ENDBRANCH  31  32
BRANCH  31  38
HETATM   38  N3  UNL     1      -4.139   1.899  -0.492  1.00  0.00    -0.343 N 
HETATM   39  C30 UNL     1      -3.649   3.240  -0.242  1.00  0.00     0.154 C 
HETATM   40  C31 UNL     1      -4.020   4.081  -1.451  1.00  0.00     0.252 C 
HETATM   41  N4  UNL     1      -5.455   4.118  -1.645  1.00  0.00    -0.065 N 
HETATM   42  C32 UNL     1      -6.059   2.833  -1.772  1.00  0.00     0.334 C 
ATOM     43  H42 UNL     1      -5.903   4.651  -0.900  1.00  0.00     0.277 HD
ATOM     44  H41 UNL     1      -5.693   4.705  -2.445  1.00  0.00     0.277 HD
HETATM   45  C33 UNL     1      -5.090   1.704  -1.520  1.00  0.00     0.245 C 
HETATM   46  O3  UNL     1      -5.147   0.652  -2.203  1.00  0.00    -0.272 OA
ENDBRANCH  31  38
ENDBRANCH  30  31
ENDBRANCH  10  30
TORSDOF 11
