REMARK  11 active torsions:
REMARK  status: ('A' for Active; 'I' for Inactive)
REMARK    1  A    between atoms: C2_2  and  C5_5 
REMARK    2  A    between atoms: C6_8  and  C7_9 
REMARK    3  A    between atoms: C9_14  and  C10_15 
REMARK       I    between atoms: C10_15  and  N2_17 
REMARK    4  A    between atoms: N2_17  and  C11_19 
REMARK    5  A    between atoms: C11_19  and  C12_20 
REMARK    6  A    between atoms: C12_20  and  C13_21 
REMARK    7  A    between atoms: C13_21  and  N3_22 
REMARK    8  A    between atoms: N4_25  and  C16_26 
REMARK    9  A    between atoms: C16_26  and  C17_27 
REMARK   10  A    between atoms: C17_27  and  N5_28 
REMARK   11  A    between atoms: C25_36  and  C26_37 
ROOT
HETATM    1  N3  UNL     1      -1.895   0.865  -0.211  1.00  0.00     0.091 N 
HETATM    2  C14 UNL     1      -1.125   1.705  -1.142  1.00  0.00     0.302 C 
HETATM    3  C15 UNL     1       0.333   1.408  -0.850  1.00  0.00     0.302 C 
HETATM    4  N4  UNL     1       0.715   2.222   0.292  1.00  0.00     0.093 N 
HETATM    5  C34 UNL     1      -0.431   2.218   1.203  1.00  0.00     0.302 C 
HETATM    6  C35 UNL     1      -1.203   0.920   1.095  1.00  0.00     0.302 C 
ENDROOT
BRANCH   1   7
HETATM    7  C13 UNL     1      -3.244   1.378  -0.054  1.00  0.00     0.274 C 
BRANCH   7   8
HETATM    8  C12 UNL     1      -3.965   1.260  -1.370  1.00  0.00     0.050 C 
BRANCH   8   9
HETATM    9  C11 UNL     1      -5.393   1.771  -1.255  1.00  0.00     0.124 C 
BRANCH   9  10
HETATM   10  N2  UNL     1      -6.163   0.969  -0.324  1.00  0.00    -0.357 N 
HETATM   11  C10 UNL     1      -7.494   1.271   0.026  1.00  0.00     0.253 C 
HETATM   12  O1  UNL     1      -8.046   2.274  -0.456  1.00  0.00    -0.268 OA
ATOM     13  H2  UNL     1      -5.722   0.151   0.096  1.00  0.00     0.162 HD
BRANCH  11  14
HETATM   14  C9  UNL     1      -8.208   0.418   0.950  1.00  0.00     0.057 A 
HETATM   15  C5  UNL     1      -8.746  -0.814   0.731  1.00  0.00     0.033 A 
HETATM   16  N1  UNL     1      -9.237  -1.286   1.908  1.00  0.00    -0.354 N 
HETATM   17  C6  UNL     1      -9.030  -0.387   2.876  1.00  0.00     0.117 A 
ATOM     18  H1  UNL     1      -9.694  -2.189   2.033  1.00  0.00     0.166 HD
HETATM   19  C8  UNL     1      -8.390   0.695   2.320  1.00  0.00     0.053 A 
BRANCH  15  20
HETATM   20  C2  UNL     1      -8.883  -1.541  -0.544  1.00  0.00    -0.008 C 
HETATM   21  C1  UNL     1      -7.624  -1.821  -1.281  1.00  0.00     0.021 C 
HETATM   22  C3  UNL     1      -9.494  -2.925  -0.232  1.00  0.00     0.021 C 
HETATM   23  C4  UNL     1      -9.911  -0.865  -1.445  1.00  0.00     0.021 C 
ENDBRANCH  15  20
BRANCH  17  24
HETATM   24  C7  UNL     1      -9.402  -0.493   4.333  1.00  0.00     0.432 C 
HETATM   25  F1  UNL     1      -9.700   0.751   4.811  1.00  0.00    -0.165 F 
HETATM   26  F2  UNL     1      -8.298  -1.068   4.944  1.00  0.00    -0.165 F 
HETATM   27  F3  UNL     1     -10.509  -1.332   4.383  1.00  0.00    -0.165 F 
ENDBRANCH  17  24
ENDBRANCH  11  14
ENDBRANCH   9  10
ENDBRANCH   8   9
ENDBRANCH   7   8
ENDBRANCH   1   7
BRANCH   4  28
HETATM   28  C16 UNL     1       1.883   1.650   0.983  1.00  0.00     0.302 C 
BRANCH  28  29
HETATM   29  C17 UNL     1       3.043   1.746   0.049  1.00  0.00     0.302 C 
BRANCH  29  30
HETATM   30  N5  UNL     1       4.272   1.240   0.630  1.00  0.00     0.090 N 
HETATM   31  C18 UNL     1       4.215  -0.183   0.889  1.00  0.00     0.273 C 
HETATM   32  C19 UNL     1       5.637  -0.657   1.102  1.00  0.00     0.040 C 
HETATM   33  C20 UNL     1       6.217  -0.897  -0.300  1.00  0.00    -0.029 C 
HETATM   34  C21 UNL     1       5.597  -2.256  -0.691  1.00  0.00     0.010 C 
HETATM   35  C25 UNL     1       7.675  -1.096  -0.286  1.00  0.00     0.027 C 
HETATM   36  C32 UNL     1       5.650   0.190  -1.143  1.00  0.00     0.040 C 
HETATM   37  C22 UNL     1       6.348  -3.394  -0.034  1.00  0.00     0.001 C 
HETATM   38  C23 UNL     1       7.640  -3.563  -0.791  1.00  0.00     0.001 C 
HETATM   39  C24 UNL     1       8.064  -2.198  -1.237  1.00  0.00     0.010 C 
HETATM   40  C33 UNL     1       5.337   1.464  -0.340  1.00  0.00     0.273 C 
BRANCH  35  41
HETATM   41  C26 UNL     1       8.563   0.054  -0.520  1.00  0.00    -0.053 A 
HETATM   42  C27 UNL     1       9.163   0.741   0.508  1.00  0.00     0.007 A 
HETATM   43  C28 UNL     1      10.010   1.772   0.232  1.00  0.00     0.001 A 
HETATM   44  C29 UNL     1      10.311   2.182  -1.054  1.00  0.00     0.000 A 
HETATM   45  C30 UNL     1       9.698   1.480  -2.061  1.00  0.00     0.001 A 
HETATM   46  C31 UNL     1       8.845   0.442  -1.809  1.00  0.00     0.007 A 
ENDBRANCH  35  41
ENDBRANCH  29  30
ENDBRANCH  28  29
ENDBRANCH   4  28
TORSDOF 11
