REMARK  10 active torsions:
REMARK  status: ('A' for Active; 'I' for Inactive)
REMARK    1  A    between atoms: C2_2  and  C3_5 
REMARK    2  A    between atoms: C3_5  and  C4_6 
REMARK    3  A    between atoms: C3_5  and  N1_12 
REMARK    4  A    between atoms: C4_6  and  C5_7 
REMARK       I    between atoms: N1_12  and  C10_14 
REMARK    5  A    between atoms: C10_14  and  C11_16 
REMARK       I    between atoms: N2_19  and  C14_20 
REMARK    6  A    between atoms: C14_20  and  C15_22 
REMARK    7  A    between atoms: N3_24  and  C17_25 
REMARK    8  A    between atoms: C22_30  and  C23_31 
REMARK    9  A    between atoms: C30_39  and  N4_40 
REMARK   10  A    between atoms: N4_40  and  C31_42 
ROOT
HETATM    1  C11 UNL     1       1.300  -0.180   0.417  1.00  0.00     0.103 C 
HETATM    2  C12 UNL     1       0.191  -0.732   1.259  1.00  0.00     0.036 C 
HETATM    3  C13 UNL     1      -0.996  -1.254   0.544  1.00  0.00     0.127 C 
HETATM    4  N2  UNL     1      -1.265  -0.498  -0.650  1.00  0.00    -0.350 N 
HETATM    5  C14 UNL     1      -2.581  -0.055  -0.984  1.00  0.00     0.226 C 
HETATM    6  O2  UNL     1      -2.737   0.571  -2.060  1.00  0.00    -0.273 OA
HETATM    7  C29 UNL     1      -0.138  -0.189  -1.522  1.00  0.00     0.151 C 
HETATM    8  C30 UNL     1       1.148  -0.745  -0.993  1.00  0.00     0.108 C 
ENDROOT
BRANCH   5   9
HETATM    9  C15 UNL     1      -3.692  -0.314  -0.115  1.00  0.00     0.116 C 
HETATM   10  C16 UNL     1      -5.054  -0.180  -0.794  1.00  0.00     0.288 C 
HETATM   11  N3  UNL     1      -5.978  -0.024   0.292  1.00  0.00     0.098 N 
HETATM   12  C21 UNL     1      -5.244   0.346   1.447  1.00  0.00     0.283 C 
HETATM   13  C22 UNL     1      -3.903   0.765   0.967  1.00  0.00     0.061 C 
BRANCH  11  14
HETATM   14  C17 UNL     1      -6.913  -1.085   0.439  1.00  0.00     0.149 C 
HETATM   15  C18 UNL     1      -7.768  -1.143  -0.810  1.00  0.00     0.048 C 
HETATM   16  C19 UNL     1      -6.306  -2.446   0.650  1.00  0.00     0.048 C 
HETATM   17  C20 UNL     1      -7.833  -0.731   1.603  1.00  0.00     0.048 C 
ENDBRANCH  11  14
BRANCH  13  18
HETATM   18  C23 UNL     1      -3.863   2.130   0.442  1.00  0.00    -0.051 A 
HETATM   19  C24 UNL     1      -4.969   2.831   0.045  1.00  0.00     0.009 A 
HETATM   20  C25 UNL     1      -4.921   4.119  -0.463  1.00  0.00     0.024 A 
HETATM   21  C26 UNL     1      -3.690   4.717  -0.569  1.00  0.00     0.034 A 
HETATM   22 CL2  UNL     1      -3.617   6.353  -1.214  1.00  0.00    -0.084 Cl
HETATM   23  C27 UNL     1      -2.564   4.028  -0.174  1.00  0.00     0.024 A 
HETATM   24  C28 UNL     1      -2.612   2.754   0.328  1.00  0.00     0.009 A 
ENDBRANCH  13  18
ENDBRANCH   5   9
BRANCH   8  25
HETATM   25  N4  UNL     1       1.323  -2.125  -0.925  1.00  0.00    -0.411 N 
ATOM     26  H4  UNL     1       1.437  -2.558  -0.009  1.00  0.00     0.154 HD
BRANCH  25  27
HETATM   27  C31 UNL     1       1.349  -2.946  -2.064  1.00  0.00     0.077 A 
HETATM   28  C32 UNL     1       0.128  -3.112  -2.888  1.00  0.00     0.027 A 
HETATM   29  C33 UNL     1       0.631  -4.270  -1.976  1.00  0.00     0.027 A 
ENDBRANCH  25  27
ENDBRANCH   8  25
BRANCH   1  30
HETATM   30  C10 UNL     1       2.585  -0.438   1.047  1.00  0.00     0.224 C 
HETATM   31  N1  UNL     1       3.850  -0.125   0.484  1.00  0.00    -0.352 N 
ATOM     32  H1  UNL     1       3.877   0.304  -0.441  1.00  0.00     0.163 HD
HETATM   33  O1  UNL     1       2.613  -0.981   2.187  1.00  0.00    -0.273 OA
BRANCH  31  34
HETATM   34  C3  UNL     1       5.117  -0.388   1.166  1.00  0.00     0.139 C 
BRANCH  34  35
HETATM   35  C2  UNL     1       5.810  -1.581   0.568  1.00  0.00     0.195 C 
HETATM   36  C1  UNL     1       6.957  -2.064   1.427  1.00  0.00     0.072 C 
HETATM   37  F1  UNL     1       6.169  -1.521  -0.717  1.00  0.00    -0.224 F 
HETATM   38 CL1  UNL     1       4.644  -2.989   0.636  1.00  0.00    -0.081 Cl
ENDBRANCH  34  35
BRANCH  34  39
HETATM   39  C4  UNL     1       5.892   0.814   1.431  1.00  0.00     0.034 C 
BRANCH  39  40
HETATM   40  C5  UNL     1       6.601   1.633   0.510  1.00  0.00    -0.013 C 
HETATM   41  C6  UNL     1       7.711   1.199  -0.352  1.00  0.00     0.005 C 
HETATM   42  C7  UNL     1       8.239   2.627  -0.711  1.00  0.00     0.000 C 
HETATM   43  C8  UNL     1       6.920   3.353  -1.023  1.00  0.00     0.000 C 
HETATM   44  C9  UNL     1       5.806   2.448  -0.498  1.00  0.00     0.005 C 
ENDBRANCH  39  40
ENDBRANCH  34  39
ENDBRANCH  31  34
ENDBRANCH   1  30
TORSDOF 10
