REMARK  3 active torsions:
REMARK  status: ('A' for Active; 'I' for Inactive)
REMARK    1  A    between atoms: C4_5  and  C5_6 
REMARK    2  A    between atoms: C5_6  and  N2_7 
REMARK    3  A    between atoms: C8_12  and  C9_13 
ROOT
HETATM    1  N2  UNL     1      -0.704  -0.585   1.515  1.00  0.00    -0.288 N 
HETATM    2  N3  UNL     1      -0.462  -1.677   2.270  1.00  0.00    -0.309 N 
ATOM      3  H3  UNL     1       0.268  -1.741   2.980  1.00  0.00     0.186 HD
HETATM    4  C6  UNL     1      -1.287  -2.637   1.968  1.00  0.00     0.109 A 
HETATM    5  C7  UNL     1      -2.109  -2.170   0.978  1.00  0.00     0.050 A 
HETATM    6  C8  UNL     1      -1.707  -0.846   0.712  1.00  0.00     0.062 A 
ENDROOT
BRANCH   1   7
HETATM    7  C5  UNL     1       0.131   0.577   1.668  1.00  0.00     0.187 C 
BRANCH   7   8
HETATM    8  C4  UNL     1       1.389   0.531   0.887  1.00  0.00    -0.038 A 
HETATM    9  C3  UNL     1       1.605   1.298  -0.210  1.00  0.00     0.011 A 
HETATM   10  C2  UNL     1       2.788   1.213  -0.915  1.00  0.00     0.027 A 
HETATM   11  C1  UNL     1       3.767   0.336  -0.501  1.00  0.00     0.046 A 
HETATM   12  N1  UNL     1       4.969   0.271  -1.244  1.00  0.00    -0.102 NA
HETATM   13  C15 UNL     1       3.544  -0.445   0.618  1.00  0.00     0.027 A 
HETATM   14  C14 UNL     1       2.373  -0.354   1.307  1.00  0.00     0.011 A 
ENDBRANCH   7   8
ENDBRANCH   1   7
BRANCH   6  15
HETATM   15  C9  UNL     1      -2.395  -0.046  -0.314  1.00  0.00    -0.005 A 
HETATM   16  C10 UNL     1      -2.168   1.259  -0.620  1.00  0.00     0.030 A 
HETATM   17  C11 UNL     1      -2.866   1.954  -1.636  1.00  0.00     0.088 A 
HETATM   18  N4  UNL     1      -3.792   1.321  -2.334  1.00  0.00    -0.375 N 
HETATM   19  C12 UNL     1      -4.056   0.041  -2.077  1.00  0.00     0.088 A 
ATOM     20  H4  UNL     1      -4.303   1.811  -3.068  1.00  0.00     0.164 HD
HETATM   21  C13 UNL     1      -3.384  -0.649  -1.090  1.00  0.00     0.030 A 
ENDBRANCH   6  15
TORSDOF 3
