REMARK  3 active torsions:
REMARK  status: ('A' for Active; 'I' for Inactive)
REMARK    1  A    between atoms: C4_4  and  C5_5 
REMARK    2  A    between atoms: C7_7  and  O1_8 
REMARK    3  A    between atoms: O1_8  and  C8_9 
ROOT
HETATM    1  C5  UNL     1       1.049   0.236  -0.528  1.00  0.00     0.047 A 
HETATM    2  C6  UNL     1      -0.028  -0.196   0.194  1.00  0.00     0.086 A 
HETATM    3  C7  UNL     1      -1.328   0.038  -0.243  1.00  0.00     0.151 A 
HETATM    4  N3  UNL     1      -1.480   0.701  -1.395  1.00  0.00    -0.333 N 
ATOM      5  H3  UNL     1      -2.424   0.884  -1.734  1.00  0.00     0.168 HD
HETATM    6  C11 UNL     1      -0.441   1.134  -2.120  1.00  0.00     0.182 A 
HETATM    7  N4  UNL     1       0.807   0.894  -1.674  1.00  0.00    -0.352 N 
ATOM      8  H4  UNL     1       1.598   1.224  -2.227  1.00  0.00     0.166 HD
ENDROOT
BRANCH   3   9
HETATM    9  O1  UNL     1      -2.403  -0.396   0.483  1.00  0.00    -0.291 OA
BRANCH   9  10
HETATM   10  C8  UNL     1      -3.737  -0.271   0.235  1.00  0.00     0.111 A 
HETATM   11  C9  UNL     1      -4.766  -0.763   1.062  1.00  0.00     0.145 A 
HETATM   12  N1  UNL     1      -5.932  -0.452   0.495  1.00  0.00    -0.309 N 
HETATM   13  N2  UNL     1      -5.770   0.194  -0.620  1.00  0.00    -0.309 N 
ATOM     14  H1  UNL     1      -6.841  -0.692   0.889  1.00  0.00     0.186 HD
HETATM   15  C10 UNL     1      -4.417   0.317  -0.800  1.00  0.00     0.145 A 
ATOM     16  H2  UNL     1      -6.503   0.541  -1.238  1.00  0.00     0.186 HD
ENDBRANCH   9  10
ENDBRANCH   3   9
BRANCH   1  17
HETATM   17  C4  UNL     1       2.413   0.000  -0.087  1.00  0.00    -0.009 A 
HETATM   18  C3  UNL     1       3.476   0.468  -0.870  1.00  0.00     0.013 A 
HETATM   19  C2  UNL     1       4.791   0.278  -0.510  1.00  0.00     0.001 A 
HETATM   20  C1  UNL     1       5.128  -0.386   0.649  1.00  0.00     0.000 A 
HETATM   21  C13 UNL     1       4.100  -0.855   1.437  1.00  0.00     0.001 A 
HETATM   22  C12 UNL     1       2.763  -0.660   1.066  1.00  0.00     0.013 A 
ENDBRANCH   1  17
TORSDOF 3
