REMARK  8 active torsions:
REMARK  status: ('A' for Active; 'I' for Inactive)
REMARK    1  A    between atoms: N1_2  and  C2_4 
REMARK    2  A    between atoms: C3_7  and  C4_8 
REMARK    3  A    between atoms: C7_11  and  N3_12 
REMARK    4  A    between atoms: N3_12  and  C9_14 
REMARK    5  A    between atoms: C9_14  and  O1_15 
REMARK    6  A    between atoms: C10_17  and  N4_18 
REMARK       I    between atoms: N4_18  and  C11_20 
REMARK    7  A    between atoms: C11_20  and  C12_22 
REMARK    8  A    between atoms: C17_27  and  C18_28 
ROOT
HETATM    1  C9  UNL     1      -0.504  -0.743   1.318  1.00  0.00     0.158 C 
HETATM    2  C10 UNL     1      -1.789  -0.259   1.753  1.00  0.00     0.147 C 
ENDROOT
BRANCH   1   3
HETATM    3  N3  UNL     1       0.187  -0.803   0.119  1.00  0.00    -0.325 N 
HETATM    4  C8  UNL     1      -0.320  -0.388  -1.159  1.00  0.00     0.159 C 
BRANCH   3   5
HETATM    5  C7  UNL     1       1.543  -1.342   0.074  1.00  0.00     0.078 A 
HETATM    6  C6  UNL     1       1.957  -2.626   0.137  1.00  0.00     0.039 A 
HETATM    7  C5  UNL     1       3.273  -2.852   0.073  1.00  0.00     0.024 A 
HETATM    8  C4  UNL     1       4.095  -1.789  -0.048  1.00  0.00     0.034 A 
HETATM    9  S1  UNL     1       2.995  -0.456  -0.072  1.00  0.00    -0.070 SA
BRANCH   8  10
HETATM   10  C3  UNL     1       5.574  -1.722  -0.136  1.00  0.00     0.058 A 
HETATM   11  N2  UNL     1       6.229  -0.592  -0.253  1.00  0.00    -0.335 N 
HETATM   12  C2  UNL     1       7.555  -0.635  -0.326  1.00  0.00     0.144 A 
ATOM     13  H2  UNL     1       5.733   0.298  -0.287  1.00  0.00     0.168 HD
HETATM   14  S2  UNL     1       7.904  -2.296  -0.227  1.00  0.00    -0.064 SA
HETATM   15  C19 UNL     1       6.306  -2.878  -0.095  1.00  0.00     0.084 A 
BRANCH  12  16
HETATM   16  N1  UNL     1       8.412   0.343  -0.445  1.00  0.00    -0.375 N 
HETATM   17  C1  UNL     1       8.012   1.719  -0.520  1.00  0.00     0.148 C 
ATOM     18  H1  UNL     1       9.406   0.120  -0.486  1.00  0.00     0.161 HD
ENDBRANCH  12  16
ENDBRANCH   8  10
ENDBRANCH   3   5
ENDBRANCH   1   3
BRANCH   1  19
HETATM   19  O1  UNL     1       0.189  -1.263   2.327  1.00  0.00    -0.345 OA
ATOM     20  H1  UNL     1      -0.285  -1.222   3.149  1.00  0.00     0.219 HD
ENDBRANCH   1  19
BRANCH   2  21
HETATM   21  N4  UNL     1      -2.696   0.360   0.860  1.00  0.00    -0.329 N 
HETATM   22  C11 UNL     1      -3.987   0.822   1.312  1.00  0.00     0.256 C 
HETATM   23  O2  UNL     1      -4.275   0.671   2.532  1.00  0.00    -0.267 OA
ATOM     24  H4  UNL     1      -2.433   0.482  -0.118  1.00  0.00     0.168 HD
BRANCH  22  25
HETATM   25  C12 UNL     1      -4.969   1.448   0.477  1.00  0.00     0.047 A 
HETATM   26  C13 UNL     1      -5.121   2.841   0.646  1.00  0.00     0.018 A 
HETATM   27  C14 UNL     1      -5.985   3.597  -0.104  1.00  0.00     0.001 A 
HETATM   28  C15 UNL     1      -6.737   2.955  -1.069  1.00  0.00     0.001 A 
HETATM   29  C16 UNL     1      -6.612   1.604  -1.255  1.00  0.00     0.017 A 
HETATM   30  C17 UNL     1      -5.731   0.834  -0.488  1.00  0.00     0.063 A 
BRANCH  30  31
HETATM   31  C18 UNL     1      -5.683  -0.609  -0.704  1.00  0.00     0.418 C 
HETATM   32  F1  UNL     1      -4.463  -1.070  -1.103  1.00  0.00    -0.166 F 
HETATM   33  F2  UNL     1      -6.122  -1.301   0.441  1.00  0.00    -0.166 F 
HETATM   34  F3  UNL     1      -6.573  -0.947  -1.739  1.00  0.00    -0.166 F 
ENDBRANCH  30  31
ENDBRANCH  22  25
ENDBRANCH   2  21
TORSDOF 8
