REMARK  8 active torsions:
REMARK  status: ('A' for Active; 'I' for Inactive)
REMARK    1  A    between atoms: C7_7  and  O1_8 
REMARK    2  A    between atoms: O1_8  and  C8_9 
REMARK    3  A    between atoms: C8_9  and  C11_13 
REMARK       I    between atoms: C11_13  and  N2_15 
REMARK    4  A    between atoms: N2_15  and  C12_17 
REMARK    5  A    between atoms: C12_17  and  N3_18 
REMARK    6  A    between atoms: C12_17  and  C18_27 
REMARK       I    between atoms: N3_18  and  C13_20 
REMARK    7  A    between atoms: C13_20  and  O4_22 
REMARK    8  A    between atoms: O4_22  and  C14_23 
ROOT
HETATM    1  C8  UNL     1      -2.578  -1.455   0.364  1.00  0.00     0.231 C 
HETATM    2  C9  UNL     1      -2.364  -1.185   1.846  1.00  0.00     0.074 C 
HETATM    3  C10 UNL     1      -3.160  -2.827   0.306  1.00  0.00     0.108 C 
HETATM    4  N1  UNL     1      -3.593  -3.899   0.260  1.00  0.00    -0.193 NA
ENDROOT
BRANCH   1   5
HETATM    5  O1  UNL     1      -3.562  -0.615  -0.118  1.00  0.00    -0.315 OA
BRANCH   5   6
HETATM    6  C7  UNL     1      -3.661   0.728  -0.174  1.00  0.00     0.077 A 
HETATM    7  C2  UNL     1      -4.790   1.286  -0.727  1.00  0.00    -0.029 A 
HETATM    8  C1  UNL     1      -5.911   0.449  -1.268  1.00  0.00     0.051 C 
HETATM    9  C3  UNL     1      -4.952   2.661  -0.814  1.00  0.00     0.009 A 
HETATM   10  C4  UNL     1      -3.975   3.476  -0.342  1.00  0.00     0.001 A 
HETATM   11  C5  UNL     1      -2.836   2.915   0.216  1.00  0.00     0.003 A 
HETATM   12  C6  UNL     1      -2.679   1.552   0.300  1.00  0.00     0.037 A 
ENDBRANCH   5   6
ENDBRANCH   1   5
BRANCH   1  13
HETATM   13  C11 UNL     1      -1.321  -1.442  -0.390  1.00  0.00     0.269 C 
HETATM   14  O2  UNL     1      -1.232  -0.693  -1.393  1.00  0.00    -0.269 OA
HETATM   15  N2  UNL     1      -0.194  -2.228  -0.052  1.00  0.00    -0.332 N 
ATOM     16  H2  UNL     1      -0.279  -2.832   0.766  1.00  0.00     0.164 HD
BRANCH  15  17
HETATM   17  C12 UNL     1       1.049  -2.254  -0.749  1.00  0.00     0.243 C 
BRANCH  17  18
HETATM   18  N3  UNL     1       2.070  -1.753   0.171  1.00  0.00    -0.311 N 
HETATM   19  C13 UNL     1       2.835  -0.589  -0.113  1.00  0.00     0.363 C 
HETATM   20  O3  UNL     1       2.630   0.033  -1.187  1.00  0.00    -0.238 OA
ATOM     21  H3  UNL     1       2.238  -2.254   1.043  1.00  0.00     0.167 HD
BRANCH  19  22
HETATM   22  O4  UNL     1       3.789  -0.111   0.732  1.00  0.00    -0.294 OA
BRANCH  22  23
HETATM   23  C14 UNL     1       4.585   1.015   0.543  1.00  0.00     0.061 C 
HETATM   24  C15 UNL     1       5.545   1.259   1.686  1.00  0.00     0.046 C 
HETATM   25  C16 UNL     1       3.750   2.267   0.329  1.00  0.00     0.046 C 
HETATM   26  C17 UNL     1       5.430   0.781  -0.692  1.00  0.00     0.046 C 
ENDBRANCH  22  23
ENDBRANCH  19  22
ENDBRANCH  17  18
BRANCH  17  27
HETATM   27  C18 UNL     1       1.493  -3.631  -1.165  1.00  0.00     0.226 C 
HETATM   28 CL1  UNL     1       1.695  -4.693   0.248  1.00  0.00    -0.080 Cl
HETATM   29 CL2  UNL     1       0.395  -4.413  -2.290  1.00  0.00    -0.080 Cl
HETATM   30 CL3  UNL     1       3.079  -3.496  -1.965  1.00  0.00    -0.080 Cl
ENDBRANCH  17  27
ENDBRANCH  15  17
ENDBRANCH   1  13
TORSDOF 8
