REMARK  1 active torsions:
REMARK  status: ('A' for Active; 'I' for Inactive)
REMARK    1  A    between atoms: N1_2  and  N2_4 
ROOT
HETATM    1  N2  UNL     1       1.454  -0.216  -0.196  1.00  0.00    -0.241 N 
HETATM    2  C1  UNL     1       1.058  -0.632   1.133  1.00  0.00     0.381 C 
HETATM    3  N3  UNL     1      -0.147   0.149   1.339  1.00  0.00    -0.046 N 
ATOM      4  H31 UNL     1       0.028   1.098   1.670  1.00  0.00     0.280 HD
ATOM      5  H32 UNL     1      -0.703  -0.154   2.139  1.00  0.00     0.280 HD
HETATM    6  C2  UNL     1      -0.850   0.091   0.089  1.00  0.00     0.162 C 
HETATM    7  C3  UNL     1      -1.737   1.300  -0.075  1.00  0.00     0.115 C 
HETATM    8  S1  UNL     1      -2.943   0.352  -1.035  1.00  0.00    -0.164 SA
HETATM    9  C4  UNL     1      -2.006  -0.842  -0.004  1.00  0.00     0.115 C 
HETATM   10  C5  UNL     1       0.227  -0.055  -0.951  1.00  0.00     0.191 C 
ENDROOT
BRANCH   1  11
HETATM   11  N1  UNL     1       2.756  -0.015  -0.641  1.00  0.00    -0.040 N 
HETATM   12  O1  UNL     1       3.035   0.961  -1.354  1.00  0.00    -0.517 OA
HETATM   13  O2  UNL     1       3.762  -0.882  -0.306  1.00  0.00    -0.517 OA
ENDBRANCH   1  11
TORSDOF 1
