REMARK  2 active torsions:
REMARK  status: ('A' for Active; 'I' for Inactive)
REMARK    1  A    between atoms: C2_2  and  N1_4 
REMARK    2  A    between atoms: N2_11  and  O2_12 
ROOT
HETATM    1  N1  UNL     1       0.704   0.200   0.526  1.00  0.00    -0.163 NA
HETATM    2  C3  UNL     1       0.171   1.121  -0.434  1.00  0.00     0.214 C 
HETATM    3  C4  UNL     1       0.181   2.514   0.200  1.00  0.00     0.058 C 
HETATM    4  O1  UNL     1      -1.174   0.817  -0.625  1.00  0.00    -0.342 OA
HETATM    5  C5  UNL     1      -1.429  -0.388  -0.018  1.00  0.00     0.149 C 
HETATM    6  C6  UNL     1      -2.650  -0.363   0.878  1.00  0.00     0.067 C 
HETATM    7  C7  UNL     1      -1.729  -1.395  -1.123  1.00  0.00     0.067 C 
HETATM    8  N2  UNL     1      -0.282  -0.761   0.764  1.00  0.00    -0.087 NA
ENDROOT
BRANCH   1   9
HETATM    9  C2  UNL     1       1.882  -0.500   0.077  1.00  0.00     0.260 C 
HETATM   10  C1  UNL     1       3.047   0.420  -0.193  1.00  0.00     0.064 C 
HETATM   11  F1  UNL     1       2.263  -1.337   1.128  1.00  0.00    -0.232 F 
ENDBRANCH   1   9
BRANCH   8  12
HETATM   12  O2  UNL     1       0.087  -2.004   0.371  1.00  0.00    -0.295 OA
ATOM     13  H2  UNL     1      -0.583  -2.657   0.533  1.00  0.00     0.238 HD
ENDBRANCH   8  12
TORSDOF 2
