REMARK  3 active torsions:
REMARK  status: ('A' for Active; 'I' for Inactive)
REMARK    1  A    between atoms: C2_3  and  N2_4 
REMARK    2  A    between atoms: N2_4  and  O1_5 
REMARK    3  A    between atoms: N2_4  and  C3_7 
ROOT
HETATM    1  N1  UNL     1      -1.897   1.854   1.516  1.00  0.00    -0.194 NA
HETATM    2  C1  UNL     1      -1.273   1.097   0.903  1.00  0.00     0.093 C 
HETATM    3  C2  UNL     1      -0.488   0.136   0.100  1.00  0.00     0.149 A 
HETATM    4  C4  UNL     1      -1.228  -0.574  -1.036  1.00  0.00     0.053 A 
HETATM    5  C5  UNL     1      -0.917  -1.288   0.223  1.00  0.00     0.053 A 
ENDROOT
BRANCH   3   6
HETATM    6  N2  UNL     1       0.866   0.494  -0.187  1.00  0.00    -0.215 N 
BRANCH   6   7
HETATM    7  O1  UNL     1       1.295   0.633  -1.482  1.00  0.00    -0.284 OA
ATOM      8  H1  UNL     1       2.195   0.871  -1.673  1.00  0.00     0.245 HD
ENDBRANCH   6   7
BRANCH   6   9
HETATM    9  C3  UNL     1       1.806   0.716   0.856  1.00  0.00     0.196 C 
HETATM   10  S1  UNL     1       1.326   0.558   2.409  1.00  0.00    -0.045 SA
HETATM   11 CL1  UNL     1       3.461   1.153   0.556  1.00  0.00    -0.050 Cl
ENDBRANCH   6   9
ENDBRANCH   3   6
TORSDOF 3
