REMARK  2 active torsions:
REMARK  status: ('A' for Active; 'I' for Inactive)
REMARK    1  A    between atoms: C5_6  and  N1_8 
REMARK    2  A    between atoms: N2_11  and  O3_12 
ROOT
HETATM    1  C1  UNL     1       1.703   0.826  -1.242  1.00  0.00     0.037 C 
HETATM    2  C2  UNL     1       0.967   0.123  -0.136  1.00  0.00     0.069 A 
HETATM    3  C3  UNL     1       1.889  -0.521   0.841  1.00  0.00     0.037 C 
HETATM    4  C4  UNL     1      -0.086  -0.879  -0.599  1.00  0.00     0.245 A 
HETATM    5  F1  UNL     1       0.122  -2.146  -0.167  1.00  0.00    -0.243 F 
HETATM    6  C5  UNL     1      -1.120  -0.038   0.087  1.00  0.00     0.202 A 
HETATM    7  C6  UNL     1      -2.128   0.455  -0.957  1.00  0.00     0.069 C 
HETATM    8  N2  UNL     1      -0.092   0.923   0.382  1.00  0.00    -0.150 NA
ENDROOT
BRANCH   6   9
HETATM    9  N1  UNL     1      -1.769  -0.661   1.180  1.00  0.00    -0.125 N 
HETATM   10  O1  UNL     1      -1.475  -1.817   1.516  1.00  0.00    -0.535 OA
HETATM   11  O2  UNL     1      -2.745  -0.039   1.926  1.00  0.00    -0.535 OA
ENDBRANCH   6   9
BRANCH   8  12
HETATM   12  O3  UNL     1      -0.002   1.374   1.620  1.00  0.00    -0.309 OA
ATOM     13  H3  UNL     1      -0.708   1.907   1.965  1.00  0.00     0.237 HD
ENDBRANCH   8  12
TORSDOF 2
