REMARK  9 active torsions:
REMARK  status: ('A' for Active; 'I' for Inactive)
REMARK    1  A    between atoms: C2_2  and  O1_3 
REMARK    2  A    between atoms: C2_2  and  C3_5 
REMARK    3  A    between atoms: C3_5  and  C4_6 
REMARK    4  A    between atoms: C3_5  and  N1_20 
REMARK    5  A    between atoms: C4_6  and  O2_7 
REMARK    6  A    between atoms: C4_6  and  C5_9 
REMARK    7  A    between atoms: C10_17  and  O3_18 
REMARK    8  A    between atoms: N1_20  and  N2_21 
REMARK    9  A    between atoms: N1_20  and  N3_24 
ROOT
HETATM    1  C3  UNL     1      -0.624   0.807  -0.675  1.00  0.00     0.213 C 
ENDROOT
BRANCH   1   2
HETATM    2  C2  UNL     1      -1.356   2.147  -0.690  1.00  0.00     0.147 C 
HETATM    3  C1  UNL     1      -2.098   2.347  -1.967  1.00  0.00     0.042 C 
BRANCH   2   4
HETATM    4  O1  UNL     1      -2.176   2.344   0.378  1.00  0.00    -0.393 OA
ATOM      5  H1  UNL     1      -1.703   2.217   1.192  1.00  0.00     0.210 HD
ENDBRANCH   2   4
ENDBRANCH   1   2
BRANCH   1   6
HETATM    6  C4  UNL     1       0.390   0.778   0.376  1.00  0.00     0.087 C 
BRANCH   6   7
HETATM    7  O2  UNL     1       0.127   1.629   1.334  1.00  0.00    -0.362 OA
ATOM      8  H2  UNL     1       0.786   1.610   2.018  1.00  0.00     0.217 HD
ENDBRANCH   6   7
BRANCH   6   9
HETATM    9  C5  UNL     1       1.573   0.023   0.553  1.00  0.00     0.053 A 
HETATM   10  C6  UNL     1       2.071  -0.902  -0.322  1.00  0.00     0.051 A 
HETATM   11 CL1  UNL     1       1.286  -1.290  -1.837  1.00  0.00    -0.083 Cl
HETATM   12  C7  UNL     1       3.264  -1.604  -0.082  1.00  0.00     0.052 A 
HETATM   13  C8  UNL     1       3.986  -1.380   1.063  1.00  0.00     0.077 A 
HETATM   14 CL2  UNL     1       5.488  -2.265   1.364  1.00  0.00    -0.081 Cl
HETATM   15  C9  UNL     1       3.510  -0.455   1.960  1.00  0.00     0.172 A 
HETATM   16  F1  UNL     1       4.229  -0.232   3.099  1.00  0.00    -0.201 F 
HETATM   17  C10 UNL     1       2.341   0.220   1.707  1.00  0.00     0.120 A 
BRANCH  17  18
HETATM   18  O3  UNL     1       1.951   1.141   2.693  1.00  0.00    -0.357 OA
ATOM     19  H3  UNL     1       2.472   1.275   3.476  1.00  0.00     0.218 HD
ENDBRANCH  17  18
ENDBRANCH   6   9
ENDBRANCH   1   6
BRANCH   1  20
HETATM   20  N1  UNL     1      -1.553  -0.298  -0.671  1.00  0.00    -0.211 N 
BRANCH  20  21
HETATM   21  N2  UNL     1      -2.410  -0.493  -1.775  1.00  0.00    -0.327 N 
ATOM     22  H22 UNL     1      -2.295   0.176  -2.536  1.00  0.00     0.178 HD
ATOM     23  H21 UNL     1      -3.066  -1.274  -1.772  1.00  0.00     0.178 HD
ENDBRANCH  20  21
BRANCH  20  24
HETATM   24  N3  UNL     1      -1.711  -1.214   0.371  1.00  0.00    -0.228 N 
HETATM   25  C11 UNL     1      -1.781  -2.645   0.211  1.00  0.00     0.201 C 
HETATM   26  N4  UNL     1      -1.798  -0.750   1.543  1.00  0.00    -0.328 N 
ATOM     27  H42 UNL     1      -1.748   0.262   1.656  1.00  0.00     0.178 HD
ATOM     28  H41 UNL     1      -1.913  -1.419   2.304  1.00  0.00     0.178 HD
ENDBRANCH  20  24
ENDBRANCH   1  20
TORSDOF 9
