REMARK  3 active torsions:
REMARK  status: ('A' for Active; 'I' for Inactive)
REMARK    1  A    between atoms: C3_3  and  C4_4 
REMARK    2  A    between atoms: C3_3  and  C7_12 
REMARK    3  A    between atoms: C8_17  and  C9_18 
ROOT
HETATM    1  C7  UNL     1       0.497  -0.156   0.041  1.00  0.00     0.176 A 
HETATM    2  N3  UNL     1       0.957  -0.730  -1.092  1.00  0.00    -0.277 N 
ATOM      3  H3  UNL     1       0.399  -1.062  -1.879  1.00  0.00     0.189 HD
HETATM    4  N4  UNL     1       2.272  -0.776  -0.980  1.00  0.00    -0.276 N 
ATOM      5  H4  UNL     1       2.909  -1.156  -1.680  1.00  0.00     0.189 HD
HETATM    6  C8  UNL     1       2.639  -0.250   0.187  1.00  0.00     0.189 A 
HETATM    7  O2  UNL     1       1.530   0.113   0.774  1.00  0.00    -0.272 OA
ENDROOT
BRANCH   1   8
HETATM    8  C3  UNL     1      -0.927   0.077   0.300  1.00  0.00     0.041 C 
HETATM    9  C2  UNL     1      -1.291   0.620   1.472  1.00  0.00    -0.013 C 
HETATM   10  C1  UNL     1      -0.271   0.955   2.499  1.00  0.00     0.037 C 
BRANCH   8  11
HETATM   11  C4  UNL     1      -1.956  -0.235  -0.670  1.00  0.00     0.066 A 
HETATM   12  C5  UNL     1      -3.327  -0.001  -0.472  1.00  0.00     0.123 A 
HETATM   13  N1  UNL     1      -4.001  -0.399  -1.588  1.00  0.00    -0.317 N 
HETATM   14  C6  UNL     1      -3.129  -0.863  -2.454  1.00  0.00     0.324 A 
ATOM     15  H1  UNL     1      -5.010  -0.346  -1.727  1.00  0.00     0.170 HD
HETATM   16  O1  UNL     1      -3.343  -1.331  -3.614  1.00  0.00    -0.247 OA
HETATM   17  N2  UNL     1      -1.889  -0.759  -1.887  1.00  0.00    -0.306 N 
ATOM     18  H2  UNL     1      -1.023  -1.048  -2.342  1.00  0.00     0.170 HD
ENDBRANCH   8  11
ENDBRANCH   1   8
BRANCH   6  19
HETATM   19  C9  UNL     1       4.002  -0.144   0.627  1.00  0.00     0.120 C 
HETATM   20 CL1  UNL     1       4.366  -0.637   2.266  1.00  0.00    -0.077 Cl
HETATM   21  C10 UNL     1       4.944   0.278  -0.140  1.00  0.00     0.129 C 
HETATM   22 CL2  UNL     1       4.581   0.746  -1.785  1.00  0.00    -0.069 Cl
HETATM   23 CL3  UNL     1       6.628   0.433   0.351  1.00  0.00    -0.069 Cl
ENDBRANCH   6  19
TORSDOF 3
