REMARK  6 active torsions:
REMARK  status: ('A' for Active; 'I' for Inactive)
REMARK    1  A    between atoms: C2_2  and  N1_3 
REMARK    2  A    between atoms: C2_2  and  C6_14 
REMARK    3  A    between atoms: N1_3  and  N2_4 
REMARK       I    between atoms: N2_4  and  C3_6 
REMARK    4  A    between atoms: C3_6  and  O2_8 
REMARK    5  A    between atoms: O2_8  and  C4_9 
REMARK    6  A    between atoms: C4_9  and  C5_10 
ROOT
HETATM    1  C1  UNL     1      -1.013  -2.719   0.658  1.00  0.00     0.038 C 
HETATM    2  C2  UNL     1      -0.480  -1.283   0.624  1.00  0.00     0.164 C 
ENDROOT
BRANCH   2   3
HETATM    3  N1  UNL     1       0.716  -1.238  -0.164  1.00  0.00    -0.124 NA
BRANCH   3   4
HETATM    4  N2  UNL     1       1.329  -0.018  -0.045  1.00  0.00    -0.248 N 
HETATM    5  C3  UNL     1       2.746   0.126   0.181  1.00  0.00     0.376 C 
HETATM    6  O1  UNL     1       3.390  -0.927   0.258  1.00  0.00    -0.237 OA
ATOM      7  H2  UNL     1       0.759   0.824  -0.119  1.00  0.00     0.187 HD
BRANCH   5   8
HETATM    8  O2  UNL     1       3.378   1.303   0.309  1.00  0.00    -0.299 OA
BRANCH   8   9
HETATM    9  C4  UNL     1       4.685   1.566   0.509  1.00  0.00     0.239 C 
BRANCH   9  10
HETATM   10  C5  UNL     1       5.724   1.232  -0.487  1.00  0.00     0.210 C 
HETATM   11 CL1  UNL     1       5.407   2.068  -2.058  1.00  0.00    -0.081 Cl
HETATM   12 CL2  UNL     1       6.152  -0.450  -0.695  1.00  0.00    -0.081 Cl
HETATM   13 CL3  UNL     1       7.258   2.042   0.081  1.00  0.00    -0.081 Cl
ENDBRANCH   9  10
ENDBRANCH   8   9
ENDBRANCH   5   8
ENDBRANCH   3   4
ENDBRANCH   2   3
BRANCH   2  14
HETATM   14  C6  UNL     1      -1.561  -0.473  -0.004  1.00  0.00     0.118 C 
HETATM   15  N3  UNL     1      -1.315   0.016  -1.167  1.00  0.00    -0.253 N 
HETATM   16  O3  UNL     1      -2.175   0.806  -1.951  1.00  0.00    -0.279 OA
ATOM     17  H3  UNL     1      -0.398  -0.191  -1.564  1.00  0.00     0.195 HD
HETATM   18  C7  UNL     1      -3.610   0.675  -1.878  1.00  0.00     0.203 C 
HETATM   19  C8  UNL     1      -4.059   1.258  -0.566  1.00  0.00     0.048 C 
HETATM   20  C9  UNL     1      -4.028   0.223   0.519  1.00  0.00     0.123 C 
HETATM   21  N4  UNL     1      -2.734  -0.352   0.760  1.00  0.00    -0.377 N 
ATOM     22  H4  UNL     1      -2.648  -0.763   1.690  1.00  0.00     0.160 HD
ENDBRANCH   2  14
TORSDOF 6
