REMARK  8 active torsions:
REMARK  status: ('A' for Active; 'I' for Inactive)
REMARK    1  A    between atoms: C2_2  and  C3_3 
REMARK    2  A    between atoms: C3_3  and  C4_4 
REMARK    3  A    between atoms: C4_4  and  N1_5 
REMARK    4  A    between atoms: C8_14  and  S1_15 
REMARK    5  A    between atoms: S1_15  and  C9_16 
REMARK    6  A    between atoms: C9_16  and  C10_17 
REMARK    7  A    between atoms: C11_21  and  C12_22 
REMARK    8  A    between atoms: C17_29  and  O2_30 
ROOT
HETATM    1  N1  UNL     1      -5.958   1.042  -0.853  1.00  0.00    -0.301 N 
HETATM    2  C5  UNL     1      -5.256   2.171  -1.088  1.00  0.00     0.129 A 
HETATM    3  C6  UNL     1      -3.939   1.979  -0.730  1.00  0.00     0.070 A 
HETATM    4  C7  UNL     1      -2.796   2.749  -0.744  1.00  0.00     0.116 A 
HETATM    5  N2  UNL     1      -2.896   3.957  -1.184  1.00  0.00    -0.385 N 
ATOM      6  H21 UNL     1      -2.050   4.527  -1.194  1.00  0.00     0.157 HD
ATOM      7  H22 UNL     1      -3.769   4.365  -1.519  1.00  0.00     0.157 HD
HETATM    8  N3  UNL     1      -1.638   2.208  -0.300  1.00  0.00    -0.322 N 
ATOM      9  H3  UNL     1      -0.794   2.781  -0.312  1.00  0.00     0.169 HD
HETATM   10  C8  UNL     1      -1.554   0.947   0.156  1.00  0.00     0.147 A 
HETATM   11  N6  UNL     1      -2.673   0.204   0.165  1.00  0.00    -0.321 N 
ATOM     12  H6  UNL     1      -2.622  -0.755   0.508  1.00  0.00     0.169 HD
HETATM   13  C18 UNL     1      -3.872   0.683  -0.266  1.00  0.00     0.137 A 
HETATM   14  N7  UNL     1      -5.107   0.160  -0.359  1.00  0.00    -0.283 N 
ATOM     15  H7  UNL     1      -5.354  -0.791  -0.085  1.00  0.00     0.189 HD
ENDROOT
BRANCH  10  16
HETATM   16  S1  UNL     1       0.017   0.267   0.739  1.00  0.00    -0.086 SA
BRANCH  16  17
HETATM   17  C9  UNL     1       0.811  -0.483  -0.724  1.00  0.00     0.160 C 
BRANCH  17  18
HETATM   18  C10 UNL     1       2.098  -1.048  -0.280  1.00  0.00     0.113 A 
HETATM   19  N4  UNL     1       2.376  -2.283   0.188  1.00  0.00    -0.246 N 
HETATM   20  O1  UNL     1       3.647  -2.321   0.452  1.00  0.00    -0.222 OA
ATOM     21  H4  UNL     1       1.710  -3.046   0.312  1.00  0.00     0.196 HD
HETATM   22  C11 UNL     1       4.219  -1.162   0.177  1.00  0.00     0.155 A 
HETATM   23  N5  UNL     1       3.257  -0.374  -0.277  1.00  0.00    -0.326 N 
ATOM     24  H5  UNL     1       3.378   0.593  -0.577  1.00  0.00     0.169 HD
BRANCH  22  25
HETATM   25  C12 UNL     1       5.648  -0.791   0.336  1.00  0.00     0.094 C 
HETATM   26  C13 UNL     1       6.463  -1.784  -0.445  1.00  0.00     0.036 C 
HETATM   27  C14 UNL     1       7.701  -1.232  -1.050  1.00  0.00     0.092 C 
HETATM   28 CL1  UNL     1       7.592  -1.185  -2.837  1.00  0.00    -0.124 Cl
HETATM   29  C15 UNL     1       8.078   0.137  -0.590  1.00  0.00     0.094 C 
HETATM   30  S2  UNL     1       8.293   0.278   1.187  1.00  0.00    -0.165 SA
HETATM   31  C16 UNL     1       7.418  -1.021   2.091  1.00  0.00     0.106 C 
HETATM   32  C17 UNL     1       5.950  -0.862   1.825  1.00  0.00     0.139 C 
BRANCH  32  33
HETATM   33  O2  UNL     1       5.278  -1.916   2.434  1.00  0.00    -0.394 OA
ATOM     34  H2  UNL     1       5.467  -1.960   3.364  1.00  0.00     0.210 HD
ENDBRANCH  32  33
ENDBRANCH  22  25
ENDBRANCH  17  18
ENDBRANCH  16  17
ENDBRANCH  10  16
BRANCH   1  35
HETATM   35  C4  UNL     1      -7.388   0.866  -1.110  1.00  0.00     0.148 C 
BRANCH  35  36
HETATM   36  C3  UNL     1      -8.187   1.254   0.091  1.00  0.00     0.021 C 
BRANCH  36  37
HETATM   37  C2  UNL     1      -7.817   0.412   1.269  1.00  0.00    -0.003 C 
HETATM   38  C1  UNL     1      -8.057  -1.046   1.034  1.00  0.00     0.005 C 
ENDBRANCH  36  37
ENDBRANCH  35  36
ENDBRANCH   1  35
TORSDOF 8
