REMARK  10 active torsions:
REMARK  status: ('A' for Active; 'I' for Inactive)
REMARK    1  A    between atoms: N1_2  and  C1_4 
REMARK    2  A    between atoms: C6_9  and  C7_10 
REMARK    3  A    between atoms: C7_10  and  C8_11 
REMARK    4  A    between atoms: C8_11  and  N2_12 
REMARK    5  A    between atoms: C8_11  and  C15_29 
REMARK    6  A    between atoms: N2_12  and  N3_14 
REMARK    7  A    between atoms: N3_14  and  C9_16 
REMARK    8  A    between atoms: C10_17  and  N4_18 
REMARK    9  A    between atoms: C14_25  and  N5_26 
REMARK   10  A    between atoms: C18_35  and  O7_36 
ROOT
HETATM    1  C8  UNL     1      -0.252   0.824   0.835  1.00  0.00     0.059 C 
ENDROOT
BRANCH   1   2
HETATM    2  C7  UNL     1      -0.327  -0.576   1.066  1.00  0.00     0.042 C 
BRANCH   2   3
HETATM    3  C6  UNL     1      -1.193  -1.477   0.300  1.00  0.00    -0.001 A 
HETATM    4  C1  UNL     1      -2.376  -1.945   0.798  1.00  0.00     0.113 A 
HETATM    5  C2  UNL     1      -3.168  -2.781  -0.023  1.00  0.00     0.037 A 
HETATM    6  C3  UNL     1      -2.784  -3.129  -1.287  1.00  0.00     0.002 A 
HETATM    7  C4  UNL     1      -1.584  -2.654  -1.787  1.00  0.00     0.001 A 
HETATM    8  C5  UNL     1      -0.829  -1.851  -0.999  1.00  0.00     0.014 A 
BRANCH   4   9
HETATM    9  N1  UNL     1      -2.852  -1.679   2.097  1.00  0.00    -0.115 N 
HETATM   10  O1  UNL     1      -2.716  -0.652   2.750  1.00  0.00    -0.532 OA
HETATM   11  O2  UNL     1      -3.569  -2.699   2.706  1.00  0.00    -0.532 OA
ENDBRANCH   4   9
ENDBRANCH   2   3
ENDBRANCH   1   2
BRANCH   1  12
HETATM   12  N2  UNL     1       0.981   1.351   0.826  1.00  0.00    -0.302 N 
ATOM     13  H2  UNL     1       1.085   2.352   0.663  1.00  0.00     0.186 HD
BRANCH  12  14
HETATM   14  N3  UNL     1       2.095   0.603   1.026  1.00  0.00    -0.296 N 
ATOM     15  H3  UNL     1       2.367   0.500   2.004  1.00  0.00     0.187 HD
BRANCH  14  16
HETATM   16  C9  UNL     1       2.938  -0.054   0.111  1.00  0.00     0.114 A 
HETATM   17  C10 UNL     1       3.047   0.259  -1.216  1.00  0.00     0.135 A 
HETATM   18  C11 UNL     1       3.823  -0.534  -2.080  1.00  0.00     0.062 A 
HETATM   19  C12 UNL     1       4.505  -1.642  -1.644  1.00  0.00     0.038 A 
HETATM   20 CL1  UNL     1       5.462  -2.586  -2.765  1.00  0.00    -0.084 Cl
HETATM   21  C13 UNL     1       4.396  -1.944  -0.315  1.00  0.00     0.062 A 
HETATM   22  C14 UNL     1       3.640  -1.197   0.585  1.00  0.00     0.135 A 
BRANCH  17  23
HETATM   23  N4  UNL     1       2.451   1.381  -1.812  1.00  0.00    -0.113 N 
HETATM   24  O3  UNL     1       2.074   1.272  -3.024  1.00  0.00    -0.532 OA
HETATM   25  O4  UNL     1       2.251   2.551  -1.181  1.00  0.00    -0.532 OA
ENDBRANCH  17  23
BRANCH  22  26
HETATM   26  N5  UNL     1       3.639  -1.608   1.925  1.00  0.00    -0.113 N 
HETATM   27  O5  UNL     1       2.740  -1.588   2.756  1.00  0.00    -0.532 OA
HETATM   28  O6  UNL     1       4.851  -2.176   2.392  1.00  0.00    -0.532 OA
ENDBRANCH  22  26
ENDBRANCH  14  16
ENDBRANCH  12  14
ENDBRANCH   1  12
BRANCH   1  29
HETATM   29  C15 UNL     1      -1.273   1.849   0.732  1.00  0.00     0.265 C 
HETATM   30  N6  UNL     1      -0.630   3.177   0.556  1.00  0.00    -0.063 N 
HETATM   31  C16 UNL     1      -1.544   4.055  -0.078  1.00  0.00     0.236 C 
ATOM     32  H62 UNL     1      -0.275   3.555   1.434  1.00  0.00     0.278 HD
ATOM     33  H61 UNL     1       0.257   3.115   0.057  1.00  0.00     0.278 HD
HETATM   34  C17 UNL     1      -2.851   3.320  -0.190  1.00  0.00     0.061 C 
HETATM   35  C18 UNL     1      -2.303   1.853  -0.313  1.00  0.00     0.156 C 
BRANCH  35  36
HETATM   36  O7  UNL     1      -3.422   1.039  -0.105  1.00  0.00    -0.393 OA
ATOM     37  H7  UNL     1      -4.089   1.042  -0.782  1.00  0.00     0.210 HD
ENDBRANCH  35  36
ENDBRANCH   1  29
TORSDOF 10
