REMARK  10 active torsions:
REMARK  status: ('A' for Active; 'I' for Inactive)
REMARK    1  A    between atoms: C2_2  and  O1_3 
REMARK    2  A    between atoms: O1_3  and  C3_4 
REMARK    3  A    between atoms: C3_4  and  C4_6 
REMARK    4  A    between atoms: C4_6  and  S1_7 
REMARK    5  A    between atoms: S1_7  and  C5_8 
REMARK    6  A    between atoms: C6_9  and  N1_10 
REMARK    7  A    between atoms: N1_10  and  C7_12 
REMARK    8  A    between atoms: N5_28  and  C14_29 
REMARK    9  A    between atoms: C14_29  and  C15_30 
REMARK   10  A    between atoms: C15_30  and  N6_31 
ROOT
HETATM    1  C5  UNL     1      -0.515   0.113   0.424  1.00  0.00     0.101 A 
HETATM    2  C6  UNL     1      -1.129   1.293   0.742  1.00  0.00     0.085 A 
HETATM    3  C10 UNL     1      -2.411   1.312   0.195  1.00  0.00     0.066 A 
HETATM    4  C11 UNL     1      -3.413   2.260   0.222  1.00  0.00     0.117 A 
HETATM    5  S2  UNL     1      -3.091   3.660   1.065  1.00  0.00    -0.059 SA
HETATM    6  N4  UNL     1      -4.603   2.183  -0.342  1.00  0.00    -0.332 N 
ATOM      7  H4  UNL     1      -5.214   2.990  -0.212  1.00  0.00     0.168 HD
HETATM    8  C12 UNL     1      -5.105   1.176  -1.063  1.00  0.00     0.145 A 
HETATM    9  S3  UNL     1      -6.589   1.177  -1.716  1.00  0.00    -0.052 SA
HETATM   10  S4  UNL     1      -4.035  -0.130  -1.236  1.00  0.00    -0.042 SA
HETATM   11  C13 UNL     1      -2.519   0.082  -0.461  1.00  0.00     0.095 A 
HETATM   12  N5  UNL     1      -1.395  -0.634  -0.327  1.00  0.00    -0.331 N 
ENDROOT
BRANCH   2  13
HETATM   13  N1  UNL     1      -0.557   2.352   1.520  1.00  0.00    -0.325 N 
ATOM     14  H1  UNL     1      -0.713   2.363   2.528  1.00  0.00     0.169 HD
BRANCH  13  15
HETATM   15  C7  UNL     1       0.221   3.388   0.934  1.00  0.00     0.175 C 
HETATM   16  N2  UNL     1       0.722   4.363   1.588  1.00  0.00    -0.361 N 
HETATM   17  C8  UNL     1       1.469   5.287   0.799  1.00  0.00     0.142 C 
ATOM     18  H2  UNL     1       0.598   4.473   2.594  1.00  0.00     0.162 HD
HETATM   19  C9  UNL     1       0.969   4.963  -0.613  1.00  0.00     0.142 C 
HETATM   20  N3  UNL     1       0.591   3.553  -0.427  1.00  0.00    -0.361 N 
ATOM     21  H3  UNL     1       0.594   2.827  -1.144  1.00  0.00     0.162 HD
ENDBRANCH  13  15
ENDBRANCH   2  13
BRANCH   1  22
HETATM   22  S1  UNL     1       1.119  -0.453   0.850  1.00  0.00    -0.100 SA
BRANCH  22  23
HETATM   23  C4  UNL     1       2.343   0.034  -0.380  1.00  0.00     0.191 C 
BRANCH  23  24
HETATM   24  C3  UNL     1       3.662  -0.515   0.045  1.00  0.00     0.268 C 
HETATM   25  O2  UNL     1       3.795  -1.213   1.090  1.00  0.00    -0.264 OA
BRANCH  24  26
HETATM   26  O1  UNL     1       4.795  -0.281  -0.693  1.00  0.00    -0.321 OA
BRANCH  26  27
HETATM   27  C2  UNL     1       6.085  -0.738  -0.409  1.00  0.00     0.174 C 
HETATM   28  C1  UNL     1       6.209  -2.233  -0.371  1.00  0.00     0.034 C 
ENDBRANCH  26  27
ENDBRANCH  24  26
ENDBRANCH  23  24
ENDBRANCH  22  23
ENDBRANCH   1  22
BRANCH  12  29
HETATM   29  C14 UNL     1      -1.111  -1.924  -0.884  1.00  0.00     0.160 C 
BRANCH  29  30
HETATM   30  C15 UNL     1      -1.336  -3.098  -0.014  1.00  0.00     0.291 C 
BRANCH  30  31
HETATM   31  N6  UNL     1      -2.659  -3.388   0.422  1.00  0.00     0.081 N 
HETATM   32  C16 UNL     1      -3.510  -3.903  -0.636  1.00  0.00     0.309 C 
HETATM   33  C17 UNL     1      -2.570  -4.367   1.504  1.00  0.00     0.309 C 
ENDBRANCH  30  31
ENDBRANCH  29  30
ENDBRANCH  12  29
TORSDOF 10
