REMARK  8 active torsions:
REMARK  status: ('A' for Active; 'I' for Inactive)
REMARK    1  A    between atoms: C3_3  and  C4_4 
REMARK    2  A    between atoms: C6_9  and  O4_10 
REMARK    3  A    between atoms: C7_12  and  N1_13 
REMARK    4  A    between atoms: N1_13  and  C8_15 
REMARK    5  A    between atoms: C8_15  and  C9_16 
REMARK    6  A    between atoms: C12_22  and  N2_23 
REMARK    7  A    between atoms: C13_26  and  O9_27 
REMARK    8  A    between atoms: O9_27  and  C14_28 
ROOT
HETATM    1  C1  UNL     1      -2.582   2.482  -0.567  1.00  0.00     0.052 C 
HETATM    2  C2  UNL     1      -1.242   2.673  -0.016  1.00  0.00    -0.005 A 
HETATM    3  C3  UNL     1      -0.639   3.873   0.327  1.00  0.00     0.159 A 
HETATM    4  O3  UNL     1       0.570   3.610   0.763  1.00  0.00    -0.299 OA
HETATM    5  C5  UNL     1       0.806   2.321   0.730  1.00  0.00     0.125 A 
HETATM    6  C6  UNL     1       1.923   1.602   1.085  1.00  0.00     0.130 A 
HETATM    7  C7  UNL     1       1.955   0.216   0.966  1.00  0.00     0.101 A 
HETATM    8  C12 UNL     1       0.830  -0.391   0.483  1.00  0.00     0.166 A 
HETATM    9  C13 UNL     1      -0.343   0.290   0.102  1.00  0.00     0.121 A 
HETATM   10  C19 UNL     1      -0.330   1.659   0.236  1.00  0.00     0.046 A 
ENDROOT
BRANCH   7  11
HETATM   11  N1  UNL     1       3.153  -0.447   1.404  1.00  0.00    -0.383 N 
ATOM     12  H1  UNL     1       3.114  -0.925   2.304  1.00  0.00     0.159 HD
BRANCH  11  13
HETATM   13  C8  UNL     1       4.381  -0.498   0.703  1.00  0.00     0.154 C 
BRANCH  13  14
HETATM   14  C9  UNL     1       4.479  -1.256  -0.560  1.00  0.00     0.177 C 
HETATM   15  O5  UNL     1       4.265  -2.632  -0.526  1.00  0.00    -0.311 OA
HETATM   16  C10 UNL     1       5.252  -2.752  -1.516  1.00  0.00     0.280 C 
HETATM   17  O6  UNL     1       5.363  -3.528  -2.483  1.00  0.00    -0.263 OA
HETATM   18  C11 UNL     1       5.946  -1.618  -0.849  1.00  0.00     0.212 C 
HETATM   19 CL1  UNL     1       6.832  -2.168   0.586  1.00  0.00    -0.112 Cl
ENDBRANCH  13  14
ENDBRANCH  11  13
ENDBRANCH   7  11
BRANCH   6  20
HETATM   20  O4  UNL     1       3.038   2.266   1.572  1.00  0.00    -0.356 OA
ATOM     21  H4  UNL     1       3.810   1.769   1.817  1.00  0.00     0.218 HD
ENDBRANCH   6  20
BRANCH   8  22
HETATM   22  N2  UNL     1       0.847  -1.818   0.470  1.00  0.00    -0.110 N 
HETATM   23  O7  UNL     1       1.028  -2.532  -0.512  1.00  0.00    -0.532 OA
HETATM   24  O8  UNL     1       0.591  -2.444   1.689  1.00  0.00    -0.532 OA
ENDBRANCH   8  22
BRANCH   9  25
HETATM   25  O9  UNL     1      -1.403  -0.386  -0.370  1.00  0.00    -0.317 OA
BRANCH  25  26
HETATM   26  C14 UNL     1      -2.535  -0.968   0.126  1.00  0.00     0.266 C 
HETATM   27  C15 UNL     1      -3.636  -1.066  -0.906  1.00  0.00     0.061 C 
HETATM   28  C16 UNL     1      -4.890  -1.703  -0.336  1.00  0.00     0.007 C 
HETATM   29  C17 UNL     1      -4.536  -3.040   0.291  1.00  0.00     0.026 C 
HETATM   30  C18 UNL     1      -3.378  -2.734   1.249  1.00  0.00     0.171 C 
HETATM   31  O10 UNL     1      -2.315  -2.356   0.439  1.00  0.00    -0.361 OA
ENDBRANCH  25  26
ENDBRANCH   9  25
BRANCH   3  32
HETATM   32  C4  UNL     1      -1.170   5.228   0.255  1.00  0.00     0.234 C 
HETATM   33  O1  UNL     1      -2.316   5.528  -0.137  1.00  0.00    -0.642 OA
HETATM   34  O2  UNL     1      -0.371   6.300   0.645  1.00  0.00    -0.642 OA
ENDBRANCH   3  32
TORSDOF 8
