REMARK  13 active torsions:
REMARK  status: ('A' for Active; 'I' for Inactive)
REMARK    1  A    between atoms: C2_2  and  O1_3 
REMARK    2  A    between atoms: O1_3  and  C3_4 
REMARK    3  A    between atoms: C3_4  and  C4_6 
REMARK    4  A    between atoms: C5_7  and  N1_8 
REMARK    5  A    between atoms: C6_10  and  C7_11 
REMARK    6  A    between atoms: C8_12  and  O3_13 
REMARK    7  A    between atoms: C10_16  and  O4_17 
REMARK    8  A    between atoms: C13_21  and  O5_22 
REMARK    9  A    between atoms: C16_27  and  C17_28 
REMARK   10  A    between atoms: C17_28  and  O8_30 
REMARK   11  A    between atoms: C19_32  and  C20_33 
REMARK   12  A    between atoms: C20_33  and  O10_35 
REMARK   13  A    between atoms: O10_35  and  C21_36 
ROOT
HETATM    1  C4  UNL     1      -1.205   0.275  -0.012  1.00  0.00     0.110 A 
HETATM    2  C5  UNL     1      -0.197   0.705   0.807  1.00  0.00     0.166 A 
HETATM    3  O6  UNL     1      -0.670   1.499   1.715  1.00  0.00    -0.285 OA
HETATM    4  C16 UNL     1      -2.003   1.655   1.573  1.00  0.00     0.170 A 
HETATM    5  C19 UNL     1      -2.361   0.894   0.492  1.00  0.00     0.100 A 
ENDROOT
BRANCH   2   6
HETATM    6  N1  UNL     1       1.158   0.318   0.657  1.00  0.00    -0.345 N 
HETATM    7  C6  UNL     1       1.877   0.615  -0.361  1.00  0.00     0.105 C 
ATOM      8  H1  UNL     1       1.586  -0.229   1.404  1.00  0.00     0.167 HD
BRANCH   7   9
HETATM    9  C7  UNL     1       3.261   0.249  -0.568  1.00  0.00     0.022 A 
HETATM   10  C8  UNL     1       3.869   0.669  -1.741  1.00  0.00     0.080 A 
HETATM   11  C9  UNL     1       5.203   0.312  -1.918  1.00  0.00     0.074 A 
HETATM   12  C10 UNL     1       5.887  -0.419  -0.979  1.00  0.00     0.075 A 
HETATM   13  C11 UNL     1       5.284  -0.837   0.186  1.00  0.00    -0.015 A 
HETATM   14  C12 UNL     1       3.965  -0.500   0.389  1.00  0.00    -0.006 A 
HETATM   15  C15 UNL     1       5.806  -1.623   1.341  1.00  0.00     0.045 C 
HETATM   16  C13 UNL     1       3.487  -1.036   1.684  1.00  0.00     0.153 C 
HETATM   17  C14 UNL     1       4.563  -2.035   2.061  1.00  0.00     0.041 C 
BRANCH  10  18
HETATM   18  O3  UNL     1       3.243   1.407  -2.729  1.00  0.00    -0.360 OA
ATOM     19  H3  UNL     1       3.660   1.695  -3.533  1.00  0.00     0.217 HD
ENDBRANCH  10  18
BRANCH  12  20
HETATM   20  O4  UNL     1       7.228  -0.759  -1.191  1.00  0.00    -0.360 OA
ATOM     21  H4  UNL     1       7.701  -1.265  -0.541  1.00  0.00     0.217 HD
ENDBRANCH  12  20
BRANCH  16  22
HETATM   22  O5  UNL     1       3.426   0.016   2.584  1.00  0.00    -0.391 OA
ATOM     23  H5  UNL     1       3.119  -0.328   3.415  1.00  0.00     0.210 HD
ENDBRANCH  16  22
ENDBRANCH   7   9
ENDBRANCH   2   6
BRANCH   1  24
HETATM   24  C3  UNL     1      -1.165  -0.608  -1.148  1.00  0.00     0.298 C 
HETATM   25  O2  UNL     1      -0.973  -0.110  -2.301  1.00  0.00    -0.259 OA
BRANCH  24  26
HETATM   26  O1  UNL     1      -1.319  -1.984  -1.091  1.00  0.00    -0.318 OA
BRANCH  26  27
HETATM   27  C2  UNL     1      -1.265  -2.797  -2.272  1.00  0.00     0.174 C 
HETATM   28  C1  UNL     1      -1.473  -4.224  -1.813  1.00  0.00     0.034 C 
ENDBRANCH  26  27
ENDBRANCH  24  26
ENDBRANCH   1  24
BRANCH   5  29
HETATM   29  C20 UNL     1      -3.670   0.716  -0.078  1.00  0.00     0.297 C 
HETATM   30  O9  UNL     1      -3.774  -0.056  -1.108  1.00  0.00    -0.259 OA
BRANCH  29  31
HETATM   31  O10 UNL     1      -4.860   1.259   0.318  1.00  0.00    -0.318 OA
BRANCH  31  32
HETATM   32  C21 UNL     1      -6.087   0.999  -0.338  1.00  0.00     0.174 C 
HETATM   33  C22 UNL     1      -5.925   1.470  -1.770  1.00  0.00     0.034 C 
ENDBRANCH  31  32
ENDBRANCH  29  31
ENDBRANCH   5  29
BRANCH   4  34
HETATM   34  C17 UNL     1      -2.798   2.496   2.458  1.00  0.00     0.318 C 
HETATM   35  O7  UNL     1      -2.218   3.119   3.418  1.00  0.00    -0.257 OA
BRANCH  34  36
HETATM   36  O8  UNL     1      -4.146   2.713   2.389  1.00  0.00    -0.321 OA
HETATM   37  C18 UNL     1      -4.887   3.523   3.249  1.00  0.00     0.213 C 
ENDBRANCH  34  36
ENDBRANCH   4  34
TORSDOF 13
