REMARK  7 active torsions:
REMARK  status: ('A' for Active; 'I' for Inactive)
REMARK    1  A    between atoms: N1_1  and  C1_4 
REMARK    2  A    between atoms: C2_7  and  N3_8 
REMARK    3  A    between atoms: N3_8  and  C3_10 
REMARK    4  A    between atoms: C3_10  and  C4_11 
REMARK    5  A    between atoms: N6_18  and  C7_19 
REMARK    6  A    between atoms: C7_19  and  C8_20 
REMARK       I    between atoms: C8_20  and  N7_22 
REMARK    7  A    between atoms: N7_22  and  N8_24 
ROOT
HETATM    1  C1  UNL     1      -1.239  -2.892   0.896  1.00  0.00     0.678 A 
HETATM    2  N2  UNL     1      -2.178  -1.960   0.696  1.00  0.00    -0.174 N 
ATOM      3  H2  UNL     1      -3.127  -2.141   1.022  1.00  0.00     0.186 HD
HETATM    4  C2  UNL     1      -1.910  -0.768   0.068  1.00  0.00     0.150 A 
HETATM    5  C5  UNL     1      -0.640  -0.526  -0.367  1.00  0.00     0.111 A 
HETATM    6  N5  UNL     1      -0.252   0.596  -0.992  1.00  0.00    -0.347 N 
ATOM      7  H5  UNL     1      -0.954   1.319  -1.153  1.00  0.00     0.167 HD
HETATM    8  C6  UNL     1       0.998   0.830  -1.419  1.00  0.00     0.187 A 
HETATM    9  N6  UNL     1       1.979  -0.092  -1.235  1.00  0.00    -0.300 N 
HETATM   10  C9  UNL     1       1.602  -1.220  -0.610  1.00  0.00     0.278 A 
HETATM   11  O3  UNL     1       2.495  -2.089  -0.428  1.00  0.00    -0.265 OA
HETATM   12  C10 UNL     1       0.343  -1.496  -0.161  1.00  0.00     0.147 A 
HETATM   13  N9  UNL     1       0.001  -2.639   0.463  1.00  0.00    -0.184 N 
ATOM     14  H9  UNL     1       0.722  -3.345   0.613  1.00  0.00     0.184 HD
ENDROOT
BRANCH   9  15
HETATM   15  C7  UNL     1       3.332   0.154  -1.693  1.00  0.00     0.237 C 
BRANCH  15  16
HETATM   16  C8  UNL     1       4.155   0.818  -0.651  1.00  0.00     0.254 C 
HETATM   17  O2  UNL     1       5.346   1.081  -0.936  1.00  0.00    -0.270 OA
HETATM   18  N7  UNL     1       3.666   1.160   0.617  1.00  0.00    -0.275 N 
ATOM     19  H7  UNL     1       2.697   0.951   0.859  1.00  0.00     0.189 HD
BRANCH  18  20
HETATM   20  N8  UNL     1       4.486   1.779   1.544  1.00  0.00    -0.343 N 
ATOM     21  H82 UNL     1       5.452   1.981   1.286  1.00  0.00     0.176 HD
ATOM     22  H81 UNL     1       4.130   2.028   2.467  1.00  0.00     0.176 HD
ENDBRANCH  18  20
ENDBRANCH  15  16
ENDBRANCH   9  15
BRANCH   4  23
HETATM   23  N3  UNL     1      -2.841   0.072  -0.090  1.00  0.00    -0.345 N 
ATOM     24  H3  UNL     1      -3.741  -0.233   0.281  1.00  0.00     0.167 HD
BRANCH  23  25
HETATM   25  C3  UNL     1      -2.870   1.349  -0.682  1.00  0.00     0.160 C 
BRANCH  25  26
HETATM   26  C4  UNL     1      -4.232   1.970  -0.658  1.00  0.00     0.270 C 
HETATM   27  N4  UNL     1      -5.344   1.327  -0.100  1.00  0.00    -0.057 NA
HETATM   28  O1  UNL     1      -4.343   3.107  -1.166  1.00  0.00    -0.270 OA
ENDBRANCH  25  26
ENDBRANCH  23  25
ENDBRANCH   4  23
BRANCH   1  29
HETATM   29  N1  UNL     1      -1.562  -3.997   1.497  1.00  0.00    -0.234 N 
ATOM     30  H12 UNL     1      -2.508  -4.190   1.827  1.00  0.00     0.174 HD
ATOM     31  H11 UNL     1      -0.846  -4.707   1.649  1.00  0.00     0.174 HD
ENDBRANCH   1  29
TORSDOF 7
