REMARK  4 active torsions:
REMARK  status: ('A' for Active; 'I' for Inactive)
REMARK    1  A    between atoms: C1_2  and  C2_4 
REMARK    2  A    between atoms: N3_7  and  C3_8 
REMARK    3  A    between atoms: C3_8  and  C4_9 
REMARK       I    between atoms: C4_9  and  N4_11 
REMARK    4  A    between atoms: N4_11  and  C5_13 
ROOT
HETATM    1  C4  UNL     1      -0.031  -0.828   0.055  1.00  0.00     0.244 C 
HETATM    2  O2  UNL     1       0.114   0.413   0.232  1.00  0.00    -0.271 OA
HETATM    3  N4  UNL     1      -1.317  -1.336  -0.174  1.00  0.00    -0.310 N 
ATOM      4  H4  UNL     1      -1.426  -2.340  -0.316  1.00  0.00     0.170 HD
ENDROOT
BRANCH   1   5
HETATM    5  C3  UNL     1       1.190  -1.661   0.104  1.00  0.00     0.272 C 
BRANCH   5   6
HETATM    6  N3  UNL     1       2.377  -0.897   0.353  1.00  0.00    -0.222 N 
HETATM    7  N2  UNL     1       3.198  -0.322  -0.511  1.00  0.00    -0.274 N 
HETATM    8  C2  UNL     1       4.198   0.301   0.134  1.00  0.00     0.184 A 
ATOM      9  H2  UNL     1       3.087  -0.348  -1.525  1.00  0.00     0.189 HD
HETATM   10  C9  UNL     1       3.953   0.082   1.474  1.00  0.00     0.294 A 
HETATM   11  N8  UNL     1       2.830  -0.656   1.590  1.00  0.00    -0.247 N 
HETATM   12  O5  UNL     1       4.709   0.536   2.375  1.00  0.00    -0.264 OA
ATOM     13  H8  UNL     1       2.404  -0.973   2.461  1.00  0.00     0.192 HD
BRANCH   8  14
HETATM   14  C1  UNL     1       5.307   1.051  -0.450  1.00  0.00     0.288 C 
HETATM   15  N1  UNL     1       5.436   1.198  -1.845  1.00  0.00    -0.056 NA
HETATM   16  O1  UNL     1       6.169   1.581   0.293  1.00  0.00    -0.269 OA
ENDBRANCH   8  14
ENDBRANCH   5   6
ENDBRANCH   1   5
BRANCH   3  17
HETATM   17  C5  UNL     1      -2.474  -0.515  -0.217  1.00  0.00     0.127 C 
HETATM   18  C6  UNL     1      -3.169  -0.523  -1.364  1.00  0.00     0.124 C 
HETATM   19  C7  UNL     1      -4.377   0.216  -1.673  1.00  0.00     0.252 C 
HETATM   20  O3  UNL     1      -4.664   0.217  -2.900  1.00  0.00    -0.268 OA
HETATM   21  N5  UNL     1      -5.257   0.919  -0.804  1.00  0.00    -0.274 N 
HETATM   22  C8  UNL     1      -5.063   1.198   0.592  1.00  0.00     0.341 C 
ATOM     23  H5  UNL     1      -6.123   1.264  -1.219  1.00  0.00     0.173 HD
HETATM   24  O4  UNL     1      -6.059   1.742   1.142  1.00  0.00    -0.245 OA
HETATM   25  N6  UNL     1      -3.908   0.929   1.365  1.00  0.00    -0.250 N 
HETATM   26  N7  UNL     1      -2.770   0.225   0.955  1.00  0.00    -0.281 N 
ATOM     27  H6  UNL     1      -3.905   1.286   2.321  1.00  0.00     0.192 HD
ATOM     28  H7  UNL     1      -2.006   0.249   1.630  1.00  0.00     0.188 HD
ENDBRANCH   3  17
TORSDOF 4
