REMARK  10 active torsions:
REMARK  status: ('A' for Active; 'I' for Inactive)
REMARK    1  A    between atoms: N1_1  and  C1_4 
REMARK    2  A    between atoms: N4_15  and  C6_16 
REMARK    3  A    between atoms: C6_16  and  C7_17 
REMARK    4  A    between atoms: C7_17  and  O3_18 
REMARK    5  A    between atoms: C7_17  and  N5_20 
REMARK    6  A    between atoms: N5_20  and  N6_21 
REMARK       I    between atoms: N6_21  and  C8_23 
REMARK    7  A    between atoms: C8_23  and  C9_25 
REMARK    8  A    between atoms: C9_25  and  N7_26 
REMARK    9  A    between atoms: C9_25  and  C10_30 
REMARK   10  A    between atoms: C10_30  and  N8_31 
ROOT
HETATM    1  C7  UNL     1       0.386   0.493   0.374  1.00  0.00     0.233 C 
ENDROOT
BRANCH   1   2
HETATM    2  C6  UNL     1       1.135   1.805   0.586  1.00  0.00     0.236 C 
BRANCH   2   3
HETATM    3  N4  UNL     1       2.491   1.460   0.051  1.00  0.00    -0.289 N 
HETATM    4  C2  UNL     1       3.621   0.739   0.394  1.00  0.00     0.148 A 
HETATM    5  N2  UNL     1       4.344   0.024   1.323  1.00  0.00    -0.175 N 
HETATM    6  C3  UNL     1       4.125   0.864  -0.891  1.00  0.00     0.145 A 
HETATM    7  C1  UNL     1       5.520  -0.540   0.958  1.00  0.00     0.680 A 
ATOM      8  H2  UNL     1       3.997  -0.080   2.277  1.00  0.00     0.186 HD
HETATM    9  N3  UNL     1       6.005  -0.421  -0.278  1.00  0.00    -0.155 N 
HETATM   10  C4  UNL     1       5.336   0.277  -1.235  1.00  0.00     0.279 A 
ATOM     11  H3  UNL     1       6.895  -0.862  -0.511  1.00  0.00     0.187 HD
HETATM   12  O1  UNL     1       5.757   0.379  -2.367  1.00  0.00    -0.266 OA
HETATM   13  C5  UNL     1       2.967   1.612  -1.264  1.00  0.00     0.269 A 
HETATM   14  O2  UNL     1       2.614   2.152  -2.357  1.00  0.00    -0.267 OA
BRANCH   7  15
HETATM   15  N1  UNL     1       6.186  -1.245   1.852  1.00  0.00    -0.234 N 
ATOM     16  H12 UNL     1       5.815  -1.336   2.798  1.00  0.00     0.174 HD
ATOM     17  H11 UNL     1       7.072  -1.670   1.577  1.00  0.00     0.174 HD
ENDBRANCH   7  15
ENDBRANCH   2   3
ENDBRANCH   1   2
BRANCH   1  18
HETATM   18  O3  UNL     1       1.267  -0.466   0.048  1.00  0.00    -0.336 OA
ATOM     19  H3  UNL     1       0.801  -1.283  -0.084  1.00  0.00     0.220 HD
ENDBRANCH   1  18
BRANCH   1  20
HETATM   20  N5  UNL     1      -0.885   0.110   0.425  1.00  0.00    -0.300 NA
BRANCH  20  21
HETATM   21  N6  UNL     1      -2.163  -0.284   0.474  1.00  0.00    -0.199 N 
HETATM   22  C8  UNL     1      -3.158   0.057  -0.500  1.00  0.00     0.278 C 
HETATM   23  O4  UNL     1      -2.791   0.866  -1.366  1.00  0.00    -0.269 OA
ATOM     24  H6  UNL     1      -2.449  -0.868   1.260  1.00  0.00     0.205 HD
BRANCH  22  25
HETATM   25  C9  UNL     1      -4.492  -0.517  -0.502  1.00  0.00     0.302 C 
BRANCH  25  26
HETATM   26  N7  UNL     1      -4.552  -1.659   0.466  1.00  0.00    -0.065 N 
ATOM     27  H73 UNL     1      -3.833  -2.358   0.280  1.00  0.00     0.275 HD
ATOM     28  H72 UNL     1      -4.253  -1.385   1.402  1.00  0.00     0.275 HD
ATOM     29  H71 UNL     1      -5.489  -2.062   0.465  1.00  0.00     0.275 HD
ENDBRANCH  25  26
BRANCH  25  30
HETATM   30  C10 UNL     1      -5.692   0.313  -0.318  1.00  0.00     0.272 C 
BRANCH  30  31
HETATM   31  N8  UNL     1      -6.860  -0.642  -0.439  1.00  0.00    -0.077 N 
ATOM     32  H83 UNL     1      -6.862  -1.182  -1.304  1.00  0.00     0.274 HD
ATOM     33  H82 UNL     1      -6.809  -1.438   0.197  1.00  0.00     0.274 HD
ATOM     34  H81 UNL     1      -7.692  -0.066  -0.311  1.00  0.00     0.274 HD
ENDBRANCH  30  31
ENDBRANCH  25  30
ENDBRANCH  22  25
ENDBRANCH  20  21
ENDBRANCH   1  20
TORSDOF 10
