REMARK  8 active torsions:
REMARK  status: ('A' for Active; 'I' for Inactive)
REMARK    1  A    between atoms: O1_2  and  C2_3 
REMARK    2  A    between atoms: C2_3  and  N1_4 
REMARK    3  A    between atoms: C2_3  and  C3_8 
REMARK       I    between atoms: C3_8  and  N2_10 
REMARK    4  A    between atoms: N2_10  and  C4_12 
REMARK    5  A    between atoms: C5_15  and  N4_16 
REMARK       I    between atoms: N6_21  and  C6_22 
REMARK    6  A    between atoms: C6_22  and  C7_24 
REMARK    7  A    between atoms: C7_24  and  N7_25 
REMARK    8  A    between atoms: C7_24  and  C8_29 
ROOT
HETATM    1  C4  UNL     1      -0.720   0.262  -0.295  1.00  0.00     0.194 A 
HETATM    2  N3  UNL     1      -1.257  -0.958  -0.361  1.00  0.00    -0.170 N 
ATOM      3  H3  UNL     1      -2.270  -1.059  -0.431  1.00  0.00     0.186 HD
HETATM    4  C5  UNL     1      -0.480  -2.055  -0.337  1.00  0.00     0.692 A 
HETATM    5  N5  UNL     1       0.838  -1.913  -0.247  1.00  0.00    -0.120 N 
ATOM      6  H5  UNL     1       1.410  -2.757  -0.232  1.00  0.00     0.206 HD
HETATM    7  N6  UNL     1       1.465  -0.724  -0.175  1.00  0.00    -0.167 N 
HETATM    8  C6  UNL     1       2.870  -0.704  -0.057  1.00  0.00     0.285 C 
HETATM    9  O3  UNL     1       3.467  -1.847   0.005  1.00  0.00    -0.268 OA
HETATM   10  C9  UNL     1       0.669   0.356  -0.200  1.00  0.00     0.314 A 
HETATM   11  O5  UNL     1       1.120   1.508  -0.138  1.00  0.00    -0.262 OA
ENDROOT
BRANCH   1  12
HETATM   12  N2  UNL     1      -1.473   1.292  -0.319  1.00  0.00    -0.304 N 
HETATM   13  C3  UNL     1      -2.868   1.275  -0.411  1.00  0.00     0.280 C 
HETATM   14  O2  UNL     1      -3.420   1.425  -1.526  1.00  0.00    -0.268 OA
ATOM     15  H2  UNL     1      -1.019   2.204  -0.267  1.00  0.00     0.170 HD
BRANCH  13  16
HETATM   16  C2  UNL     1      -3.706   1.081   0.789  1.00  0.00     0.411 C 
BRANCH  16  17
HETATM   17  O1  UNL     1      -5.045   1.094   0.489  1.00  0.00    -0.357 OA
HETATM   18  C1  UNL     1      -5.702  -0.070   0.878  1.00  0.00     0.204 C 
ENDBRANCH  16  17
BRANCH  16  19
HETATM   19  N1  UNL     1      -3.330   2.093   1.755  1.00  0.00    -0.044 N 
ATOM     20  H13 UNL     1      -3.624   3.019   1.444  1.00  0.00     0.278 HD
ATOM     21  H12 UNL     1      -3.893   2.014   2.602  1.00  0.00     0.278 HD
ATOM     22  H11 UNL     1      -2.335   2.083   1.978  1.00  0.00     0.278 HD
ENDBRANCH  16  19
ENDBRANCH  13  16
ENDBRANCH   1  12
BRANCH   4  23
HETATM   23  N4  UNL     1      -1.067  -3.202  -0.404  1.00  0.00    -0.233 N 
ATOM     24  H42 UNL     1      -2.079  -3.311  -0.473  1.00  0.00     0.174 HD
ATOM     25  H41 UNL     1      -0.478  -4.034  -0.386  1.00  0.00     0.174 HD
ENDBRANCH   4  23
BRANCH   8  26
HETATM   26  C7  UNL     1       3.776   0.445   0.010  1.00  0.00     0.365 C 
BRANCH  26  27
HETATM   27  N7  UNL     1       5.015   0.071   0.743  1.00  0.00    -0.058 N 
ATOM     28  H73 UNL     1       4.813  -0.311   1.667  1.00  0.00     0.275 HD
ATOM     29  H72 UNL     1       5.466  -0.749   0.338  1.00  0.00     0.275 HD
ATOM     30  H71 UNL     1       5.646   0.871   0.790  1.00  0.00     0.275 HD
ENDBRANCH  26  27
BRANCH  26  31
HETATM   31  C8  UNL     1       4.291   0.798  -1.361  1.00  0.00     0.271 C 
HETATM   32  N8  UNL     1       5.694   0.815  -1.596  1.00  0.00    -0.060 NA
HETATM   33  O4  UNL     1       3.518   1.079  -2.304  1.00  0.00    -0.274 OA
ENDBRANCH  26  31
ENDBRANCH   8  26
TORSDOF 8
