REMARK  7 active torsions:
REMARK  status: ('A' for Active; 'I' for Inactive)
REMARK    1  A    between atoms: N1_1  and  N2_4 
REMARK    2  A    between atoms: C2_9  and  N4_10 
REMARK    3  A    between atoms: N4_10  and  C3_12 
REMARK    4  A    between atoms: N8_23  and  C8_24 
REMARK    5  A    between atoms: C8_24  and  C9_25 
REMARK    6  A    between atoms: C9_25  and  N9_26 
REMARK       I    between atoms: N9_26  and  C10_28 
REMARK    7  A    between atoms: N11_30  and  O1_32 
REMARK       I    between atoms: N12_34  and  C11_35 
ROOT
HETATM    1  C3  UNL     1      -1.610  -1.394  -1.245  1.00  0.00     0.152 A 
HETATM    2  N5  UNL     1      -1.269  -2.651  -1.045  1.00  0.00    -0.336 N 
ATOM      3  H5  UNL     1      -2.008  -3.351  -0.981  1.00  0.00     0.168 HD
HETATM    4  C4  UNL     1       0.003  -3.051  -0.922  1.00  0.00     0.183 A 
HETATM    5  N6  UNL     1       0.987  -2.142  -1.004  1.00  0.00    -0.336 N 
ATOM      6  H6  UNL     1       1.959  -2.438  -0.912  1.00  0.00     0.168 HD
HETATM    7  C5  UNL     1       0.703  -0.849  -1.206  1.00  0.00     0.140 A 
HETATM    8  C6  UNL     1      -0.610  -0.439  -1.332  1.00  0.00     0.123 A 
HETATM    9  N7  UNL     1      -0.569   0.885  -1.522  1.00  0.00    -0.346 N 
ATOM     10  H7  UNL     1      -1.384   1.485  -1.650  1.00  0.00     0.167 HD
HETATM   11  C7  UNL     1       0.708   1.305  -1.518  1.00  0.00     0.185 A 
HETATM   12  N8  UNL     1       1.506   0.245  -1.324  1.00  0.00    -0.326 N 
ENDROOT
BRANCH   1  13
HETATM   13  N4  UNL     1      -2.947  -0.931  -1.380  1.00  0.00    -0.172 N 
ATOM     14  H4  UNL     1      -3.441  -1.092  -2.258  1.00  0.00     0.186 HD
BRANCH  13  15
HETATM   15  C2  UNL     1      -3.559  -0.307  -0.415  1.00  0.00     0.724 A 
HETATM   16  N3  UNL     1      -3.017  -0.033   0.788  1.00  0.00    -0.018 N 
HETATM   17  C1  UNL     1      -3.954   0.615   1.498  1.00  0.00     0.726 A 
ATOM     18  H3  UNL     1      -2.076  -0.272   1.099  1.00  0.00     0.203 HD
HETATM   19  N2  UNL     1      -3.852   1.059   2.702  1.00  0.00    -0.137 N 
HETATM   20  N14 UNL     1      -5.045   0.717   0.701  1.00  0.00    -0.105 N 
ATOM     21  H2  UNL     1      -4.638   1.539   3.141  1.00  0.00     0.205 HD
HETATM   22  N12 UNL     1      -4.803   0.156  -0.463  1.00  0.00    -0.019 N 
ATOM     23  H14 UNL     1      -5.924   1.163   0.965  1.00  0.00     0.207 HD
HETATM   24  C11 UNL     1      -5.714   0.067  -1.562  1.00  0.00     0.369 C 
HETATM   25  N13 UNL     1      -5.339  -0.563  -2.766  1.00  0.00    -0.037 NA
HETATM   26  O2  UNL     1      -6.870   0.553  -1.466  1.00  0.00    -0.248 OA
BRANCH  19  27
HETATM   27  N1  UNL     1      -2.670   0.881   3.396  1.00  0.00    -0.331 N 
ATOM     28  H12 UNL     1      -1.894   0.399   2.943  1.00  0.00     0.177 HD
ATOM     29  H11 UNL     1      -2.589   1.233   4.350  1.00  0.00     0.177 HD
ENDBRANCH  19  27
ENDBRANCH  13  15
ENDBRANCH   1  13
BRANCH  12  30
HETATM   30  C8  UNL     1       2.963   0.259  -1.252  1.00  0.00     0.151 C 
BRANCH  30  31
HETATM   31  C9  UNL     1       3.384   0.471   0.201  1.00  0.00     0.142 C 
BRANCH  31  32
HETATM   32  N9  UNL     1       4.819   0.488   0.289  1.00  0.00    -0.361 N 
HETATM   33  C10 UNL     1       5.435   0.671   1.538  1.00  0.00     0.208 C 
HETATM   34  N10 UNL     1       4.767   1.410   2.522  1.00  0.00    -0.062 NA
HETATM   35  N11 UNL     1       6.590   0.155   1.738  1.00  0.00    -0.241 N 
ATOM     36  H11 UNL     1       7.042   0.285   2.643  1.00  0.00     0.197 HD
ATOM     37  H9  UNL     1       5.386   0.368  -0.550  1.00  0.00     0.162 HD
BRANCH  35  38
HETATM   38  O1  UNL     1       7.236  -0.569   0.766  1.00  0.00    -0.287 OA
ATOM     39  H1  UNL     1       8.093  -0.952   0.914  1.00  0.00     0.244 HD
ENDBRANCH  35  38
ENDBRANCH  31  32
ENDBRANCH  30  31
ENDBRANCH  12  30
TORSDOF 7
