REMARK  9 active torsions:
REMARK  status: ('A' for Active; 'I' for Inactive)
REMARK    1  A    between atoms: O1_2  and  C2_3 
REMARK    2  A    between atoms: C2_3  and  C3_4 
REMARK       I    between atoms: C3_4  and  N1_6 
REMARK    3  A    between atoms: N1_6  and  C4_8 
REMARK    4  A    between atoms: C5_11  and  N3_12 
REMARK    5  A    between atoms: N3_12  and  C6_14 
REMARK    6  A    between atoms: N5_18  and  C9_19 
REMARK    7  A    between atoms: C9_19  and  O3_20 
REMARK    8  A    between atoms: C9_19  and  N6_22 
REMARK    9  A    between atoms: N6_22  and  N7_23 
ROOT
HETATM    1  C4  UNL     1       2.212  -0.127   1.009  1.00  0.00     0.688 A 
HETATM    2  N2  UNL     1       0.922  -0.280   1.285  1.00  0.00    -0.174 N 
ATOM      3  H2  UNL     1       0.657  -0.903   2.048  1.00  0.00     0.186 HD
HETATM    4  C5  UNL     1      -0.064   0.361   0.592  1.00  0.00     0.150 A 
HETATM    5  C10 UNL     1       0.315   1.198  -0.434  1.00  0.00     0.137 A 
HETATM    6  N8  UNL     1      -0.571   1.870  -1.171  1.00  0.00    -0.293 N 
ATOM      7  H8  UNL     1      -1.569   1.773  -0.983  1.00  0.00     0.187 HD
HETATM    8  N9  UNL     1      -0.159   2.656  -2.138  1.00  0.00    -0.295 N 
ATOM      9  H9  UNL     1      -0.857   3.158  -2.687  1.00  0.00     0.187 HD
HETATM   10  C11 UNL     1       1.139   2.830  -2.439  1.00  0.00     0.199 A 
HETATM   11  N10 UNL     1       2.075   2.181  -1.733  1.00  0.00    -0.335 N 
ATOM     12  H10 UNL     1       3.067   2.297  -1.942  1.00  0.00     0.168 HD
HETATM   13  C12 UNL     1       1.662   1.366  -0.732  1.00  0.00     0.154 A 
HETATM   14  N11 UNL     1       2.565   0.691   0.008  1.00  0.00    -0.174 N 
ATOM     15  H11 UNL     1       3.556   0.808  -0.203  1.00  0.00     0.186 HD
ENDROOT
BRANCH   4  16
HETATM   16  N3  UNL     1      -1.256   0.178   0.898  1.00  0.00    -0.356 N 
ATOM     17  H3  UNL     1      -1.335  -0.472   1.680  1.00  0.00     0.162 HD
BRANCH  16  18
HETATM   18  C6  UNL     1      -2.516   0.607   0.479  1.00  0.00     0.180 C 
HETATM   19  C7  UNL     1      -3.007   1.864   1.204  1.00  0.00     0.059 C 
HETATM   20  C8  UNL     1      -4.511   1.750   0.915  1.00  0.00     0.132 C 
HETATM   21  N4  UNL     1      -4.764   0.335   0.826  1.00  0.00    -0.160 NA
HETATM   22  N5  UNL     1      -3.568  -0.327   0.921  1.00  0.00    -0.167 NA
BRANCH  22  23
HETATM   23  C9  UNL     1      -3.475  -1.539   0.157  1.00  0.00     0.327 C 
BRANCH  23  24
HETATM   24  O3  UNL     1      -4.481  -2.427   0.584  1.00  0.00    -0.364 OA
ATOM     25  H3  UNL     1      -4.419  -3.229   0.078  1.00  0.00     0.213 HD
ENDBRANCH  23  24
BRANCH  23  26
HETATM   26  N6  UNL     1      -3.592  -1.366  -1.266  1.00  0.00    -0.099 NA
BRANCH  26  27
HETATM   27  N7  UNL     1      -4.781  -0.799  -1.674  1.00  0.00    -0.345 N 
ATOM     28  H72 UNL     1      -5.507  -0.530  -1.010  1.00  0.00     0.172 HD
ATOM     29  H71 UNL     1      -4.864  -0.676  -2.683  1.00  0.00     0.172 HD
ENDBRANCH  26  27
ENDBRANCH  23  26
ENDBRANCH  22  23
ENDBRANCH  16  18
ENDBRANCH   4  16
BRANCH   1  30
HETATM   30  N1  UNL     1       3.154  -0.731   1.661  1.00  0.00    -0.158 N 
HETATM   31  C3  UNL     1       4.522  -0.539   1.333  1.00  0.00     0.259 C 
HETATM   32  O2  UNL     1       5.162   0.468   1.729  1.00  0.00    -0.270 OA
ATOM     33  H1  UNL     1       2.908  -1.358   2.427  1.00  0.00     0.187 HD
BRANCH  31  34
HETATM   34  C2  UNL     1       5.241  -1.534   0.502  1.00  0.00     0.270 C 
BRANCH  34  35
HETATM   35  O1  UNL     1       6.565  -1.155   0.298  1.00  0.00    -0.387 OA
HETATM   36  C1  UNL     1       7.144  -2.159  -0.494  1.00  0.00     0.202 C 
ENDBRANCH  34  35
ENDBRANCH  31  34
ENDBRANCH   1  30
TORSDOF 9
