REMARK  9 active torsions:
REMARK  status: ('A' for Active; 'I' for Inactive)
REMARK    1  A    between atoms: N1_2  and  C2_4 
REMARK    2  A    between atoms: C5_10  and  N4_11 
REMARK    3  A    between atoms: N4_11  and  C6_13 
REMARK    4  A    between atoms: C6_13  and  C7_14 
REMARK    5  A    between atoms: C7_14  and  N5_15 
REMARK    6  A    between atoms: N5_15  and  C8_17 
REMARK    7  A    between atoms: C9_18  and  C10_19 
REMARK       I    between atoms: C10_19  and  N6_21 
REMARK    8  A    between atoms: N6_21  and  N7_23 
REMARK    9  A    between atoms: C11_26  and  O2_27 
ROOT
HETATM    1  C8  UNL     1      -2.533   1.103  -0.182  1.00  0.00     0.101 A 
HETATM    2  C9  UNL     1      -3.434   0.262   0.536  1.00  0.00     0.116 A 
HETATM    3  C11 UNL     1      -4.762   0.304   0.265  1.00  0.00     0.175 A 
HETATM    4  N8  UNL     1      -5.263   1.130  -0.677  1.00  0.00    -0.255 N 
ATOM      5  H8  UNL     1      -6.265   1.148  -0.868  1.00  0.00     0.191 HD
HETATM    6  N9  UNL     1      -4.434   1.920  -1.353  1.00  0.00    -0.158 N 
HETATM    7  N10 UNL     1      -4.688   2.809  -2.318  1.00  0.00    -0.205 N 
ATOM      8  H10 UNL     1      -5.608   3.027  -2.701  1.00  0.00     0.212 HD
HETATM    9  N11 UNL     1      -3.554   3.353  -2.688  1.00  0.00    -0.225 N 
ATOM     10  H11 UNL     1      -3.447   4.067  -3.409  1.00  0.00     0.210 HD
HETATM   11  N12 UNL     1      -2.585   2.834  -1.985  1.00  0.00    -0.265 N 
ATOM     12  H12 UNL     1      -1.596   3.071  -2.062  1.00  0.00     0.190 HD
HETATM   13  C12 UNL     1      -3.119   1.928  -1.137  1.00  0.00     0.190 A 
ENDROOT
BRANCH   1  14
HETATM   14  N5  UNL     1      -1.309   1.070   0.062  1.00  0.00    -0.364 N 
ATOM     15  H5  UNL     1      -1.043   0.410   0.793  1.00  0.00     0.165 HD
BRANCH  14  16
HETATM   16  C7  UNL     1      -0.244   1.777  -0.489  1.00  0.00     0.081 C 
BRANCH  16  17
HETATM   17  C6  UNL     1       0.403   1.105  -1.690  1.00  0.00     0.165 C 
BRANCH  17  18
HETATM   18  N4  UNL     1       0.932  -0.182  -1.363  1.00  0.00    -0.371 N 
ATOM     19  H4  UNL     1       0.335  -0.987  -1.553  1.00  0.00     0.161 HD
BRANCH  18  20
HETATM   20  C5  UNL     1       2.084  -0.422  -0.854  1.00  0.00     0.120 A 
HETATM   21  C4  UNL     1       2.389  -1.758  -0.618  1.00  0.00     0.094 A 
HETATM   22  C3  UNL     1       3.604  -2.101  -0.075  1.00  0.00     0.135 A 
HETATM   23  N2  UNL     1       4.456  -1.108   0.207  1.00  0.00    -0.179 N 
HETATM   24  N3  UNL     1       3.935  -3.462   0.174  1.00  0.00    -0.082 NA
HETATM   25  C2  UNL     1       4.202   0.178  -0.003  1.00  0.00     0.680 A 
ATOM     26  H2  UNL     1       5.360  -1.356   0.610  1.00  0.00     0.185 HD
HETATM   27  N13 UNL     1       2.995   0.507  -0.542  1.00  0.00    -0.177 N 
ATOM     28  H13 UNL     1       2.780   1.489  -0.713  1.00  0.00     0.185 HD
BRANCH  25  29
HETATM   29  N1  UNL     1       5.000   1.154   0.258  1.00  0.00    -0.230 N 
HETATM   30  C1  UNL     1       6.297   0.776   0.838  1.00  0.00     0.165 C 
ATOM     31  H1  UNL     1       4.749   2.125   0.074  1.00  0.00     0.177 HD
ENDBRANCH  25  29
ENDBRANCH  18  20
ENDBRANCH  17  18
ENDBRANCH  16  17
ENDBRANCH  14  16
ENDBRANCH   1  14
BRANCH   2  32
HETATM   32  C10 UNL     1      -2.822  -0.588   1.521  1.00  0.00     0.276 C 
HETATM   33  O1  UNL     1      -1.544  -0.539   1.689  1.00  0.00    -0.266 OA
HETATM   34  N6  UNL     1      -3.472  -1.502   2.358  1.00  0.00    -0.272 N 
ATOM     35  H6  UNL     1      -4.484  -1.622   2.311  1.00  0.00     0.189 HD
BRANCH  34  36
HETATM   36  N7  UNL     1      -2.688  -2.266   3.283  1.00  0.00    -0.342 N 
ATOM     37  H72 UNL     1      -1.677  -2.134   3.318  1.00  0.00     0.176 HD
ATOM     38  H71 UNL     1      -3.162  -2.932   3.893  1.00  0.00     0.176 HD
ENDBRANCH  34  36
ENDBRANCH   2  32
BRANCH   3  39
HETATM   39  O2  UNL     1      -5.657  -0.503   0.949  1.00  0.00    -0.344 OA
ATOM     40  H2  UNL     1      -6.587  -0.474   0.759  1.00  0.00     0.219 HD
ENDBRANCH   3  39
TORSDOF 9
