REMARK  9 active torsions:
REMARK  status: ('A' for Active; 'I' for Inactive)
REMARK    1  A    between atoms: C2_2  and  C3_3 
REMARK    2  A    between atoms: C7_8  and  C8_9 
REMARK    3  A    between atoms: C8_9  and  C9_11 
REMARK    4  A    between atoms: C9_11  and  O3_12 
REMARK    5  A    between atoms: C10_14  and  O4_15 
REMARK    6  A    between atoms: C10_14  and  C11_17 
REMARK    7  A    between atoms: C12_18  and  O5_19 
REMARK    8  A    between atoms: N1_21  and  N2_22 
REMARK    9  A    between atoms: N4_31  and  O8_32 
ROOT
HETATM    1  C3  UNL     1      -1.358  -1.036  -0.299  1.00  0.00     0.069 C 
HETATM    2  C4  UNL     1      -1.889  -0.099  -1.065  1.00  0.00     0.014 C 
HETATM    3  C5  UNL     1      -2.691  -0.514  -2.270  1.00  0.00     0.054 C 
HETATM    4  C6  UNL     1      -1.672   1.281  -0.731  1.00  0.00     0.174 C 
HETATM    5  O1  UNL     1      -2.328   2.187  -1.317  1.00  0.00    -0.292 OA
HETATM    6  C7  UNL     1      -0.683   1.663   0.294  1.00  0.00     0.195 C 
HETATM    7  C10 UNL     1       0.225   0.549   0.697  1.00  0.00     0.213 C 
HETATM    8  N4  UNL     1      -0.616  -0.658   0.874  1.00  0.00    -0.218 N 
ENDROOT
BRANCH   7   9
HETATM    9  O4  UNL     1       0.760   0.881   1.979  1.00  0.00    -0.364 OA
ATOM     10  H4  UNL     1       1.338   0.172   2.235  1.00  0.00     0.213 HD
ENDBRANCH   7   9
BRANCH   7  11
HETATM   11  C11 UNL     1       1.386   0.264  -0.144  1.00  0.00     0.121 A 
HETATM   12  C12 UNL     1       2.242  -0.785   0.266  1.00  0.00     0.182 A 
HETATM   13  N1  UNL     1       3.326  -1.141  -0.424  1.00  0.00    -0.188 N 
HETATM   14  C13 UNL     1       3.592  -0.460  -1.550  1.00  0.00     0.350 A 
HETATM   15  O6  UNL     1       4.615  -0.784  -2.217  1.00  0.00    -0.244 OA
HETATM   16  N3  UNL     1       2.809   0.539  -1.972  1.00  0.00    -0.273 N 
HETATM   17  C14 UNL     1       1.683   0.939  -1.294  1.00  0.00     0.265 A 
ATOM     18  H3  UNL     1       3.058   1.024  -2.834  1.00  0.00     0.173 HD
HETATM   19  O7  UNL     1       1.025   1.890  -1.785  1.00  0.00    -0.267 OA
BRANCH  12  20
HETATM   20  O5  UNL     1       2.008  -1.513   1.419  1.00  0.00    -0.344 OA
ATOM     21  H5  UNL     1       2.583  -2.217   1.694  1.00  0.00     0.219 HD
ENDBRANCH  12  20
BRANCH  13  22
HETATM   22  N2  UNL     1       4.170  -2.186  -0.009  1.00  0.00    -0.332 N 
ATOM     23  H22 UNL     1       3.968  -2.703   0.846  1.00  0.00     0.177 HD
ATOM     24  H21 UNL     1       4.999  -2.458  -0.537  1.00  0.00     0.177 HD
ENDBRANCH  13  22
ENDBRANCH   7  11
BRANCH   6  25
HETATM   25  C8  UNL     1      -1.472   2.180   1.482  1.00  0.00     0.167 C 
HETATM   26  O2  UNL     1      -1.389   1.669   2.568  1.00  0.00    -0.295 OA
BRANCH  25  27
HETATM   27  C9  UNL     1      -2.365   3.336   1.324  1.00  0.00     0.243 C 
BRANCH  27  28
HETATM   28  O3  UNL     1      -2.925   3.726   2.551  1.00  0.00    -0.394 OA
ATOM     29  H3  UNL     1      -3.502   4.473   2.449  1.00  0.00     0.209 HD
ENDBRANCH  27  28
ENDBRANCH  25  27
ENDBRANCH   6  25
BRANCH   8  30
HETATM   30  O8  UNL     1      -0.728  -1.346   2.018  1.00  0.00    -0.284 OA
ATOM     31  H8  UNL     1      -0.238  -1.096   2.793  1.00  0.00     0.245 HD
ENDBRANCH   8  30
BRANCH   1  32
HETATM   32  C2  UNL     1      -1.523  -2.444  -0.587  1.00  0.00     0.022 C 
HETATM   33  C1  UNL     1      -1.073  -3.475   0.038  1.00  0.00     0.013 C 
ENDBRANCH   1  32
TORSDOF 9
