REMARK  6 active torsions:
REMARK  status: ('A' for Active; 'I' for Inactive)
REMARK    1  A    between atoms: N1_1  and  C1_4 
REMARK    2  A    between atoms: C4_12  and  C5_13 
REMARK    3  A    between atoms: N5_15  and  N6_17 
REMARK       I    between atoms: N6_17  and  C6_19 
REMARK    4  A    between atoms: C8_24  and  C9_25 
REMARK    5  A    between atoms: C10_28  and  C11_29 
REMARK    6  A    between atoms: C11_29  and  O5_30 
ROOT
HETATM    1  C1  UNL     1      -2.245  -3.211   1.004  1.00  0.00     0.677 A 
HETATM    2  N2  UNL     1      -0.922  -3.494   1.087  1.00  0.00    -0.184 N 
ATOM      3  H2  UNL     1      -0.623  -4.459   1.224  1.00  0.00     0.184 HD
HETATM    4  C2  UNL     1      -0.014  -2.538   0.993  1.00  0.00     0.153 A 
HETATM    5  C3  UNL     1       1.330  -2.828   1.078  1.00  0.00     0.277 A 
HETATM    6  O1  UNL     1       1.785  -3.984   1.246  1.00  0.00    -0.266 OA
HETATM    7  N3  UNL     1       2.175  -1.796   0.972  1.00  0.00    -0.299 N 
ATOM      8  H3  UNL     1       3.178  -1.971   1.030  1.00  0.00     0.171 HD
HETATM    9  C4  UNL     1       1.745  -0.539   0.792  1.00  0.00     0.194 A 
HETATM   10  O3  UNL     1       0.462  -0.279   0.713  1.00  0.00    -0.286 OA
HETATM   11  C7  UNL     1      -0.420  -1.224   0.807  1.00  0.00     0.138 A 
HETATM   12  C8  UNL     1      -1.775  -0.904   0.718  1.00  0.00     0.109 A 
HETATM   13  N9  UNL     1      -2.630  -1.936   0.823  1.00  0.00    -0.189 N 
ATOM     14  H9  UNL     1      -3.629  -1.740   0.762  1.00  0.00     0.184 HD
ENDROOT
BRANCH   9  15
HETATM   15  C5  UNL     1       2.726   0.538   0.685  1.00  0.00     0.182 C 
HETATM   16  N4  UNL     1       2.377   1.888   0.495  1.00  0.00    -0.077 NA
HETATM   17  N5  UNL     1       3.974   0.241   0.768  1.00  0.00    -0.281 N 
ATOM     18  H5  UNL     1       4.230  -0.737   0.906  1.00  0.00     0.188 HD
BRANCH  17  19
HETATM   19  N6  UNL     1       4.994   1.185   0.679  1.00  0.00    -0.253 N 
HETATM   20  C6  UNL     1       5.619   1.442  -0.568  1.00  0.00     0.347 C 
HETATM   21  N7  UNL     1       6.658   2.389  -0.708  1.00  0.00    -0.038 NA
HETATM   22  O2  UNL     1       5.254   0.820  -1.599  1.00  0.00    -0.249 OA
ATOM     23  H6  UNL     1       5.292   1.692   1.512  1.00  0.00     0.191 HD
ENDBRANCH  17  19
ENDBRANCH   9  15
BRANCH  12  24
HETATM   24  C9  UNL     1      -2.217   0.498   0.519  1.00  0.00     0.298 C 
HETATM   25  N8  UNL     1      -1.461   1.193  -0.489  1.00  0.00    -0.059 NA
HETATM   26  O4  UNL     1      -2.127   0.878  -1.622  1.00  0.00    -0.249 OA
HETATM   27  C10 UNL     1      -3.452   1.127  -1.222  1.00  0.00     0.309 C 
HETATM   28  O6  UNL     1      -3.510   0.593   0.067  1.00  0.00    -0.328 OA
BRANCH  27  29
HETATM   29  C11 UNL     1      -4.361   0.321  -2.139  1.00  0.00     0.226 C 
BRANCH  29  30
HETATM   30  O5  UNL     1      -5.695   0.499  -1.824  1.00  0.00    -0.396 OA
ATOM     31  H5  UNL     1      -6.262  -0.004  -2.396  1.00  0.00     0.209 HD
ENDBRANCH  29  30
ENDBRANCH  27  29
ENDBRANCH  12  24
BRANCH   1  32
HETATM   32  N1  UNL     1      -3.060  -4.206   1.106  1.00  0.00    -0.234 N 
ATOM     33  H12 UNL     1      -2.768  -5.174   1.243  1.00  0.00     0.174 HD
ATOM     34  H11 UNL     1      -4.056  -3.993   1.044  1.00  0.00     0.174 HD
ENDBRANCH   1  32
TORSDOF 6
