REMARK  14 active torsions:
REMARK  status: ('A' for Active; 'I' for Inactive)
REMARK    1  A    between atoms: S1_2  and  C2_3 
REMARK    2  A    between atoms: C2_3  and  C4_5 
REMARK    3  A    between atoms: C4_5  and  N1_6 
REMARK    4  A    between atoms: C4_5  and  C11_20 
REMARK       I    between atoms: N1_6  and  C5_8 
REMARK    5  A    between atoms: C5_8  and  C6_10 
REMARK    6  A    between atoms: C6_10  and  N2_11 
REMARK    7  A    between atoms: C6_10  and  C8_17 
REMARK    8  A    between atoms: N2_11  and  S2_13 
REMARK       I    between atoms: C11_20  and  N3_22 
REMARK    9  A    between atoms: N3_22  and  C12_24 
REMARK   10  A    between atoms: C12_24  and  C13_25 
REMARK   11  A    between atoms: C12_24  and  C21_33 
REMARK   12  A    between atoms: C13_25  and  C14_26 
REMARK   13  A    between atoms: C14_26  and  C15_27 
REMARK       I    between atoms: C21_33  and  N4_35 
REMARK   14  A    between atoms: N4_35  and  C22_37 
ROOT
HETATM    1  C11 UNL     1       1.033  -0.586  -0.257  1.00  0.00     0.242 C 
HETATM    2  O4  UNL     1       1.168   0.262  -1.216  1.00  0.00    -0.271 OA
HETATM    3  N3  UNL     1      -0.249  -0.818   0.279  1.00  0.00    -0.346 N 
ATOM      4  H3  UNL     1      -0.346  -1.487   1.043  1.00  0.00     0.163 HD
ENDROOT
BRANCH   1   5
HETATM    5  C4  UNL     1       2.201  -1.304   0.281  1.00  0.00     0.190 C 
BRANCH   5   6
HETATM    6  C2  UNL     1       1.943  -2.799   0.196  1.00  0.00     0.074 C 
HETATM    7  C3  UNL     1       2.925  -3.485   1.150  1.00  0.00     0.024 C 
BRANCH   6   8
HETATM    8  S1  UNL     1       1.990  -3.490  -1.434  1.00  0.00    -0.167 SA
HETATM    9  C1  UNL     1       0.796  -2.797  -2.579  1.00  0.00     0.090 C 
ENDBRANCH   6   8
ENDBRANCH   5   6
BRANCH   5  10
HETATM   10  N1  UNL     1       3.462  -0.924  -0.251  1.00  0.00    -0.345 N 
HETATM   11  C5  UNL     1       4.529  -0.543   0.602  1.00  0.00     0.242 C 
HETATM   12  O1  UNL     1       4.347  -0.551   1.869  1.00  0.00    -0.271 OA
ATOM     13  H1  UNL     1       3.602  -0.925  -1.261  1.00  0.00     0.163 HD
BRANCH  11  14
HETATM   14  C6  UNL     1       5.882  -0.124   0.103  1.00  0.00     0.188 C 
BRANCH  14  15
HETATM   15  N2  UNL     1       6.752  -0.004   1.238  1.00  0.00    -0.306 N 
ATOM     16  H2  UNL     1       6.537   0.556   2.063  1.00  0.00     0.173 HD
BRANCH  15  17
HETATM   17  S2  UNL     1       8.206  -0.917   1.045  1.00  0.00     0.223 S 
HETATM   18  C7  UNL     1       9.580   0.205   1.009  1.00  0.00     0.185 C 
HETATM   19  O2  UNL     1       8.207  -1.626  -0.292  1.00  0.00    -0.206 OA
HETATM   20  O3  UNL     1       8.401  -1.950   2.101  1.00  0.00    -0.206 OA
ENDBRANCH  15  17
ENDBRANCH  14  15
BRANCH  14  21
HETATM   21  C8  UNL     1       5.660   1.313  -0.410  1.00  0.00     0.010 C 
HETATM   22  C9  UNL     1       6.895   1.932  -0.964  1.00  0.00     0.012 C 
HETATM   23  C10 UNL     1       5.113   2.157   0.754  1.00  0.00     0.012 C 
ENDBRANCH  14  21
ENDBRANCH  11  14
ENDBRANCH   5  10
ENDBRANCH   1   5
BRANCH   3  24
HETATM   24  C12 UNL     1      -1.455  -0.135  -0.218  1.00  0.00     0.176 C 
BRANCH  24  25
HETATM   25  C13 UNL     1      -2.561  -1.156  -0.346  1.00  0.00     0.035 C 
BRANCH  25  26
HETATM   26  C14 UNL     1      -3.875  -0.640  -0.835  1.00  0.00     0.007 C 
BRANCH  26  27
HETATM   27  C15 UNL     1      -4.830  -1.822  -0.949  1.00  0.00    -0.014 C 
HETATM   28  C16 UNL     1      -4.278  -2.815  -1.913  1.00  0.00     0.004 C 
HETATM   29  C17 UNL     1      -5.312  -3.848  -2.365  1.00  0.00     0.000 C 
HETATM   30  C18 UNL     1      -6.549  -3.254  -2.937  1.00  0.00     0.000 C 
HETATM   31  C19 UNL     1      -6.527  -1.757  -2.804  1.00  0.00     0.000 C 
HETATM   32  C20 UNL     1      -6.202  -1.380  -1.363  1.00  0.00     0.004 C 
ENDBRANCH  26  27
ENDBRANCH  25  26
ENDBRANCH  24  25
BRANCH  24  33
HETATM   33  C21 UNL     1      -1.789   0.861   0.824  1.00  0.00     0.240 C 
HETATM   34  O5  UNL     1      -1.181   0.829   1.961  1.00  0.00    -0.271 OA
HETATM   35  N4  UNL     1      -2.746   1.887   0.665  1.00  0.00    -0.355 N 
ATOM     36  H4  UNL     1      -3.261   1.961  -0.212  1.00  0.00     0.162 HD
BRANCH  35  37
HETATM   37  C22 UNL     1      -3.006   2.828   1.717  1.00  0.00     0.084 C 
HETATM   38  C23 UNL     1      -4.406   2.790   2.262  1.00  0.00     0.025 C 
HETATM   39  C24 UNL     1      -4.401   3.758   3.452  1.00  0.00     0.002 C 
HETATM   40  C25 UNL     1      -4.246   5.142   2.893  1.00  0.00     0.000 C 
HETATM   41  C26 UNL     1      -2.956   5.314   2.133  1.00  0.00     0.002 C 
HETATM   42  C27 UNL     1      -2.687   4.211   1.170  1.00  0.00     0.025 C 
ENDBRANCH  35  37
ENDBRANCH  24  33
ENDBRANCH   3  24
TORSDOF 14
