REMARK  16 active torsions:
REMARK  status: ('A' for Active; 'I' for Inactive)
REMARK    1  A    between atoms: C2_2  and  C3_3 
REMARK    2  A    between atoms: C3_3  and  C4_4 
REMARK    3  A    between atoms: C4_4  and  C5_5 
REMARK    4  A    between atoms: C5_5  and  C6_6 
REMARK    5  A    between atoms: C6_6  and  C7_7 
REMARK    6  A    between atoms: C7_7  and  C8_8 
REMARK    7  A    between atoms: C8_8  and  C9_9 
REMARK    8  A    between atoms: C9_9  and  C10_10 
REMARK    9  A    between atoms: C11_11  and  N1_12 
REMARK   10  A    between atoms: C14_15  and  C15_16 
REMARK   11  A    between atoms: C15_16  and  O1_17 
REMARK   12  A    between atoms: C15_16  and  C16_19 
REMARK   13  A    between atoms: C16_19  and  O2_20 
REMARK   14  A    between atoms: C16_19  and  C17_22 
REMARK   15  A    between atoms: C17_22  and  N2_23 
REMARK       I    between atoms: N2_23  and  C18_25 
REMARK       I    between atoms: C18_25  and  N3_27 
REMARK   16  A    between atoms: C26_37  and  O6_38 
ROOT
HETATM    1  N1  UNL     1       1.437  -1.666   0.421  1.00  0.00    -0.039 N 
HETATM    2  C12 UNL     1       2.590  -1.698   1.321  1.00  0.00     0.279 C 
HETATM    3  C13 UNL     1       0.480  -0.882   1.266  1.00  0.00     0.253 C 
HETATM    4  C14 UNL     1      -0.882  -1.214   0.854  1.00  0.00     0.075 C 
HETATM    5  C26 UNL     1      -0.722  -2.687   0.473  1.00  0.00     0.163 C 
HETATM    6  C27 UNL     1       0.767  -2.891   0.263  1.00  0.00     0.160 C 
HETATM    7  C28 UNL     1       1.209  -3.975   1.247  1.00  0.00     0.042 C 
HETATM    8  C29 UNL     1       2.131  -4.989   0.626  1.00  0.00     0.003 C 
HETATM    9  C30 UNL     1       1.380  -5.887  -0.366  1.00  0.00     0.000 C 
HETATM   10  C31 UNL     1       0.268  -4.990  -0.902  1.00  0.00     0.003 C 
HETATM   11  C32 UNL     1       0.858  -3.589  -1.073  1.00  0.00     0.042 C 
ENDROOT
BRANCH   4  12
HETATM   12  C15 UNL     1      -1.906  -1.050   1.940  1.00  0.00     0.156 C 
BRANCH  12  13
HETATM   13  O1  UNL     1      -1.637  -1.840   3.052  1.00  0.00    -0.392 OA
ATOM     14  H1  UNL     1      -2.285  -1.736   3.739  1.00  0.00     0.210 HD
ENDBRANCH  12  13
BRANCH  12  15
HETATM   15  C16 UNL     1      -2.004   0.379   2.412  1.00  0.00     0.165 C 
BRANCH  15  16
HETATM   16  O2  UNL     1      -0.754   0.680   3.001  1.00  0.00    -0.391 OA
ATOM     17  H2  UNL     1      -0.816   1.580   3.298  1.00  0.00     0.210 HD
ENDBRANCH  15  16
BRANCH  15  18
HETATM   18  C17 UNL     1      -2.175   1.368   1.295  1.00  0.00     0.158 C 
BRANCH  18  19
HETATM   19  N2  UNL     1      -3.400   1.218   0.554  1.00  0.00    -0.340 N 
HETATM   20  C18 UNL     1      -4.654   1.359   1.164  1.00  0.00     0.318 C 
HETATM   21  O3  UNL     1      -4.700   1.633   2.414  1.00  0.00    -0.247 OA
HETATM   22  N3  UNL     1      -5.898   1.225   0.515  1.00  0.00    -0.334 N 
HETATM   23  C19 UNL     1      -6.008   0.941  -0.879  1.00  0.00     0.133 C 
HETATM   24  C23 UNL     1      -7.165   1.367   1.255  1.00  0.00     0.133 C 
HETATM   25  C20 UNL     1      -6.848   2.058  -1.520  1.00  0.00     0.088 C 
HETATM   26  C21 UNL     1      -8.229   1.985  -0.914  1.00  0.00     0.167 C 
HETATM   27  C22 UNL     1      -8.280   1.071   0.280  1.00  0.00     0.088 C 
HETATM   28  O4  UNL     1      -8.703   3.248  -0.558  1.00  0.00    -0.353 OA
HETATM   29  O5  UNL     1      -9.112   1.497  -1.884  1.00  0.00    -0.353 OA
HETATM   30  C24 UNL     1     -10.057   3.226  -0.794  1.00  0.00     0.197 C 
HETATM   31  C25 UNL     1     -10.360   1.856  -1.384  1.00  0.00     0.197 C 
ATOM     32  H2  UNL     1      -3.354   1.003  -0.442  1.00  0.00     0.164 HD
ENDBRANCH  18  19
ENDBRANCH  15  18
ENDBRANCH  12  15
ENDBRANCH   4  12
BRANCH   5  33
HETATM   33  O6  UNL     1      -1.476  -2.843  -0.693  1.00  0.00    -0.392 OA
ATOM     34  H6  UNL     1      -1.377  -3.758  -0.930  1.00  0.00     0.210 HD
ENDBRANCH   5  33
BRANCH   1  35
HETATM   35  C11 UNL     1       1.641  -0.803  -0.659  1.00  0.00     0.199 C 
HETATM   36  C10 UNL     1       2.379  -1.040  -1.868  1.00  0.00    -0.002 C 
BRANCH  36  37
HETATM   37  C9  UNL     1       3.806  -1.339  -1.948  1.00  0.00     0.028 C 
BRANCH  37  38
HETATM   38  C8  UNL     1       4.747  -0.264  -1.448  1.00  0.00     0.004 C 
BRANCH  38  39
HETATM   39  C7  UNL     1       4.594   1.007  -2.215  1.00  0.00     0.000 C 
BRANCH  39  40
HETATM   40  C6  UNL     1       5.605   2.050  -1.714  1.00  0.00     0.000 C 
BRANCH  40  41
HETATM   41  C5  UNL     1       5.372   2.343  -0.296  1.00  0.00     0.000 C 
BRANCH  41  42
HETATM   42  C4  UNL     1       6.133   3.424   0.348  1.00  0.00     0.000 C 
BRANCH  42  43
HETATM   43  C3  UNL     1       7.593   3.432   0.425  1.00  0.00    -0.000 C 
BRANCH  43  44
HETATM   44  C2  UNL     1       8.309   3.580  -0.871  1.00  0.00    -0.005 C 
HETATM   45  C1  UNL     1       9.841   3.600  -0.565  1.00  0.00     0.005 C 
ENDBRANCH  43  44
ENDBRANCH  42  43
ENDBRANCH  41  42
ENDBRANCH  40  41
ENDBRANCH  39  40
ENDBRANCH  38  39
ENDBRANCH  37  38
ENDBRANCH  36  37
ENDBRANCH   1  35
TORSDOF 16
