REMARK  3 active torsions:
REMARK  status: ('A' for Active; 'I' for Inactive)
REMARK    1  A    between atoms: C2_2  and  N1_4 
REMARK       I    between atoms: N1_4  and  C5_6 
REMARK       I    between atoms: C5_6  and  N2_8 
REMARK    2  A    between atoms: N2_8  and  C6_10 
REMARK       I    between atoms: N3_12  and  C8_13 
REMARK    3  A    between atoms: C8_13  and  C9_15 
ROOT
HETATM    1  C6  UNL     1       0.228  -0.568   0.285  1.00  0.00     0.121 C 
HETATM    2  C7  UNL     1      -0.832  -0.290  -0.742  1.00  0.00     0.152 C 
HETATM    3  N3  UNL     1      -2.113  -0.244  -0.021  1.00  0.00    -0.349 N 
HETATM    4  C8  UNL     1      -2.948   0.875  -0.044  1.00  0.00     0.227 C 
HETATM    5  O2  UNL     1      -2.530   1.868  -0.740  1.00  0.00    -0.273 OA
HETATM    6  C13 UNL     1      -2.468  -1.429   0.714  1.00  0.00     0.127 C 
HETATM    7  C14 UNL     1      -1.359  -2.468   0.532  1.00  0.00     0.041 C 
HETATM    8  C15 UNL     1      -0.008  -1.915   0.891  1.00  0.00     0.118 C 
HETATM    9  C16 UNL     1       0.992  -2.880   0.409  1.00  0.00     0.066 C 
HETATM   10  N4  UNL     1       1.792  -3.632   0.024  1.00  0.00    -0.197 NA
ENDROOT
BRANCH   1  11
HETATM   11  N2  UNL     1       1.557  -0.458  -0.287  1.00  0.00    -0.335 N 
HETATM   12  C5  UNL     1       2.485   0.500   0.156  1.00  0.00     0.318 C 
HETATM   13  N1  UNL     1       3.795   0.664  -0.354  1.00  0.00    -0.335 N 
HETATM   14  O1  UNL     1       2.098   1.279   1.098  1.00  0.00    -0.247 OA
HETATM   15  C4  UNL     1       4.677   1.686   0.174  1.00  0.00     0.154 C 
ATOM     16  H2  UNL     1       1.827  -1.097  -1.035  1.00  0.00     0.164 HD
BRANCH  13  17
HETATM   17  C2  UNL     1       4.315  -0.167  -1.414  1.00  0.00     0.080 C 
HETATM   18  C1  UNL     1       5.607  -0.784  -0.858  1.00  0.00     0.032 C 
HETATM   19  C3  UNL     1       4.771   0.796  -2.514  1.00  0.00     0.032 C 
ENDBRANCH  13  17
ENDBRANCH   1  11
BRANCH   4  20
HETATM   20  C9  UNL     1      -4.230   1.026   0.638  1.00  0.00     0.030 C 
HETATM   21  C10 UNL     1      -4.856   2.389   0.296  1.00  0.00     0.025 C 
HETATM   22  C11 UNL     1      -4.054   0.975   2.154  1.00  0.00     0.025 C 
HETATM   23  C12 UNL     1      -5.251  -0.034   0.281  1.00  0.00     0.025 C 
ENDBRANCH   4  20
TORSDOF 3
