REMARK  2 active torsions:
REMARK  status: ('A' for Active; 'I' for Inactive)
REMARK       I    between atoms: C1_2  and  N1_3 
REMARK    1  A    between atoms: C1_2  and  C7_13 
REMARK    2  A    between atoms: N1_3  and  C2_5 
ROOT
HETATM    1  O1  UNL     1       0.452  -1.655   1.304  1.00  0.00    -0.273 OA
HETATM    2  C1  UNL     1       0.105  -0.710   0.538  1.00  0.00     0.226 C 
HETATM    3  N1  UNL     1       1.165   0.023  -0.090  1.00  0.00    -0.356 N 
ATOM      4  H1  UNL     1       0.928   0.794  -0.714  1.00  0.00     0.162 HD
ENDROOT
BRANCH   2   5
HETATM    5  C7  UNL     1      -1.311  -0.400   0.323  1.00  0.00     0.042 C 
HETATM    6  C8  UNL     1      -1.594   1.026   0.765  1.00  0.00     0.024 C 
HETATM    7  C9  UNL     1      -3.061   1.321   0.657  1.00  0.00    -0.013 C 
HETATM    8  C10 UNL     1      -3.440   1.264  -0.813  1.00  0.00     0.009 C 
HETATM    9  C14 UNL     1      -3.841   0.320   1.471  1.00  0.00     0.009 C 
HETATM   10  C11 UNL     1      -3.148  -0.144  -1.284  1.00  0.00    -0.013 C 
HETATM   11  C12 UNL     1      -4.036  -1.097  -0.533  1.00  0.00     0.009 C 
HETATM   12  C16 UNL     1      -1.692  -0.471  -1.152  1.00  0.00     0.024 C 
HETATM   13  C13 UNL     1      -3.635  -1.059   0.917  1.00  0.00    -0.013 C 
HETATM   14  C15 UNL     1      -2.160  -1.397   1.048  1.00  0.00     0.024 C 
ENDBRANCH   2   5
BRANCH   3  15
HETATM   15  C2  UNL     1       2.560  -0.293   0.131  1.00  0.00     0.086 C 
HETATM   16  C3  UNL     1       3.238  -0.735  -1.134  1.00  0.00     0.040 C 
HETATM   17  C4  UNL     1       4.290   0.225  -1.618  1.00  0.00     0.142 C 
HETATM   18  S1  UNL     1       5.567   0.433  -0.378  1.00  0.00     0.144 S 
HETATM   19  O2  UNL     1       6.600  -0.621  -0.454  1.00  0.00    -0.228 OA
HETATM   20  O3  UNL     1       6.159   1.818  -0.474  1.00  0.00    -0.228 OA
HETATM   21  C5  UNL     1       4.667   0.379   1.182  1.00  0.00     0.142 C 
HETATM   22  C6  UNL     1       3.267   0.850   0.813  1.00  0.00     0.040 C 
ENDBRANCH   3  15
TORSDOF 2
