REMARK  2 active torsions:
REMARK  status: ('A' for Active; 'I' for Inactive)
REMARK    1  A    between atoms: C1_2  and  C2_4 
REMARK       I    between atoms: N2_10  and  C7_11 
REMARK    2  A    between atoms: C7_11  and  C8_13 
ROOT
HETATM    1  C2  UNL     1      -2.696   0.630  -0.019  1.00  0.00     0.070 C 
HETATM    2  C3  UNL     1      -3.441  -0.604   0.412  1.00  0.00     0.027 C 
HETATM    3  C4  UNL     1      -2.479  -1.684   0.730  1.00  0.00    -0.002 C 
HETATM    4  C5  UNL     1      -2.159  -1.594   2.228  1.00  0.00     0.080 C 
HETATM    5  S1  UNL     1      -1.723   0.159   2.525  1.00  0.00    -0.142 SA
HETATM    6  C6  UNL     1      -1.541   0.941   0.916  1.00  0.00     0.167 C 
HETATM    7  N2  UNL     1      -0.345   0.534   0.217  1.00  0.00    -0.332 N 
HETATM    8  C7  UNL     1       0.952   1.066   0.420  1.00  0.00     0.225 C 
HETATM    9  O2  UNL     1       1.142   1.993   1.288  1.00  0.00    -0.273 OA
HETATM   10  C14 UNL     1      -0.770  -0.486  -0.702  1.00  0.00     0.090 C 
HETATM   11  C15 UNL     1      -1.250  -1.752  -0.069  1.00  0.00     0.031 C 
HETATM   12  C16 UNL     1      -1.984   0.233  -1.322  1.00  0.00     0.047 C 
ENDROOT
BRANCH   8  13
HETATM   13  C8  UNL     1       2.140   0.601  -0.332  1.00  0.00     0.078 C 
HETATM   14  C9  UNL     1       3.308   1.460   0.037  1.00  0.00     0.014 C 
HETATM   15  C10 UNL     1       4.605   1.006  -0.582  1.00  0.00     0.001 C 
HETATM   16  C11 UNL     1       4.619  -0.490  -0.821  1.00  0.00     0.000 C 
HETATM   17  C12 UNL     1       3.778  -1.097   0.307  1.00  0.00     0.001 C 
HETATM   18  C13 UNL     1       2.344  -0.853  -0.036  1.00  0.00     0.014 C 
ENDBRANCH   8  13
BRANCH   1  19
HETATM   19  C1  UNL     1      -3.558   1.802  -0.225  1.00  0.00     0.242 C 
HETATM   20  N1  UNL     1      -4.609   1.848  -1.161  1.00  0.00    -0.061 NA
HETATM   21  O1  UNL     1      -3.333   2.826   0.489  1.00  0.00    -0.276 OA
ENDBRANCH   1  19
TORSDOF 2
