REMARK  4 active torsions:
REMARK  status: ('A' for Active; 'I' for Inactive)
REMARK    1  A    between atoms: C2_2  and  N1_4 
REMARK       I    between atoms: N1_4  and  C4_6 
REMARK    2  A    between atoms: C4_6  and  O2_8 
REMARK    3  A    between atoms: O2_8  and  C5_9 
REMARK    4  A    between atoms: N2_14  and  C11_16 
ROOT
HETATM    1  C5  UNL     1       1.039  -0.306   0.186  1.00  0.00     0.139 C 
HETATM    2  C6  UNL     1       0.584  -0.366   1.615  1.00  0.00     0.058 C 
HETATM    3  C7  UNL     1      -0.512  -1.405   1.704  1.00  0.00     0.089 C 
HETATM    4  C8  UNL     1      -1.656  -0.731   2.476  1.00  0.00     0.053 C 
HETATM    5  C9  UNL     1      -2.257   0.416   1.762  1.00  0.00     0.242 C 
HETATM    6  N2  UNL     1      -2.307   0.382   0.338  1.00  0.00    -0.042 N 
HETATM    7  C10 UNL     1      -1.976   1.756  -0.090  1.00  0.00     0.276 C 
HETATM    8  C15 UNL     1      -1.413  -0.522  -0.308  1.00  0.00     0.293 C 
HETATM    9  C16 UNL     1      -0.096   0.038  -0.774  1.00  0.00     0.087 C 
HETATM   10  N3  UNL     1      -1.064  -1.688   0.458  1.00  0.00    -0.367 N 
HETATM   11  C17 UNL     1      -0.926  -2.896  -0.165  1.00  0.00     0.117 C 
ENDROOT
BRANCH   1  12
HETATM   12  O2  UNL     1       2.135   0.572   0.003  1.00  0.00    -0.298 OA
BRANCH  12  13
HETATM   13  C4  UNL     1       3.381   0.146  -0.424  1.00  0.00     0.361 C 
HETATM   14  N1  UNL     1       4.482   1.020  -0.608  1.00  0.00    -0.333 N 
ATOM     15  H1  UNL     1       4.341   2.011  -0.414  1.00  0.00     0.165 HD
HETATM   16  O1  UNL     1       3.503  -1.094  -0.651  1.00  0.00    -0.238 OA
BRANCH  14  17
HETATM   17  C2  UNL     1       5.783   0.601  -1.050  1.00  0.00     0.078 C 
HETATM   18  C1  UNL     1       6.171   1.223  -2.378  1.00  0.00     0.032 C 
HETATM   19  C3  UNL     1       6.880   0.909  -0.064  1.00  0.00     0.032 C 
ENDBRANCH  14  17
ENDBRANCH  12  13
ENDBRANCH   1  12
BRANCH   6  20
HETATM   20  C11 UNL     1      -3.690   0.196  -0.088  1.00  0.00     0.121 C 
HETATM   21  C12 UNL     1      -4.600   1.322   0.240  1.00  0.00     0.046 C 
HETATM   22  C13 UNL     1      -4.316  -1.068   0.483  1.00  0.00     0.046 C 
HETATM   23  C14 UNL     1      -3.796   0.013  -1.606  1.00  0.00     0.046 C 
ENDBRANCH   6  20
TORSDOF 4
