REMARK  5 active torsions:
REMARK  status: ('A' for Active; 'I' for Inactive)
REMARK    1  A    between atoms: N1_2  and  C3_4 
REMARK    2  A    between atoms: N2_11  and  C10_12 
REMARK    3  A    between atoms: C10_12  and  O1_13 
REMARK    4  A    between atoms: C10_12  and  C11_15 
REMARK    5  A    between atoms: C11_15  and  O2_16 
ROOT
HETATM    1  C10 UNL     1      -0.242   0.418  -0.765  1.00  0.00     0.151 C 
ENDROOT
BRANCH   1   2
HETATM    2  N2  UNL     1       1.103   0.162  -0.829  1.00  0.00    -0.332 N 
HETATM    3  C3  UNL     1       1.902  -0.703  -0.035  1.00  0.00     0.325 C 
HETATM    4  C4  UNL     1       2.492   0.204   1.032  1.00  0.00     0.062 C 
HETATM    5  C5  UNL     1       3.381   1.176   0.314  1.00  0.00    -0.005 A 
HETATM    6  C6  UNL     1       3.150   2.599   0.812  1.00  0.00     0.005 A 
HETATM    7  C8  UNL     1       3.107   1.532  -1.069  1.00  0.00     0.008 A 
HETATM    8  C7  UNL     1       2.797   2.963  -0.618  1.00  0.00     0.007 A 
HETATM    9  C9  UNL     1       1.924   0.953  -1.772  1.00  0.00     0.132 C 
BRANCH   3  10
HETATM   10  N1  UNL     1       1.372  -1.934   0.413  1.00  0.00     0.102 N 
HETATM   11  C1  UNL     1       2.389  -2.761   1.076  1.00  0.00     0.312 C 
HETATM   12  C2  UNL     1       1.018  -2.758  -0.778  1.00  0.00     0.312 C 
ENDBRANCH   3  10
ENDBRANCH   1   2
BRANCH   1  13
HETATM   13  O1  UNL     1      -0.667   1.206  -1.747  1.00  0.00    -0.347 OA
ATOM     14  H1  UNL     1      -1.599   1.383  -1.703  1.00  0.00     0.219 HD
ENDBRANCH   1  13
BRANCH   1  15
HETATM   15  C11 UNL     1      -1.319   0.029   0.137  1.00  0.00     0.126 C 
HETATM   16  C12 UNL     1      -2.144   1.231   0.601  1.00  0.00     0.051 C 
HETATM   17  C13 UNL     1      -3.516   0.732   0.940  1.00  0.00    -0.011 C 
HETATM   18  C14 UNL     1      -3.559  -0.698   1.423  1.00  0.00     0.005 C 
HETATM   19  C18 UNL     1      -4.284   0.736  -0.390  1.00  0.00     0.005 C 
HETATM   20  C15 UNL     1      -3.031  -1.674   0.378  1.00  0.00     0.008 C 
HETATM   21  C16 UNL     1      -2.316  -0.819  -0.656  1.00  0.00     0.028 C 
HETATM   22  C17 UNL     1      -3.359   0.004  -1.359  1.00  0.00     0.008 C 
BRANCH  15  23
HETATM   23  O2  UNL     1      -0.992  -0.636   1.287  1.00  0.00    -0.381 OA
ATOM     24  H2  UNL     1      -1.694  -0.890   1.875  1.00  0.00     0.211 HD
ENDBRANCH  15  23
ENDBRANCH   1  15
TORSDOF 5
