REMARK  6 active torsions:
REMARK  status: ('A' for Active; 'I' for Inactive)
REMARK    1  A    between atoms: C1_4  and  N2_5 
REMARK    2  A    between atoms: C1_4  and  C2_9 
REMARK    3  A    between atoms: N2_5  and  O1_7 
REMARK    4  A    between atoms: C3_10  and  C4_11 
REMARK    5  A    between atoms: C4_11  and  O2_12 
REMARK    6  A    between atoms: C5_15  and  O4_16 
ROOT
HETATM    1  C2  UNL     1       0.402   0.294   0.116  1.00  0.00     0.103 C 
HETATM    2  C3  UNL     1      -0.228   1.254  -0.858  1.00  0.00     0.161 C 
HETATM    3  O3  UNL     1      -1.581   1.026  -0.762  1.00  0.00    -0.344 OA
HETATM    4  C5  UNL     1      -1.794  -0.312  -0.540  1.00  0.00     0.196 C 
HETATM    5  C6  UNL     1      -2.757  -0.447   0.617  1.00  0.00     0.246 C 
HETATM    6  O5  UNL     1      -2.005  -0.964   1.707  1.00  0.00    -0.334 OA
HETATM    7  C7  UNL     1      -0.835  -1.542   1.256  1.00  0.00     0.121 C 
HETATM    8  N3  UNL     1      -0.132  -2.453   1.836  1.00  0.00    -0.383 N 
ATOM      9  H31 UNL     1       0.732  -2.880   1.503  1.00  0.00     0.158 HD
ATOM     10  H32 UNL     1      -0.351  -2.884   2.734  1.00  0.00     0.158 HD
HETATM   11  C8  UNL     1      -0.520  -0.921  -0.037  1.00  0.00     0.138 C 
ENDROOT
BRANCH   1  12
HETATM   12  C1  UNL     1       1.789  -0.023  -0.293  1.00  0.00     0.102 C 
HETATM   13  N1  UNL     1       2.247   0.543  -1.381  1.00  0.00    -0.387 N 
ATOM     14  H12 UNL     1       3.203   0.325  -1.663  1.00  0.00     0.157 HD
ATOM     15  H11 UNL     1       1.635   1.174  -1.898  1.00  0.00     0.157 HD
BRANCH  12  16
HETATM   16  N2  UNL     1       2.635  -0.895   0.421  1.00  0.00    -0.257 N 
ATOM     17  H2  UNL     1       3.048  -0.571   1.296  1.00  0.00     0.195 HD
BRANCH  16  18
HETATM   18  O1  UNL     1       2.918  -2.136  -0.007  1.00  0.00    -0.288 OA
ATOM     19  H1  UNL     1       3.488  -2.724   0.474  1.00  0.00     0.244 HD
ENDBRANCH  16  18
ENDBRANCH  12  16
ENDBRANCH   1  12
BRANCH   2  20
HETATM   20  C4  UNL     1       0.073   2.697  -0.524  1.00  0.00     0.197 C 
BRANCH  20  21
HETATM   21  O2  UNL     1      -0.331   3.010   0.753  1.00  0.00    -0.398 OA
ATOM     22  H2  UNL     1      -0.142   3.917   0.963  1.00  0.00     0.209 HD
ENDBRANCH  20  21
ENDBRANCH   2  20
BRANCH   4  23
HETATM   23  O4  UNL     1      -2.254  -0.925  -1.689  1.00  0.00    -0.363 OA
ATOM     24  H4  UNL     1      -2.401  -1.851  -1.535  1.00  0.00     0.213 HD
ENDBRANCH   4  23
TORSDOF 6
