REMARK  8 active torsions:
REMARK  status: ('A' for Active; 'I' for Inactive)
REMARK       I    between atoms: C2_2  and  N1_4 
REMARK    1  A    between atoms: N1_4  and  C3_6 
REMARK    2  A    between atoms: C3_6  and  C4_7 
REMARK    3  A    between atoms: C3_6  and  C16_25 
REMARK       I    between atoms: C4_7  and  N2_9 
REMARK    4  A    between atoms: N2_9  and  C5_10 
REMARK    5  A    between atoms: C5_10  and  C6_11 
REMARK    6  A    between atoms: C5_10  and  C10_15 
REMARK    7  A    between atoms: C6_11  and  C7_12 
REMARK       I    between atoms: C10_15  and  N3_17 
REMARK    8  A    between atoms: C14_21  and  C15_22 
ROOT
HETATM    1  C4  UNL     1       1.048   0.707   0.805  1.00  0.00     0.310 C 
HETATM    2  O2  UNL     1       1.437   0.966   2.005  1.00  0.00    -0.255 OA
HETATM    3  N2  UNL     1      -0.259   0.678   0.444  1.00  0.00    -0.398 NA
ENDROOT
BRANCH   3   4
HETATM    4  C5  UNL     1      -1.597   0.649   0.076  1.00  0.00     0.259 C 
BRANCH   4   5
HETATM    5  C6  UNL     1      -2.140   2.099  -0.143  1.00  0.00     0.053 C 
BRANCH   5   6
HETATM    6  C7  UNL     1      -2.076   2.932   1.088  1.00  0.00    -0.019 C 
HETATM    7  C8  UNL     1      -2.899   2.383   2.219  1.00  0.00     0.009 C 
HETATM    8  C9  UNL     1      -2.581   4.320   0.766  1.00  0.00     0.009 C 
ENDBRANCH   5   6
ENDBRANCH   4   5
BRANCH   4   9
HETATM    9  C10 UNL     1      -1.787   0.049  -1.274  1.00  0.00     0.256 C 
HETATM   10  O3  UNL     1      -0.884   0.122  -2.174  1.00  0.00    -0.270 OA
HETATM   11  N3  UNL     1      -2.967  -0.633  -1.672  1.00  0.00    -0.335 N 
HETATM   12  C11 UNL     1      -3.333  -1.153  -2.977  1.00  0.00     0.127 C 
HETATM   13  C14 UNL     1      -4.032  -0.978  -0.729  1.00  0.00     0.188 C 
HETATM   14  C12 UNL     1      -4.659  -1.852  -2.838  1.00  0.00     0.022 C 
HETATM   15  C13 UNL     1      -5.254  -1.198  -1.603  1.00  0.00     0.038 C 
BRANCH  13  16
HETATM   16  C15 UNL     1      -3.654  -2.235  -0.028  1.00  0.00     0.196 C 
HETATM   17  O4  UNL     1      -2.621  -2.848  -0.375  1.00  0.00    -0.646 OA
HETATM   18  O5  UNL     1      -4.428  -2.719   0.994  1.00  0.00    -0.646 OA
ENDBRANCH  13  16
ENDBRANCH   4   9
ENDBRANCH   3   4
BRANCH   1  19
HETATM   19  C3  UNL     1       2.175   0.443  -0.168  1.00  0.00     0.195 C 
BRANCH  19  20
HETATM   20  N1  UNL     1       3.245   1.376  -0.063  1.00  0.00    -0.347 N 
HETATM   21  C2  UNL     1       3.719   1.944  -1.308  1.00  0.00     0.214 C 
HETATM   22  C1  UNL     1       4.829   2.930  -1.259  1.00  0.00     0.117 C 
HETATM   23  O1  UNL     1       3.219   1.628  -2.416  1.00  0.00    -0.274 OA
ATOM     24  H1  UNL     1       3.654   1.630   0.836  1.00  0.00     0.163 HD
ENDBRANCH  19  20
BRANCH  19  25
HETATM   25  C16 UNL     1       2.794  -0.954   0.076  1.00  0.00     0.022 C 
HETATM   26  C17 UNL     1       1.754  -1.987  -0.005  1.00  0.00     0.007 C 
HETATM   27  C18 UNL     1       1.931  -3.167   0.887  1.00  0.00     0.000 C 
HETATM   28  C19 UNL     1       3.391  -3.389   1.236  1.00  0.00     0.000 C 
HETATM   29  C20 UNL     1       3.815  -2.178   1.991  1.00  0.00     0.005 C 
HETATM   30  C21 UNL     1       3.787  -0.930   1.164  1.00  0.00    -0.012 C 
HETATM   31  C22 UNL     1       5.221  -0.774   0.611  1.00  0.00     0.010 C 
ENDBRANCH  19  25
ENDBRANCH   1  19
TORSDOF 8
