REMARK  10 active torsions:
REMARK  status: ('A' for Active; 'I' for Inactive)
REMARK    1  A    between atoms: C2_2  and  C3_4 
REMARK    2  A    between atoms: C3_4  and  C4_5 
REMARK    3  A    between atoms: C4_5  and  N1_6 
REMARK    4  A    between atoms: C4_5  and  C7_11 
REMARK       I    between atoms: N1_6  and  C5_8 
REMARK       I    between atoms: C7_11  and  N2_13 
REMARK    5  A    between atoms: N2_13  and  C8_15 
REMARK    6  A    between atoms: C8_15  and  C9_16 
REMARK    7  A    between atoms: C8_15  and  C22_31 
REMARK       I    between atoms: C9_16  and  N3_18 
REMARK    8  A    between atoms: C14_23  and  C15_24 
REMARK    9  A    between atoms: C15_24  and  C16_25 
REMARK   10  A    between atoms: C22_31  and  N4_33 
ROOT
HETATM    1  C8  UNL     1       1.340  -1.329  -1.353  1.00  0.00     0.206 C 
ENDROOT
BRANCH   1   2
HETATM    2  N2  UNL     1       2.317  -0.224  -1.304  1.00  0.00    -0.344 N 
HETATM    3  C7  UNL     1       3.434  -0.257  -0.460  1.00  0.00     0.241 C 
HETATM    4  O3  UNL     1       3.600  -1.270   0.271  1.00  0.00    -0.271 OA
ATOM      5  H2  UNL     1       2.174   0.589  -1.903  1.00  0.00     0.163 HD
BRANCH   3   6
HETATM    6  C4  UNL     1       4.438   0.827  -0.370  1.00  0.00     0.183 C 
BRANCH   6   7
HETATM    7  C3  UNL     1       3.789   2.148  -0.052  1.00  0.00     0.112 C 
BRANCH   7   8
HETATM    8  C2  UNL     1       3.134   2.210   1.266  1.00  0.00     0.125 C 
HETATM    9  C1  UNL     1       2.496   3.463   1.735  1.00  0.00     0.091 C 
HETATM   10  O1  UNL     1       3.114   1.235   1.976  1.00  0.00    -0.298 OA
ENDBRANCH   7   8
ENDBRANCH   6   7
BRANCH   6  11
HETATM   11  N1  UNL     1       5.490   0.484   0.584  1.00  0.00    -0.348 N 
HETATM   12  C5  UNL     1       6.858   0.488   0.211  1.00  0.00     0.214 C 
HETATM   13  C6  UNL     1       7.902   0.132   1.198  1.00  0.00     0.117 C 
HETATM   14  O2  UNL     1       7.196   0.791  -0.956  1.00  0.00    -0.274 OA
ATOM     15  H1  UNL     1       5.235   0.236   1.540  1.00  0.00     0.163 HD
ENDBRANCH   6  11
ENDBRANCH   3   6
ENDBRANCH   1   2
BRANCH   1  16
HETATM   16  C9  UNL     1      -0.019  -0.813  -1.132  1.00  0.00     0.245 C 
HETATM   17  O4  UNL     1      -0.233   0.368  -1.536  1.00  0.00    -0.271 OA
HETATM   18  N3  UNL     1      -1.086  -1.514  -0.516  1.00  0.00    -0.345 N 
HETATM   19  C10 UNL     1      -1.143  -2.835   0.068  1.00  0.00     0.127 C 
HETATM   20  C14 UNL     1      -2.456  -1.003  -0.344  1.00  0.00     0.091 C 
HETATM   21  C11 UNL     1      -2.458  -3.323  -0.563  1.00  0.00     0.026 C 
HETATM   22  C12 UNL     1      -3.345  -2.152  -0.094  1.00  0.00     0.006 C 
HETATM   23  C13 UNL     1      -3.664  -2.448   1.335  1.00  0.00     0.012 C 
BRANCH  20  24
HETATM   24  C15 UNL     1      -2.421   0.077   0.660  1.00  0.00     0.030 C 
BRANCH  24  25
HETATM   25  C16 UNL     1      -3.747   0.717   0.949  1.00  0.00    -0.013 C 
HETATM   26  C17 UNL     1      -3.498   1.796   1.995  1.00  0.00     0.005 C 
HETATM   27  C18 UNL     1      -4.682   2.663   2.247  1.00  0.00     0.000 C 
HETATM   28  C19 UNL     1      -5.438   3.071   1.011  1.00  0.00     0.000 C 
HETATM   29  C20 UNL     1      -5.644   1.934   0.045  1.00  0.00     0.000 C 
HETATM   30  C21 UNL     1      -4.263   1.416  -0.317  1.00  0.00     0.005 C 
ENDBRANCH  24  25
ENDBRANCH  20  24
ENDBRANCH   1  16
BRANCH   1  31
HETATM   31  C22 UNL     1       1.452  -1.945  -2.753  1.00  0.00     0.211 C 
HETATM   32  C23 UNL     1       2.836  -2.466  -2.994  1.00  0.00     0.042 C 
BRANCH  31  33
HETATM   33  N4  UNL     1       0.503  -2.993  -2.945  1.00  0.00    -0.073 N 
ATOM     34  H43 UNL     1       0.582  -3.704  -2.218  1.00  0.00     0.274 HD
ATOM     35  H42 UNL     1      -0.447  -2.675  -2.753  1.00  0.00     0.274 HD
ATOM     36  H41 UNL     1       0.577  -3.403  -3.876  1.00  0.00     0.274 HD
ENDBRANCH  31  33
ENDBRANCH   1  31
TORSDOF 10
