REMARK  9 active torsions:
REMARK  status: ('A' for Active; 'I' for Inactive)
REMARK    1  A    between atoms: C2_2  and  C3_3 
REMARK    2  A    between atoms: C3_3  and  N1_5 
REMARK       I    between atoms: N1_5  and  C5_7 
REMARK    3  A    between atoms: C5_7  and  C6_9 
REMARK    4  A    between atoms: C9_12  and  C10_13 
REMARK       I    between atoms: C10_13  and  N2_15 
REMARK    5  A    between atoms: N2_15  and  C11_17 
REMARK       I    between atoms: N3_23  and  C17_24 
REMARK    6  A    between atoms: C17_24  and  C18_26 
REMARK    7  A    between atoms: C18_26  and  C19_27 
REMARK    8  A    between atoms: C18_26  and  N4_31 
REMARK    9  A    between atoms: C19_27  and  C20_28 
ROOT
HETATM    1  C6  UNL     1      -1.111  -0.496   0.691  1.00  0.00     0.180 C 
HETATM    2  C7  UNL     1      -0.795  -1.948   0.785  1.00  0.00     0.037 C 
HETATM    3  C8  UNL     1       0.401  -2.030   1.673  1.00  0.00     0.037 C 
HETATM    4  C9  UNL     1       1.078  -0.701   1.450  1.00  0.00     0.180 C 
HETATM    5  N3  UNL     1       0.018   0.235   1.148  1.00  0.00    -0.323 N 
HETATM    6  C17 UNL     1       0.170   1.642   1.367  1.00  0.00     0.243 C 
HETATM    7  O3  UNL     1       1.358   2.001   1.714  1.00  0.00    -0.271 OA
ENDROOT
BRANCH   4   8
HETATM    8  C10 UNL     1       2.121  -0.844   0.458  1.00  0.00     0.241 C 
HETATM    9  O2  UNL     1       2.135  -0.085  -0.555  1.00  0.00    -0.271 OA
HETATM   10  N2  UNL     1       3.174  -1.794   0.513  1.00  0.00    -0.355 N 
ATOM     11  H2  UNL     1       3.185  -2.423   1.316  1.00  0.00     0.162 HD
BRANCH  10  12
HETATM   12  C11 UNL     1       4.213  -1.954  -0.441  1.00  0.00     0.084 C 
HETATM   13  C12 UNL     1       4.177  -3.321  -1.107  1.00  0.00     0.025 C 
HETATM   14  C13 UNL     1       5.401  -4.123  -0.769  1.00  0.00     0.002 C 
HETATM   15  C14 UNL     1       6.624  -3.416  -1.318  1.00  0.00     0.000 C 
HETATM   16  C15 UNL     1       6.608  -1.954  -0.952  1.00  0.00     0.002 C 
HETATM   17  C16 UNL     1       5.592  -1.735   0.147  1.00  0.00     0.025 C 
ENDBRANCH  10  12
ENDBRANCH   4   8
BRANCH   1  18
HETATM   18  C5  UNL     1      -1.597  -0.145  -0.671  1.00  0.00     0.241 C 
HETATM   19  N1  UNL     1      -2.835  -0.682  -1.100  1.00  0.00    -0.355 N 
ATOM     20  H1  UNL     1      -3.342  -1.287  -0.453  1.00  0.00     0.162 HD
HETATM   21  O1  UNL     1      -1.000   0.588  -1.471  1.00  0.00    -0.271 OA
BRANCH  19  22
HETATM   22  C3  UNL     1      -3.423  -0.432  -2.383  1.00  0.00     0.080 C 
HETATM   23  C4  UNL     1      -4.805   0.184  -2.294  1.00  0.00     0.032 C 
BRANCH  22  24
HETATM   24  C2  UNL     1      -3.561  -1.743  -3.115  1.00  0.00     0.020 C 
HETATM   25  C1  UNL     1      -4.119  -1.548  -4.511  1.00  0.00     0.007 C 
ENDBRANCH  22  24
ENDBRANCH  19  22
ENDBRANCH   1  18
BRANCH   6  26
HETATM   26  C18 UNL     1      -0.802   2.703   1.257  1.00  0.00     0.169 C 
BRANCH  26  27
HETATM   27  C19 UNL     1      -1.946   2.638   2.281  1.00  0.00     0.038 C 
BRANCH  27  28
HETATM   28  C20 UNL     1      -2.825   3.860   1.950  1.00  0.00    -0.020 C 
HETATM   29  C21 UNL     1      -3.344   3.762   0.536  1.00  0.00     0.009 C 
HETATM   30  C22 UNL     1      -3.982   3.876   2.902  1.00  0.00     0.009 C 
ENDBRANCH  27  28
ENDBRANCH  26  27
BRANCH  26  31
HETATM   31  N4  UNL     1      -0.232   4.029   1.460  1.00  0.00    -0.413 N 
HETATM   32  C23 UNL     1       0.336   4.264   2.736  1.00  0.00     0.140 C 
ATOM     33  H4  UNL     1      -0.242   4.742   0.730  1.00  0.00     0.153 HD
ENDBRANCH  26  31
ENDBRANCH   6  26
TORSDOF 9
