REMARK  10 active torsions:
REMARK  status: ('A' for Active; 'I' for Inactive)
REMARK       I    between atoms: C1_2  and  N1_3 
REMARK       I    between atoms: C1_2  and  N4_26 
REMARK    1  A    between atoms: N1_3  and  C2_5 
REMARK    2  A    between atoms: C2_5  and  C3_6 
REMARK    3  A    between atoms: C3_6  and  C4_7 
REMARK    4  A    between atoms: C4_7  and  C5_8 
REMARK    5  A    between atoms: C5_8  and  C6_9 
REMARK    6  A    between atoms: C6_9  and  N2_10 
REMARK    7  A    between atoms: C6_9  and  N3_20 
REMARK    8  A    between atoms: N2_10  and  S1_12 
REMARK    9  A    between atoms: S1_12  and  C7_15 
REMARK   10  A    between atoms: N4_26  and  C17_28 
ROOT
HETATM    1  C4  UNL     1       1.252   1.112  -0.371  1.00  0.00     0.005 C 
ENDROOT
BRANCH   1   2
HETATM    2  C3  UNL     1      -0.084   0.824   0.284  1.00  0.00     0.020 C 
BRANCH   2   3
HETATM    3  C2  UNL     1      -0.163  -0.569   0.773  1.00  0.00     0.124 C 
BRANCH   3   4
HETATM    4  N1  UNL     1      -1.448  -0.823   1.375  1.00  0.00    -0.343 N 
HETATM    5  C1  UNL     1      -2.632  -0.739   0.615  1.00  0.00     0.316 C 
HETATM    6  O1  UNL     1      -2.661  -0.460  -0.605  1.00  0.00    -0.247 OA
HETATM    7  N4  UNL     1      -3.880  -0.981   1.252  1.00  0.00    -0.334 N 
ATOM      8  H4  UNL     1      -3.878  -1.210   2.246  1.00  0.00     0.165 HD
ATOM      9  H1  UNL     1      -1.501  -1.067   2.364  1.00  0.00     0.164 HD
BRANCH   7  10
HETATM   10  C17 UNL     1      -5.141  -0.920   0.572  1.00  0.00     0.035 C 
HETATM   11  C18 UNL     1      -6.199  -1.256   1.625  1.00  0.00     0.035 C 
HETATM   12  C19 UNL     1      -7.566  -1.253   1.040  1.00  0.00    -0.012 C 
HETATM   13  C20 UNL     1      -7.849   0.136   0.506  1.00  0.00     0.009 C 
HETATM   14  C24 UNL     1      -7.654  -2.236  -0.079  1.00  0.00     0.009 C 
HETATM   15  C21 UNL     1      -6.846   0.474  -0.548  1.00  0.00    -0.012 C 
HETATM   16  C22 UNL     1      -6.874  -0.515  -1.694  1.00  0.00     0.009 C 
HETATM   17  C26 UNL     1      -5.419   0.446  -0.000  1.00  0.00     0.035 C 
HETATM   18  C23 UNL     1      -6.637  -1.878  -1.133  1.00  0.00    -0.012 C 
HETATM   19  C25 UNL     1      -5.254  -1.954  -0.509  1.00  0.00     0.035 C 
ENDBRANCH   7  10
ENDBRANCH   3   4
ENDBRANCH   2   3
ENDBRANCH   1   2
BRANCH   1  20
HETATM   20  C5  UNL     1       2.393   0.940   0.559  1.00  0.00     0.048 C 
BRANCH  20  21
HETATM   21  C6  UNL     1       3.752   1.223  -0.009  1.00  0.00     0.197 C 
BRANCH  21  22
HETATM   22  N2  UNL     1       4.009   0.330  -1.099  1.00  0.00    -0.297 N 
ATOM     23  H2  UNL     1       3.466   0.343  -1.962  1.00  0.00     0.174 HD
BRANCH  22  24
HETATM   24  S1  UNL     1       5.297  -0.757  -0.836  1.00  0.00     0.232 S 
HETATM   25  O2  UNL     1       6.571   0.032  -0.737  1.00  0.00    -0.206 OA
HETATM   26  O3  UNL     1       5.423  -1.604  -2.096  1.00  0.00    -0.206 OA
BRANCH  24  27
HETATM   27  C7  UNL     1       5.082  -1.857   0.510  1.00  0.00     0.129 C 
HETATM   28  C8  UNL     1       6.317  -2.769   0.533  1.00  0.00     0.022 C 
HETATM   29  C9  UNL     1       5.947  -3.972  -0.267  1.00  0.00     0.001 C 
HETATM   30  C10 UNL     1       4.468  -4.148  -0.021  1.00  0.00     0.001 C 
HETATM   31  C11 UNL     1       3.916  -2.798   0.315  1.00  0.00     0.022 C 
ENDBRANCH  24  27
ENDBRANCH  22  24
ENDBRANCH  21  22
BRANCH  21  32
HETATM   32  N3  UNL     1       3.993   2.582  -0.313  1.00  0.00    -0.352 N 
HETATM   33  C12 UNL     1       3.954   3.482   0.766  1.00  0.00     0.065 C 
HETATM   34  C13 UNL     1       4.888   4.655   0.598  1.00  0.00     0.045 C 
HETATM   35  C14 UNL     1       4.830   5.113  -0.835  1.00  0.00     0.010 C 
HETATM   36  C15 UNL     1       3.602   4.567  -1.572  1.00  0.00     0.045 C 
HETATM   37  C16 UNL     1       3.752   3.050  -1.615  1.00  0.00     0.065 C 
ENDBRANCH  21  32
ENDBRANCH  20  21
ENDBRANCH   1  20
TORSDOF 10
