REMARK  10 active torsions:
REMARK  status: ('A' for Active; 'I' for Inactive)
REMARK    1  A    between atoms: C3_3  and  C6_6 
REMARK    2  A    between atoms: C6_6  and  C7_7 
REMARK    3  A    between atoms: C7_7  and  C8_8 
REMARK    4  A    between atoms: C7_7  and  C19_25 
REMARK       I    between atoms: C8_8  and  N1_10 
REMARK    5  A    between atoms: N1_10  and  C9_12 
REMARK    6  A    between atoms: C9_12  and  C10_13 
REMARK    7  A    between atoms: C9_12  and  C17_20 
REMARK    8  A    between atoms: C10_13  and  C11_14 
REMARK    9  A    between atoms: C17_20  and  C18_22 
REMARK       I    between atoms: C19_25  and  N3_27 
REMARK   10  A    between atoms: N3_27  and  C20_29 
ROOT
HETATM    1  C1  UNL     1      -2.438  -6.510   2.299  1.00  0.00     0.013 C 
HETATM    2  C2  UNL     1      -1.712  -5.770   1.682  1.00  0.00    -0.108 C 
HETATM    3  C3  UNL     1      -0.825  -4.853   0.893  1.00  0.00     0.017 C 
HETATM    4  C4  UNL     1       0.434  -4.766   1.722  1.00  0.00     0.029 C 
HETATM    5  C5  UNL     1      -0.586  -5.577  -0.408  1.00  0.00     0.029 C 
ENDROOT
BRANCH   3   6
HETATM    6  C6  UNL     1      -1.524  -3.585   0.799  1.00  0.00     0.045 C 
BRANCH   6   7
HETATM    7  C7  UNL     1      -1.009  -2.413   0.095  1.00  0.00     0.171 C 
BRANCH   7   8
HETATM    8  C8  UNL     1       0.234  -1.783   0.526  1.00  0.00     0.231 C 
HETATM    9  O1  UNL     1       0.644  -1.677   1.710  1.00  0.00    -0.273 OA
HETATM   10  N1  UNL     1       1.101  -1.213  -0.451  1.00  0.00    -0.348 N 
ATOM     11  H1  UNL     1       0.827  -1.264  -1.432  1.00  0.00     0.163 HD
BRANCH  10  12
HETATM   12  C9  UNL     1       2.374  -0.554  -0.111  1.00  0.00     0.164 C 
BRANCH  12  13
HETATM   13  C10 UNL     1       2.250   0.846  -0.680  1.00  0.00     0.038 C 
BRANCH  13  14
HETATM   14  C11 UNL     1       3.435   1.669  -0.401  1.00  0.00    -0.012 C 
HETATM   15  C12 UNL     1       3.719   1.897   1.073  1.00  0.00     0.005 C 
HETATM   16  C13 UNL     1       5.123   2.380   1.172  1.00  0.00     0.000 C 
HETATM   17  C14 UNL     1       5.654   3.135   0.030  1.00  0.00     0.000 C 
HETATM   18  C15 UNL     1       4.692   3.727  -0.926  1.00  0.00     0.000 C 
HETATM   19  C16 UNL     1       3.349   3.061  -0.990  1.00  0.00     0.005 C 
ENDBRANCH  13  14
ENDBRANCH  12  13
BRANCH  12  20
HETATM   20  C17 UNL     1       3.473  -1.232  -0.836  1.00  0.00     0.236 C 
HETATM   21  O2  UNL     1       3.195  -1.569  -2.034  1.00  0.00    -0.285 OA
BRANCH  20  22
HETATM   22  C18 UNL     1       4.783  -1.537  -0.322  1.00  0.00     0.302 C 
HETATM   23  N2  UNL     1       5.756  -2.157  -1.173  1.00  0.00    -0.054 NA
HETATM   24  O3  UNL     1       5.171  -1.305   0.838  1.00  0.00    -0.268 OA
ENDBRANCH  20  22
ENDBRANCH  12  20
ENDBRANCH  10  12
ENDBRANCH   7   8
BRANCH   7  25
HETATM   25  C19 UNL     1      -2.071  -1.340   0.226  1.00  0.00     0.231 C 
HETATM   26  O4  UNL     1      -3.088  -1.623   0.899  1.00  0.00    -0.273 OA
HETATM   27  N3  UNL     1      -1.923  -0.064  -0.386  1.00  0.00    -0.351 N 
ATOM     28  H3  UNL     1      -1.080   0.129  -0.926  1.00  0.00     0.163 HD
BRANCH  27  29
HETATM   29  C20 UNL     1      -2.923   0.962  -0.268  1.00  0.00     0.034 C 
HETATM   30  C21 UNL     1      -3.202   1.388   1.144  1.00  0.00     0.035 C 
HETATM   31  C22 UNL     1      -4.249   2.488   1.100  1.00  0.00    -0.012 C 
HETATM   32  C23 UNL     1      -5.511   2.026   0.445  1.00  0.00     0.009 C 
HETATM   33  C27 UNL     1      -3.749   3.703   0.371  1.00  0.00     0.009 C 
HETATM   34  C24 UNL     1      -5.189   1.675  -0.991  1.00  0.00    -0.012 C 
HETATM   35  C25 UNL     1      -4.639   2.852  -1.739  1.00  0.00     0.009 C 
HETATM   36  C29 UNL     1      -4.199   0.531  -0.962  1.00  0.00     0.035 C 
HETATM   37  C26 UNL     1      -3.382   3.316  -1.036  1.00  0.00    -0.012 C 
HETATM   38  C28 UNL     1      -2.394   2.198  -0.993  1.00  0.00     0.035 C 
ENDBRANCH  27  29
ENDBRANCH   7  25
ENDBRANCH   6   7
ENDBRANCH   3   6
TORSDOF 10
