REMARK  12 active torsions:
REMARK  status: ('A' for Active; 'I' for Inactive)
REMARK    1  A    between atoms: C2_2  and  C3_3 
REMARK    2  A    between atoms: C3_3  and  C5_5 
REMARK    3  A    between atoms: C7_10  and  C8_11 
REMARK    4  A    between atoms: C8_11  and  C9_12 
REMARK    5  A    between atoms: C14_19  and  C15_20 
REMARK    6  A    between atoms: C16_21  and  C17_22 
REMARK    7  A    between atoms: C17_22  and  O3_23 
REMARK    8  A    between atoms: C17_22  and  C18_25 
REMARK    9  A    between atoms: C18_25  and  C19_26 
REMARK   10  A    between atoms: C23_30  and  C24_31 
REMARK   11  A    between atoms: C24_31  and  C25_32 
REMARK   12  A    between atoms: C28_37  and  O4_38 
ROOT
HETATM    1  C5  UNL     1      -3.578  -0.703   0.728  1.00  0.00     0.162 C 
HETATM    2  N1  UNL     1      -2.746  -0.041   1.733  1.00  0.00    -0.347 N 
ATOM      3  H1  UNL     1      -2.311  -0.678   2.400  1.00  0.00     0.163 HD
HETATM    4  C6  UNL     1      -2.444   1.290   1.941  1.00  0.00     0.241 C 
HETATM    5  O1  UNL     1      -2.906   1.817   3.021  1.00  0.00    -0.271 OA
HETATM    6  C7  UNL     1      -1.654   2.238   1.112  1.00  0.00     0.179 C 
HETATM    7  N2  UNL     1      -0.266   2.286   1.571  1.00  0.00    -0.342 N 
HETATM    8  C12 UNL     1       0.228   3.624   1.999  1.00  0.00     0.153 C 
HETATM    9  C13 UNL     1       0.634   1.226   1.676  1.00  0.00     0.228 C 
HETATM   10  O2  UNL     1       1.207   1.024   2.808  1.00  0.00    -0.273 OA
HETATM   11  C14 UNL     1       1.073   0.230   0.640  1.00  0.00     0.102 C 
HETATM   12  C22 UNL     1       0.578  -1.152   0.935  1.00  0.00     0.043 C 
HETATM   13  C23 UNL     1      -0.273  -1.718  -0.212  1.00  0.00     0.084 C 
HETATM   14  N3  UNL     1      -1.538  -2.233   0.155  1.00  0.00    -0.368 N 
ATOM     15  H3  UNL     1      -1.491  -3.132   0.634  1.00  0.00     0.161 HD
HETATM   16  C28 UNL     1      -2.851  -1.749  -0.010  1.00  0.00     0.135 C 
ENDROOT
BRANCH  11  17
HETATM   17  C15 UNL     1       2.524   0.288   0.464  1.00  0.00    -0.014 C 
HETATM   18  C16 UNL     1       3.350  -0.702   0.548  1.00  0.00     0.001 C 
BRANCH  18  19
HETATM   19  C17 UNL     1       4.849  -0.505   0.342  1.00  0.00     0.141 C 
BRANCH  19  20
HETATM   20  O3  UNL     1       5.480  -0.977   1.493  1.00  0.00    -0.392 OA
ATOM     21  H3  UNL     1       6.413  -0.854   1.365  1.00  0.00     0.210 HD
ENDBRANCH  19  20
BRANCH  19  22
HETATM   22  C18 UNL     1       5.170   0.921   0.050  1.00  0.00     0.039 C 
BRANCH  22  23
HETATM   23  C19 UNL     1       6.682   1.000  -0.135  1.00  0.00    -0.020 C 
HETATM   24  C20 UNL     1       7.140   0.128  -1.270  1.00  0.00     0.009 C 
HETATM   25  C21 UNL     1       7.002   2.473  -0.395  1.00  0.00     0.009 C 
ENDBRANCH  22  23
ENDBRANCH  19  22
ENDBRANCH  18  19
ENDBRANCH  11  17
BRANCH  13  26
HETATM   26  C24 UNL     1       0.584  -2.743  -0.938  1.00  0.00     0.029 C 
BRANCH  26  27
HETATM   27  C25 UNL     1      -0.124  -3.388  -2.088  1.00  0.00    -0.021 C 
HETATM   28  C26 UNL     1      -0.535  -2.365  -3.123  1.00  0.00     0.009 C 
HETATM   29  C27 UNL     1       0.778  -4.385  -2.783  1.00  0.00     0.009 C 
ENDBRANCH  26  27
ENDBRANCH  13  26
BRANCH   6  30
HETATM   30  C8  UNL     1      -1.832   2.052  -0.349  1.00  0.00     0.039 C 
BRANCH  30  31
HETATM   31  C9  UNL     1      -1.052   2.996  -1.229  1.00  0.00    -0.020 C 
HETATM   32  C10 UNL     1      -1.476   4.401  -0.955  1.00  0.00     0.009 C 
HETATM   33  C11 UNL     1      -1.344   2.642  -2.685  1.00  0.00     0.009 C 
ENDBRANCH  30  31
ENDBRANCH   6  30
BRANCH  16  34
HETATM   34  O4  UNL     1      -3.591  -2.269  -0.952  1.00  0.00    -0.348 OA
ATOM     35  H4  UNL     1      -3.122  -2.944  -1.428  1.00  0.00     0.219 HD
ENDBRANCH  16  34
BRANCH   1  36
HETATM   36  C3  UNL     1      -4.696  -1.361   1.553  1.00  0.00     0.012 C 
HETATM   37  C4  UNL     1      -5.407  -0.205   2.318  1.00  0.00     0.012 C 
BRANCH  36  38
HETATM   38  C2  UNL     1      -5.720  -2.109   0.795  1.00  0.00     0.002 C 
HETATM   39  C1  UNL     1      -6.795  -2.656   1.775  1.00  0.00     0.005 C 
ENDBRANCH  36  38
ENDBRANCH   1  36
TORSDOF 12
