REMARK  11 active torsions:
REMARK  status: ('A' for Active; 'I' for Inactive)
REMARK    1  A    between atoms: C5_5  and  C6_6 
REMARK    2  A    between atoms: C6_6  and  N1_7 
REMARK       I    between atoms: N1_7  and  C7_9 
REMARK    3  A    between atoms: C7_9  and  C8_11 
REMARK    4  A    between atoms: C8_11  and  C9_12 
REMARK    5  A    between atoms: C8_11  and  N2_16 
REMARK    6  A    between atoms: C9_12  and  C10_13 
REMARK    7  A    between atoms: N2_16  and  C13_18 
REMARK    8  A    between atoms: C13_18  and  C14_20 
REMARK    9  A    between atoms: N3_23  and  C17_24 
REMARK   10  A    between atoms: C17_24  and  C18_25 
REMARK       I    between atoms: C18_25  and  N4_27 
REMARK   11  A    between atoms: N4_27  and  C19_29 
ROOT
HETATM    1  N2  UNL     1      -1.704  -1.745   0.556  1.00  0.00    -0.371 N 
ATOM      2  H2  UNL     1      -1.622  -1.608  -0.451  1.00  0.00     0.161 HD
ENDROOT
BRANCH   1   3
HETATM    3  C8  UNL     1      -3.051  -1.911   1.128  1.00  0.00     0.174 C 
BRANCH   3   4
HETATM    4  C7  UNL     1      -4.020  -1.499   0.032  1.00  0.00     0.240 C 
HETATM    5  N1  UNL     1      -5.382  -1.315   0.230  1.00  0.00    -0.359 N 
ATOM      6  H1  UNL     1      -5.699  -1.495   1.183  1.00  0.00     0.162 HD
HETATM    7  O1  UNL     1      -3.529  -1.312  -1.134  1.00  0.00    -0.271 OA
BRANCH   5   8
HETATM    8  C6  UNL     1      -6.405  -0.921  -0.662  1.00  0.00     0.127 C 
BRANCH   8   9
HETATM    9  C5  UNL     1      -6.359   0.450  -1.165  1.00  0.00     0.003 C 
HETATM   10  C4  UNL     1      -6.399   1.433   0.005  1.00  0.00     0.006 C 
HETATM   11  C3  UNL     1      -5.750   2.706  -0.431  1.00  0.00     0.005 C 
HETATM   12  C2  UNL     1      -6.215   3.128  -1.785  1.00  0.00    -0.019 C 
HETATM   13  C1  UNL     1      -7.688   3.503  -1.695  1.00  0.00     0.010 C 
HETATM   14  C28 UNL     1      -5.951   2.118  -2.872  1.00  0.00     0.005 C 
HETATM   15  C27 UNL     1      -5.356   0.876  -2.162  1.00  0.00     0.006 C 
ENDBRANCH   8   9
ENDBRANCH   5   8
ENDBRANCH   3   4
BRANCH   3  16
HETATM   16  C9  UNL     1      -3.244  -3.354   1.451  1.00  0.00     0.039 C 
BRANCH  16  17
HETATM   17  C10 UNL     1      -4.492  -3.858   1.994  1.00  0.00    -0.012 A 
HETATM   18  C11 UNL     1      -5.122  -3.502   3.271  1.00  0.00     0.005 A 
HETATM   19  C12 UNL     1      -4.384  -4.805   3.208  1.00  0.00     0.005 A 
ENDBRANCH  16  17
ENDBRANCH   3  16
ENDBRANCH   1   3
BRANCH   1  20
HETATM   20  C13 UNL     1      -0.516  -1.765   1.326  1.00  0.00     0.078 C 
HETATM   21  S1  UNL     1      -0.606  -1.935   2.938  1.00  0.00    -0.065 SA
BRANCH  20  22
HETATM   22  C14 UNL     1       0.829  -1.604   0.678  1.00  0.00     0.050 C 
HETATM   23  C15 UNL     1       1.934  -1.648   1.680  1.00  0.00     0.042 C 
HETATM   24  C16 UNL     1       3.003  -0.601   1.408  1.00  0.00     0.273 C 
HETATM   25  N3  UNL     1       3.340  -0.509   0.028  1.00  0.00     0.097 N 
HETATM   26  C25 UNL     1       2.189  -0.250  -0.817  1.00  0.00     0.273 C 
HETATM   27  C26 UNL     1       0.895  -0.286  -0.068  1.00  0.00     0.042 C 
BRANCH  25  28
HETATM   28  C17 UNL     1       4.377   0.397  -0.316  1.00  0.00     0.374 C 
BRANCH  28  29
HETATM   29  C18 UNL     1       5.731   0.033   0.129  1.00  0.00     0.246 C 
HETATM   30  O2  UNL     1       5.987  -1.028   0.780  1.00  0.00    -0.272 OA
HETATM   31  N4  UNL     1       6.783   0.930  -0.199  1.00  0.00    -0.355 N 
ATOM     32  H4  UNL     1       6.591   1.785  -0.722  1.00  0.00     0.162 HD
BRANCH  31  33
HETATM   33  C19 UNL     1       8.123   0.615   0.217  1.00  0.00     0.084 C 
HETATM   34  C20 UNL     1       8.953   0.321  -1.013  1.00  0.00     0.025 C 
HETATM   35  C21 UNL     1       9.307   1.555  -1.776  1.00  0.00     0.002 C 
HETATM   36  C22 UNL     1      10.114   2.458  -0.867  1.00  0.00     0.000 C 
HETATM   37  C23 UNL     1       9.239   2.859   0.289  1.00  0.00     0.002 C 
HETATM   38  C24 UNL     1       8.739   1.679   1.081  1.00  0.00     0.025 C 
ENDBRANCH  31  33
ENDBRANCH  28  29
ENDBRANCH  25  28
ENDBRANCH  20  22
ENDBRANCH   1  20
TORSDOF 11
