REMARK  10 active torsions:
REMARK  status: ('A' for Active; 'I' for Inactive)
REMARK    1  A    between atoms: C2_2  and  C3_3 
REMARK    2  A    between atoms: C3_3  and  N1_5 
REMARK    3  A    between atoms: C7_8  and  C8_9 
REMARK    4  A    between atoms: C8_9  and  C9_10 
REMARK    5  A    between atoms: C12_13  and  N2_14 
REMARK    6  A    between atoms: N2_14  and  S1_16 
REMARK    7  A    between atoms: C15_21  and  C16_22 
REMARK    8  A    between atoms: C15_21  and  C24_30 
REMARK    9  A    between atoms: C16_22  and  C17_23 
REMARK   10  A    between atoms: C17_23  and  C18_24 
REMARK       I    between atoms: C24_30  and  N3_32 
ROOT
HETATM    1  C9  UNL     1      -0.083   0.696  -0.300  1.00  0.00     0.004 C 
HETATM    2  C10 UNL     1       0.598   2.031  -0.436  1.00  0.00     0.008 C 
HETATM    3  C11 UNL     1      -0.291   3.224  -0.484  1.00  0.00     0.026 C 
HETATM    4  C12 UNL     1      -1.456   3.251   0.433  1.00  0.00     0.094 C 
HETATM    5  C14 UNL     1      -1.699   1.918   1.043  1.00  0.00     0.045 C 
HETATM    6  C15 UNL     1      -1.502   0.778   0.091  1.00  0.00     0.046 C 
ENDROOT
BRANCH   6   7
HETATM    7  C16 UNL     1      -2.087  -0.473   0.707  1.00  0.00     0.020 C 
BRANCH   7   8
HETATM    8  C17 UNL     1      -2.060  -1.645  -0.245  1.00  0.00     0.006 C 
BRANCH   8   9
HETATM    9  C18 UNL     1      -2.623  -2.878   0.432  1.00  0.00    -0.014 C 
HETATM   10  C19 UNL     1      -4.027  -2.758   0.896  1.00  0.00     0.004 C 
HETATM   11  C20 UNL     1      -5.044  -2.775  -0.212  1.00  0.00     0.000 C 
HETATM   12  C21 UNL     1      -4.612  -3.578  -1.396  1.00  0.00     0.000 C 
HETATM   13  C22 UNL     1      -3.714  -4.675  -0.933  1.00  0.00     0.000 C 
HETATM   14  C23 UNL     1      -2.406  -4.108  -0.436  1.00  0.00     0.004 C 
ENDBRANCH   8   9
ENDBRANCH   7   8
ENDBRANCH   6   7
BRANCH   6  15
HETATM   15  C24 UNL     1      -2.340   1.047  -1.137  1.00  0.00     0.226 C 
HETATM   16  O3  UNL     1      -1.812   0.920  -2.267  1.00  0.00    -0.273 OA
HETATM   17  N3  UNL     1      -3.707   1.435  -0.990  1.00  0.00    -0.365 N 
HETATM   18  C25 UNL     1      -4.485   1.682  -2.169  1.00  0.00     0.149 C 
ATOM     19  H3  UNL     1      -4.122   1.534  -0.064  1.00  0.00     0.161 HD
ENDBRANCH   6  15
BRANCH   1  20
HETATM   20  C8  UNL     1       0.718  -0.089   0.730  1.00  0.00     0.011 C 
BRANCH  20  21
HETATM   21  C7  UNL     1       2.136  -0.314   0.333  1.00  0.00     0.003 C 
HETATM   22  C6  UNL     1       2.773  -1.112   1.485  1.00  0.00     0.022 C 
HETATM   23  C5  UNL     1       4.041  -1.800   0.978  1.00  0.00     0.110 C 
HETATM   24  N1  UNL     1       4.518  -0.983  -0.119  1.00  0.00    -0.231 NA
HETATM   25  N4  UNL     1       3.709  -1.204  -1.213  1.00  0.00    -0.164 NA
HETATM   26  C26 UNL     1       2.298  -1.207  -0.881  1.00  0.00     0.133 C 
BRANCH  24  27
HETATM   27  C3  UNL     1       5.911  -1.137  -0.391  1.00  0.00     0.071 C 
HETATM   28  C4  UNL     1       6.241  -0.198  -1.560  1.00  0.00     0.027 C 
BRANCH  27  29
HETATM   29  C2  UNL     1       6.796  -0.716   0.745  1.00  0.00     0.016 C 
HETATM   30  C1  UNL     1       8.258  -0.856   0.313  1.00  0.00     0.006 C 
ENDBRANCH  27  29
ENDBRANCH  24  27
ENDBRANCH  20  21
ENDBRANCH   1  20
BRANCH   4  31
HETATM   31  N2  UNL     1      -1.245   4.179   1.557  1.00  0.00    -0.315 N 
ATOM     32  H2  UNL     1      -0.500   4.090   2.248  1.00  0.00     0.172 HD
BRANCH  31  33
HETATM   33  S1  UNL     1      -2.437   5.447   1.548  1.00  0.00     0.223 S 
HETATM   34  C13 UNL     1      -2.326   6.408   0.060  1.00  0.00     0.185 C 
HETATM   35  O1  UNL     1      -3.832   4.837   1.556  1.00  0.00    -0.206 OA
HETATM   36  O2  UNL     1      -2.332   6.279   2.782  1.00  0.00    -0.206 OA
ENDBRANCH  31  33
ENDBRANCH   4  31
TORSDOF 10
