REMARK  6 active torsions:
REMARK  status: ('A' for Active; 'I' for Inactive)
REMARK    1  A    between atoms: O1_2  and  C2_3 
REMARK    2  A    between atoms: C2_3  and  N1_4 
REMARK    3  A    between atoms: C2_3  and  C3_8 
REMARK    4  A    between atoms: C3_8  and  C4_9 
REMARK    5  A    between atoms: C5_12  and  N3_13 
REMARK    6  A    between atoms: C10_22  and  N5_23 
ROOT
HETATM    1  C4  UNL     1       0.097  -0.624  -0.940  1.00  0.00     0.039 A 
HETATM    2  N2  UNL     1      -0.155  -1.971  -0.868  1.00  0.00    -0.195 N 
ATOM      3  H2  UNL     1       0.514  -2.620  -1.282  1.00  0.00     0.184 HD
HETATM    4  C5  UNL     1      -1.252  -2.464  -0.272  1.00  0.00     0.676 A 
HETATM    5  N4  UNL     1      -2.153  -1.631   0.282  1.00  0.00    -0.190 N 
ATOM      6  H4  UNL     1      -2.982  -2.018   0.733  1.00  0.00     0.184 HD
HETATM    7  C6  UNL     1      -1.980  -0.303   0.252  1.00  0.00     0.079 A 
HETATM    8  C7  UNL     1      -0.830   0.204  -0.375  1.00  0.00    -0.005 A 
HETATM    9  C8  UNL     1      -0.937   1.680  -0.320  1.00  0.00     0.049 C 
HETATM   10  C9  UNL     1      -1.931   1.987   0.795  1.00  0.00     0.063 C 
HETATM   11  C10 UNL     1      -2.787   0.798   0.767  1.00  0.00     0.031 C 
ENDROOT
BRANCH   1  12
HETATM   12  C3  UNL     1       1.359  -0.179  -1.558  1.00  0.00     0.119 C 
BRANCH  12  13
HETATM   13  C2  UNL     1       2.485  -0.070  -0.603  1.00  0.00     0.323 C 
BRANCH  13  14
HETATM   14  O1  UNL     1       2.286   0.794   0.417  1.00  0.00    -0.364 OA
HETATM   15  C1  UNL     1       2.346   0.144   1.635  1.00  0.00     0.204 C 
ENDBRANCH  13  14
BRANCH  13  16
HETATM   16  N1  UNL     1       3.715   0.218  -1.340  1.00  0.00    -0.053 N 
ATOM     17  H13 UNL     1       3.732   1.184  -1.667  1.00  0.00     0.277 HD
ATOM     18  H12 UNL     1       4.521   0.244  -0.716  1.00  0.00     0.277 HD
ATOM     19  H11 UNL     1       3.865  -0.434  -2.110  1.00  0.00     0.277 HD
ENDBRANCH  13  16
ENDBRANCH  12  13
ENDBRANCH   1  12
BRANCH   4  20
HETATM   20  N3  UNL     1      -1.479  -3.735  -0.210  1.00  0.00    -0.234 N 
ATOM     21  H32 UNL     1      -0.796  -4.366  -0.630  1.00  0.00     0.174 HD
ATOM     22  H31 UNL     1      -2.313  -4.110   0.243  1.00  0.00     0.174 HD
ENDBRANCH   4  20
BRANCH  11  23
HETATM   23  N5  UNL     1      -4.037   0.662   1.116  1.00  0.00    -0.401 N 
ATOM     24  H52 UNL     1      -4.633  -0.166   1.097  1.00  0.00     0.156 HD
ATOM     25  H51 UNL     1      -4.601   1.432   1.476  1.00  0.00     0.156 HD
ENDBRANCH  11  23
TORSDOF 6
