REMARK  4 active torsions:
REMARK  status: ('A' for Active; 'I' for Inactive)
REMARK    1  A    between atoms: N1_1  and  C1_4 
REMARK    2  A    between atoms: C2_7  and  C3_8 
REMARK    3  A    between atoms: C4_9  and  N3_10 
REMARK    4  A    between atoms: C5_12  and  C6_13 
ROOT
HETATM    1  C3  UNL     1       1.464   0.573  -0.798  1.00  0.00     0.067 C 
HETATM    2  C4  UNL     1       0.390   1.237  -1.143  1.00  0.00     0.091 C 
ENDROOT
BRANCH   2   3
HETATM    3  N3  UNL     1      -0.774   0.613  -1.580  1.00  0.00    -0.373 N 
HETATM    4  C5  UNL     1      -1.849   0.653  -0.872  1.00  0.00     0.124 C 
ATOM      5  H3  UNL     1      -0.776   0.118  -2.472  1.00  0.00     0.164 HD
BRANCH   4   6
HETATM    6  C6  UNL     1      -1.847   1.351   0.393  1.00  0.00     0.134 A 
HETATM    7  N4  UNL     1      -0.913   2.016   1.064  1.00  0.00    -0.280 N 
HETATM    8  N5  UNL     1      -1.354   2.499   2.203  1.00  0.00    -0.239 N 
ATOM      9  H4  UNL     1       0.043   2.138   0.731  1.00  0.00     0.189 HD
HETATM   10  N6  UNL     1      -2.615   2.156   2.309  1.00  0.00    -0.250 N 
ATOM     11  H5  UNL     1      -0.816   3.040   2.879  1.00  0.00     0.208 HD
HETATM   12  C7  UNL     1      -2.978   1.443   1.217  1.00  0.00     0.290 A 
ATOM     13  H6  UNL     1      -3.226   2.390   3.091  1.00  0.00     0.192 HD
HETATM   14  O1  UNL     1      -4.106   0.951   0.973  1.00  0.00    -0.264 OA
ENDBRANCH   4   6
ENDBRANCH   2   3
BRANCH   1  15
HETATM   15  C2  UNL     1       1.693  -0.844  -0.786  1.00  0.00     0.137 A 
HETATM   16  N2  UNL     1       2.829  -1.436  -0.385  1.00  0.00    -0.174 N 
HETATM   17  C1  UNL     1       2.690  -2.743  -0.518  1.00  0.00     0.692 A 
ATOM     18  H2  UNL     1       3.660  -0.957  -0.036  1.00  0.00     0.186 HD
HETATM   19  N8  UNL     1       1.481  -3.028  -1.002  1.00  0.00    -0.131 N 
HETATM   20  N7  UNL     1       0.880  -1.830  -1.160  1.00  0.00    -0.271 N 
ATOM     21  H8  UNL     1       1.095  -3.949  -1.208  1.00  0.00     0.205 HD
ATOM     22  H7  UNL     1      -0.066  -1.698  -1.517  1.00  0.00     0.189 HD
BRANCH  17  23
HETATM   23  N1  UNL     1       3.592  -3.636  -0.225  1.00  0.00    -0.233 N 
ATOM     24  H12 UNL     1       4.517  -3.418   0.145  1.00  0.00     0.174 HD
ATOM     25  H11 UNL     1       3.485  -4.645  -0.328  1.00  0.00     0.174 HD
ENDBRANCH  17  23
ENDBRANCH   1  15
TORSDOF 4
