REMARK  6 active torsions:
REMARK  status: ('A' for Active; 'I' for Inactive)
REMARK    1  A    between atoms: C2_2  and  C3_3 
REMARK    2  A    between atoms: C2_2  and  O2_17 
REMARK    3  A    between atoms: N1_4  and  N2_6 
REMARK       I    between atoms: N2_6  and  C4_8 
REMARK       I    between atoms: C4_8  and  N3_10 
REMARK    4  A    between atoms: N3_10  and  N4_12 
REMARK    5  A    between atoms: N4_12  and  C5_14 
REMARK    6  A    between atoms: O2_17  and  N6_18 
ROOT
HETATM    1  N2  UNL     1       0.503  -0.301  -0.298  1.00  0.00    -0.251 N 
ATOM      2  H2  UNL     1       0.754  -1.202  -0.704  1.00  0.00     0.191 HD
HETATM    3  C4  UNL     1       1.538   0.594  -0.015  1.00  0.00     0.353 C 
HETATM    4  O1  UNL     1       1.250   1.716   0.486  1.00  0.00    -0.244 OA
HETATM    5  N3  UNL     1       2.884   0.278  -0.273  1.00  0.00    -0.248 N 
ATOM      6  H3  UNL     1       3.096  -0.634  -0.678  1.00  0.00     0.192 HD
ENDROOT
BRANCH   1   7
HETATM    7  N1  UNL     1      -0.843  -0.052  -0.066  1.00  0.00    -0.309 N 
HETATM    8  C3  UNL     1      -1.692  -0.145  -1.038  1.00  0.00     0.114 C 
ATOM      9  H1  UNL     1      -1.162   0.204   0.869  1.00  0.00     0.185 HD
BRANCH   8  10
HETATM   10  C2  UNL     1      -3.121   0.126  -0.757  1.00  0.00     0.187 C 
HETATM   11  C1  UNL     1      -3.907  -1.179  -0.795  1.00  0.00     0.048 C 
BRANCH  10  12
HETATM   12  O2  UNL     1      -3.234   0.759   0.470  1.00  0.00    -0.277 OA
BRANCH  12  13
HETATM   13  N6  UNL     1      -3.847   1.959   0.415  1.00  0.00    -0.310 N 
ATOM     14  H62 UNL     1      -4.191   2.352  -0.461  1.00  0.00     0.184 HD
ATOM     15  H61 UNL     1      -3.930   2.425   1.318  1.00  0.00     0.184 HD
ENDBRANCH  12  13
ENDBRANCH  10  12
ENDBRANCH   8  10
ENDBRANCH   1   7
BRANCH   5  16
HETATM   16  N4  UNL     1       3.947   1.144  -0.006  1.00  0.00    -0.275 N 
ATOM     17  H4  UNL     1       4.113   1.948  -0.611  1.00  0.00     0.189 HD
BRANCH  16  18
HETATM   18  C5  UNL     1       4.796   0.906   1.106  1.00  0.00     0.199 C 
HETATM   19  N5  UNL     1       4.618  -0.198   1.986  1.00  0.00    -0.068 NA
HETATM   20  S1  UNL     1       6.030   1.932   1.388  1.00  0.00    -0.043 SA
ENDBRANCH  16  18
ENDBRANCH   5  16
TORSDOF 6
