REMARK  11 active torsions:
REMARK  status: ('A' for Active; 'I' for Inactive)
REMARK    1  A    between atoms: N1_2  and  C2_3 
REMARK    2  A    between atoms: N1_2  and  C19_25 
REMARK    3  A    between atoms: C2_3  and  C3_4 
REMARK    4  A    between atoms: C3_4  and  O1_5 
REMARK    5  A    between atoms: O1_5  and  C4_6 
REMARK    6  A    between atoms: C7_9  and  O2_10 
REMARK    7  A    between atoms: C8_12  and  C9_13 
REMARK    8  A    between atoms: C9_13  and  C10_14 
REMARK    9  A    between atoms: C10_14  and  C11_15 
REMARK   10  A    between atoms: C17_21  and  C18_22 
REMARK   11  A    between atoms: C18_22  and  O3_23 
ROOT
HETATM    1  C4  UNL     1      -0.430  -0.674  -1.265  1.00  0.00     0.128 C 
HETATM    2  C5  UNL     1       0.197  -1.188  -2.555  1.00  0.00     0.035 C 
HETATM    3  C6  UNL     1       0.520  -2.648  -2.373  1.00  0.00     0.034 C 
HETATM    4  C7  UNL     1       1.573  -2.859  -1.303  1.00  0.00     0.122 C 
HETATM    5  C8  UNL     1       1.707  -1.568  -0.489  1.00  0.00     0.023 C 
HETATM    6  C17 UNL     1       0.362  -1.116  -0.037  1.00  0.00     0.045 C 
ENDROOT
BRANCH   1   7
HETATM    7  O1  UNL     1      -0.524   0.691  -1.263  1.00  0.00    -0.384 OA
BRANCH   7   8
HETATM    8  C3  UNL     1      -1.754   1.260  -1.279  1.00  0.00     0.198 C 
BRANCH   8   9
HETATM    9  C2  UNL     1      -2.655   0.940  -0.114  1.00  0.00     0.301 C 
BRANCH   9  10
HETATM   10  N1  UNL     1      -3.900   1.649  -0.336  1.00  0.00     0.115 N 
HETATM   11  C1  UNL     1      -4.600   1.077  -1.481  1.00  0.00     0.313 C 
BRANCH  10  12
HETATM   12  C19 UNL     1      -4.789   1.569   0.799  1.00  0.00     0.358 C 
HETATM   13  C20 UNL     1      -5.151   0.179   1.184  1.00  0.00     0.066 C 
HETATM   14  C21 UNL     1      -6.542   0.365   1.752  1.00  0.00     0.030 C 
HETATM   15  C22 UNL     1      -7.021   1.577   1.008  1.00  0.00     0.170 C 
HETATM   16  O4  UNL     1      -5.936   2.272   0.560  1.00  0.00    -0.357 OA
ENDBRANCH  10  12
ENDBRANCH   9  10
ENDBRANCH   8   9
ENDBRANCH   7   8
ENDBRANCH   1   7
BRANCH   6  17
HETATM   17  C18 UNL     1      -0.405  -2.089   0.794  1.00  0.00     0.171 C 
BRANCH  17  18
HETATM   18  O3  UNL     1       0.245  -2.532   1.929  1.00  0.00    -0.400 OA
ATOM     19  H3  UNL     1      -0.243  -3.152   2.458  1.00  0.00     0.209 HD
ENDBRANCH  17  18
ENDBRANCH   6  17
BRANCH   5  20
HETATM   20  C9  UNL     1       2.713  -1.791   0.575  1.00  0.00     0.008 C 
BRANCH  20  21
HETATM   21  C10 UNL     1       2.949  -0.607   1.469  1.00  0.00     0.005 C 
BRANCH  21  22
HETATM   22  C11 UNL     1       3.453   0.608   0.688  1.00  0.00    -0.014 C 
HETATM   23  C12 UNL     1       3.646   1.707   1.673  1.00  0.00     0.004 C 
HETATM   24  C13 UNL     1       4.577   2.797   1.256  1.00  0.00     0.000 C 
HETATM   25  C14 UNL     1       5.909   2.133   0.886  1.00  0.00     0.000 C 
HETATM   26  C15 UNL     1       5.623   1.337  -0.371  1.00  0.00     0.000 C 
HETATM   27  C16 UNL     1       4.717   0.195  -0.031  1.00  0.00     0.004 C 
ENDBRANCH  21  22
ENDBRANCH  20  21
ENDBRANCH   5  20
BRANCH   4  28
HETATM   28  O2  UNL     1       2.781  -3.147  -1.923  1.00  0.00    -0.395 OA
ATOM     29  H2  UNL     1       3.441  -3.279  -1.252  1.00  0.00     0.210 HD
ENDBRANCH   4  28
TORSDOF 11
