REMARK  9 active torsions:
REMARK  status: ('A' for Active; 'I' for Inactive)
REMARK    1  A    between atoms: C2_2  and  O1_3 
REMARK    2  A    between atoms: O1_3  and  C3_4 
REMARK    3  A    between atoms: N2_10  and  C7_12 
REMARK    4  A    between atoms: C7_12  and  C8_13 
REMARK    5  A    between atoms: C11_16  and  C13_18 
REMARK    6  A    between atoms: C13_18  and  O2_19 
REMARK    7  A    between atoms: O2_19  and  C14_20 
REMARK    8  A    between atoms: C14_20  and  C15_21 
REMARK    9  A    between atoms: C15_21  and  O3_24 
ROOT
HETATM    1  C3  UNL     1       5.804   0.818  -0.045  1.00  0.00     0.094 A 
HETATM    2  C4  UNL     1       6.234  -0.005  -1.046  1.00  0.00     0.055 A 
HETATM    3  C5  UNL     1       5.379  -0.987  -1.486  1.00  0.00     0.092 A 
HETATM    4  N1  UNL     1       4.148  -1.156  -0.962  1.00  0.00    -0.351 N 
ATOM      5  H1  UNL     1       3.552  -1.901  -1.323  1.00  0.00     0.166 HD
HETATM    6  C6  UNL     1       3.688  -0.371   0.020  1.00  0.00     0.124 A 
HETATM    7  N2  UNL     1       2.530  -0.490   0.549  1.00  0.00    -0.375 N 
ATOM      8  H2  UNL     1       2.234   0.138   1.296  1.00  0.00     0.161 HD
HETATM    9  C20 UNL     1       4.543   0.635   0.481  1.00  0.00     0.121 A 
HETATM   10  C21 UNL     1       4.071   1.482   1.528  1.00  0.00     0.106 C 
HETATM   11  N3  UNL     1       3.698   2.167   2.398  1.00  0.00    -0.191 NA
ENDROOT
BRANCH   1  12
HETATM   12  O1  UNL     1       6.628   1.822   0.432  1.00  0.00    -0.350 OA
BRANCH  12  13
HETATM   13  C2  UNL     1       7.920   2.014  -0.104  1.00  0.00     0.171 C 
HETATM   14  C1  UNL     1       8.574   3.184   0.621  1.00  0.00     0.034 C 
ENDBRANCH  12  13
ENDBRANCH   1  12
BRANCH   7  15
HETATM   15  C7  UNL     1       1.654  -1.524   0.073  1.00  0.00     0.126 C 
BRANCH  15  16
HETATM   16  C8  UNL     1       0.292  -1.458   0.734  1.00  0.00     0.003 C 
HETATM   17  C9  UNL     1      -0.314  -0.113   0.416  1.00  0.00     0.007 C 
HETATM   18  C10 UNL     1      -1.788  -0.246   0.695  1.00  0.00     0.012 C 
HETATM   19  C11 UNL     1      -2.393  -1.020  -0.456  1.00  0.00    -0.022 C 
HETATM   20  C12 UNL     1      -2.469  -0.145  -1.657  1.00  0.00     0.017 C 
HETATM   21  C18 UNL     1      -1.552  -2.250  -0.781  1.00  0.00     0.012 C 
HETATM   22  C19 UNL     1      -0.564  -2.601   0.274  1.00  0.00     0.007 C 
BRANCH  19  23
HETATM   23  C13 UNL     1      -3.713  -1.528   0.036  1.00  0.00     0.176 C 
BRANCH  23  24
HETATM   24  O2  UNL     1      -4.658  -0.695   0.486  1.00  0.00    -0.387 OA
BRANCH  24  25
HETATM   25  C14 UNL     1      -5.163   0.215  -0.372  1.00  0.00     0.204 C 
BRANCH  25  26
HETATM   26  C15 UNL     1      -6.308   1.010   0.318  1.00  0.00     0.072 C 
HETATM   27  C16 UNL     1      -7.439   0.084   0.657  1.00  0.00     0.047 C 
HETATM   28  C17 UNL     1      -5.723   1.650   1.534  1.00  0.00     0.047 C 
BRANCH  26  29
HETATM   29  O3  UNL     1      -6.764   1.915  -0.630  1.00  0.00    -0.388 OA
ATOM     30  H3  UNL     1      -7.463   2.401  -0.209  1.00  0.00     0.210 HD
ENDBRANCH  26  29
ENDBRANCH  25  26
ENDBRANCH  24  25
ENDBRANCH  23  24
ENDBRANCH  19  23
ENDBRANCH  15  16
ENDBRANCH   7  15
TORSDOF 9
