REMARK  9 active torsions:
REMARK  status: ('A' for Active; 'I' for Inactive)
REMARK    1  A    between atoms: C2_2  and  C3_3 
REMARK    2  A    between atoms: C3_3  and  C4_4 
REMARK    3  A    between atoms: C4_4  and  C5_5 
REMARK    4  A    between atoms: C5_5  and  C6_6 
REMARK    5  A    between atoms: C6_6  and  C7_7 
REMARK    6  A    between atoms: N3_14  and  C11_15 
REMARK    7  A    between atoms: C15_19  and  O1_20 
REMARK    8  A    between atoms: C17_22  and  O2_23 
REMARK    9  A    between atoms: C19_25  and  O3_26 
ROOT
HETATM    1  C7  UNL     1       2.030  -0.539  -0.381  1.00  0.00     0.055 A 
HETATM    2  N1  UNL     1       1.428   0.108   0.596  1.00  0.00    -0.353 N 
ATOM      3  H1  UNL     1       1.886   0.426   1.450  1.00  0.00     0.166 HD
HETATM    4  C8  UNL     1       0.108   0.293   0.307  1.00  0.00     0.062 A 
HETATM    5  C9  UNL     1      -0.103  -0.286  -0.934  1.00  0.00     0.088 A 
HETATM    6  C10 UNL     1       1.093  -0.810  -1.377  1.00  0.00     0.102 A 
HETATM    7  N2  UNL     1       1.354  -1.475  -2.588  1.00  0.00    -0.098 NA
HETATM    8  N3  UNL     1      -1.417  -0.263  -1.539  1.00  0.00    -0.343 N 
HETATM    9  C13 UNL     1      -2.452   0.365  -0.821  1.00  0.00     0.051 A 
HETATM   10  C14 UNL     1      -3.730   0.434  -1.311  1.00  0.00     0.070 A 
HETATM   11  C15 UNL     1      -4.711   1.055  -0.573  1.00  0.00     0.106 A 
HETATM   12  C17 UNL     1      -4.455   1.621   0.661  1.00  0.00     0.136 A 
HETATM   13  C19 UNL     1      -3.181   1.565   1.176  1.00  0.00     0.117 A 
HETATM   14  C21 UNL     1      -2.188   0.932   0.419  1.00  0.00     0.029 A 
HETATM   15  C22 UNL     1      -0.853   0.887   0.993  1.00  0.00     0.048 A 
ENDROOT
BRANCH   1  16
HETATM   16  C6  UNL     1       3.305  -0.921  -0.502  1.00  0.00     0.005 C 
BRANCH  16  17
HETATM   17  C5  UNL     1       4.208  -0.575   0.627  1.00  0.00     0.029 C 
BRANCH  17  18
HETATM   18  C4  UNL     1       5.501  -1.358   0.555  1.00  0.00     0.004 C 
BRANCH  18  19
HETATM   19  C3  UNL     1       6.413  -1.010   1.694  1.00  0.00    -0.000 C 
BRANCH  19  20
HETATM   20  C2  UNL     1       6.796   0.451   1.724  1.00  0.00    -0.005 C 
HETATM   21  C1  UNL     1       7.509   0.882   0.479  1.00  0.00     0.005 C 
ENDBRANCH  19  20
ENDBRANCH  18  19
ENDBRANCH  17  18
ENDBRANCH  16  17
ENDBRANCH   1  16
BRANCH   8  22
HETATM   22  C11 UNL     1      -1.656  -0.887  -2.804  1.00  0.00     0.125 C 
HETATM   23  C12 UNL     1      -1.663  -2.409  -2.607  1.00  0.00     0.027 C 
ENDBRANCH   8  22
BRANCH  13  24
HETATM   24  O3  UNL     1      -2.869   2.116   2.409  1.00  0.00    -0.352 OA
HETATM   25  C20 UNL     1      -2.992   1.285   3.565  1.00  0.00     0.210 C 
ENDBRANCH  13  24
BRANCH  12  26
HETATM   26  O2  UNL     1      -5.498   2.237   1.357  1.00  0.00    -0.351 OA
HETATM   27  C18 UNL     1      -6.257   1.434   2.239  1.00  0.00     0.210 C 
ENDBRANCH  12  26
BRANCH  11  28
HETATM   28  O1  UNL     1      -6.013   1.132  -1.060  1.00  0.00    -0.353 OA
HETATM   29  C16 UNL     1      -6.313   0.554  -2.339  1.00  0.00     0.210 C 
ENDBRANCH  11  28
TORSDOF 9
