REMARK  10 active torsions:
REMARK  status: ('A' for Active; 'I' for Inactive)
REMARK    1  A    between atoms: C4_6  and  C5_7 
REMARK    2  A    between atoms: C6_8  and  C7_9 
REMARK    3  A    between atoms: C7_9  and  C8_10 
REMARK    4  A    between atoms: C8_10  and  C10_12 
REMARK    5  A    between atoms: C10_12  and  O3_13 
REMARK    6  A    between atoms: C10_12  and  C11_15 
REMARK    7  A    between atoms: C12_17  and  C13_18 
REMARK    8  A    between atoms: C13_18  and  O5_19 
REMARK    9  A    between atoms: C13_18  and  C14_21 
REMARK   10  A    between atoms: C14_21  and  C15_22 
ROOT
HETATM    1  C1  UNL     1      -0.101  -3.711   1.050  1.00  0.00     0.025 C 
HETATM    2  C2  UNL     1      -0.580  -2.756   0.313  1.00  0.00     0.017 C 
HETATM    3  C3  UNL     1      -1.878  -2.955  -0.413  1.00  0.00     0.289 C 
HETATM    4  O1  UNL     1      -2.474  -4.024  -0.650  1.00  0.00    -0.260 OA
HETATM    5  O2  UNL     1      -2.321  -1.695  -0.793  1.00  0.00    -0.307 OA
HETATM    6  C4  UNL     1      -1.602  -0.726  -0.013  1.00  0.00     0.165 C 
HETATM    7  C12 UNL     1      -0.208  -1.402  -0.067  1.00  0.00     0.086 C 
ENDROOT
BRANCH   7   8
HETATM    8  C13 UNL     1       0.679  -0.606   0.766  1.00  0.00     0.130 C 
BRANCH   8   9
HETATM    9  O5  UNL     1       0.108  -0.468   2.055  1.00  0.00    -0.395 OA
ATOM     10  H5  UNL     1       0.688   0.052   2.599  1.00  0.00     0.210 HD
ENDBRANCH   8   9
BRANCH   8  11
HETATM   11  C14 UNL     1       2.103  -0.942   0.913  1.00  0.00     0.037 C 
BRANCH  11  12
HETATM   12  C15 UNL     1       2.882  -0.940  -0.380  1.00  0.00    -0.012 C 
HETATM   13  C16 UNL     1       4.322  -1.286  -0.206  1.00  0.00     0.005 C 
HETATM   14  C17 UNL     1       4.957  -0.852   1.060  1.00  0.00     0.000 C 
HETATM   15  C18 UNL     1       5.279   0.611   1.160  1.00  0.00     0.000 C 
HETATM   16  C19 UNL     1       5.627   1.276  -0.110  1.00  0.00     0.000 C 
HETATM   17  C20 UNL     1       4.545   1.956  -0.852  1.00  0.00     0.000 C 
HETATM   18  C21 UNL     1       3.139   1.575  -0.514  1.00  0.00     0.000 C 
HETATM   19  C22 UNL     1       2.670   0.329  -1.179  1.00  0.00     0.005 C 
ENDBRANCH  11  12
ENDBRANCH   8  11
ENDBRANCH   7   8
BRANCH   6  20
HETATM   20  C5  UNL     1      -1.565   0.595  -0.632  1.00  0.00     0.002 C 
HETATM   21  C6  UNL     1      -2.472   1.500  -0.373  1.00  0.00    -0.028 C 
BRANCH  21  22
HETATM   22  C7  UNL     1      -3.629   1.345   0.542  1.00  0.00     0.034 C 
BRANCH  22  23
HETATM   23  C8  UNL     1      -4.942   1.540  -0.181  1.00  0.00     0.020 C 
HETATM   24  C9  UNL     1      -5.140   0.551  -1.299  1.00  0.00     0.013 C 
BRANCH  23  25
HETATM   25  C10 UNL     1      -6.119   1.465   0.736  1.00  0.00     0.183 C 
BRANCH  25  26
HETATM   26  O3  UNL     1      -6.224   0.250   1.389  1.00  0.00    -0.388 OA
ATOM     27  H3  UNL     1      -6.972   0.202   1.972  1.00  0.00     0.210 HD
ENDBRANCH  25  26
BRANCH  25  28
HETATM   28  C11 UNL     1      -7.350   1.653  -0.091  1.00  0.00     0.263 C 
HETATM   29  O4  UNL     1      -7.411   2.691  -0.738  1.00  0.00    -0.304 OA
ENDBRANCH  25  28
ENDBRANCH  23  25
ENDBRANCH  22  23
ENDBRANCH  21  22
ENDBRANCH   6  20
TORSDOF 10
