REMARK  8 active torsions:
REMARK  status: ('A' for Active; 'I' for Inactive)
REMARK    1  A    between atoms: C2_2  and  C3_3 
REMARK    2  A    between atoms: C3_3  and  C4_4 
REMARK    3  A    between atoms: C4_4  and  C5_5 
REMARK    4  A    between atoms: C5_5  and  C6_6 
REMARK    5  A    between atoms: N1_10  and  C10_11 
REMARK    6  A    between atoms: C10_11  and  C11_12 
REMARK    7  A    between atoms: C16_17  and  C17_18 
REMARK    8  A    between atoms: C18_19  and  C19_20 
ROOT
HETATM    1  C11 UNL     1      -0.448  -0.373   0.408  1.00  0.00    -0.029 A 
HETATM    2  C12 UNL     1      -0.601  -0.858   1.687  1.00  0.00     0.015 A 
HETATM    3  C13 UNL     1      -1.886  -1.018   2.159  1.00  0.00    -0.061 A 
HETATM    4  C14 UNL     1      -2.084  -1.542   3.550  1.00  0.00     0.048 C 
HETATM    5  C15 UNL     1      -2.969  -0.701   1.373  1.00  0.00     0.018 A 
HETATM    6  C16 UNL     1      -2.850  -0.210   0.078  1.00  0.00    -0.028 A 
HETATM    7  C23 UNL     1      -1.533  -0.058  -0.374  1.00  0.00     0.021 A 
ENDROOT
BRANCH   6   8
HETATM    8  C17 UNL     1      -3.992   0.130  -0.739  1.00  0.00    -0.035 C 
HETATM    9  C18 UNL     1      -4.974   0.911  -0.380  1.00  0.00     0.012 C 
HETATM   10  C20 UNL     1      -6.145   1.216  -1.277  1.00  0.00     0.157 C 
HETATM   11  N6  UNL     1      -5.868   1.101  -2.662  1.00  0.00    -0.417 N 
HETATM   12  C21 UNL     1      -4.559   0.663  -3.022  1.00  0.00     0.118 C 
ATOM     13  H6  UNL     1      -6.571   1.321  -3.368  1.00  0.00     0.153 HD
HETATM   14  C22 UNL     1      -4.080  -0.457  -2.122  1.00  0.00     0.059 C 
BRANCH   9  15
HETATM   15  C19 UNL     1      -4.997   1.546   0.945  1.00  0.00     0.139 A 
HETATM   16  N2  UNL     1      -3.964   2.196   1.542  1.00  0.00    -0.270 N 
HETATM   17  N3  UNL     1      -4.379   2.625   2.724  1.00  0.00    -0.007 NA
ATOM     18  H2  UNL     1      -3.032   2.330   1.149  1.00  0.00     0.185 HD
HETATM   19  N4  UNL     1      -5.657   2.275   2.920  1.00  0.00    -0.007 NA
HETATM   20  N5  UNL     1      -6.012   1.614   1.812  1.00  0.00    -0.270 N 
ATOM     21  H5  UNL     1      -6.936   1.214   1.650  1.00  0.00     0.185 HD
ENDBRANCH   9  15
ENDBRANCH   6   8
BRANCH   1  22
HETATM   22  C10 UNL     1       0.917  -0.181  -0.140  1.00  0.00     0.311 C 
BRANCH  22  23
HETATM   23  N1  UNL     1       1.901  -0.968   0.601  1.00  0.00     0.097 N 
HETATM   24  C6  UNL     1       3.215  -0.659   0.013  1.00  0.00     0.223 C 
HETATM   25  C7  UNL     1       4.022  -1.868   0.224  1.00  0.00     0.037 C 
HETATM   26  C8  UNL     1       3.062  -2.998   0.450  1.00  0.00     0.032 C 
HETATM   27  C9  UNL     1       1.726  -2.379   0.274  1.00  0.00     0.273 C 
BRANCH  24  28
HETATM   28  C5  UNL     1       3.750   0.612   0.547  1.00  0.00     0.036 C 
BRANCH  28  29
HETATM   29  C4  UNL     1       5.034   1.103   0.030  1.00  0.00     0.006 C 
BRANCH  29  30
HETATM   30  C3  UNL     1       6.266   0.305   0.249  1.00  0.00     0.026 C 
BRANCH  30  31
HETATM   31  C2  UNL     1       7.427   1.072  -0.344  1.00  0.00    -0.037 C 
HETATM   32  C1  UNL     1       7.285   2.214  -0.939  1.00  0.00     0.007 C 
ENDBRANCH  30  31
ENDBRANCH  29  30
ENDBRANCH  28  29
ENDBRANCH  24  28
ENDBRANCH  22  23
ENDBRANCH   1  22
TORSDOF 8
