REMARK  10 active torsions:
REMARK  status: ('A' for Active; 'I' for Inactive)
REMARK    1  A    between atoms: C1_2  and  C2_4 
REMARK    2  A    between atoms: C2_4  and  C3_5 
REMARK    3  A    between atoms: C3_5  and  C4_6 
REMARK    4  A    between atoms: C4_6  and  O3_7 
REMARK    5  A    between atoms: O3_7  and  C5_8 
REMARK    6  A    between atoms: C5_8  and  C6_10 
REMARK    7  A    between atoms: C9_13  and  C10_14 
REMARK    8  A    between atoms: C10_14  and  O5_15 
REMARK    9  A    between atoms: C10_14  and  C11_17 
REMARK   10  A    between atoms: C11_17  and  C12_18 
ROOT
HETATM    1  C10 UNL     1      -0.600  -0.212  -0.517  1.00  0.00     0.132 C 
ENDROOT
BRANCH   1   2
HETATM    2  C9  UNL     1       0.137  -1.434  -0.892  1.00  0.00     0.029 C 
HETATM    3  C6  UNL     1       1.362  -1.408  -1.727  1.00  0.00     0.092 C 
HETATM    4  C7  UNL     1       1.773  -2.680  -0.926  1.00  0.00     0.015 C 
HETATM    5  C8  UNL     1       1.074  -1.954   0.238  1.00  0.00     0.009 C 
BRANCH   3   6
HETATM    6  C5  UNL     1       2.431  -0.434  -1.530  1.00  0.00     0.263 C 
HETATM    7  O4  UNL     1       2.360   0.739  -1.159  1.00  0.00    -0.265 OA
BRANCH   6   8
HETATM    8  O3  UNL     1       3.731  -0.902  -1.805  1.00  0.00    -0.321 OA
BRANCH   8   9
HETATM    9  C4  UNL     1       4.907  -0.191  -1.699  1.00  0.00     0.179 C 
BRANCH   9  10
HETATM   10  C3  UNL     1       5.150   0.250  -0.284  1.00  0.00     0.037 C 
BRANCH  10  11
HETATM   11  C2  UNL     1       6.448   1.032  -0.156  1.00  0.00     0.115 C 
BRANCH  11  12
HETATM   12  C1  UNL     1       6.613   1.427   1.260  1.00  0.00     0.172 C 
HETATM   13  O1  UNL     1       5.750   1.112   2.143  1.00  0.00    -0.648 OA
HETATM   14  O2  UNL     1       7.715   2.147   1.634  1.00  0.00    -0.648 OA
ENDBRANCH  11  12
ENDBRANCH  10  11
ENDBRANCH   9  10
ENDBRANCH   8   9
ENDBRANCH   6   8
ENDBRANCH   3   6
ENDBRANCH   1   2
BRANCH   1  15
HETATM   15  O5  UNL     1       0.068   0.702   0.264  1.00  0.00    -0.394 OA
ATOM     16  H5  UNL     1      -0.407   1.489   0.505  1.00  0.00     0.210 HD
ENDBRANCH   1  15
BRANCH   1  17
HETATM   17  C11 UNL     1      -1.991  -0.559  -0.046  1.00  0.00    -0.006 C 
HETATM   18  C18 UNL     1      -2.745  -1.214  -1.194  1.00  0.00     0.039 C 
HETATM   19  C19 UNL     1      -3.544  -2.432  -0.720  1.00  0.00     0.168 C 
HETATM   20  O6  UNL     1      -4.238  -2.073   0.420  1.00  0.00    -0.391 OA
HETATM   21  C20 UNL     1      -3.446  -1.778   1.500  1.00  0.00     0.168 C 
HETATM   22  C21 UNL     1      -2.006  -1.553   1.082  1.00  0.00     0.039 C 
BRANCH  17  23
HETATM   23  C12 UNL     1      -2.780   0.645   0.358  1.00  0.00    -0.003 C 
HETATM   24  C13 UNL     1      -2.252   1.387   1.559  1.00  0.00     0.005 C 
HETATM   25  C14 UNL     1      -3.478   2.156   2.091  1.00  0.00     0.000 C 
HETATM   26  C15 UNL     1      -3.995   3.111   1.044  1.00  0.00     0.000 C 
HETATM   27  C16 UNL     1      -4.040   2.574  -0.340  1.00  0.00     0.000 C 
HETATM   28  C17 UNL     1      -2.866   1.712  -0.723  1.00  0.00     0.005 C 
ENDBRANCH  17  23
ENDBRANCH   1  17
TORSDOF 10
