REMARK  9 active torsions:
REMARK  status: ('A' for Active; 'I' for Inactive)
REMARK    1  A    between atoms: C2_2  and  N1_3 
REMARK    2  A    between atoms: N1_3  and  C3_4 
REMARK       I    between atoms: N1_3  and  C9_12 
REMARK    3  A    between atoms: C3_4  and  C4_5 
REMARK    4  A    between atoms: C4_5  and  N2_6 
REMARK    5  A    between atoms: C9_12  and  C10_14 
REMARK    6  A    between atoms: C11_17  and  N4_18 
REMARK    7  A    between atoms: C12_22  and  C13_23 
REMARK    8  A    between atoms: C13_23  and  C15_25 
REMARK    9  A    between atoms: C13_23  and  C17_27 
ROOT
HETATM    1  C10 UNL     1      -1.250   0.579   0.796  1.00  0.00     0.117 A 
HETATM    2  N3  UNL     1      -1.060   0.776   2.095  1.00  0.00    -0.332 N 
ATOM      3  H3  UNL     1      -0.139   1.052   2.436  1.00  0.00     0.168 HD
HETATM    4  C11 UNL     1      -2.059   0.617   2.952  1.00  0.00     0.143 A 
HETATM    5  S2  UNL     1      -3.333   0.174   1.945  1.00  0.00    -0.056 SA
HETATM    6  C12 UNL     1      -2.526   0.207   0.407  1.00  0.00     0.027 A 
ENDROOT
BRANCH   1   7
HETATM    7  C9  UNL     1      -0.189   0.712  -0.197  1.00  0.00     0.271 C 
HETATM    8  N1  UNL     1       1.187   0.991  -0.062  1.00  0.00    -0.345 N 
HETATM    9  O1  UNL     1      -0.480   0.556  -1.448  1.00  0.00    -0.266 OA
BRANCH   8  10
HETATM   10  C2  UNL     1       1.952   1.035  -1.373  1.00  0.00     0.121 C 
HETATM   11  C1  UNL     1       1.912   2.425  -1.943  1.00  0.00     0.026 C 
ENDBRANCH   8  10
BRANCH   8  12
HETATM   12  C3  UNL     1       2.001   1.255   1.063  1.00  0.00     0.156 C 
BRANCH  12  13
HETATM   13  C4  UNL     1       2.579   0.068   1.758  1.00  0.00     0.292 C 
BRANCH  13  14
HETATM   14  N2  UNL     1       3.493  -0.732   0.968  1.00  0.00     0.091 N 
HETATM   15  C5  UNL     1       3.720  -2.019   1.636  1.00  0.00     0.282 C 
HETATM   16  C6  UNL     1       3.985  -3.035   0.554  1.00  0.00     0.104 C 
HETATM   17  S1  UNL     1       4.692  -2.153  -0.880  1.00  0.00    -0.166 SA
HETATM   18  C7  UNL     1       5.571  -0.705  -0.216  1.00  0.00     0.104 C 
HETATM   19  C8  UNL     1       4.826  -0.098   0.951  1.00  0.00     0.282 C 
ENDBRANCH  13  14
ENDBRANCH  12  13
ENDBRANCH   8  12
ENDBRANCH   1   7
BRANCH   6  20
HETATM   20  C13 UNL     1      -3.235  -0.169  -0.792  1.00  0.00    -0.009 C 
HETATM   21  C14 UNL     1      -2.636  -1.432  -1.391  1.00  0.00     0.021 C 
BRANCH  20  22
HETATM   22  C15 UNL     1      -3.513   0.807  -1.865  1.00  0.00     0.010 C 
HETATM   23  C16 UNL     1      -4.292   0.053  -2.958  1.00  0.00     0.006 C 
ENDBRANCH  20  22
BRANCH  20  24
HETATM   24  C17 UNL     1      -4.670  -0.630  -0.374  1.00  0.00     0.010 C 
HETATM   25  C18 UNL     1      -5.493   0.414   0.259  1.00  0.00     0.006 C 
ENDBRANCH  20  24
ENDBRANCH   6  20
BRANCH   4  26
HETATM   26  N4  UNL     1      -2.044   0.774   4.262  1.00  0.00    -0.380 N 
ATOM     27  H42 UNL     1      -1.272   1.042   4.872  1.00  0.00     0.158 HD
ATOM     28  H41 UNL     1      -2.813   0.652   4.921  1.00  0.00     0.158 HD
ENDBRANCH   4  26
TORSDOF 9
