REMARK  11 active torsions:
REMARK  status: ('A' for Active; 'I' for Inactive)
REMARK    1  A    between atoms: C2_2  and  O1_3 
REMARK    2  A    between atoms: O1_3  and  C3_4 
REMARK    3  A    between atoms: C3_4  and  C4_6 
REMARK    4  A    between atoms: C4_6  and  N1_7 
REMARK       I    between atoms: N1_7  and  C5_8 
REMARK    5  A    between atoms: N1_7  and  C16_25 
REMARK    6  A    between atoms: C5_8  and  C6_10 
REMARK    7  A    between atoms: C6_10  and  C7_12 
REMARK    8  A    between atoms: C7_12  and  O4_13 
REMARK    9  A    between atoms: C7_12  and  C8_15 
REMARK   10  A    between atoms: C8_15  and  O5_17 
REMARK   11  A    between atoms: C8_15  and  C10_19 
ROOT
HETATM    1  C6  UNL     1       0.122  -0.098   0.458  1.00  0.00     0.182 C 
HETATM    2  S1  UNL     1       0.136  -0.748  -1.253  1.00  0.00    -0.080 SA
ENDROOT
BRANCH   1   3
HETATM    3  C5  UNL     1      -1.271   0.453   0.621  1.00  0.00     0.238 C 
HETATM    4  N1  UNL     1      -2.430  -0.325   0.600  1.00  0.00    -0.333 N 
HETATM    5  O3  UNL     1      -1.345   1.698   0.782  1.00  0.00    -0.272 OA
BRANCH   4   6
HETATM    6  C4  UNL     1      -3.706   0.387   0.767  1.00  0.00     0.237 C 
BRANCH   6   7
HETATM    7  C3  UNL     1      -4.267   0.873  -0.496  1.00  0.00     0.276 C 
HETATM    8  O2  UNL     1      -3.691   0.767  -1.583  1.00  0.00    -0.263 OA
BRANCH   7   9
HETATM    9  O1  UNL     1      -5.509   1.484  -0.485  1.00  0.00    -0.321 OA
BRANCH   9  10
HETATM   10  C2  UNL     1      -6.101   1.976  -1.695  1.00  0.00     0.174 C 
HETATM   11  C1  UNL     1      -7.447   2.589  -1.380  1.00  0.00     0.034 C 
ENDBRANCH   9  10
ENDBRANCH   7   9
ENDBRANCH   6   7
ENDBRANCH   4   6
BRANCH   4  12
HETATM   12  C16 UNL     1      -2.522  -1.753   0.478  1.00  0.00     0.032 A 
HETATM   13  C17 UNL     1      -1.832  -2.532   1.615  1.00  0.00     0.039 C 
HETATM   14  C18 UNL     1      -2.676  -2.454  -0.807  1.00  0.00     0.033 A 
HETATM   15  C19 UNL     1      -3.867  -2.345   0.104  1.00  0.00     0.033 A 
ENDBRANCH   4  12
ENDBRANCH   1   3
BRANCH   1  16
HETATM   16  C7  UNL     1       1.149   0.979   0.679  1.00  0.00     0.176 C 
BRANCH  16  17
HETATM   17  O4  UNL     1       0.978   1.965  -0.248  1.00  0.00    -0.391 OA
ATOM     18  H4  UNL     1       1.626   2.645  -0.108  1.00  0.00     0.210 HD
ENDBRANCH  16  17
BRANCH  16  19
HETATM   19  C8  UNL     1       2.490   0.596   1.113  1.00  0.00     0.085 C 
HETATM   20  C9  UNL     1       3.014   1.733   2.046  1.00  0.00     0.049 C 
BRANCH  19  21
HETATM   21  O5  UNL     1       2.342  -0.481   2.018  1.00  0.00    -0.387 OA
ATOM     22  H5  UNL     1       3.214  -0.730   2.300  1.00  0.00     0.210 HD
ENDBRANCH  19  21
BRANCH  19  23
HETATM   23  C10 UNL     1       3.592   0.328   0.202  1.00  0.00     0.022 C 
HETATM   24  C11 UNL     1       3.523  -0.732  -0.822  1.00  0.00     0.007 C 
HETATM   25  C12 UNL     1       4.971  -1.122  -1.195  1.00  0.00     0.000 C 
HETATM   26  C13 UNL     1       5.895   0.053  -1.149  1.00  0.00     0.000 C 
HETATM   27  C14 UNL     1       6.115   0.371   0.314  1.00  0.00     0.000 C 
HETATM   28  C15 UNL     1       4.849   0.004   1.036  1.00  0.00     0.007 C 
ENDBRANCH  19  23
ENDBRANCH  16  19
ENDBRANCH   1  16
TORSDOF 11
