REMARK  11 active torsions:
REMARK  status: ('A' for Active; 'I' for Inactive)
REMARK    1  A    between atoms: C2_2  and  C3_3 
REMARK    2  A    between atoms: C3_3  and  C4_4 
REMARK    3  A    between atoms: C4_4  and  N1_5 
REMARK       I    between atoms: N1_5  and  C5_7 
REMARK    4  A    between atoms: C5_7  and  C6_9 
REMARK    5  A    between atoms: C6_9  and  N2_10 
REMARK    6  A    between atoms: C6_9  and  C14_22 
REMARK       I    between atoms: N2_10  and  C7_12 
REMARK       I    between atoms: C7_12  and  N3_14 
REMARK    7  A    between atoms: N3_14  and  C8_16 
REMARK    8  A    between atoms: C14_22  and  O4_24 
REMARK    9  A    between atoms: O4_24  and  C15_25 
REMARK   10  A    between atoms: C15_25  and  C18_28 
REMARK   11  A    between atoms: C19_29  and  C20_30 
ROOT
HETATM    1  C6  UNL     1      -1.276   0.818   0.331  1.00  0.00     0.278 C 
ENDROOT
BRANCH   1   2
HETATM    2  C5  UNL     1      -1.132   1.766  -0.789  1.00  0.00     0.250 C 
HETATM    3  N1  UNL     1      -0.444   2.974  -0.622  1.00  0.00    -0.359 N 
ATOM      4  H1  UNL     1      -0.051   3.168   0.299  1.00  0.00     0.162 HD
HETATM    5  O1  UNL     1      -1.633   1.480  -1.898  1.00  0.00    -0.271 OA
BRANCH   3   6
HETATM    6  C4  UNL     1      -0.249   3.960  -1.646  1.00  0.00     0.122 C 
BRANCH   6   7
HETATM    7  C3  UNL     1       0.508   3.432  -2.842  1.00  0.00     0.019 C 
BRANCH   7   8
HETATM    8  C2  UNL     1       0.624   4.604  -3.825  1.00  0.00    -0.003 C 
HETATM    9  C1  UNL     1      -0.755   5.085  -4.231  1.00  0.00     0.005 C 
ENDBRANCH   7   8
ENDBRANCH   6   7
ENDBRANCH   3   6
ENDBRANCH   1   2
BRANCH   1  10
HETATM   10  N2  UNL     1      -2.040  -0.364  -0.074  1.00  0.00    -0.321 N 
HETATM   11  C7  UNL     1      -3.208  -0.740   0.628  1.00  0.00     0.317 C 
HETATM   12  O2  UNL     1      -3.577  -0.044   1.603  1.00  0.00    -0.247 OA
HETATM   13  N3  UNL     1      -3.984  -1.871   0.280  1.00  0.00    -0.339 N 
ATOM     14  H3  UNL     1      -3.691  -2.443  -0.512  1.00  0.00     0.164 HD
ATOM     15  H2  UNL     1      -1.727  -0.921  -0.869  1.00  0.00     0.165 HD
BRANCH  13  16
HETATM   16  C8  UNL     1      -5.181  -2.247   1.008  1.00  0.00     0.086 C 
HETATM   17  C9  UNL     1      -5.057  -3.587   1.667  1.00  0.00     0.025 C 
HETATM   18  C10 UNL     1      -5.744  -4.705   0.957  1.00  0.00     0.002 C 
HETATM   19  C11 UNL     1      -7.105  -4.367   0.429  1.00  0.00     0.000 C 
HETATM   20  C12 UNL     1      -7.481  -2.922   0.632  1.00  0.00     0.002 C 
HETATM   21  C13 UNL     1      -6.338  -2.094   0.082  1.00  0.00     0.025 C 
ENDBRANCH  13  16
ENDBRANCH   1  10
BRANCH   1  22
HETATM   22  C14 UNL     1       0.048   0.315   0.816  1.00  0.00     0.292 C 
HETATM   23  O3  UNL     1       0.336  -0.908   0.826  1.00  0.00    -0.262 OA
BRANCH  22  24
HETATM   24  O4  UNL     1       1.023   1.182   1.279  1.00  0.00    -0.305 OA
BRANCH  24  25
HETATM   25  C15 UNL     1       2.243   0.700   1.724  1.00  0.00     0.081 C 
HETATM   26  C16 UNL     1       2.139  -0.253   2.892  1.00  0.00     0.051 C 
HETATM   27  C17 UNL     1       3.051   1.901   2.230  1.00  0.00     0.051 C 
BRANCH  25  28
HETATM   28  C18 UNL     1       3.055   0.044   0.684  1.00  0.00     0.007 C 
HETATM   29  C19 UNL     1       4.366  -0.093   0.802  1.00  0.00    -0.023 C 
BRANCH  29  30
HETATM   30  C20 UNL     1       5.179  -0.754  -0.246  1.00  0.00     0.008 C 
HETATM   31  C21 UNL     1       6.296   0.124  -0.737  1.00  0.00     0.008 C 
HETATM   32  C22 UNL     1       7.583  -0.429  -0.164  1.00  0.00     0.001 C 
HETATM   33  C23 UNL     1       7.107  -1.334   0.978  1.00  0.00     0.001 C 
HETATM   34  C24 UNL     1       5.880  -1.959   0.344  1.00  0.00     0.008 C 
ENDBRANCH  29  30
ENDBRANCH  25  28
ENDBRANCH  24  25
ENDBRANCH  22  24
ENDBRANCH   1  22
TORSDOF 11
