REMARK  12 active torsions:
REMARK  status: ('A' for Active; 'I' for Inactive)
REMARK    1  A    between atoms: C2_2  and  N1_3 
REMARK    2  A    between atoms: N1_3  and  C3_4 
REMARK    3  A    between atoms: N1_3  and  C5_6 
REMARK    4  A    between atoms: C5_6  and  C6_7 
REMARK    5  A    between atoms: C7_8  and  C8_9 
REMARK    6  A    between atoms: C8_9  and  N2_11 
REMARK    7  A    between atoms: N2_11  and  C10_13 
REMARK    8  A    between atoms: C11_16  and  N4_17 
REMARK    9  A    between atoms: N4_17  and  C12_19 
REMARK   10  A    between atoms: C12_19  and  C13_20 
REMARK   11  A    between atoms: C14_21  and  C15_22 
REMARK   12  A    between atoms: C15_22  and  C18_25 
ROOT
HETATM    1  C10 UNL     1       2.384  -3.658  -0.915  1.00  0.00     0.683 A 
HETATM    2  N3  UNL     1       1.358  -2.933  -0.454  1.00  0.00    -0.177 N 
ATOM      3  H3  UNL     1       1.477  -1.921  -0.401  1.00  0.00     0.185 HD
HETATM    4  C11 UNL     1       0.181  -3.447  -0.056  1.00  0.00     0.122 A 
HETATM    5  C25 UNL     1       0.006  -4.814  -0.120  1.00  0.00     0.123 A 
HETATM    6  C26 UNL     1       1.070  -5.574  -0.598  1.00  0.00     0.263 A 
HETATM    7  O1  UNL     1       0.897  -6.822  -0.651  1.00  0.00    -0.268 OA
HETATM    8  N5  UNL     1       2.218  -5.014  -0.981  1.00  0.00    -0.156 N 
ATOM      9  H5  UNL     1       2.978  -5.601  -1.326  1.00  0.00     0.187 HD
ENDROOT
BRANCH   4  10
HETATM   10  N4  UNL     1      -0.875  -2.598   0.422  1.00  0.00    -0.365 N 
ATOM     11  H4  UNL     1      -1.760  -3.013   0.715  1.00  0.00     0.162 HD
BRANCH  10  12
HETATM   12  C12 UNL     1      -0.702  -1.170   0.494  1.00  0.00     0.215 C 
BRANCH  12  13
HETATM   13  C13 UNL     1      -1.916  -0.498   0.964  1.00  0.00    -0.086 C 
HETATM   14  C14 UNL     1      -2.930   0.068   1.332  1.00  0.00    -0.095 C 
BRANCH  14  15
HETATM   15  C15 UNL     1      -4.157   0.750   1.748  1.00  0.00     0.020 C 
HETATM   16  C16 UNL     1      -5.103  -0.209   2.363  1.00  0.00     0.029 C 
HETATM   17  C17 UNL     1      -3.793   1.799   2.810  1.00  0.00     0.029 C 
BRANCH  15  18
HETATM   18  C18 UNL     1      -4.676   1.501   0.561  1.00  0.00     0.005 C 
HETATM   19  C19 UNL     1      -5.003   0.678  -0.621  1.00  0.00     0.006 C 
HETATM   20  C20 UNL     1      -6.320   0.006  -0.643  1.00  0.00     0.000 C 
HETATM   21  C21 UNL     1      -7.509   0.861  -0.428  1.00  0.00     0.000 C 
HETATM   22  C22 UNL     1      -7.395   2.246  -0.987  1.00  0.00     0.000 C 
HETATM   23  C23 UNL     1      -6.343   3.079  -0.337  1.00  0.00     0.000 C 
HETATM   24  C24 UNL     1      -5.773   2.491   0.929  1.00  0.00     0.006 C 
ENDBRANCH  15  18
ENDBRANCH  14  15
ENDBRANCH  12  13
ENDBRANCH  10  12
ENDBRANCH   4  10
BRANCH   1  25
HETATM   25  N2  UNL     1       3.502  -3.188  -1.307  1.00  0.00    -0.218 N 
ATOM     26  H2  UNL     1       4.200  -3.857  -1.633  1.00  0.00     0.178 HD
BRANCH  25  27
HETATM   27  C8  UNL     1       3.868  -1.784  -1.329  1.00  0.00     0.118 C 
HETATM   28  C9  UNL     1       3.037  -1.027  -2.348  1.00  0.00     0.037 C 
BRANCH  27  29
HETATM   29  C7  UNL     1       5.289  -1.689  -1.742  1.00  0.00    -0.004 C 
HETATM   30  C6  UNL     1       5.982  -0.586  -1.554  1.00  0.00     0.001 C 
BRANCH  30  31
HETATM   31  C5  UNL     1       5.368   0.601  -0.921  1.00  0.00     0.299 C 
BRANCH  31  32
HETATM   32  N1  UNL     1       6.137   0.900   0.279  1.00  0.00     0.091 N 
BRANCH  32  33
HETATM   33  C2  UNL     1       7.461   1.359   0.016  1.00  0.00     0.268 C 
HETATM   34  C1  UNL     1       7.514   2.661  -0.742  1.00  0.00     0.037 C 
ENDBRANCH  32  33
BRANCH  32  35
HETATM   35  C3  UNL     1       5.415   1.728   1.216  1.00  0.00     0.268 C 
HETATM   36  C4  UNL     1       6.081   1.567   2.570  1.00  0.00     0.037 C 
ENDBRANCH  32  35
ENDBRANCH  31  32
ENDBRANCH  30  31
ENDBRANCH  27  29
ENDBRANCH  25  27
ENDBRANCH   1  25
TORSDOF 12
