REMARK  12 active torsions:
REMARK  status: ('A' for Active; 'I' for Inactive)
REMARK    1  A    between atoms: C2_2  and  C3_3 
REMARK    2  A    between atoms: C4_4  and  C5_5 
REMARK    3  A    between atoms: C5_5  and  O1_6 
REMARK    4  A    between atoms: C8_10  and  C9_11 
REMARK    5  A    between atoms: C9_11  and  C11_13 
REMARK    6  A    between atoms: C11_13  and  C12_14 
REMARK    7  A    between atoms: C13_17  and  N1_18 
REMARK    8  A    between atoms: N1_18  and  C14_21 
REMARK    9  A    between atoms: C14_21  and  C15_22 
REMARK   10  A    between atoms: C15_22  and  C16_23 
REMARK   11  A    between atoms: C16_23  and  N2_24 
REMARK   12  A    between atoms: N2_24  and  C18_26 
ROOT
HETATM    1  C5  UNL     1      -3.649   1.824  -0.531  1.00  0.00     0.141 C 
HETATM    2  C6  UNL     1      -4.060   0.812  -1.497  1.00  0.00     0.020 C 
HETATM    3  C7  UNL     1      -3.721  -0.460  -1.513  1.00  0.00    -0.020 C 
HETATM    4  C8  UNL     1      -2.810  -1.059  -0.470  1.00  0.00     0.043 C 
HETATM    5  C13 UNL     1      -2.117   0.088   0.180  1.00  0.00     0.198 C 
HETATM    6  C26 UNL     1      -3.051   1.163   0.702  1.00  0.00     0.089 C 
ENDROOT
BRANCH   5   7
HETATM    7  N1  UNL     1      -1.291   0.738  -0.821  1.00  0.00    -0.070 N 
ATOM      8  H12 UNL     1      -1.402   0.291  -1.731  1.00  0.00     0.277 HD
ATOM      9  H11 UNL     1      -1.652   1.665  -1.046  1.00  0.00     0.277 HD
BRANCH   7  10
HETATM   10  C14 UNL     1       0.057   0.802  -0.457  1.00  0.00     0.234 C 
BRANCH  10  11
HETATM   11  C15 UNL     1       0.740  -0.553  -0.430  1.00  0.00     0.057 C 
BRANCH  11  12
HETATM   12  C16 UNL     1       2.163  -0.246  -0.016  1.00  0.00     0.274 C 
BRANCH  12  13
HETATM   13  N2  UNL     1       3.063  -1.319   0.085  1.00  0.00     0.088 N 
HETATM   14  C17 UNL     1       2.810  -2.268   1.141  1.00  0.00     0.310 C 
BRANCH  13  15
HETATM   15  C18 UNL     1       4.461  -0.875   0.094  1.00  0.00     0.222 C 
HETATM   16  C19 UNL     1       4.668   0.000   1.302  1.00  0.00     0.036 C 
HETATM   17  C20 UNL     1       6.090   0.029   1.808  1.00  0.00     0.002 C 
HETATM   18  C21 UNL     1       6.870   1.144   1.125  1.00  0.00     0.000 C 
HETATM   19  C22 UNL     1       7.558   0.535  -0.067  1.00  0.00     0.000 C 
HETATM   20  C23 UNL     1       6.882   0.932  -1.351  1.00  0.00     0.000 C 
HETATM   21  C24 UNL     1       6.001  -0.229  -1.770  1.00  0.00     0.002 C 
HETATM   22  C25 UNL     1       4.646  -0.034  -1.146  1.00  0.00     0.036 C 
ENDBRANCH  13  15
ENDBRANCH  12  13
ENDBRANCH  11  12
ENDBRANCH  10  11
ENDBRANCH   7  10
ENDBRANCH   5   7
BRANCH   4  23
HETATM   23  C9  UNL     1      -3.659  -1.909   0.435  1.00  0.00     0.001 C 
HETATM   24  C10 UNL     1      -2.821  -2.553   1.538  1.00  0.00     0.011 C 
BRANCH  23  25
HETATM   25  C11 UNL     1      -4.150  -3.081  -0.415  1.00  0.00     0.118 C 
BRANCH  25  26
HETATM   26  C12 UNL     1      -5.005  -4.018   0.308  1.00  0.00     0.172 C 
HETATM   27  O2  UNL     1      -5.368  -3.857   1.489  1.00  0.00    -0.648 OA
HETATM   28  O3  UNL     1      -5.420  -5.158  -0.395  1.00  0.00    -0.648 OA
ENDBRANCH  25  26
ENDBRANCH  23  25
ENDBRANCH   4  23
BRANCH   1  29
HETATM   29  C4  UNL     1      -4.808   2.597  -0.081  1.00  0.00    -0.064 C 
HETATM   30  C3  UNL     1      -5.749   3.263   0.293  1.00  0.00    -0.103 C 
BRANCH  30  31
HETATM   31  C2  UNL     1      -6.884   4.116   0.740  1.00  0.00     0.089 C 
HETATM   32  C1  UNL     1      -7.828   4.297  -0.399  1.00  0.00     0.018 C 
ENDBRANCH  30  31
ENDBRANCH   1  29
BRANCH   1  33
HETATM   33  O1  UNL     1      -2.700   2.700  -1.133  1.00  0.00    -0.374 OA
ATOM     34  H1  UNL     1      -1.948   2.198  -1.425  1.00  0.00     0.212 HD
ENDBRANCH   1  33
TORSDOF 12
