REMARK  11 active torsions:
REMARK  status: ('A' for Active; 'I' for Inactive)
REMARK    1  A    between atoms: C2_2  and  O1_3 
REMARK    2  A    between atoms: O1_3  and  C3_4 
REMARK    3  A    between atoms: C3_4  and  C4_6 
REMARK    4  A    between atoms: N1_10  and  C8_11 
REMARK    5  A    between atoms: C8_11  and  O3_12 
REMARK    6  A    between atoms: C9_14  and  N2_15 
REMARK    7  A    between atoms: C9_14  and  C19_31 
REMARK       I    between atoms: N2_15  and  C10_17 
REMARK    8  A    between atoms: C10_17  and  C11_19 
REMARK       I    between atoms: N3_23  and  C15_24 
REMARK    9  A    between atoms: C15_24  and  C16_26 
REMARK   10  A    between atoms: C16_26  and  C17_27 
REMARK   11  A    between atoms: C17_27  and  C18_28 
ROOT
HETATM    1  C8  UNL     1      -1.373   0.288   1.472  1.00  0.00     0.162 C 
HETATM    2  C9  UNL     1      -0.393   1.134   0.832  1.00  0.00     0.067 C 
ENDROOT
BRANCH   2   3
HETATM    3  N2  UNL     1       0.935   0.648   1.120  1.00  0.00    -0.325 N 
HETATM    4  C10 UNL     1       1.851   1.178   2.027  1.00  0.00     0.245 C 
HETATM    5  O4  UNL     1       1.504   2.201   2.682  1.00  0.00    -0.271 OA
ATOM      6  H2  UNL     1       1.237  -0.176   0.601  1.00  0.00     0.169 HD
BRANCH   4   7
HETATM    7  C11 UNL     1       3.202   0.676   2.318  1.00  0.00     0.179 C 
HETATM    8  C12 UNL     1       3.385   0.273   3.761  1.00  0.00     0.037 C 
HETATM    9  C13 UNL     1       4.324  -0.905   3.629  1.00  0.00     0.022 C 
HETATM   10  C14 UNL     1       3.683  -1.602   2.415  1.00  0.00     0.127 C 
HETATM   11  N3  UNL     1       3.591  -0.463   1.523  1.00  0.00    -0.339 N 
HETATM   12  C15 UNL     1       3.855  -0.506   0.138  1.00  0.00     0.221 C 
HETATM   13  O5  UNL     1       3.777   0.526  -0.597  1.00  0.00    -0.273 OA
BRANCH  12  14
HETATM   14  C16 UNL     1       4.243  -1.774  -0.551  1.00  0.00     0.113 C 
BRANCH  14  15
HETATM   15  C17 UNL     1       4.503  -1.576  -2.008  1.00  0.00     0.122 C 
BRANCH  15  16
HETATM   16  C18 UNL     1       4.879  -2.903  -2.577  1.00  0.00     0.172 C 
HETATM   17  O6  UNL     1       5.151  -3.022  -3.814  1.00  0.00    -0.648 OA
HETATM   18  O7  UNL     1       4.952  -4.058  -1.810  1.00  0.00    -0.648 OA
ENDBRANCH  15  16
ENDBRANCH  14  15
ENDBRANCH  12  14
ENDBRANCH   4   7
ENDBRANCH   2   3
BRANCH   2  19
HETATM   19  C19 UNL     1      -0.619   1.770  -0.485  1.00  0.00     0.040 C 
HETATM   20  C20 UNL     1      -1.767   2.740  -0.458  1.00  0.00     0.011 C 
HETATM   21  C21 UNL     1      -1.429   4.179  -0.521  1.00  0.00     0.001 C 
HETATM   22  C22 UNL     1      -1.591   4.600  -1.988  1.00  0.00     0.000 C 
HETATM   23  C23 UNL     1      -0.839   3.526  -2.771  1.00  0.00     0.000 C 
HETATM   24  C24 UNL     1       0.490   3.392  -2.091  1.00  0.00     0.001 C 
HETATM   25  C25 UNL     1       0.633   2.303  -1.116  1.00  0.00     0.011 C 
ENDBRANCH   2  19
BRANCH   1  26
HETATM   26  N1  UNL     1      -2.561  -0.336   1.116  1.00  0.00    -0.346 N 
HETATM   27  C4  UNL     1      -3.327  -0.486  -0.059  1.00  0.00     0.186 C 
HETATM   28  C5  UNL     1      -4.784  -0.451   0.393  1.00  0.00     0.037 C 
HETATM   29  C6  UNL     1      -4.771  -0.590   1.877  1.00  0.00     0.022 C 
HETATM   30  C7  UNL     1      -3.380  -1.092   2.139  1.00  0.00     0.126 C 
BRANCH  27  31
HETATM   31  C3  UNL     1      -3.152  -1.837  -0.691  1.00  0.00     0.281 C 
HETATM   32  O2  UNL     1      -2.377  -2.711  -0.255  1.00  0.00    -0.263 OA
BRANCH  31  33
HETATM   33  O1  UNL     1      -3.901  -2.106  -1.820  1.00  0.00    -0.320 OA
BRANCH  33  34
HETATM   34  C2  UNL     1      -3.803  -3.358  -2.488  1.00  0.00     0.174 C 
HETATM   35  C1  UNL     1      -4.193  -4.442  -1.527  1.00  0.00     0.034 C 
ENDBRANCH  33  34
ENDBRANCH  31  33
ENDBRANCH  27  31
ENDBRANCH   1  26
BRANCH   1  36
HETATM   36  O3  UNL     1      -1.051   0.036   2.734  1.00  0.00    -0.345 OA
ATOM     37  H3  UNL     1      -0.238   0.463   2.978  1.00  0.00     0.219 HD
ENDBRANCH   1  36
TORSDOF 11
