REMARK  11 active torsions:
REMARK  status: ('A' for Active; 'I' for Inactive)
REMARK    1  A    between atoms: N1_2  and  C2_5 
REMARK    2  A    between atoms: C2_5  and  C4_7 
REMARK       I    between atoms: C4_7  and  N2_9 
REMARK    3  A    between atoms: C6_11  and  C7_12 
REMARK    4  A    between atoms: C7_12  and  C8_13 
REMARK    5  A    between atoms: C17_22  and  C18_23 
REMARK       I    between atoms: C18_23  and  N3_25 
REMARK    6  A    between atoms: N3_25  and  C19_27 
REMARK    7  A    between atoms: C19_27  and  C20_28 
REMARK    8  A    between atoms: C19_27  and  C24_35 
REMARK    9  A    between atoms: C20_28  and  C21_30 
REMARK   10  A    between atoms: C21_30  and  C22_31 
REMARK   11  A    between atoms: C22_31  and  C23_32 
ROOT
HETATM    1  C4  UNL     1      -0.749   2.703   0.269  1.00  0.00     0.251 C 
HETATM    2  O1  UNL     1      -0.029   3.468   1.023  1.00  0.00    -0.271 OA
HETATM    3  N2  UNL     1      -0.846   1.343   0.617  1.00  0.00    -0.337 N 
HETATM    4  C5  UNL     1      -1.571   0.342  -0.139  1.00  0.00     0.132 C 
HETATM    5  C6  UNL     1      -2.218  -0.377   0.993  1.00  0.00     0.015 C 
HETATM    6  C16 UNL     1      -1.079  -0.661   1.873  1.00  0.00     0.042 C 
HETATM    7  C17 UNL     1      -0.279   0.659   1.760  1.00  0.00     0.179 C 
ENDROOT
BRANCH   7   8
HETATM    8  C18 UNL     1       1.151   0.407   1.683  1.00  0.00     0.241 C 
HETATM    9  O2  UNL     1       1.681  -0.124   2.725  1.00  0.00    -0.271 OA
HETATM   10  N3  UNL     1       1.953   0.694   0.596  1.00  0.00    -0.347 N 
ATOM     11  H3  UNL     1       1.514   1.114  -0.223  1.00  0.00     0.163 HD
BRANCH  10  12
HETATM   12  C19 UNL     1       3.404   0.433   0.543  1.00  0.00     0.161 C 
BRANCH  12  13
HETATM   13  C20 UNL     1       3.689  -0.702  -0.326  1.00  0.00     0.150 C 
HETATM   14  O3  UNL     1       2.715  -1.213  -0.923  1.00  0.00    -0.296 OA
BRANCH  13  15
HETATM   15  C21 UNL     1       4.990  -1.325  -0.581  1.00  0.00     0.089 C 
BRANCH  15  16
HETATM   16  C22 UNL     1       4.873  -2.531  -1.510  1.00  0.00     0.107 C 
BRANCH  16  17
HETATM   17  C23 UNL     1       6.196  -3.104  -1.723  1.00  0.00     0.231 C 
HETATM   18  N4  UNL     1       6.426  -4.185  -2.614  1.00  0.00    -0.062 NA
HETATM   19  O4  UNL     1       7.185  -2.611  -1.080  1.00  0.00    -0.277 OA
ENDBRANCH  16  17
ENDBRANCH  15  16
ENDBRANCH  13  15
ENDBRANCH  12  13
BRANCH  12  20
HETATM   20  C24 UNL     1       4.023   1.747   0.181  1.00  0.00    -0.024 C 
HETATM   21  C25 UNL     1       5.524   1.691   0.103  1.00  0.00     0.017 C 
HETATM   22  C26 UNL     1       3.429   2.313  -1.103  1.00  0.00     0.017 C 
HETATM   23  C27 UNL     1       3.666   2.761   1.275  1.00  0.00     0.017 C 
ENDBRANCH  12  20
ENDBRANCH  10  12
ENDBRANCH   7   8
BRANCH   1  24
HETATM   24  C2  UNL     1      -1.420   3.296  -0.902  1.00  0.00     0.272 C 
HETATM   25  C3  UNL     1      -2.917   3.351  -0.589  1.00  0.00     0.050 C 
BRANCH  24  26
HETATM   26  N1  UNL     1      -0.970   4.685  -1.012  1.00  0.00    -0.067 N 
HETATM   27  C1  UNL     1      -1.694   5.250  -2.127  1.00  0.00     0.267 C 
ATOM     28  H12 UNL     1       0.042   4.780  -1.094  1.00  0.00     0.277 HD
ATOM     29  H11 UNL     1      -1.074   5.216  -0.148  1.00  0.00     0.277 HD
ENDBRANCH  24  26
ENDBRANCH   1  24
BRANCH   5  30
HETATM   30  C7  UNL     1      -3.307  -1.311   0.733  1.00  0.00    -0.025 A 
HETATM   31  C11 UNL     1      -4.469  -0.521   0.085  1.00  0.00     0.012 A 
HETATM   32  C12 UNL     1      -4.518  -1.448  -1.067  1.00  0.00     0.010 A 
HETATM   33  C13 UNL     1      -3.350  -2.205  -0.453  1.00  0.00    -0.039 A 
HETATM   34  C14 UNL     1      -3.765  -3.636  -0.260  1.00  0.00     0.015 C 
HETATM   35  C15 UNL     1      -2.197  -2.196  -1.426  1.00  0.00     0.015 C 
BRANCH  30  36
HETATM   36  C8  UNL     1      -3.857  -1.894   2.013  1.00  0.00    -0.013 C 
HETATM   37  C9  UNL     1      -2.953  -2.723   2.853  1.00  0.00     0.010 C 
HETATM   38  C10 UNL     1      -5.234  -2.472   1.948  1.00  0.00     0.010 C 
ENDBRANCH  30  36
ENDBRANCH   5  30
TORSDOF 11
