REMARK  12 active torsions:
REMARK  status: ('A' for Active; 'I' for Inactive)
REMARK    1  A    between atoms: C2_2  and  C3_3 
REMARK    2  A    between atoms: C3_3  and  C5_5 
REMARK    3  A    between atoms: C5_5  and  C6_6 
REMARK    4  A    between atoms: C5_5  and  N2_16 
REMARK    5  A    between atoms: C6_6  and  C7_7 
REMARK    6  A    between atoms: C7_7  and  N1_8 
REMARK    7  A    between atoms: C7_7  and  C10_13 
REMARK       I    between atoms: N1_8  and  C8_10 
REMARK       I    between atoms: N2_16  and  C13_18 
REMARK    8  A    between atoms: C13_18  and  C14_20 
REMARK       I    between atoms: N3_24  and  C18_25 
REMARK    9  A    between atoms: C18_25  and  C19_27 
REMARK   10  A    between atoms: C19_27  and  N4_29 
REMARK       I    between atoms: N4_29  and  C21_30 
REMARK   11  A    between atoms: C21_30  and  O5_32 
REMARK   12  A    between atoms: O5_32  and  C22_33 
ROOT
HETATM    1  N2  UNL     1      -1.721  -0.760   0.769  1.00  0.00    -0.354 N 
ATOM      2  H2  UNL     1      -0.945  -0.875   0.117  1.00  0.00     0.162 HD
HETATM    3  C13 UNL     1      -1.403  -0.477   2.104  1.00  0.00     0.241 C 
HETATM    4  O2  UNL     1      -2.320  -0.297   2.943  1.00  0.00    -0.271 OA
ENDROOT
BRANCH   3   5
HETATM    5  C14 UNL     1      -0.016  -0.375   2.628  1.00  0.00     0.179 C 
HETATM    6  C15 UNL     1       0.056  -1.345   3.810  1.00  0.00     0.037 C 
HETATM    7  C16 UNL     1       0.407  -2.662   3.135  1.00  0.00     0.022 C 
HETATM    8  C17 UNL     1       0.921  -2.321   1.750  1.00  0.00     0.127 C 
HETATM    9  N3  UNL     1       0.968  -0.838   1.726  1.00  0.00    -0.336 N 
HETATM   10  C18 UNL     1       1.919  -0.132   0.954  1.00  0.00     0.256 C 
HETATM   11  O3  UNL     1       2.025   1.106   1.058  1.00  0.00    -0.270 OA
BRANCH  10  12
HETATM   12  C19 UNL     1       2.811  -0.826   0.012  1.00  0.00     0.257 C 
HETATM   13  C20 UNL     1       2.016  -1.278  -1.241  1.00  0.00     0.058 C 
BRANCH  12  14
HETATM   14  N4  UNL     1       3.935  -0.057  -0.419  1.00  0.00    -0.376 NA
HETATM   15  C21 UNL     1       4.954   0.651  -0.816  1.00  0.00     0.436 C 
HETATM   16  O4  UNL     1       4.985   1.725  -1.523  1.00  0.00    -0.221 OA
BRANCH  15  17
HETATM   17  O5  UNL     1       6.296   0.256  -0.460  1.00  0.00    -0.283 OA
BRANCH  17  18
HETATM   18  C22 UNL     1       7.422   0.967  -0.862  1.00  0.00     0.062 C 
HETATM   19  C23 UNL     1       7.547   1.010  -2.379  1.00  0.00     0.046 C 
HETATM   20  C24 UNL     1       7.437   2.390  -0.362  1.00  0.00     0.046 C 
HETATM   21  C25 UNL     1       8.647   0.263  -0.301  1.00  0.00     0.046 C 
ENDBRANCH  17  18
ENDBRANCH  15  17
ENDBRANCH  12  14
ENDBRANCH  10  12
ENDBRANCH   3   5
BRANCH   1  22
HETATM   22  C5  UNL     1      -3.031  -0.899   0.251  1.00  0.00     0.090 C 
BRANCH  22  23
HETATM   23  C3  UNL     1      -3.095  -2.387  -0.177  1.00  0.00     0.004 C 
HETATM   24  C4  UNL     1      -2.217  -2.598  -1.377  1.00  0.00     0.012 C 
BRANCH  23  25
HETATM   25  C2  UNL     1      -4.487  -2.813  -0.565  1.00  0.00     0.002 C 
HETATM   26  C1  UNL     1      -5.498  -2.656   0.548  1.00  0.00     0.005 C 
ENDBRANCH  23  25
ENDBRANCH  22  23
BRANCH  22  27
HETATM   27  C6  UNL     1      -3.467  -0.131  -0.908  1.00  0.00     0.051 C 
BRANCH  27  28
HETATM   28  C7  UNL     1      -3.587   1.332  -0.895  1.00  0.00     0.089 C 
BRANCH  28  29
HETATM   29  N1  UNL     1      -4.545   1.817   0.108  1.00  0.00    -0.356 N 
HETATM   30  C8  UNL     1      -5.792   2.383  -0.238  1.00  0.00     0.213 C 
HETATM   31  C9  UNL     1      -6.729   2.870   0.798  1.00  0.00     0.117 C 
HETATM   32  O1  UNL     1      -6.084   2.461  -1.468  1.00  0.00    -0.274 OA
ATOM     33  H1  UNL     1      -4.299   1.742   1.095  1.00  0.00     0.162 HD
ENDBRANCH  28  29
BRANCH  28  34
HETATM   34  C10 UNL     1      -2.305   2.097  -0.789  1.00  0.00     0.000 C 
HETATM   35  C11 UNL     1      -2.574   3.605  -0.807  1.00  0.00     0.011 C 
HETATM   36  C12 UNL     1      -1.269   1.814  -1.823  1.00  0.00     0.011 C 
ENDBRANCH  28  34
ENDBRANCH  27  28
ENDBRANCH  22  27
ENDBRANCH   1  22
TORSDOF 12
