REMARK  11 active torsions:
REMARK  status: ('A' for Active; 'I' for Inactive)
REMARK    1  A    between atoms: C2_2  and  C3_3 
REMARK    2  A    between atoms: C3_3  and  N1_4 
REMARK       I    between atoms: N2_11  and  C10_12 
REMARK       I    between atoms: C10_12  and  N4_16 
REMARK    3  A    between atoms: N4_16  and  C11_18 
REMARK    4  A    between atoms: N5_22  and  C15_23 
REMARK    5  A    between atoms: C17_25  and  N6_26 
REMARK    6  A    between atoms: N6_26  and  C18_28 
REMARK    7  A    between atoms: C18_28  and  C19_29 
REMARK    8  A    between atoms: C19_29  and  C20_30 
REMARK    9  A    between atoms: C20_30  and  C21_31 
REMARK   10  A    between atoms: C21_31  and  C22_32 
REMARK   11  A    between atoms: C22_32  and  O1_33 
ROOT
HETATM    1  C11 UNL     1      -0.361   1.775  -0.171  1.00  0.00     0.203 C 
HETATM    2  C12 UNL     1      -1.289   2.286  -1.214  1.00  0.00     0.049 C 
HETATM    3  C13 UNL     1      -0.374   2.795  -2.299  1.00  0.00     0.024 C 
HETATM    4  C14 UNL     1       0.759   1.794  -2.213  1.00  0.00     0.127 C 
HETATM    5  N5  UNL     1       0.882   1.481  -0.798  1.00  0.00    -0.345 N 
ENDROOT
BRANCH   1   6
HETATM    6  N4  UNL     1      -0.921   0.721   0.633  1.00  0.00    -0.205 N 
HETATM    7  C10 UNL     1      -1.425  -0.505   0.185  1.00  0.00     0.671 C 
HETATM    8  N2  UNL     1      -2.784  -0.823   0.378  1.00  0.00    -0.218 N 
HETATM    9  N3  UNL     1      -0.671  -1.353  -0.396  1.00  0.00    -0.235 N 
HETATM   10  C9  UNL     1      -3.348  -0.633   1.728  1.00  0.00     0.143 C 
HETATM   11  C25 UNL     1      -3.694  -1.317  -0.614  1.00  0.00     0.143 C 
HETATM   12  C8  UNL     1      -4.347   0.516   1.532  1.00  0.00     0.052 C 
HETATM   13  C7  UNL     1      -5.393   0.113   0.477  1.00  0.00     0.039 C 
HETATM   14  N1  UNL     1      -6.648   0.348   1.038  1.00  0.00    -0.364 N 
HETATM   15  C6  UNL     1      -5.306   1.101  -0.692  1.00  0.00     0.036 C 
HETATM   16  C26 UNL     1      -5.115  -1.233  -0.094  1.00  0.00     0.052 C 
HETATM   17  C4  UNL     1      -7.105   1.657   0.789  1.00  0.00     0.064 C 
HETATM   18  C5  UNL     1      -6.087   2.302  -0.139  1.00  0.00     0.047 C 
ATOM     19  H32 UNL     1      -1.038  -2.247  -0.723  1.00  0.00     0.174 HD
ATOM     20  H31 UNL     1       0.313  -1.123  -0.536  1.00  0.00     0.174 HD
ATOM     21  H4  UNL     1      -0.954   0.886   1.639  1.00  0.00     0.179 HD
BRANCH  14  22
HETATM   22  C3  UNL     1      -7.501  -0.649   1.468  1.00  0.00     0.063 C 
BRANCH  22  23
HETATM   23  C2  UNL     1      -8.548  -1.110   0.477  1.00  0.00     0.040 C 
HETATM   24  C1  UNL     1      -9.419  -2.208   1.092  1.00  0.00     0.010 C 
ENDBRANCH  22  23
ENDBRANCH  14  22
ENDBRANCH   1   6
BRANCH   5  25
HETATM   25  C15 UNL     1       2.065   0.980  -0.213  1.00  0.00     0.109 A 
HETATM   26  C16 UNL     1       3.207   0.852  -0.947  1.00  0.00     0.096 A 
HETATM   27  C17 UNL     1       4.389   0.350  -0.368  1.00  0.00     0.105 A 
HETATM   28  N7  UNL     1       4.287   0.022   0.923  1.00  0.00    -0.339 N 
HETATM   29  C24 UNL     1       3.148   0.150   1.654  1.00  0.00     0.183 A 
ATOM     30  H7  UNL     1       5.115  -0.348   1.389  1.00  0.00     0.168 HD
HETATM   31  N8  UNL     1       2.057   0.629   1.071  1.00  0.00    -0.339 N 
ATOM     32  H8  UNL     1       1.200   0.730   1.614  1.00  0.00     0.168 HD
BRANCH  27  33
HETATM   33  N6  UNL     1       5.446   0.234  -1.051  1.00  0.00    -0.373 N 
ATOM     34  H6  UNL     1       5.405   0.517  -2.030  1.00  0.00     0.161 HD
BRANCH  33  35
HETATM   35  C18 UNL     1       6.728  -0.276  -0.548  1.00  0.00     0.148 C 
BRANCH  35  36
HETATM   36  C19 UNL     1       7.159  -1.399  -1.412  1.00  0.00    -0.008 C 
BRANCH  36  37
HETATM   37  C20 UNL     1       8.325  -2.223  -1.116  1.00  0.00    -0.004 C 
BRANCH  37  38
HETATM   38  C21 UNL     1       9.690  -1.738  -0.966  1.00  0.00    -0.001 C 
BRANCH  38  39
HETATM   39  C22 UNL     1      10.133  -0.894   0.153  1.00  0.00     0.194 C 
BRANCH  39  40
HETATM   40  O1  UNL     1       9.614   0.334   0.361  1.00  0.00    -0.392 OA
HETATM   41  C23 UNL     1      10.193   0.932   1.484  1.00  0.00     0.201 C 
ENDBRANCH  39  40
ENDBRANCH  38  39
ENDBRANCH  37  38
ENDBRANCH  36  37
ENDBRANCH  35  36
ENDBRANCH  33  35
ENDBRANCH  27  33
ENDBRANCH   5  25
TORSDOF 11
