REMARK  13 active torsions:
REMARK  status: ('A' for Active; 'I' for Inactive)
REMARK    1  A    between atoms: C2_2  and  O1_3 
REMARK    2  A    between atoms: O1_3  and  C3_4 
REMARK    3  A    between atoms: C3_4  and  C4_6 
REMARK    4  A    between atoms: C4_6  and  N1_7 
REMARK    5  A    between atoms: C4_6  and  C24_38 
REMARK       I    between atoms: N1_7  and  C5_9 
REMARK    6  A    between atoms: C5_9  and  C6_11 
REMARK    7  A    between atoms: C6_11  and  C7_12 
REMARK    8  A    between atoms: C6_11  and  N2_16 
REMARK    9  A    between atoms: C7_12  and  C8_13 
REMARK       I    between atoms: N2_16  and  C11_18 
REMARK   10  A    between atoms: C11_18  and  C12_20 
REMARK       I    between atoms: N3_26  and  C18_27 
REMARK   11  A    between atoms: C18_27  and  C19_29 
REMARK   12  A    between atoms: C19_29  and  N4_30 
REMARK   13  A    between atoms: C19_29  and  C20_34 
ROOT
HETATM    1  N2  UNL     1      -0.414   0.935   0.417  1.00  0.00    -0.346 N 
ATOM      2  H2  UNL     1      -0.999   1.020   1.248  1.00  0.00     0.163 HD
HETATM    3  C11 UNL     1      -1.073   0.672  -0.790  1.00  0.00     0.241 C 
HETATM    4  O4  UNL     1      -0.407   0.572  -1.852  1.00  0.00    -0.271 OA
ENDROOT
BRANCH   1   5
HETATM    5  C6  UNL     1       0.995   1.097   0.606  1.00  0.00     0.177 C 
BRANCH   5   6
HETATM    6  C5  UNL     1       1.735  -0.134   0.156  1.00  0.00     0.241 C 
HETATM    7  N1  UNL     1       3.131  -0.153   0.223  1.00  0.00    -0.345 N 
ATOM      8  H1  UNL     1       3.604   0.677   0.581  1.00  0.00     0.163 HD
HETATM    9  O3  UNL     1       1.103  -1.110  -0.266  1.00  0.00    -0.271 OA
BRANCH   7  10
HETATM   10  C4  UNL     1       3.954  -1.287  -0.187  1.00  0.00     0.187 C 
BRANCH  10  11
HETATM   11  C3  UNL     1       4.876  -0.903  -1.286  1.00  0.00     0.282 C 
HETATM   12  O2  UNL     1       4.863   0.269  -1.732  1.00  0.00    -0.263 OA
BRANCH  11  13
HETATM   13  O1  UNL     1       5.755  -1.811  -1.834  1.00  0.00    -0.320 OA
BRANCH  13  14
HETATM   14  C2  UNL     1       6.632  -1.447  -2.882  1.00  0.00     0.174 C 
HETATM   15  C1  UNL     1       7.455  -2.659  -3.250  1.00  0.00     0.034 C 
ENDBRANCH  13  14
ENDBRANCH  11  13
ENDBRANCH  10  11
BRANCH  10  16
HETATM   16  C24 UNL     1       4.771  -1.702   0.996  1.00  0.00     0.010 C 
HETATM   17  C25 UNL     1       5.662  -0.583   1.470  1.00  0.00     0.012 C 
HETATM   18  C26 UNL     1       5.521  -2.985   0.821  1.00  0.00     0.012 C 
ENDBRANCH  10  16
ENDBRANCH   7  10
ENDBRANCH   5   6
BRANCH   5  19
HETATM   19  C7  UNL     1       1.603   2.333   0.023  1.00  0.00     0.038 C 
BRANCH  19  20
HETATM   20  C8  UNL     1       0.984   3.629   0.439  1.00  0.00    -0.020 C 
HETATM   21  C9  UNL     1      -0.454   3.829   0.109  1.00  0.00     0.009 C 
HETATM   22  C10 UNL     1       1.735   4.815  -0.165  1.00  0.00     0.009 C 
ENDBRANCH  19  20
ENDBRANCH   5  19
ENDBRANCH   1   5
BRANCH   3  23
HETATM   23  C12 UNL     1      -2.540   0.491  -0.942  1.00  0.00     0.179 C 
HETATM   24  C13 UNL     1      -3.030   1.537  -1.950  1.00  0.00     0.035 C 
HETATM   25  C14 UNL     1      -4.540   1.487  -2.065  1.00  0.00     0.008 C 
HETATM   26  C15 UNL     1      -5.105   1.921  -0.749  1.00  0.00    -0.000 C 
HETATM   27  C16 UNL     1      -5.616   3.342  -0.863  1.00  0.00     0.011 C 
HETATM   28  C17 UNL     1      -4.059   1.894   0.363  1.00  0.00     0.131 C 
HETATM   29  N3  UNL     1      -3.292   0.635   0.257  1.00  0.00    -0.337 N 
HETATM   30  C18 UNL     1      -3.402  -0.268   1.332  1.00  0.00     0.252 C 
HETATM   31  O5  UNL     1      -4.098   0.111   2.340  1.00  0.00    -0.271 OA
BRANCH  30  32
HETATM   32  C19 UNL     1      -2.798  -1.608   1.427  1.00  0.00     0.282 C 
BRANCH  32  33
HETATM   33  N4  UNL     1      -2.506  -1.804   2.875  1.00  0.00    -0.066 N 
ATOM     34  H43 UNL     1      -1.934  -1.065   3.283  1.00  0.00     0.275 HD
ATOM     35  H42 UNL     1      -3.317  -1.674   3.480  1.00  0.00     0.275 HD
ATOM     36  H41 UNL     1      -2.088  -2.732   2.941  1.00  0.00     0.275 HD
ENDBRANCH  32  33
BRANCH  32  37
HETATM   37  C20 UNL     1      -3.778  -2.728   1.137  1.00  0.00    -0.014 C 
HETATM   38  C21 UNL     1      -4.407  -2.712  -0.198  1.00  0.00     0.017 C 
HETATM   39  C22 UNL     1      -4.887  -2.751   2.188  1.00  0.00     0.017 C 
HETATM   40  C23 UNL     1      -3.006  -4.038   1.281  1.00  0.00     0.017 C 
ENDBRANCH  32  37
ENDBRANCH  30  32
ENDBRANCH   3  23
TORSDOF 13
