REMARK  12 active torsions:
REMARK  status: ('A' for Active; 'I' for Inactive)
REMARK    1  A    between atoms: C2_2  and  C3_3 
REMARK    2  A    between atoms: C3_3  and  C4_4 
REMARK    3  A    between atoms: N1_6  and  C6_7 
REMARK    4  A    between atoms: C6_7  and  C7_9 
REMARK    5  A    between atoms: C7_9  and  C8_10 
REMARK    6  A    between atoms: C7_9  and  C12_18 
REMARK    7  A    between atoms: C8_10  and  C9_11 
REMARK    8  A    between atoms: C9_11  and  C10_12 
REMARK    9  A    between atoms: C10_12  and  N2_13 
REMARK   10  A    between atoms: C12_18  and  C13_19 
REMARK   11  A    between atoms: C13_19  and  S2_20 
REMARK   12  A    between atoms: C16_23  and  N5_24 
ROOT
HETATM    1  C6  UNL     1      -0.396   0.662   0.770  1.00  0.00     0.080 C 
HETATM    2  S1  UNL     1      -0.859   1.353   2.204  1.00  0.00    -0.065 SA
ENDROOT
BRANCH   1   3
HETATM    3  N1  UNL     1       0.936   0.162   0.645  1.00  0.00    -0.372 N 
HETATM    4  C5  UNL     1       1.616  -0.469  -0.432  1.00  0.00     0.130 C 
HETATM    5  C4  UNL     1       3.115  -0.113  -0.221  1.00  0.00     0.036 C 
HETATM    6  C16 UNL     1       3.078   0.842   0.929  1.00  0.00     0.207 C 
HETATM    7  C15 UNL     1       1.923   0.227   1.734  1.00  0.00     0.156 C 
BRANCH   5   8
HETATM    8  C3  UNL     1       3.889  -1.344   0.059  1.00  0.00     0.008 C 
BRANCH   8   9
HETATM    9  C2  UNL     1       5.356  -1.231   0.257  1.00  0.00    -0.004 C 
HETATM   10  C1  UNL     1       6.010  -0.605  -0.966  1.00  0.00     0.005 C 
ENDBRANCH   8   9
ENDBRANCH   5   8
BRANCH   6  11
HETATM   11  N5  UNL     1       4.217   0.956   1.742  1.00  0.00    -0.073 N 
ATOM     12  H53 UNL     1       4.471   0.031   2.088  1.00  0.00     0.274 HD
ATOM     13  H52 UNL     1       5.022   1.175   1.155  1.00  0.00     0.274 HD
ATOM     14  H51 UNL     1       4.192   1.607   2.526  1.00  0.00     0.274 HD
ENDBRANCH   6  11
ENDBRANCH   1   3
BRANCH   1  15
HETATM   15  C7  UNL     1      -1.375   0.588  -0.333  1.00  0.00     0.048 C 
BRANCH  15  16
HETATM   16  C8  UNL     1      -1.593  -0.799  -0.869  1.00  0.00     0.013 C 
BRANCH  16  17
HETATM   17  C9  UNL     1      -2.094  -1.729   0.176  1.00  0.00     0.020 C 
BRANCH  17  18
HETATM   18  C10 UNL     1      -3.407  -1.334   0.782  1.00  0.00     0.122 C 
BRANCH  18  19
HETATM   19  N2  UNL     1      -4.466  -1.259  -0.230  1.00  0.00    -0.367 N 
HETATM   20  C11 UNL     1      -5.044  -2.345  -0.656  1.00  0.00     0.196 C 
HETATM   21  N3  UNL     1      -6.049  -2.206  -1.624  1.00  0.00    -0.067 NA
HETATM   22  N4  UNL     1      -4.668  -3.619  -0.158  1.00  0.00    -0.067 NA
ATOM     23  H2  UNL     1      -4.751  -0.353  -0.601  1.00  0.00     0.161 HD
ENDBRANCH  18  19
ENDBRANCH  17  18
ENDBRANCH  16  17
ENDBRANCH  15  16
BRANCH  15  24
HETATM   24  C12 UNL     1      -1.157   1.618  -1.417  1.00  0.00     0.022 C 
BRANCH  24  25
HETATM   25  C13 UNL     1      -1.263   3.006  -0.793  1.00  0.00     0.074 C 
BRANCH  25  26
HETATM   26  S2  UNL     1      -2.879   3.274  -0.049  1.00  0.00    -0.173 SA
HETATM   27  C14 UNL     1      -2.899   4.943   0.660  1.00  0.00     0.089 C 
ENDBRANCH  25  26
ENDBRANCH  24  25
ENDBRANCH  15  24
ENDBRANCH   1  15
TORSDOF 12
