REMARK  0 active torsions:
REMARK  status: ('A' for Active; 'I' for Inactive)
ROOT
HETATM    1  O1  UNL     1      -4.354   3.163   0.716  1.00  0.00    -0.273 OA
HETATM    2  C1  UNL     1      -3.617   2.315   0.112  1.00  0.00     0.226 C 
HETATM    3  C2  UNL     1      -2.618   2.866  -0.838  1.00  0.00     0.176 C 
HETATM    4  S1  UNL     1      -1.990   4.407  -0.143  1.00  0.00    -0.159 SA
HETATM    5  C3  UNL     1      -0.358   4.235   0.581  1.00  0.00     0.084 C 
HETATM    6  C4  UNL     1       0.622   3.543  -0.335  1.00  0.00     0.084 C 
HETATM    7  S2  UNL     1       2.025   3.002   0.673  1.00  0.00    -0.168 SA
HETATM    8  C5  UNL     1       3.506   2.743  -0.331  1.00  0.00     0.084 C 
HETATM    9  C6  UNL     1       4.229   1.524   0.182  1.00  0.00     0.084 C 
HETATM   10  S3  UNL     1       3.532   0.048  -0.581  1.00  0.00    -0.166 SA
HETATM   11  C7  UNL     1       4.295  -1.435   0.130  1.00  0.00     0.101 C 
HETATM   12  C8  UNL     1       3.214  -2.381   0.568  1.00  0.00     0.200 C 
HETATM   13  O2  UNL     1       2.022  -2.179  -0.144  1.00  0.00    -0.275 OA
HETATM   14  S4  UNL     1       1.031  -3.510   0.189  1.00  0.00     0.265 S 
HETATM   15  O3  UNL     1       1.786  -4.783  -0.092  1.00  0.00    -0.199 OA
HETATM   16  O4  UNL     1       0.758  -3.463   1.677  1.00  0.00    -0.199 OA
HETATM   17  C9  UNL     1      -0.463  -3.445  -0.756  1.00  0.00     0.173 C 
HETATM   18  C10 UNL     1      -1.641  -3.287   0.184  1.00  0.00     0.054 C 
HETATM   19  C11 UNL     1      -2.806  -2.573  -0.503  1.00  0.00     0.172 C 
HETATM   20  F1  UNL     1      -3.883  -3.468  -0.468  1.00  0.00    -0.249 F 
HETATM   21  C12 UNL     1      -3.146  -1.372   0.315  1.00  0.00     0.057 C 
HETATM   22  C13 UNL     1      -3.350  -0.120  -0.511  1.00  0.00     0.125 C 
HETATM   23  N1  UNL     1      -3.785   0.936   0.371  1.00  0.00    -0.360 N 
ATOM     24  H1  UNL     1      -4.245   0.669   1.241  1.00  0.00     0.162 HD
ENDROOT
TORSDOF 0
