REMARK  1 active torsions:
REMARK  status: ('A' for Active; 'I' for Inactive)
REMARK    1  A    between atoms: C2_2  and  O1_3 
ROOT
HETATM    1  C1  UNL     1      -3.505   3.276  -0.131  1.00  0.00     0.046 C 
HETATM    2  C2  UNL     1      -3.680   1.800   0.251  1.00  0.00     0.061 C 
HETATM    3  C3  UNL     1      -2.526   1.341   1.029  1.00  0.00     0.042 C 
HETATM    4  C4  UNL     1      -1.329   0.877   0.252  1.00  0.00     0.041 C 
HETATM    5  C5  UNL     1      -1.459  -0.562  -0.086  1.00  0.00    -0.027 C 
HETATM    6  C6  UNL     1      -2.566  -1.103  -0.586  1.00  0.00     0.017 C 
HETATM    7  C7  UNL     1      -2.901  -2.468  -0.981  1.00  0.00     0.210 C 
HETATM    8  O2  UNL     1      -1.942  -3.242  -1.538  1.00  0.00    -0.383 OA
HETATM    9  C8  UNL     1      -0.640  -2.893  -1.381  1.00  0.00     0.214 C 
HETATM   10  C9  UNL     1      -0.343  -2.704   0.062  1.00  0.00     0.159 C 
HETATM   11  C10 UNL     1       1.027  -3.333   0.347  1.00  0.00     0.058 C 
HETATM   12  F1  UNL     1      -1.216  -3.235   0.944  1.00  0.00    -0.237 F 
HETATM   13  C11 UNL     1      -0.161  -1.182   0.244  1.00  0.00     0.167 C 
HETATM   14  C12 UNL     1       0.267  -1.022   1.663  1.00  0.00     0.161 C 
HETATM   15  C13 UNL     1       1.732  -0.839   1.842  1.00  0.00     0.265 C 
HETATM   16  O3  UNL     1       2.194  -1.184   2.977  1.00  0.00    -0.265 OA
HETATM   17  O4  UNL     1       2.702  -0.360   1.003  1.00  0.00    -0.280 OA
HETATM   18  C14 UNL     1       2.556   0.412  -0.169  1.00  0.00     0.205 C 
HETATM   19  C15 UNL     1       2.763   1.860   0.197  1.00  0.00     0.072 C 
HETATM   20  C16 UNL     1       3.878   2.488  -0.618  1.00  0.00     0.006 C 
HETATM   21  C17 UNL     1       5.155   1.754  -0.277  1.00  0.00     0.000 C 
HETATM   22  C18 UNL     1       4.970   0.258  -0.426  1.00  0.00     0.006 C 
HETATM   23  C19 UNL     1       3.656  -0.035  -1.122  1.00  0.00     0.072 C 
HETATM   24  O5  UNL     1       1.302   0.275  -0.725  1.00  0.00    -0.199 OA
HETATM   25  O6  UNL     1       0.832  -0.907  -0.699  1.00  0.00    -0.218 OA
HETATM   26  C20 UNL     1      -3.841  -0.414  -0.895  1.00  0.00     0.161 C 
HETATM   27  O7  UNL     1      -4.860  -1.159  -1.101  1.00  0.00    -0.292 OA
HETATM   28  C21 UNL     1      -4.026   1.059  -0.983  1.00  0.00     0.120 C 
ENDROOT
BRANCH   2  29
HETATM   29  O1  UNL     1      -4.818   1.781   1.093  1.00  0.00    -0.390 OA
ATOM     30  H1  UNL     1      -4.926   0.867   1.329  1.00  0.00     0.210 HD
ENDBRANCH   2  29
TORSDOF 1
