REMARK  2 active torsions:
REMARK  status: ('A' for Active; 'I' for Inactive)
REMARK    1  A    between atoms: C19_23  and  O4_24 
REMARK    2  A    between atoms: C20_26  and  O5_27 
ROOT
HETATM    1  C1  UNL     1       4.998  -0.903   1.733  1.00  0.00     0.076 C 
HETATM    2  C2  UNL     1       3.492  -0.699   1.449  1.00  0.00     0.042 C 
HETATM    3  C3  UNL     1       2.885  -1.864   1.213  1.00  0.00     0.005 C 
HETATM    4  C4  UNL     1       1.451  -2.144   0.895  1.00  0.00     0.032 C 
HETATM    5  C5  UNL     1       1.018  -1.087  -0.002  1.00  0.00     0.046 C 
HETATM    6  C6  UNL     1       0.046  -1.137  -1.095  1.00  0.00     0.107 C 
HETATM    7  C7  UNL     1       0.235  -2.372  -1.923  1.00  0.00     0.050 C 
HETATM    8  O1  UNL     1       0.359  -0.025  -1.936  1.00  0.00    -0.228 OA
HETATM    9  O2  UNL     1       1.421   0.611  -1.603  1.00  0.00    -0.232 OA
HETATM   10  C8  UNL     1       1.367   1.845  -1.099  1.00  0.00     0.194 C 
HETATM   11  C9  UNL     1      -0.063   2.279  -1.020  1.00  0.00     0.038 C 
HETATM   12  C10 UNL     1      -0.969   1.642  -0.056  1.00  0.00     0.009 C 
HETATM   13  C11 UNL     1      -1.822   0.517  -0.498  1.00  0.00     0.014 C 
HETATM   14  C12 UNL     1      -2.934   0.397   0.562  1.00  0.00    -0.019 C 
HETATM   15  C13 UNL     1      -4.170   1.151   0.188  1.00  0.00     0.017 C 
HETATM   16  C14 UNL     1      -2.475   0.947   1.912  1.00  0.00     0.017 C 
HETATM   17  C15 UNL     1      -3.174  -1.066   0.790  1.00  0.00     0.160 C 
HETATM   18 CL1  UNL     1      -4.659  -1.644   0.021  1.00  0.00    -0.116 Cl
HETATM   19  C16 UNL     1      -1.967  -1.733   0.273  1.00  0.00     0.157 C 
HETATM   20  O3  UNL     1      -1.556  -2.793   0.631  1.00  0.00    -0.295 OA
HETATM   21  C17 UNL     1      -1.393  -0.834  -0.751  1.00  0.00     0.057 C 
HETATM   22  C18 UNL     1      -2.106  -1.318  -2.051  1.00  0.00     0.027 C 
HETATM   23  C19 UNL     1       2.306   2.323  -0.089  1.00  0.00     0.205 C 
HETATM   24  C20 UNL     1       2.464   1.685   1.239  1.00  0.00     0.294 C 
HETATM   25  O6  UNL     1       3.095   0.547   1.489  1.00  0.00    -0.323 OA
ENDROOT
BRANCH  23  26
HETATM   26  O4  UNL     1       3.637   2.341  -0.604  1.00  0.00    -0.388 OA
ATOM     27  H4  UNL     1       4.248   2.652   0.053  1.00  0.00     0.210 HD
ENDBRANCH  23  26
BRANCH  24  28
HETATM   28  O5  UNL     1       1.893   2.391   2.175  1.00  0.00    -0.368 OA
ATOM     29  H5  UNL     1       1.994   1.982   3.026  1.00  0.00     0.212 HD
ENDBRANCH  24  28
TORSDOF 2
