REMARK  0 active torsions:
REMARK  status: ('A' for Active; 'I' for Inactive)
ROOT
HETATM    1  C1  UNL     1      -4.497   2.202  -1.206  1.00  0.00     0.017 C 
HETATM    2  C2  UNL     1      -3.557   1.770  -0.369  1.00  0.00    -0.057 C 
HETATM    3  C3  UNL     1      -2.152   2.131  -0.672  1.00  0.00     0.084 C 
HETATM    4  C4  UNL     1      -1.354   2.112   0.562  1.00  0.00     0.169 A 
HETATM    5  O1  UNL     1      -1.599   3.058   1.506  1.00  0.00    -0.336 OA
HETATM    6  C5  UNL     1      -1.897   1.740   1.797  1.00  0.00     0.302 A 
HETATM    7  O2  UNL     1      -3.160   1.278   1.945  1.00  0.00    -0.348 OA
HETATM    8  C6  UNL     1      -3.877   0.953   0.836  1.00  0.00     0.153 C 
HETATM    9  C7  UNL     1      -3.928  -0.510   0.504  1.00  0.00     0.037 C 
HETATM   10  C8  UNL     1      -2.819  -1.336   1.012  1.00  0.00     0.010 C 
HETATM   11  C9  UNL     1      -1.852  -1.725  -0.117  1.00  0.00     0.013 C 
HETATM   12  C10 UNL     1      -2.245  -3.074  -0.689  1.00  0.00     0.012 C 
HETATM   13  C11 UNL     1      -0.458  -1.856   0.426  1.00  0.00     0.164 C 
HETATM   14  C12 UNL     1       0.425  -2.728  -0.423  1.00  0.00     0.035 C 
HETATM   15  C13 UNL     1       1.833  -2.644   0.183  1.00  0.00     0.004 C 
HETATM   16  C14 UNL     1       2.895  -2.584  -0.865  1.00  0.00     0.027 C 
HETATM   17  C15 UNL     1       4.081  -1.779  -0.358  1.00  0.00     0.232 C 
HETATM   18  N1  UNL     1       3.654  -0.422  -0.138  1.00  0.00    -0.073 N 
ATOM     19  H11 UNL     1       3.343  -0.284   0.823  1.00  0.00     0.277 HD
ATOM     20  H12 UNL     1       2.777  -0.228  -0.621  1.00  0.00     0.277 HD
HETATM   21  C16 UNL     1       4.674   0.534  -0.500  1.00  0.00     0.259 C 
HETATM   22  C17 UNL     1       4.060   1.921  -0.648  1.00  0.00     0.206 C 
HETATM   23  O3  UNL     1       3.855   2.426   0.657  1.00  0.00    -0.318 OA
HETATM   24  C18 UNL     1       2.617   2.713   1.192  1.00  0.00     0.282 C 
HETATM   25  O4  UNL     1       2.420   2.498   2.408  1.00  0.00    -0.263 OA
HETATM   26  C19 UNL     1       1.526   3.264   0.363  1.00  0.00     0.282 C 
HETATM   27  O5  UNL     1       0.859   2.323  -0.383  1.00  0.00    -0.345 OA
HETATM   28  C20 UNL     1       0.012   1.510   0.355  1.00  0.00     0.337 C 
HETATM   29  O6  UNL     1      -0.192   0.272  -0.259  1.00  0.00    -0.204 OA
HETATM   30  O7  UNL     1       0.187  -0.645   0.593  1.00  0.00    -0.233 OA
ENDROOT
TORSDOF 0
