REMARK  0 active torsions:
REMARK  status: ('A' for Active; 'I' for Inactive)
ROOT
HETATM    1 CL1  UNL     1       1.557  -3.637   1.786  1.00  0.00    -0.122 Cl
HETATM    2  C1  UNL     1       1.768  -3.393   0.024  1.00  0.00     0.117 C 
HETATM    3  C2  UNL     1       2.716  -2.277  -0.266  1.00  0.00     0.259 C 
HETATM    4  N1  UNL     1       2.795  -1.292   0.794  1.00  0.00    -0.015 N 
ATOM      5  H11 UNL     1       3.543  -1.512   1.451  1.00  0.00     0.283 HD
ATOM      6  H12 UNL     1       2.000  -1.364   1.429  1.00  0.00     0.283 HD
HETATM    7  C3  UNL     1       2.933   0.065   0.261  1.00  0.00     0.346 C 
HETATM    8  C4  UNL     1       1.538   0.635   0.178  1.00  0.00     0.175 C 
HETATM    9  S1  UNL     1       1.499   2.321  -0.439  1.00  0.00    -0.161 SA
HETATM   10  C5  UNL     1       0.287   3.255   0.506  1.00  0.00     0.084 C 
HETATM   11  C6  UNL     1      -0.780   3.874  -0.356  1.00  0.00     0.084 C 
HETATM   12  S2  UNL     1      -1.923   2.681  -1.051  1.00  0.00    -0.168 SA
HETATM   13  C7  UNL     1      -3.585   2.805  -0.354  1.00  0.00     0.084 C 
HETATM   14  C8  UNL     1      -4.335   1.520  -0.638  1.00  0.00     0.084 C 
HETATM   15  S3  UNL     1      -3.964   0.318   0.661  1.00  0.00    -0.168 SA
HETATM   16  C9  UNL     1      -4.518  -1.336   0.249  1.00  0.00     0.074 C 
HETATM   17  C10 UNL     1      -3.541  -2.364   0.815  1.00  0.00     0.020 C 
HETATM   18  C11 UNL     1      -2.227  -2.127   0.096  1.00  0.00     0.075 C 
HETATM   19  S4  UNL     1      -0.888  -3.133   0.724  1.00  0.00    -0.168 SA
HETATM   20  C12 UNL     1       0.406  -3.217  -0.568  1.00  0.00     0.095 C 
HETATM   21  O1  UNL     1       3.602   0.055  -0.937  1.00  0.00    -0.330 OA
HETATM   22  C13 UNL     1       4.863   0.576  -0.745  1.00  0.00     0.199 C 
HETATM   23  C14 UNL     1       4.614   1.529   0.432  1.00  0.00     0.199 C 
HETATM   24  O2  UNL     1       3.704   0.785   1.175  1.00  0.00    -0.330 OA
ENDROOT
TORSDOF 0
