REMARK  0 active torsions:
REMARK  status: ('A' for Active; 'I' for Inactive)
ROOT
HETATM    1  C1  UNL     1       1.212   2.379   1.396  1.00  0.00     0.015 C 
HETATM    2  C2  UNL     1       1.678   1.462   0.284  1.00  0.00     0.047 C 
HETATM    3  C3  UNL     1       2.769   0.651   0.925  1.00  0.00     0.182 C 
HETATM    4  O1  UNL     1       4.099   0.986   0.529  1.00  0.00    -0.309 OA
HETATM    5  C4  UNL     1       4.292  -0.135  -0.224  1.00  0.00     0.296 C 
HETATM    6  O2  UNL     1       5.132  -0.560  -1.031  1.00  0.00    -0.262 OA
HETATM    7  C5  UNL     1       3.010  -0.674   0.351  1.00  0.00     0.173 C 
HETATM    8  C6  UNL     1       3.428  -1.722   1.403  1.00  0.00     0.060 C 
HETATM    9  O3  UNL     1       2.117  -1.201  -0.455  1.00  0.00    -0.351 OA
HETATM   10  C7  UNL     1       1.219  -0.446  -1.185  1.00  0.00     0.104 C 
HETATM   11  C8  UNL     1       2.152   0.147  -2.277  1.00  0.00     0.053 C 
HETATM   12  C9  UNL     1       0.338  -1.417  -1.832  1.00  0.00     0.011 C 
HETATM   13  C10 UNL     1      -1.123  -1.315  -1.898  1.00  0.00     0.007 C 
HETATM   14  C11 UNL     1      -1.995  -1.458  -0.741  1.00  0.00     0.179 C 
HETATM   15  O4  UNL     1      -2.784  -0.291  -0.554  1.00  0.00    -0.365 OA
HETATM   16  C12 UNL     1      -1.904   0.775  -0.588  1.00  0.00     0.221 A 
HETATM   17  C13 UNL     1      -2.272   1.938   0.352  1.00  0.00     0.089 A 
HETATM   18  C14 UNL     1      -2.252   3.309  -0.297  1.00  0.00     0.048 C 
HETATM   19  C15 UNL     1      -3.593   1.810   1.059  1.00  0.00     0.048 C 
HETATM   20  O5  UNL     1      -1.146   1.523   1.011  1.00  0.00    -0.338 OA
HETATM   21  C16 UNL     1      -0.663   0.479   0.186  1.00  0.00     0.221 A 
HETATM   22  O6  UNL     1      -0.606  -0.664   0.907  1.00  0.00    -0.338 OA
HETATM   23  C17 UNL     1      -1.378  -1.726   0.604  1.00  0.00     0.087 C 
HETATM   24  C18 UNL     1      -2.549  -1.811   1.599  1.00  0.00     0.049 C 
HETATM   25  C19 UNL     1      -0.747  -3.093   0.708  1.00  0.00     0.049 C 
HETATM   26  C20 UNL     1       0.638   0.741  -0.486  1.00  0.00     0.136 C 
HETATM   27 CL1  UNL     1       0.239   1.828  -1.894  1.00  0.00    -0.109 Cl
ENDROOT
TORSDOF 0
