REMARK  2 active torsions:
REMARK  status: ('A' for Active; 'I' for Inactive)
REMARK    1  A    between atoms: C14_21  and  C15_22 
REMARK    2  A    between atoms: C15_22  and  O7_23 
ROOT
HETATM    1  C1  UNL     1       1.276   1.410  -1.578  1.00  0.00     0.015 C 
HETATM    2  C2  UNL     1       0.852   0.088  -1.074  1.00  0.00     0.043 C 
HETATM    3  C3  UNL     1      -0.288   0.350  -0.072  1.00  0.00     0.139 C 
HETATM    4  O1  UNL     1      -1.121   1.343  -0.510  1.00  0.00    -0.355 OA
HETATM    5  C4  UNL     1      -2.398   1.276   0.046  1.00  0.00     0.262 C 
HETATM    6  C5  UNL     1      -3.350   0.879  -1.016  1.00  0.00     0.088 C 
HETATM    7  C6  UNL     1      -4.606   0.241  -0.575  1.00  0.00     0.067 C 
HETATM    8  C7  UNL     1      -5.594   1.366  -0.225  1.00  0.00     0.035 C 
HETATM    9 CL1  UNL     1      -5.330  -0.570  -2.014  1.00  0.00    -0.117 Cl
HETATM   10  C8  UNL     1      -4.575  -0.709   0.517  1.00  0.00     0.189 C 
HETATM   11  O2  UNL     1      -4.706  -0.194   1.826  1.00  0.00    -0.288 OA
HETATM   12  C9  UNL     1      -4.315  -1.269   2.651  1.00  0.00     0.407 C 
HETATM   13  O3  UNL     1      -4.440  -1.354   3.909  1.00  0.00    -0.229 OA
HETATM   14  O4  UNL     1      -3.744  -2.280   1.862  1.00  0.00    -0.287 OA
HETATM   15  C10 UNL     1      -3.348  -1.575   0.666  1.00  0.00     0.195 C 
HETATM   16  C11 UNL     1      -2.113  -0.804   1.038  1.00  0.00     0.165 C 
HETATM   17  O5  UNL     1      -2.461   0.520   1.196  1.00  0.00    -0.353 OA
HETATM   18  C12 UNL     1      -0.991  -0.999   0.044  1.00  0.00     0.071 C 
HETATM   19  C13 UNL     1       0.064  -1.975   0.527  1.00  0.00     0.178 C 
HETATM   20  O6  UNL     1       1.304  -1.388   0.702  1.00  0.00    -0.382 OA
HETATM   21  C14 UNL     1       1.807  -0.821  -0.493  1.00  0.00     0.161 C 
ENDROOT
BRANCH  21  22
HETATM   22  C15 UNL     1       3.185  -0.377  -0.161  1.00  0.00     0.084 C 
HETATM   23  C16 UNL     1       3.982   0.192  -1.277  1.00  0.00     0.040 C 
HETATM   24  C17 UNL     1       5.465  -0.056  -0.939  1.00  0.00     0.003 C 
HETATM   25  C18 UNL     1       5.710   0.565   0.395  1.00  0.00     0.000 C 
HETATM   26  C19 UNL     1       4.541   1.347   0.933  1.00  0.00     0.003 C 
HETATM   27  C20 UNL     1       3.286   0.520   1.056  1.00  0.00     0.040 C 
BRANCH  22  28
HETATM   28  O7  UNL     1       3.874  -1.561   0.232  1.00  0.00    -0.387 OA
ATOM     29  H7  UNL     1       4.755  -1.277   0.444  1.00  0.00     0.210 HD
ENDBRANCH  22  28
ENDBRANCH  21  22
TORSDOF 2
