REMARK  2 active torsions:
REMARK  status: ('A' for Active; 'I' for Inactive)
REMARK    1  A    between atoms: C2_2  and  O1_3 
REMARK    2  A    between atoms: C8_10  and  O2_11 
ROOT
HETATM    1  C1  UNL     1      -0.636  -1.206   1.675  1.00  0.00     0.047 C 
HETATM    2  C2  UNL     1      -1.024  -0.442   0.478  1.00  0.00     0.069 C 
HETATM    3  C3  UNL     1      -0.340  -0.737  -0.818  1.00  0.00     0.070 C 
HETATM    4  C4  UNL     1       1.126  -0.943  -0.725  1.00  0.00     0.011 C 
HETATM    5  C5  UNL     1       1.792  -0.107   0.337  1.00  0.00     0.001 C 
HETATM    6  C6  UNL     1       0.968   1.050   0.795  1.00  0.00     0.011 C 
HETATM    7  C7  UNL     1      -0.464   0.969   0.355  1.00  0.00     0.070 C 
HETATM    8  C8  UNL     1      -0.559   0.746  -1.157  1.00  0.00     0.159 C 
HETATM    9  C9  UNL     1       0.493   1.350  -1.932  1.00  0.00     0.098 C 
HETATM   10  N1  UNL     1       1.320   1.843  -2.556  1.00  0.00    -0.194 NA
ENDROOT
BRANCH   8  11
HETATM   11  O2  UNL     1      -1.834   0.970  -1.653  1.00  0.00    -0.374 OA
ATOM     12  H2  UNL     1      -1.969   1.887  -1.863  1.00  0.00     0.212 HD
ENDBRANCH   8  11
BRANCH   2  13
HETATM   13  O1  UNL     1      -2.416  -0.374   0.268  1.00  0.00    -0.389 OA
ATOM     14  H1  UNL     1      -2.666   0.119  -0.504  1.00  0.00     0.210 HD
ENDBRANCH   2  13
TORSDOF 2
