REMARK  3 active torsions:
REMARK  status: ('A' for Active; 'I' for Inactive)
REMARK    1  A    between atoms: O1_1  and  C1_3 
REMARK    2  A    between atoms: C4_6  and  O2_7 
REMARK    3  A    between atoms: C5_9  and  O3_10 
ROOT
HETATM    1  C1  UNL     1       1.635   0.243  -0.596  1.00  0.00     0.125 C 
HETATM    2  C2  UNL     1       1.943  -0.795   0.462  1.00  0.00     0.035 C 
HETATM    3  C3  UNL     1       0.667  -0.878   1.272  1.00  0.00     0.043 C 
HETATM    4  C4  UNL     1      -0.388  -0.838   0.180  1.00  0.00     0.089 C 
HETATM    5  C5  UNL     1      -1.560  -0.075   0.710  1.00  0.00     0.153 C 
HETATM    6  C6  UNL     1      -1.128   1.366   0.407  1.00  0.00     0.035 C 
HETATM    7  C7  UNL     1      -0.648   1.193  -1.040  1.00  0.00     0.013 C 
HETATM    8  C8  UNL     1       0.205  -0.042  -0.952  1.00  0.00     0.051 C 
ENDROOT
BRANCH   1   9
HETATM    9  O1  UNL     1       1.855   1.536  -0.164  1.00  0.00    -0.395 OA
ATOM     10  H1  UNL     1       1.662   2.187  -0.828  1.00  0.00     0.210 HD
ENDBRANCH   1   9
BRANCH   4  11
HETATM   11  O2  UNL     1      -0.665  -2.102  -0.251  1.00  0.00    -0.387 OA
ATOM     12  H2  UNL     1      -1.325  -2.077  -0.934  1.00  0.00     0.210 HD
ENDBRANCH   4  11
BRANCH   5  13
HETATM   13  O3  UNL     1      -2.733  -0.285   0.014  1.00  0.00    -0.393 OA
ATOM     14  H3  UNL     1      -3.477   0.200   0.351  1.00  0.00     0.210 HD
ENDBRANCH   5  13
TORSDOF 3
