REMARK  2 active torsions:
REMARK  status: ('A' for Active; 'I' for Inactive)
REMARK    1  A    between atoms: O1_1  and  C1_3 
REMARK    2  A    between atoms: C5_7  and  O2_8 
ROOT
HETATM    1  C1  UNL     1       2.179   0.052  -0.370  1.00  0.00     0.118 C 
HETATM    2  C2  UNL     1       1.746  -1.280   0.138  1.00  0.00     0.032 C 
HETATM    3  C3  UNL     1       0.393  -1.100   0.817  1.00  0.00     0.010 C 
HETATM    4  C4  UNL     1      -0.558  -0.859  -0.331  1.00  0.00     0.018 C 
HETATM    5  C5  UNL     1      -1.944  -0.702   0.227  1.00  0.00     0.122 C 
HETATM    6  C6  UNL     1      -1.919   0.748   0.677  1.00  0.00     0.032 C 
HETATM    7  C7  UNL     1      -1.305   1.405  -0.552  1.00  0.00     0.007 C 
HETATM    8  C8  UNL     1      -0.236   0.410  -1.030  1.00  0.00    -0.006 C 
HETATM    9  C9  UNL     1       1.120   0.956  -0.841  1.00  0.00     0.037 C 
ENDROOT
BRANCH   1  10
HETATM   10  O1  UNL     1       2.899   0.677   0.676  1.00  0.00    -0.396 OA
ATOM     11  H1  UNL     1       3.175   1.526   0.352  1.00  0.00     0.210 HD
ENDBRANCH   1  10
BRANCH   5  12
HETATM   12  O2  UNL     1      -2.160  -1.587   1.245  1.00  0.00    -0.395 OA
ATOM     13  H2  UNL     1      -3.036  -1.488   1.598  1.00  0.00     0.210 HD
ENDBRANCH   5  12
TORSDOF 2
