REMARK  3 active torsions:
REMARK  status: ('A' for Active; 'I' for Inactive)
REMARK    1  A    between atoms: O1_1  and  C1_3 
REMARK    2  A    between atoms: C4_6  and  O2_7 
REMARK    3  A    between atoms: C8_12  and  O3_13 
ROOT
HETATM    1  C1  UNL     1       1.563  -0.194  -0.473  1.00  0.00     0.122 C 
HETATM    2  C2  UNL     1       0.619   0.742  -1.190  1.00  0.00     0.041 C 
HETATM    3  C3  UNL     1      -0.722   0.849  -0.500  1.00  0.00     0.045 C 
HETATM    4  C4  UNL     1      -1.415  -0.499  -0.630  1.00  0.00     0.125 C 
HETATM    5  C5  UNL     1      -0.438  -1.544  -0.172  1.00  0.00     0.039 C 
HETATM    6  C6  UNL     1       0.748  -0.928   0.574  1.00  0.00     0.019 C 
HETATM    7  C7  UNL     1       0.227   0.018   1.621  1.00  0.00     0.039 C 
HETATM    8  C8  UNL     1      -0.574   1.107   0.987  1.00  0.00     0.125 C 
ENDROOT
BRANCH   1   9
HETATM    9  O1  UNL     1       2.654   0.463   0.053  1.00  0.00    -0.395 OA
ATOM     10  H1  UNL     1       3.248  -0.126   0.504  1.00  0.00     0.210 HD
ENDBRANCH   1   9
BRANCH   4  11
HETATM   11  O2  UNL     1      -1.890  -0.697  -1.906  1.00  0.00    -0.395 OA
ATOM     12  H2  UNL     1      -2.323  -1.539  -1.987  1.00  0.00     0.210 HD
ENDBRANCH   4  11
BRANCH   8  13
HETATM   13  O3  UNL     1      -0.129   2.377   1.275  1.00  0.00    -0.395 OA
ATOM     14  H3  UNL     1      -0.036   2.539   2.207  1.00  0.00     0.210 HD
ENDBRANCH   8  13
TORSDOF 3
