REMARK  3 active torsions:
REMARK  status: ('A' for Active; 'I' for Inactive)
REMARK    1  A    between atoms: N2_5  and  C4_6 
REMARK    2  A    between atoms: C7_9  and  O1_10 
REMARK    3  A    between atoms: C10_17  and  N4_18 
ROOT
HETATM    1  N1  UNL     1       5.540   0.874  -1.545  1.00  0.00    -0.191 NA
HETATM    2  C1  UNL     1       4.531   0.517  -1.105  1.00  0.00     0.104 C 
HETATM    3  C2  UNL     1       3.300   0.065  -0.557  1.00  0.00     0.106 A 
HETATM    4  C3  UNL     1       2.049   0.400  -1.008  1.00  0.00     0.137 A 
HETATM    5  N2  UNL     1       1.111  -0.226  -0.232  1.00  0.00    -0.294 N 
HETATM    6  N3  UNL     1       1.795  -0.912   0.652  1.00  0.00    -0.282 N 
ATOM      7  H3  UNL     1       1.365  -1.489   1.375  1.00  0.00     0.189 HD
HETATM    8  C10 UNL     1       3.125  -0.772   0.502  1.00  0.00     0.136 A 
ENDROOT
BRANCH   8   9
HETATM    9  N4  UNL     1       4.033  -1.348   1.251  1.00  0.00    -0.383 N 
ATOM     10  H42 UNL     1       5.041  -1.242   1.137  1.00  0.00     0.157 HD
ATOM     11  H41 UNL     1       3.902  -1.975   2.045  1.00  0.00     0.157 HD
ENDBRANCH   8   9
BRANCH   5  12
HETATM   12  C4  UNL     1      -0.322  -0.099  -0.423  1.00  0.00     0.126 C 
HETATM   13  C5  UNL     1      -0.719   1.284  -0.027  1.00  0.00     0.031 C 
HETATM   14  C6  UNL     1      -2.131   1.424   0.414  1.00  0.00     0.034 C 
HETATM   15  C7  UNL     1      -3.023   0.297   0.027  1.00  0.00     0.119 C 
HETATM   16  C8  UNL     1      -2.499  -1.059   0.312  1.00  0.00     0.054 C 
HETATM   17  C9  UNL     1      -1.012  -1.165   0.386  1.00  0.00     0.109 C 
HETATM   18 CL1  UNL     1      -0.557  -2.750  -0.334  1.00  0.00    -0.123 Cl
BRANCH  15  19
HETATM   19  O1  UNL     1      -3.335   0.422  -1.329  1.00  0.00    -0.396 OA
ATOM     20  H1  UNL     1      -3.904  -0.297  -1.576  1.00  0.00     0.210 HD
ENDBRANCH  15  19
ENDBRANCH   5  12
TORSDOF 3
