REMARK  4 active torsions:
REMARK  status: ('A' for Active; 'I' for Inactive)
REMARK    1  A    between atoms: C2_2  and  O1_4 
REMARK    2  A    between atoms: O1_4  and  N1_5 
REMARK       I    between atoms: N1_5  and  C4_7 
REMARK       I    between atoms: C4_7  and  N3_12 
REMARK    3  A    between atoms: N2_8  and  O2_10 
REMARK    4  A    between atoms: N3_12  and  C5_14 
ROOT
HETATM    1  N1  UNL     1      -0.582   0.050   0.983  1.00  0.00    -0.094 N 
ATOM      2  H1  UNL     1      -0.220  -0.545   1.728  1.00  0.00     0.213 HD
HETATM    3  C4  UNL     1       0.304   0.600   0.021  1.00  0.00     0.723 C 
HETATM    4  N2  UNL     1       0.464   1.859  -0.066  1.00  0.00    -0.097 N 
ATOM      5  H2  UNL     1       1.103   2.246  -0.760  1.00  0.00     0.213 HD
HETATM    6  N3  UNL     1       1.049  -0.211  -0.882  1.00  0.00    -0.167 N 
ATOM      7  H3  UNL     1       0.593  -0.631  -1.692  1.00  0.00     0.186 HD
ENDROOT
BRANCH   1   8
HETATM    8  O1  UNL     1      -1.894   0.312   0.913  1.00  0.00    -0.262 OA
BRANCH   8   9
HETATM    9  C2  UNL     1      -2.406  -0.358  -0.190  1.00  0.00     0.144 C 
HETATM   10  C1  UNL     1      -3.020   0.688  -1.102  1.00  0.00     0.042 C 
HETATM   11  C3  UNL     1      -3.450  -1.346   0.279  1.00  0.00     0.042 C 
ENDBRANCH   8   9
ENDBRANCH   1   8
BRANCH   4  12
HETATM   12  O2  UNL     1      -0.222   2.691   0.773  1.00  0.00    -0.276 OA
ATOM     13  H2  UNL     1      -0.103   3.631   0.708  1.00  0.00     0.245 HD
ENDBRANCH   4  12
BRANCH   6  14
HETATM   14  C5  UNL     1       2.328  -0.413  -0.663  1.00  0.00     0.165 A 
HETATM   15  N4  UNL     1       3.064   0.060   0.339  1.00  0.00    -0.344 N 
HETATM   16  C6  UNL     1       4.327  -0.252   0.388  1.00  0.00     0.121 A 
ATOM     17  H4  UNL     1       2.647   0.655   1.055  1.00  0.00     0.167 HD
HETATM   18  C7  UNL     1       4.828  -1.054  -0.601  1.00  0.00     0.093 A 
HETATM   19 CL1  UNL     1       6.486  -1.641  -0.800  1.00  0.00    -0.075 Cl
HETATM   20  S1  UNL     1       3.446  -1.327  -1.568  1.00  0.00    -0.040 SA
ENDBRANCH   6  14
TORSDOF 4
