REMARK  2 active torsions:
REMARK  status: ('A' for Active; 'I' for Inactive)
REMARK    1  A    between atoms: N4_11  and  N5_12 
REMARK    2  A    between atoms: N5_12  and  C3_14 
ROOT
HETATM    1  N1  UNL     1      -2.337   1.054  -1.943  1.00  0.00    -0.231 N 
ATOM      2  H11 UNL     1      -1.463   0.989  -2.466  1.00  0.00     0.174 HD
ATOM      3  H12 UNL     1      -2.942   1.767  -2.350  1.00  0.00     0.174 HD
HETATM    4  C1  UNL     1      -2.648   0.331  -0.899  1.00  0.00     0.714 A 
HETATM    5  N2  UNL     1      -3.798   0.416  -0.211  1.00  0.00    -0.128 N 
ATOM      6  H2  UNL     1      -4.582   1.042  -0.396  1.00  0.00     0.205 HD
HETATM    7  N3  UNL     1      -3.703  -0.480   0.755  1.00  0.00    -0.260 N 
ATOM      8  H3  UNL     1      -4.423  -0.660   1.454  1.00  0.00     0.190 HD
HETATM    9  C2  UNL     1      -2.524  -1.120   0.687  1.00  0.00     0.230 A 
HETATM   10  S1  UNL     1      -1.951  -2.311   1.667  1.00  0.00    -0.037 SA
HETATM   11  N4  UNL     1      -1.847  -0.612  -0.360  1.00  0.00    -0.057 N 
ENDROOT
BRANCH  11  12
HETATM   12  N5  UNL     1      -0.594  -0.971  -0.801  1.00  0.00    -0.284 N 
ATOM     13  H5  UNL     1      -0.549  -1.588  -1.612  1.00  0.00     0.187 HD
BRANCH  12  14
HETATM   14  C3  UNL     1       0.521  -0.604  -0.290  1.00  0.00     0.023 C 
HETATM   15  C4  UNL     1       0.518   0.286   0.880  1.00  0.00     0.056 C 
HETATM   16  C5  UNL     1       1.691   1.219   0.934  1.00  0.00     0.006 C 
HETATM   17  C6  UNL     1       2.979   0.522   0.604  1.00  0.00     0.002 C 
HETATM   18  C7  UNL     1       2.955  -0.241  -0.670  1.00  0.00     0.026 C 
HETATM   19  C8  UNL     1       1.755  -1.085  -0.890  1.00  0.00     0.129 C 
HETATM   20 CL1  UNL     1       1.562  -1.270  -2.669  1.00  0.00    -0.119 Cl
ENDBRANCH  12  14
ENDBRANCH  11  12
TORSDOF 2
