REMARK  4 active torsions:
REMARK  status: ('A' for Active; 'I' for Inactive)
REMARK       I    between atoms: C2_2  and  N1_4 
REMARK    1  A    between atoms: N1_4  and  C3_6 
REMARK    2  A    between atoms: C7_11  and  C8_12 
REMARK    3  A    between atoms: C8_12  and  N2_14 
REMARK    4  A    between atoms: N2_14  and  N3_16 
ROOT
HETATM    1  C3  UNL     1       0.743   0.341  -0.506  1.00  0.00     0.090 A 
HETATM    2  S1  UNL     1       1.286   1.610  -1.512  1.00  0.00    -0.083 SA
HETATM    3  C4  UNL     1      -0.218   2.264  -1.964  1.00  0.00     0.059 A 
HETATM    4  C5  UNL     1      -1.117   1.470  -1.314  1.00  0.00    -0.039 A 
HETATM    5  C6  UNL     1      -2.609   1.748  -1.475  1.00  0.00     0.050 C 
HETATM    6  C7  UNL     1      -0.618   0.464  -0.552  1.00  0.00     0.043 A 
ENDROOT
BRANCH   6   7
HETATM    7  C8  UNL     1      -1.466  -0.498   0.227  1.00  0.00     0.128 C 
HETATM    8  S2  UNL     1      -2.620  -1.386  -0.504  1.00  0.00    -0.058 SA
BRANCH   7   9
HETATM    9  N2  UNL     1      -1.269  -0.645   1.625  1.00  0.00    -0.296 N 
ATOM     10  H2  UNL     1      -0.550  -0.094   2.094  1.00  0.00     0.187 HD
BRANCH   9  11
HETATM   11  N3  UNL     1      -2.050  -1.536   2.365  1.00  0.00    -0.344 N 
ATOM     12  H32 UNL     1      -2.765  -2.079   1.881  1.00  0.00     0.176 HD
ATOM     13  H31 UNL     1      -1.908  -1.642   3.370  1.00  0.00     0.176 HD
ENDBRANCH   9  11
ENDBRANCH   7   9
ENDBRANCH   6   7
BRANCH   1  14
HETATM   14  N1  UNL     1       1.537  -0.618   0.209  1.00  0.00    -0.321 N 
HETATM   15  C2  UNL     1       2.935  -0.533   0.091  1.00  0.00     0.218 C 
HETATM   16  C1  UNL     1       3.805  -1.517   0.823  1.00  0.00     0.117 C 
HETATM   17  O1  UNL     1       3.484   0.359  -0.622  1.00  0.00    -0.274 OA
ATOM     18  H1  UNL     1       1.100  -1.338   0.784  1.00  0.00     0.169 HD
ENDBRANCH   1  14
TORSDOF 4
