REMARK  3 active torsions:
REMARK  status: ('A' for Active; 'I' for Inactive)
REMARK    1  A    between atoms: C16_19  and  O1_20 
REMARK    2  A    between atoms: C16_19  and  C17_22 
REMARK    3  A    between atoms: C17_22  and  O2_23 
ROOT
HETATM    1  C1  UNL     1       1.334  -3.168   0.287  1.00  0.00     0.010 C 
HETATM    2  C2  UNL     1       1.452  -1.683  -0.115  1.00  0.00    -0.010 C 
HETATM    3  C3  UNL     1       2.879  -1.365  -0.153  1.00  0.00     0.005 C 
HETATM    4  C4  UNL     1       3.354  -0.250   0.720  1.00  0.00     0.009 C 
HETATM    5  C5  UNL     1       2.799   1.039   0.120  1.00  0.00    -0.044 C 
HETATM    6  C6  UNL     1       2.748   1.033  -1.346  1.00  0.00     0.015 C 
HETATM    7  C7  UNL     1       3.820   2.126   0.517  1.00  0.00     0.015 C 
HETATM    8  C8  UNL     1       1.575   1.338   0.889  1.00  0.00     0.045 C 
HETATM    9  C9  UNL     1       0.368   0.526   0.699  1.00  0.00    -0.052 C 
HETATM   10  C10 UNL     1      -0.593   1.112  -0.261  1.00  0.00     0.013 C 
HETATM   11  N1  UNL     1      -0.366   2.211  -0.817  1.00  0.00    -0.402 N 
ATOM     12  H11 UNL     1      -1.029   2.615  -1.479  1.00  0.00     0.156 HD
ATOM     13  H12 UNL     1       0.512   2.680  -0.595  1.00  0.00     0.156 HD
HETATM   14  C11 UNL     1      -1.852   0.439  -0.579  1.00  0.00     0.080 C 
HETATM   15  C12 UNL     1      -1.731  -1.025  -0.491  1.00  0.00    -0.031 C 
HETATM   16  C13 UNL     1      -1.460  -1.566  -1.887  1.00  0.00     0.016 C 
HETATM   17  C14 UNL     1      -3.159  -1.490  -0.163  1.00  0.00     0.013 C 
HETATM   18  C15 UNL     1      -4.017  -0.276  -0.159  1.00  0.00     0.041 C 
HETATM   19  C16 UNL     1      -3.009   0.798   0.289  1.00  0.00     0.088 C 
HETATM   20  C18 UNL     1      -0.859  -1.565   0.571  1.00  0.00     0.019 C 
HETATM   21  C19 UNL     1       0.509  -0.936   0.706  1.00  0.00     0.021 C 
ENDROOT
BRANCH  19  22
HETATM   22  O1  UNL     1      -2.842   0.623   1.631  1.00  0.00    -0.387 OA
ATOM     23  H1  UNL     1      -3.580   0.852   2.184  1.00  0.00     0.210 HD
ENDBRANCH  19  22
BRANCH  19  24
HETATM   24  C17 UNL     1      -3.641   2.131  -0.001  1.00  0.00     0.202 C 
BRANCH  24  25
HETATM   25  O2  UNL     1      -2.893   3.211   0.461  1.00  0.00    -0.398 OA
ATOM     26  H2  UNL     1      -3.292   4.053   0.278  1.00  0.00     0.209 HD
ENDBRANCH  24  25
ENDBRANCH  19  24
TORSDOF 3
