REMARK  4 active torsions:
REMARK  status: ('A' for Active; 'I' for Inactive)
REMARK    1  A    between atoms: C2_2  and  C4_4 
REMARK    2  A    between atoms: C4_4  and  C5_5 
REMARK    3  A    between atoms: C9_9  and  O1_10 
REMARK    4  A    between atoms: C14_16  and  O2_17 
ROOT
HETATM    1  C5  UNL     1       1.931   0.602  -0.137  1.00  0.00    -0.005 C 
HETATM    2  C6  UNL     1       2.324   1.147   1.230  1.00  0.00     0.006 C 
HETATM    3  C7  UNL     1       1.337   0.336   2.106  1.00  0.00     0.008 C 
HETATM    4  C8  UNL     1       0.080   0.488   1.342  1.00  0.00     0.020 C 
HETATM    5  C9  UNL     1      -0.773  -0.702   1.212  1.00  0.00     0.128 C 
HETATM    6  C10 UNL     1      -1.343  -0.609  -0.187  1.00  0.00     0.033 C 
HETATM    7  C11 UNL     1      -2.809  -0.388  -0.229  1.00  0.00    -0.015 C 
HETATM    8  C12 UNL     1      -3.421  -1.248  -1.350  1.00  0.00     0.018 C 
HETATM    9  C13 UNL     1      -3.513  -0.926   1.019  1.00  0.00     0.018 C 
HETATM   10  C14 UNL     1      -3.310   0.987  -0.423  1.00  0.00     0.126 C 
HETATM   11  C15 UNL     1      -2.256   2.022  -0.696  1.00  0.00     0.033 C 
HETATM   12  C16 UNL     1      -1.297   1.443  -1.649  1.00  0.00     0.012 C 
HETATM   13  C17 UNL     1      -0.489   0.301  -1.001  1.00  0.00    -0.033 C 
HETATM   14  C18 UNL     1       0.070  -0.412  -2.246  1.00  0.00     0.016 C 
HETATM   15  C19 UNL     1       0.500   0.829  -0.088  1.00  0.00     0.005 C 
ENDROOT
BRANCH   1  16
HETATM   16  C4  UNL     1       2.621  -0.622  -0.375  1.00  0.00     0.037 C 
BRANCH  16  17
HETATM   17  C2  UNL     1       4.103  -0.471  -0.435  1.00  0.00    -0.093 C 
HETATM   18  C1  UNL     1       4.771   0.665  -0.450  1.00  0.00     0.014 C 
HETATM   19  C3  UNL     1       4.965  -1.731  -0.475  1.00  0.00     0.042 C 
ENDBRANCH  16  17
ENDBRANCH   1  16
BRANCH   5  20
HETATM   20  O1  UNL     1      -0.142  -1.918   1.473  1.00  0.00    -0.395 OA
ATOM     21  H1  UNL     1      -0.693  -2.687   1.389  1.00  0.00     0.210 HD
ENDBRANCH   5  20
BRANCH  10  22
HETATM   22  O2  UNL     1      -4.231   1.096  -1.490  1.00  0.00    -0.395 OA
ATOM     23  H2  UNL     1      -4.553   1.981  -1.615  1.00  0.00     0.210 HD
ENDBRANCH  10  22
TORSDOF 4
