REMARK  4 active torsions:
REMARK  status: ('A' for Active; 'I' for Inactive)
REMARK    1  A    between atoms: C3_3  and  C4_4 
REMARK    2  A    between atoms: C12_15  and  C14_17 
REMARK    3  A    between atoms: C14_17  and  O1_18 
REMARK    4  A    between atoms: C15_20  and  O2_21 
ROOT
HETATM    1  C4  UNL     1       1.335  -0.104  -0.612  1.00  0.00    -0.012 C 
HETATM    2  C5  UNL     1       2.054  -0.563  -1.881  1.00  0.00     0.021 C 
HETATM    3  C6  UNL     1       1.548   1.364  -0.528  1.00  0.00    -0.000 C 
HETATM    4  C7  UNL     1       2.755   1.916  -1.239  1.00  0.00     0.011 C 
HETATM    5  C8  UNL     1       1.652   1.756   0.917  1.00  0.00     0.061 C 
HETATM    6  C9  UNL     1       0.642   1.142   1.775  1.00  0.00     0.003 C 
HETATM    7  N1  UNL     1       0.794   1.597   2.991  1.00  0.00    -0.402 N 
ATOM      8  H11 UNL     1       0.089   1.168   3.590  1.00  0.00     0.156 HD
ATOM      9  H12 UNL     1       1.573   2.255   3.014  1.00  0.00     0.156 HD
HETATM   10  C10 UNL     1      -0.466   0.205   1.742  1.00  0.00     0.029 C 
HETATM   11  C11 UNL     1      -0.944  -0.413   0.506  1.00  0.00    -0.056 C 
HETATM   12  C12 UNL     1      -2.400   0.034   0.258  1.00  0.00     0.027 C 
HETATM   13  C13 UNL     1      -2.573   1.506   0.571  1.00  0.00     0.025 C 
HETATM   14  C15 UNL     1      -2.967  -0.314  -1.050  1.00  0.00     0.132 C 
HETATM   15  C16 UNL     1      -2.049  -0.475  -2.200  1.00  0.00     0.034 C 
HETATM   16  C17 UNL     1      -0.750   0.267  -1.851  1.00  0.00     0.017 C 
HETATM   17  C18 UNL     1      -0.129  -0.483  -0.714  1.00  0.00    -0.009 C 
HETATM   18  C19 UNL     1      -0.085  -1.933  -1.254  1.00  0.00     0.021 C 
ENDROOT
BRANCH   1  19
HETATM   19  C3  UNL     1       2.017  -0.865   0.461  1.00  0.00    -0.020 C 
HETATM   20  C2  UNL     1       3.314  -0.860   0.675  1.00  0.00    -0.034 C 
HETATM   21  C1  UNL     1       3.939  -1.665   1.793  1.00  0.00     0.036 C 
ENDBRANCH   1  19
BRANCH  12  22
HETATM   22  C14 UNL     1      -3.259  -0.672   1.320  1.00  0.00     0.180 C 
BRANCH  22  23
HETATM   23  O1  UNL     1      -4.591  -0.355   1.207  1.00  0.00    -0.400 OA
ATOM     24  H1  UNL     1      -5.122  -0.791   1.863  1.00  0.00     0.209 HD
ENDBRANCH  22  23
ENDBRANCH  12  22
BRANCH  14  25
HETATM   25  O2  UNL     1      -3.783  -1.468  -1.036  1.00  0.00    -0.394 OA
ATOM     26  H2  UNL     1      -4.150  -1.693  -1.883  1.00  0.00     0.210 HD
ENDBRANCH  14  25
TORSDOF 4
