REMARK  5 active torsions:
REMARK  status: ('A' for Active; 'I' for Inactive)
REMARK    1  A    between atoms: C2_2  and  O1_3 
REMARK    2  A    between atoms: C2_2  and  C3_5 
REMARK    3  A    between atoms: C3_5  and  C5_7 
REMARK    4  A    between atoms: C13_15  and  O2_16 
REMARK    5  A    between atoms: C18_22  and  O3_23 
ROOT
HETATM    1  C5  UNL     1       1.345  -0.195  -0.407  1.00  0.00    -0.012 C 
HETATM    2  C6  UNL     1       1.562  -1.651  -0.842  1.00  0.00     0.018 C 
HETATM    3  C7  UNL     1       0.677   0.492  -1.565  1.00  0.00     0.012 C 
HETATM    4  C8  UNL     1      -0.807   0.468  -1.536  1.00  0.00     0.007 C 
HETATM    5  C9  UNL     1      -1.425   0.761  -0.212  1.00  0.00     0.006 C 
HETATM    6  C10 UNL     1      -2.903   0.480  -0.355  1.00  0.00    -0.017 C 
HETATM    7  C11 UNL     1      -3.754   1.268   0.613  1.00  0.00     0.018 C 
HETATM    8  C12 UNL     1      -3.284   1.018  -1.746  1.00  0.00     0.018 C 
HETATM    9  C13 UNL     1      -3.238  -0.977  -0.368  1.00  0.00     0.126 C 
HETATM   10  C14 UNL     1      -2.192  -1.871   0.188  1.00  0.00     0.033 C 
HETATM   11  C15 UNL     1      -1.528  -1.193   1.358  1.00  0.00     0.014 C 
HETATM   12  C16 UNL     1      -0.796   0.090   0.967  1.00  0.00    -0.013 C 
HETATM   13  C17 UNL     1      -1.059   1.038   2.160  1.00  0.00     0.018 C 
HETATM   14  C18 UNL     1       0.676  -0.080   0.891  1.00  0.00     0.135 C 
ENDROOT
BRANCH   1  15
HETATM   15  C3  UNL     1       2.736   0.444  -0.340  1.00  0.00     0.021 C 
HETATM   16  C4  UNL     1       3.326   0.643  -1.708  1.00  0.00     0.013 C 
BRANCH  15  17
HETATM   17  C2  UNL     1       3.656  -0.214   0.621  1.00  0.00     0.118 C 
HETATM   18  C1  UNL     1       4.886   0.694   0.738  1.00  0.00     0.040 C 
BRANCH  17  19
HETATM   19  O1  UNL     1       4.110  -1.455   0.264  1.00  0.00    -0.396 OA
ATOM     20  H1  UNL     1       3.348  -2.018   0.192  1.00  0.00     0.210 HD
ENDBRANCH  17  19
ENDBRANCH  15  17
ENDBRANCH   1  15
BRANCH  14  21
HETATM   21  O3  UNL     1       0.985  -1.255   1.626  1.00  0.00    -0.394 OA
ATOM     22  H3  UNL     1       0.551  -1.180   2.468  1.00  0.00     0.210 HD
ENDBRANCH  14  21
BRANCH   9  23
HETATM   23  O2  UNL     1      -3.579  -1.449  -1.641  1.00  0.00    -0.395 OA
ATOM     24  H2  UNL     1      -3.792  -2.375  -1.649  1.00  0.00     0.210 HD
ENDBRANCH   9  23
TORSDOF 5
