REMARK  7 active torsions:
REMARK  status: ('A' for Active; 'I' for Inactive)
REMARK    1  A    between atoms: N1_2  and  C2_4 
REMARK    2  A    between atoms: N2_8  and  C4_9 
REMARK    3  A    between atoms: C10_15  and  S2_16 
REMARK    4  A    between atoms: S2_16  and  C11_17 
REMARK    5  A    between atoms: C11_17  and  C12_18 
REMARK       I    between atoms: C12_18  and  N3_20 
REMARK    6  A    between atoms: N3_20  and  C13_22 
REMARK    7  A    between atoms: C13_22  and  C14_23 
ROOT
HETATM    1  C2  UNL     1      -1.749   2.702  -0.676  1.00  0.00     0.108 A 
HETATM    2  S1  UNL     1      -2.643   2.776  -2.133  1.00  0.00    -0.009 SA
HETATM    3  C3  UNL     1      -3.268   1.201  -2.106  1.00  0.00     0.293 A 
HETATM    4  O1  UNL     1      -4.041   0.690  -2.995  1.00  0.00    -0.259 OA
HETATM    5  N2  UNL     1      -2.774   0.676  -0.993  1.00  0.00    -0.295 N 
HETATM    6  C10 UNL     1      -1.980   1.436  -0.233  1.00  0.00     0.110 A 
ENDROOT
BRANCH   6   7
HETATM    7  S2  UNL     1      -1.178   0.818   1.289  1.00  0.00    -0.100 SA
BRANCH   7   8
HETATM    8  C11 UNL     1       0.279  -0.125   1.028  1.00  0.00     0.183 C 
BRANCH   8   9
HETATM    9  C12 UNL     1       1.507   0.519   0.558  1.00  0.00     0.227 C 
HETATM   10  O2  UNL     1       1.617   1.742   0.403  1.00  0.00    -0.273 OA
HETATM   11  N3  UNL     1       2.663  -0.265   0.248  1.00  0.00    -0.358 N 
ATOM     12  H3  UNL     1       2.633  -1.279   0.352  1.00  0.00     0.162 HD
BRANCH  11  13
HETATM   13  C13 UNL     1       3.852   0.367  -0.205  1.00  0.00     0.154 C 
BRANCH  13  14
HETATM   14  C14 UNL     1       4.959  -0.603  -0.487  1.00  0.00     0.139 C 
HETATM   15  C15 UNL     1       5.336  -1.478   0.661  1.00  0.00     0.035 C 
HETATM   16  C16 UNL     1       6.852  -1.328   0.684  1.00  0.00     0.029 C 
HETATM   17  C17 UNL     1       6.988   0.094   0.147  1.00  0.00     0.168 C 
HETATM   18  O3  UNL     1       6.091   0.079  -0.919  1.00  0.00    -0.384 OA
ENDBRANCH  13  14
ENDBRANCH  11  13
ENDBRANCH   8   9
ENDBRANCH   7   8
ENDBRANCH   6   7
BRANCH   1  19
HETATM   19  N1  UNL     1      -0.988   3.780  -0.064  1.00  0.00    -0.386 N 
HETATM   20  C1  UNL     1      -0.961   5.051  -0.745  1.00  0.00     0.147 C 
ATOM     21  H1  UNL     1      -0.491   3.642   0.816  1.00  0.00     0.159 HD
ENDBRANCH   1  19
BRANCH   5  22
HETATM   22  C4  UNL     1      -3.080  -0.718  -0.553  1.00  0.00     0.094 C 
HETATM   23  C5  UNL     1      -3.995  -1.395  -1.496  1.00  0.00     0.026 C 
HETATM   24  C6  UNL     1      -4.194  -2.816  -0.919  1.00  0.00     0.002 C 
HETATM   25  C7  UNL     1      -5.019  -2.781   0.340  1.00  0.00     0.000 C 
HETATM   26  C8  UNL     1      -5.044  -1.367   0.864  1.00  0.00     0.002 C 
HETATM   27  C9  UNL     1      -3.676  -0.718   0.836  1.00  0.00     0.026 C 
ENDBRANCH   5  22
TORSDOF 7
