REMARK  6 active torsions:
REMARK  status: ('A' for Active; 'I' for Inactive)
REMARK    1  A    between atoms: C4_4  and  O1_5 
REMARK    2  A    between atoms: O1_5  and  C5_6 
REMARK    3  A    between atoms: C5_6  and  C6_7 
REMARK    4  A    between atoms: C6_7  and  C7_8 
REMARK    5  A    between atoms: C15_24  and  C16_25 
REMARK    6  A    between atoms: C17_29  and  C18_30 
ROOT
HETATM    1  C1  UNL     1       3.108  -1.482   1.587  1.00  0.00     0.011 C 
HETATM    2  C2  UNL     1       2.095  -0.850   0.683  1.00  0.00    -0.005 C 
HETATM    3  C3  UNL     1       1.263   0.135   1.484  1.00  0.00     0.037 C 
HETATM    4  C4  UNL     1       0.055   0.484   0.610  1.00  0.00     0.121 C 
HETATM    5  C13 UNL     1       0.607   1.270  -0.562  1.00  0.00     0.033 C 
HETATM    6  C14 UNL     1       2.098   1.260  -0.631  1.00  0.00     0.015 C 
HETATM    7  C15 UNL     1       2.685  -0.127  -0.487  1.00  0.00     0.059 C 
ENDROOT
BRANCH   4   8
HETATM    8  O1  UNL     1      -0.832   1.219   1.335  1.00  0.00    -0.386 OA
BRANCH   8   9
HETATM    9  C5  UNL     1      -2.102   0.700   1.489  1.00  0.00     0.170 C 
BRANCH   9  10
HETATM   10  C6  UNL     1      -2.767   0.572   0.168  1.00  0.00     0.061 C 
BRANCH  10  11
HETATM   11  C7  UNL     1      -4.170   0.008   0.254  1.00  0.00     0.212 C 
HETATM   12  C8  UNL     1      -4.996   0.923   1.104  1.00  0.00     0.210 C 
HETATM   13  O2  UNL     1      -6.349   0.596   1.162  1.00  0.00    -0.332 OA
HETATM   14  C9  UNL     1      -7.237   0.112   0.213  1.00  0.00     0.168 A 
HETATM   15  N1  UNL     1      -8.567   0.369   0.161  1.00  0.00    -0.331 N 
HETATM   16  C11 UNL     1      -6.937  -0.707  -0.834  1.00  0.00     0.087 A 
HETATM   17  C10 UNL     1      -9.101  -0.272  -0.898  1.00  0.00     0.182 A 
ATOM     18  H1  UNL     1      -9.082   0.954   0.819  1.00  0.00     0.168 HD
HETATM   19  N2  UNL     1      -8.086  -0.921  -1.489  1.00  0.00    -0.351 N 
ATOM     20  H2  UNL     1      -8.177  -1.499  -2.324  1.00  0.00     0.166 HD
HETATM   21  C12 UNL     1      -5.593  -1.273  -1.208  1.00  0.00     0.294 C 
HETATM   22  N3  UNL     1      -4.661  -0.143  -1.083  1.00  0.00    -0.063 N 
ATOM     23  H32 UNL     1      -5.083   0.722  -1.421  1.00  0.00     0.278 HD
ATOM     24  H31 UNL     1      -3.894  -0.222  -1.751  1.00  0.00     0.278 HD
ENDBRANCH  10  11
ENDBRANCH   9  10
ENDBRANCH   8   9
ENDBRANCH   4   8
BRANCH   7  25
HETATM   25  C16 UNL     1       4.159  -0.025  -0.361  1.00  0.00     0.108 A 
HETATM   26  N4  UNL     1       4.884   0.567   0.609  1.00  0.00    -0.247 N 
HETATM   27  O3  UNL     1       6.143   0.432   0.341  1.00  0.00    -0.222 OA
ATOM     28  H4  UNL     1       4.501   1.045   1.425  1.00  0.00     0.196 HD
HETATM   29  C17 UNL     1       6.309  -0.233  -0.781  1.00  0.00     0.152 A 
HETATM   30  N5  UNL     1       5.070  -0.518  -1.220  1.00  0.00    -0.326 N 
ATOM     31  H5  UNL     1       4.854  -1.030  -2.075  1.00  0.00     0.169 HD
BRANCH  29  32
HETATM   32  C18 UNL     1       7.611  -0.594  -1.429  1.00  0.00     0.063 A 
HETATM   33  C19 UNL     1       8.679   0.468  -1.348  1.00  0.00     0.013 A 
HETATM   34  C20 UNL     1       8.820  -0.785  -0.574  1.00  0.00     0.013 A 
ENDBRANCH  29  32
ENDBRANCH   7  25
TORSDOF 6
