REMARK  8 active torsions:
REMARK  status: ('A' for Active; 'I' for Inactive)
REMARK    1  A    between atoms: C1_2  and  C2_3 
REMARK    2  A    between atoms: C1_2  and  C12_18 
REMARK    3  A    between atoms: C2_3  and  C3_4 
REMARK    4  A    between atoms: C3_4  and  N1_5 
REMARK    5  A    between atoms: C4_6  and  O2_7 
REMARK    6  A    between atoms: C7_11  and  O3_12 
REMARK    7  A    between atoms: C12_18  and  C13_19 
REMARK    8  A    between atoms: C12_18  and  N2_21 
ROOT
HETATM    1  O1  UNL     1       1.595   1.359   0.318  1.00  0.00    -0.296 OA
HETATM    2  C1  UNL     1       1.211   0.253  -0.011  1.00  0.00     0.154 C 
ENDROOT
BRANCH   2   3
HETATM    3  C2  UNL     1      -0.160  -0.138   0.383  1.00  0.00     0.101 C 
BRANCH   3   4
HETATM    4  C3  UNL     1      -1.124   0.540  -0.547  1.00  0.00     0.140 C 
BRANCH   4   5
HETATM    5  N1  UNL     1      -2.502   0.244  -0.272  1.00  0.00    -0.307 N 
HETATM    6  C4  UNL     1      -3.381   0.870   0.528  1.00  0.00     0.151 A 
HETATM    7  C5  UNL     1      -4.602   0.247   0.495  1.00  0.00     0.004 A 
HETATM    8  C6  UNL     1      -4.463  -0.820  -0.373  1.00  0.00     0.004 A 
HETATM    9  C11 UNL     1      -5.940   0.420   1.116  1.00  0.00     0.044 C 
HETATM   10  C7  UNL     1      -3.160  -0.790  -0.825  1.00  0.00     0.151 A 
HETATM   11  C8  UNL     1      -5.652  -1.674  -0.593  1.00  0.00     0.044 C 
HETATM   12  C9  UNL     1      -6.942  -0.922  -0.684  1.00  0.00     0.005 C 
HETATM   13  C10 UNL     1      -6.938   0.422  -0.035  1.00  0.00     0.005 C 
BRANCH   6  14
HETATM   14  O2  UNL     1      -3.096   1.984   1.278  1.00  0.00    -0.345 OA
ATOM     15  H2  UNL     1      -3.718   2.427   1.844  1.00  0.00     0.219 HD
ENDBRANCH   6  14
BRANCH  10  16
HETATM   16  O3  UNL     1      -2.659  -1.730  -1.728  1.00  0.00    -0.345 OA
ATOM     17  H3  UNL     1      -3.124  -2.461  -2.119  1.00  0.00     0.219 HD
ENDBRANCH  10  16
ENDBRANCH   4   5
ENDBRANCH   3   4
ENDBRANCH   2   3
BRANCH   2  18
HETATM   18  C12 UNL     1       2.137  -0.625  -0.781  1.00  0.00     0.192 C 
BRANCH  18  19
HETATM   19  C13 UNL     1       2.348  -1.857   0.015  1.00  0.00     0.149 C 
HETATM   20 CL1  UNL     1       3.448  -3.012  -0.807  1.00  0.00    -0.128 Cl
ENDBRANCH  18  19
BRANCH  18  21
HETATM   21  N2  UNL     1       3.259   0.114  -1.181  1.00  0.00    -0.267 N 
HETATM   22  N3  UNL     1       3.385   0.611  -2.400  1.00  0.00    -0.239 N 
HETATM   23  N4  UNL     1       4.500   1.254  -2.528  1.00  0.00    -0.288 N 
ATOM     24  H3  UNL     1       2.694   0.502  -3.142  1.00  0.00     0.208 HD
HETATM   25  C14 UNL     1       5.140   1.183  -1.351  1.00  0.00     0.051 A 
ATOM     26  H4  UNL     1       4.831   1.728  -3.368  1.00  0.00     0.188 HD
HETATM   27  C15 UNL     1       4.372   0.461  -0.469  1.00  0.00     0.055 A 
HETATM   28  C19 UNL     1       6.446   1.729  -0.908  1.00  0.00     0.061 C 
HETATM   29  C16 UNL     1       4.695   0.148   0.916  1.00  0.00     0.061 C 
HETATM   30  C17 UNL     1       6.040   0.797   1.286  1.00  0.00     0.006 C 
HETATM   31  C18 UNL     1       6.993   0.763   0.120  1.00  0.00     0.006 C 
ENDBRANCH  18  21
ENDBRANCH   2  18
TORSDOF 8
