REMARK  14 active torsions:
REMARK  status: ('A' for Active; 'I' for Inactive)
REMARK    1  A    between atoms: C3_3  and  C4_4 
REMARK    2  A    between atoms: C4_4  and  O1_5 
REMARK    3  A    between atoms: C4_4  and  N1_7 
REMARK    4  A    between atoms: N1_7  and  N2_8 
REMARK       I    between atoms: N2_8  and  C5_10 
REMARK    5  A    between atoms: C5_10  and  C6_12 
REMARK    6  A    between atoms: C6_12  and  S1_13 
REMARK    7  A    between atoms: S1_13  and  C7_14 
REMARK    8  A    between atoms: C8_17  and  C9_18 
REMARK    9  A    between atoms: C9_18  and  N5_22 
REMARK   10  A    between atoms: N5_22  and  N6_24 
REMARK   11  A    between atoms: N7_28  and  C11_29 
REMARK   12  A    between atoms: C11_29  and  C12_30 
REMARK   13  A    between atoms: N10_39  and  N11_40 
REMARK   14  A    between atoms: N11_40  and  C18_42 
ROOT
HETATM    1  N2  UNL     1       0.690   1.609  -0.167  1.00  0.00    -0.200 N 
ATOM      2  H2  UNL     1       0.688   2.494   0.340  1.00  0.00     0.205 HD
HETATM    3  C5  UNL     1      -0.477   1.139  -0.914  1.00  0.00     0.256 C 
HETATM    4  O2  UNL     1      -0.425   0.058  -1.443  1.00  0.00    -0.270 OA
ENDROOT
BRANCH   3   5
HETATM    5  C6  UNL     1      -1.687   2.016  -1.010  1.00  0.00     0.187 C 
BRANCH   5   6
HETATM    6  S1  UNL     1      -2.717   2.023   0.343  1.00  0.00    -0.084 SA
BRANCH   6   7
HETATM    7  C7  UNL     1      -3.784   0.693   0.683  1.00  0.00     0.147 A 
HETATM    8  N3  UNL     1      -4.389   0.640   1.968  1.00  0.00    -0.332 N 
HETATM    9  C8  UNL     1      -5.156  -0.443   2.030  1.00  0.00     0.095 A 
ATOM     10  H3  UNL     1      -4.257   1.320   2.717  1.00  0.00     0.168 HD
HETATM   11  C10 UNL     1      -5.047  -1.071   0.825  1.00  0.00     0.127 A 
HETATM   12  N7  UNL     1      -4.201  -0.352   0.005  1.00  0.00    -0.331 N 
BRANCH   9  13
HETATM   13  C9  UNL     1      -5.969  -0.821   3.192  1.00  0.00     0.141 C 
HETATM   14  N4  UNL     1      -6.658  -1.893   3.146  1.00  0.00    -0.383 N 
ATOM     15  H42 UNL     1      -6.609  -2.507   2.333  1.00  0.00     0.157 HD
ATOM     16  H41 UNL     1      -7.223  -2.156   3.954  1.00  0.00     0.157 HD
BRANCH  13  17
HETATM   17  N5  UNL     1      -6.037   0.032   4.321  1.00  0.00    -0.291 N 
ATOM     18  H5  UNL     1      -5.750   0.999   4.172  1.00  0.00     0.188 HD
BRANCH  17  19
HETATM   19  N6  UNL     1      -6.449  -0.295   5.608  1.00  0.00    -0.344 N 
ATOM     20  H62 UNL     1      -6.732  -1.266   5.737  1.00  0.00     0.176 HD
ATOM     21  H61 UNL     1      -6.498   0.319   6.421  1.00  0.00     0.176 HD
ENDBRANCH  17  19
ENDBRANCH  13  17
ENDBRANCH   9  13
BRANCH  12  22
HETATM   22  C11 UNL     1      -4.015  -0.771  -1.385  1.00  0.00     0.169 C 
BRANCH  22  23
HETATM   23  C12 UNL     1      -5.132  -0.312  -2.265  1.00  0.00    -0.040 A 
HETATM   24  C13 UNL     1      -4.803   0.183  -3.548  1.00  0.00     0.009 A 
HETATM   25  C14 UNL     1      -5.798   0.621  -4.383  1.00  0.00     0.001 A 
HETATM   26  C15 UNL     1      -7.112   0.575  -3.966  1.00  0.00     0.000 A 
HETATM   27  C16 UNL     1      -7.453   0.103  -2.729  1.00  0.00     0.001 A 
HETATM   28  C17 UNL     1      -6.431  -0.345  -1.876  1.00  0.00     0.009 A 
ENDBRANCH  22  23
ENDBRANCH  12  22
ENDBRANCH   6   7
ENDBRANCH   5   6
ENDBRANCH   3   5
BRANCH   1  29
HETATM   29  N1  UNL     1       1.781   0.790  -0.191  1.00  0.00    -0.295 NA
BRANCH  29  30
HETATM   30  C4  UNL     1       2.832  -0.021  -0.309  1.00  0.00     0.268 C 
BRANCH  30  31
HETATM   31  C3  UNL     1       3.787  -0.484   0.717  1.00  0.00     0.139 A 
HETATM   32  C2  UNL     1       5.192  -0.387   0.578  1.00  0.00     0.080 A 
HETATM   33  C1  UNL     1       5.798   0.398  -0.514  1.00  0.00     0.074 C 
HETATM   34  N10 UNL     1       5.819  -1.004   1.570  1.00  0.00    -0.180 N 
HETATM   35  N9  UNL     1       4.806  -1.498   2.356  1.00  0.00     0.002 NA
HETATM   36  N8  UNL     1       3.636  -1.178   1.829  1.00  0.00    -0.276 N 
ATOM     37  H8  UNL     1       2.734  -1.434   2.230  1.00  0.00     0.184 HD
BRANCH  34  38
HETATM   38  N11 UNL     1       7.166  -1.188   1.841  1.00  0.00    -0.251 N 
ATOM     39  H11 UNL     1       7.385  -1.711   2.689  1.00  0.00     0.192 HD
BRANCH  38  40
HETATM   40  C18 UNL     1       8.268  -0.742   1.089  1.00  0.00     0.195 A 
HETATM   41  N12 UNL     1       9.129   0.102   1.548  1.00  0.00    -0.339 N 
HETATM   42  C19 UNL     1      10.172   0.422   0.659  1.00  0.00     0.083 A 
ATOM     43  H12 UNL     1       9.059   0.506   2.482  1.00  0.00     0.168 HD
HETATM   44  C20 UNL     1       9.877  -0.410  -0.548  1.00  0.00     0.167 A 
HETATM   45  N13 UNL     1       8.640  -1.106  -0.235  1.00  0.00    -0.356 N 
ATOM     46  H13 UNL     1       8.132  -1.740  -0.852  1.00  0.00     0.162 HD
ENDBRANCH  38  40
ENDBRANCH  34  38
ENDBRANCH  30  31
BRANCH  30  47
HETATM   47  O1  UNL     1       3.161  -0.533  -1.478  1.00  0.00    -0.332 OA
ATOM     48  H1  UNL     1       2.546  -0.235  -2.138  1.00  0.00     0.220 HD
ENDBRANCH  30  47
ENDBRANCH  29  30
ENDBRANCH   1  29
TORSDOF 14
