REMARK  11 active torsions:
REMARK  status: ('A' for Active; 'I' for Inactive)
REMARK    1  A    between atoms: N1_1  and  C1_4 
REMARK    2  A    between atoms: C3_8  and  C4_9 
REMARK    3  A    between atoms: N3_10  and  N4_12 
REMARK    4  A    between atoms: N4_12  and  C5_14 
REMARK    5  A    between atoms: C8_17  and  S1_18 
REMARK    6  A    between atoms: S1_18  and  N5_21 
REMARK    7  A    between atoms: C11_28  and  C12_29 
REMARK    8  A    between atoms: C12_29  and  O4_30 
REMARK    9  A    between atoms: C12_29  and  O5_32 
REMARK   10  A    between atoms: C14_35  and  N8_36 
REMARK   11  A    between atoms: C16_40  and  N9_41 
ROOT
HETATM    1  C5  UNL     1       1.066  -1.264   0.658  1.00  0.00     0.081 A 
HETATM    2  C6  UNL     1       0.980   0.123   0.600  1.00  0.00     0.035 A 
HETATM    3  C7  UNL     1      -0.208   0.808   0.824  1.00  0.00     0.027 A 
HETATM    4  C8  UNL     1      -1.355   0.108   1.116  1.00  0.00     0.077 A 
HETATM    5  C13 UNL     1      -1.253  -1.272   1.170  1.00  0.00     0.063 A 
HETATM    6  C14 UNL     1      -0.080  -1.966   0.950  1.00  0.00     0.132 A 
ENDROOT
BRANCH   1   7
HETATM    7  N4  UNL     1       2.318  -1.915   0.422  1.00  0.00    -0.299 N 
ATOM      8  H4  UNL     1       2.897  -2.142   1.230  1.00  0.00     0.187 HD
BRANCH   7   9
HETATM    9  N3  UNL     1       2.784  -2.249  -0.806  1.00  0.00    -0.311 N 
HETATM   10  C4  UNL     1       3.739  -1.895  -1.537  1.00  0.00     0.120 C 
ATOM     11  H3  UNL     1       2.214  -2.971  -1.247  1.00  0.00     0.186 HD
BRANCH  10  12
HETATM   12  C3  UNL     1       4.759  -0.899  -1.255  1.00  0.00    -0.001 A 
HETATM   13  C2  UNL     1       5.734  -0.715  -2.246  1.00  0.00     0.102 A 
HETATM   14  N2  UNL     1       6.724   0.174  -2.102  1.00  0.00    -0.350 N 
HETATM   15  C1  UNL     1       6.811   0.916  -1.004  1.00  0.00     0.132 A 
ATOM     16  H2  UNL     1       7.418   0.283  -2.842  1.00  0.00     0.166 HD
HETATM   17  C16 UNL     1       5.895   0.794   0.007  1.00  0.00     0.147 A 
HETATM   18  C15 UNL     1       4.855  -0.135  -0.134  1.00  0.00     0.054 A 
BRANCH  15  19
HETATM   19  N1  UNL     1       7.770   1.777  -0.866  1.00  0.00    -0.383 N 
ATOM     20  H12 UNL     1       8.452   1.868  -1.619  1.00  0.00     0.157 HD
ATOM     21  H11 UNL     1       7.837   2.347  -0.023  1.00  0.00     0.157 HD
ENDBRANCH  15  19
BRANCH  17  22
HETATM   22  N9  UNL     1       5.989   1.582   1.174  1.00  0.00    -0.112 N 
HETATM   23  O8  UNL     1       4.993   1.875   1.842  1.00  0.00    -0.532 OA
HETATM   24  O9  UNL     1       7.218   2.037   1.573  1.00  0.00    -0.532 OA
ENDBRANCH  17  22
ENDBRANCH  10  12
ENDBRANCH   7   9
ENDBRANCH   1   7
BRANCH   6  25
HETATM   25  N8  UNL     1      -0.006  -3.381   1.019  1.00  0.00    -0.113 N 
HETATM   26  O6  UNL     1       0.741  -4.102   0.358  1.00  0.00    -0.532 OA
HETATM   27  O7  UNL     1      -0.875  -3.981   1.930  1.00  0.00    -0.532 OA
ENDBRANCH   6  25
BRANCH   4  28
HETATM   28  S1  UNL     1      -2.891   0.893   1.410  1.00  0.00     0.245 S 
HETATM   29  O1  UNL     1      -2.578   2.226   2.062  1.00  0.00    -0.206 OA
HETATM   30  O2  UNL     1      -3.616   0.077   2.463  1.00  0.00    -0.206 OA
BRANCH  28  31
HETATM   31  N5  UNL     1      -3.804   1.116  -0.007  1.00  0.00    -0.172 NA
HETATM   32  C9  UNL     1      -3.919   2.495  -0.311  1.00  0.00     0.243 C 
HETATM   33  N6  UNL     1      -5.157   3.101   0.140  1.00  0.00    -0.123 NA
HETATM   34  N7  UNL     1      -6.220   2.485  -0.524  1.00  0.00    -0.271 N 
HETATM   35  C10 UNL     1      -5.997   1.134  -0.909  1.00  0.00     0.257 C 
ATOM     36  H7  UNL     1      -7.096   2.970  -0.719  1.00  0.00     0.185 HD
HETATM   37  O3  UNL     1      -6.607   0.628  -1.886  1.00  0.00    -0.270 OA
HETATM   38  C11 UNL     1      -5.016   0.379  -0.092  1.00  0.00     0.223 C 
BRANCH  38  39
HETATM   39  C12 UNL     1      -4.825  -1.029  -0.594  1.00  0.00     0.281 C 
BRANCH  39  40
HETATM   40  O4  UNL     1      -6.057  -1.677  -0.648  1.00  0.00    -0.369 OA
ATOM     41  H4  UNL     1      -5.937  -2.565  -0.964  1.00  0.00     0.212 HD
ENDBRANCH  39  40
BRANCH  39  42
HETATM   42  O5  UNL     1      -4.306  -1.045  -1.897  1.00  0.00    -0.369 OA
ATOM     43  H5  UNL     1      -4.186  -1.933  -2.213  1.00  0.00     0.212 HD
ENDBRANCH  39  42
ENDBRANCH  38  39
ENDBRANCH  28  31
ENDBRANCH   4  28
TORSDOF 11
