REMARK  13 active torsions:
REMARK  status: ('A' for Active; 'I' for Inactive)
REMARK    1  A    between atoms: O1_2  and  C2_3 
REMARK    2  A    between atoms: C4_5  and  N1_6 
REMARK    3  A    between atoms: N1_6  and  N2_8 
REMARK    4  A    between atoms: N2_8  and  C5_9 
REMARK    5  A    between atoms: C6_10  and  O2_11 
REMARK    6  A    between atoms: C9_18  and  O3_19 
REMARK    7  A    between atoms: O3_19  and  C10_20 
REMARK    8  A    between atoms: C10_20  and  C11_22 
REMARK    9  A    between atoms: C12_23  and  O5_24 
REMARK   10  A    between atoms: C13_27  and  O7_28 
REMARK   11  A    between atoms: C16_32  and  O8_33 
REMARK   12  A    between atoms: C17_35  and  O9_36 
REMARK   13  A    between atoms: C19_38  and  O10_39 
ROOT
HETATM    1  C5  UNL     1      -1.121  -0.638  -0.475  1.00  0.00     0.185 C 
HETATM    2  C6  UNL     1      -1.733  -1.827  -1.189  1.00  0.00     0.342 C 
HETATM    3  N3  UNL     1      -1.217  -2.990  -0.502  1.00  0.00    -0.047 N 
ATOM      4  H31 UNL     1      -0.198  -3.006  -0.533  1.00  0.00     0.280 HD
ATOM      5  H32 UNL     1      -1.415  -3.840  -1.030  1.00  0.00     0.280 HD
HETATM    6  C7  UNL     1      -1.686  -3.108   0.844  1.00  0.00     0.238 C 
HETATM    7  C8  UNL     1      -1.857  -1.861   1.604  1.00  0.00     0.062 C 
HETATM    8  C9  UNL     1      -1.844  -0.588   0.855  1.00  0.00     0.159 C 
ENDROOT
BRANCH   1   9
HETATM    9  N2  UNL     1       0.288  -0.911  -0.335  1.00  0.00    -0.129 NA
BRANCH   9  10
HETATM   10  N1  UNL     1       0.993   0.098   0.303  1.00  0.00    -0.301 N 
ATOM     11  H1  UNL     1       0.488   0.733   0.920  1.00  0.00     0.182 HD
BRANCH  10  12
HETATM   12  C4  UNL     1       2.387   0.282   0.132  1.00  0.00     0.083 A 
HETATM   13  C3  UNL     1       3.339  -0.326   0.937  1.00  0.00     0.073 A 
HETATM   14  C2  UNL     1       4.695  -0.140   0.762  1.00  0.00     0.106 A 
HETATM   15  C19 UNL     1       5.094   0.694  -0.265  1.00  0.00     0.138 A 
HETATM   16  C17 UNL     1       4.176   1.312  -1.081  1.00  0.00     0.140 A 
HETATM   17  C16 UNL     1       2.834   1.104  -0.879  1.00  0.00     0.130 A 
BRANCH  14  18
HETATM   18  O1  UNL     1       5.635  -0.757   1.578  1.00  0.00    -0.353 OA
HETATM   19  C1  UNL     1       5.236  -1.604   2.623  1.00  0.00     0.210 C 
ENDBRANCH  14  18
BRANCH  15  20
HETATM   20  O10 UNL     1       6.468   0.889  -0.450  1.00  0.00    -0.351 OA
HETATM   21  C20 UNL     1       7.248   0.068  -1.289  1.00  0.00     0.210 C 
ENDBRANCH  15  20
BRANCH  16  22
HETATM   22  O9  UNL     1       4.612   2.145  -2.107  1.00  0.00    -0.350 OA
HETATM   23  C18 UNL     1       4.775   3.514  -1.784  1.00  0.00     0.210 C 
ENDBRANCH  16  22
BRANCH  17  24
HETATM   24  O8  UNL     1       1.912   1.725  -1.698  1.00  0.00    -0.356 OA
ATOM     25  H8  UNL     1       2.220   2.292  -2.395  1.00  0.00     0.218 HD
ENDBRANCH  17  24
ENDBRANCH  10  12
ENDBRANCH   9  10
ENDBRANCH   1   9
BRANCH   2  26
HETATM   26  O2  UNL     1      -1.317  -1.863  -2.510  1.00  0.00    -0.368 OA
ATOM     27  H2  UNL     1      -1.701  -2.608  -2.957  1.00  0.00     0.212 HD
ENDBRANCH   2  26
BRANCH   8  28
HETATM   28  O3  UNL     1      -3.197  -0.215   0.548  1.00  0.00    -0.310 OA
BRANCH  28  29
HETATM   29  C10 UNL     1      -3.734   0.976   1.009  1.00  0.00     0.299 C 
HETATM   30  O4  UNL     1      -3.019   1.721   1.697  1.00  0.00    -0.259 OA
BRANCH  29  31
HETATM   31  C11 UNL     1      -5.114   1.280   0.654  1.00  0.00     0.108 A 
HETATM   32  C12 UNL     1      -5.798   2.436   1.039  1.00  0.00     0.202 A 
HETATM   33  O6  UNL     1      -7.008   2.381   0.549  1.00  0.00    -0.263 OA
HETATM   34  C13 UNL     1      -7.191   1.293  -0.127  1.00  0.00     0.192 A 
HETATM   35  C14 UNL     1      -6.007   0.548  -0.094  1.00  0.00     0.018 A 
HETATM   36  C15 UNL     1      -5.755  -0.752  -0.723  1.00  0.00     0.054 C 
BRANCH  32  37
HETATM   37  O5  UNL     1      -5.246   3.458   1.820  1.00  0.00    -0.340 OA
ATOM     38  H5  UNL     1      -5.711   4.244   2.082  1.00  0.00     0.220 HD
ENDBRANCH  32  37
BRANCH  34  39
HETATM   39  O7  UNL     1      -8.331   0.871  -0.795  1.00  0.00    -0.340 OA
ATOM     40  H7  UNL     1      -8.465   0.072  -1.291  1.00  0.00     0.220 HD
ENDBRANCH  34  39
ENDBRANCH  29  31
ENDBRANCH  28  29
ENDBRANCH   8  28
TORSDOF 13
