REMARK  11 active torsions:
REMARK  status: ('A' for Active; 'I' for Inactive)
REMARK    1  A    between atoms: C2_2  and  C3_3 
REMARK    2  A    between atoms: C2_2  and  N5_36 
REMARK    3  A    between atoms: C3_3  and  N1_4 
REMARK    4  A    between atoms: C4_6  and  C5_7 
REMARK    5  A    between atoms: C7_11  and  C8_12 
REMARK       I    between atoms: C8_12  and  N2_14 
REMARK    6  A    between atoms: N2_14  and  N3_16 
REMARK    7  A    between atoms: N3_16  and  C9_18 
REMARK    8  A    between atoms: C13_27  and  O7_28 
REMARK    9  A    between atoms: C16_33  and  O9_34 
REMARK   10  A    between atoms: N5_36  and  N6_38 
REMARK   11  A    between atoms: N6_38  and  O10_42 
ROOT
HETATM    1  C5  UNL     1      -1.928  -2.004   0.352  1.00  0.00     0.127 A 
HETATM    2  O1  UNL     1      -1.142  -0.975   0.402  1.00  0.00    -0.283 OA
HETATM    3  C6  UNL     1       0.135  -1.315   0.464  1.00  0.00     0.209 A 
HETATM    4  O2  UNL     1       1.234  -0.613   0.527  1.00  0.00    -0.278 OA
HETATM    5  C7  UNL     1       2.453  -1.154   0.583  1.00  0.00     0.184 A 
HETATM    6  C13 UNL     1       2.544  -2.513   0.574  1.00  0.00     0.157 A 
HETATM    7  C14 UNL     1       1.373  -3.313   0.506  1.00  0.00     0.225 A 
HETATM    8  O8  UNL     1       1.437  -4.545   0.499  1.00  0.00    -0.284 OA
HETATM    9  C15 UNL     1       0.154  -2.690   0.451  1.00  0.00     0.112 A 
HETATM   10  C16 UNL     1      -1.160  -3.143   0.380  1.00  0.00     0.120 A 
ENDROOT
BRANCH   5  11
HETATM   11  C8  UNL     1       3.598  -0.231   0.649  1.00  0.00     0.296 C 
HETATM   12  O3  UNL     1       4.750  -0.638   0.704  1.00  0.00    -0.264 OA
HETATM   13  N2  UNL     1       3.366   1.170   0.648  1.00  0.00    -0.262 N 
ATOM     14  H2  UNL     1       2.395   1.480   0.607  1.00  0.00     0.190 HD
BRANCH  13  15
HETATM   15  N3  UNL     1       4.337   2.148   0.698  1.00  0.00    -0.277 N 
ATOM     16  H3  UNL     1       4.167   2.991   1.246  1.00  0.00     0.189 HD
BRANCH  15  17
HETATM   17  C9  UNL     1       5.573   2.009   0.002  1.00  0.00     0.172 A 
HETATM   18  C10 UNL     1       5.594   2.115  -1.380  1.00  0.00     0.132 A 
HETATM   19  C11 UNL     1       6.780   1.983  -2.056  1.00  0.00     0.253 A 
HETATM   20  O4  UNL     1       6.851   2.069  -3.305  1.00  0.00    -0.268 OA
HETATM   21  N4  UNL     1       7.908   1.751  -1.351  1.00  0.00    -0.269 N 
HETATM   22  C12 UNL     1       7.859   1.653  -0.003  1.00  0.00     0.374 A 
ATOM     23  H4  UNL     1       8.799   1.649  -1.836  1.00  0.00     0.174 HD
HETATM   24  O5  UNL     1       8.933   1.438   0.612  1.00  0.00    -0.238 OA
HETATM   25  O6  UNL     1       6.701   1.785   0.609  1.00  0.00    -0.242 OA
ENDBRANCH  15  17
ENDBRANCH  13  15
ENDBRANCH   5  11
BRANCH   6  26
HETATM   26  O7  UNL     1       3.715  -3.182   0.627  1.00  0.00    -0.355 OA
ATOM     27  H7  UNL     1       3.778  -4.130   0.621  1.00  0.00     0.218 HD
ENDBRANCH   6  26
BRANCH   1  28
HETATM   28  C4  UNL     1      -3.411  -1.950   0.276  1.00  0.00     0.123 C 
HETATM   29  N1  UNL     1      -3.972  -0.784   0.260  1.00  0.00    -0.395 N 
ATOM     30  H1  UNL     1      -3.394   0.056   0.299  1.00  0.00     0.159 HD
BRANCH  29  31
HETATM   31  C3  UNL     1      -5.394  -0.663   0.188  1.00  0.00     0.145 C 
BRANCH  31  32
HETATM   32  C2  UNL     1      -5.849   0.771   0.266  1.00  0.00     0.117 C 
HETATM   33  C1  UNL     1      -7.367   0.769   0.178  1.00  0.00     0.035 C 
BRANCH  32  34
HETATM   34  N5  UNL     1      -5.283   1.529  -0.814  1.00  0.00    -0.289 N 
ATOM     35  H5  UNL     1      -4.635   1.079  -1.461  1.00  0.00     0.184 HD
BRANCH  34  36
HETATM   36  N6  UNL     1      -5.610   2.875  -0.987  1.00  0.00    -0.106 N 
HETATM   37  N7  UNL     1      -5.906   3.625  -0.016  1.00  0.00    -0.304 N 
ATOM     38  H72 UNL     1      -5.906   3.226   0.923  1.00  0.00     0.180 HD
ATOM     39  H71 UNL     1      -6.145   4.609  -0.142  1.00  0.00     0.180 HD
BRANCH  36  40
HETATM   40  O10 UNL     1      -5.610   3.411  -2.249  1.00  0.00    -0.254 OA
ATOM     41  H10 UNL     1      -5.833   4.327  -2.367  1.00  0.00     0.248 HD
ENDBRANCH  36  40
ENDBRANCH  34  36
ENDBRANCH  32  34
ENDBRANCH  31  32
ENDBRANCH  29  31
ENDBRANCH   1  28
BRANCH  10  42
HETATM   42  O9  UNL     1      -1.583  -4.474   0.345  1.00  0.00    -0.357 OA
ATOM     43  H9  UNL     1      -1.052  -5.262   0.364  1.00  0.00     0.218 HD
ENDBRANCH  10  42
TORSDOF 11
