REMARK  10 active torsions:
REMARK  status: ('A' for Active; 'I' for Inactive)
REMARK       I    between atoms: N1_2  and  C2_4 
REMARK       I    between atoms: C2_4  and  N3_9 
REMARK    1  A    between atoms: N2_5  and  O1_7 
REMARK    2  A    between atoms: N3_9  and  C3_11 
REMARK    3  A    between atoms: C6_14  and  N4_15 
REMARK    4  A    between atoms: N4_15  and  N5_17 
REMARK    5  A    between atoms: N5_17  and  C7_19 
REMARK    6  A    between atoms: C9_21  and  O2_22 
REMARK    7  A    between atoms: C11_24  and  O3_25 
REMARK    8  A    between atoms: C13_27  and  O4_28 
REMARK    9  A    between atoms: C14_30  and  N6_31 
REMARK   10  A    between atoms: C15_36  and  S1_37 
ROOT
HETATM    1  C3  UNL     1       3.681  -0.304   0.398  1.00  0.00     0.090 A 
HETATM    2  C4  UNL     1       3.303   0.652  -0.558  1.00  0.00     0.037 A 
HETATM    3  C5  UNL     1       1.981   0.968  -0.750  1.00  0.00     0.052 A 
HETATM    4  C6  UNL     1       1.029   0.331   0.012  1.00  0.00     0.120 A 
HETATM    5  N7  UNL     1       1.429  -0.570   0.908  1.00  0.00    -0.328 N 
ATOM      6  H7  UNL     1       0.709  -1.033   1.463  1.00  0.00     0.168 HD
HETATM    7  C15 UNL     1       2.710  -0.918   1.138  1.00  0.00     0.179 A 
ENDROOT
BRANCH   4   8
HETATM    8  N4  UNL     1      -0.355   0.662  -0.190  1.00  0.00    -0.285 N 
ATOM      9  H4  UNL     1      -0.645   1.375  -0.859  1.00  0.00     0.188 HD
BRANCH   8  10
HETATM   10  N5  UNL     1      -1.292  -0.055   0.589  1.00  0.00    -0.297 N 
ATOM     11  H5  UNL     1      -1.032  -0.512   1.463  1.00  0.00     0.187 HD
BRANCH  10  12
HETATM   12  C7  UNL     1      -2.603  -0.101   0.087  1.00  0.00     0.086 A 
HETATM   13  C8  UNL     1      -3.513   0.839   0.501  1.00  0.00     0.073 A 
HETATM   14  C9  UNL     1      -4.812   0.862   0.044  1.00  0.00     0.106 A 
HETATM   15  C11 UNL     1      -5.240  -0.103  -0.879  1.00  0.00     0.137 A 
HETATM   16  C13 UNL     1      -4.320  -1.037  -1.285  1.00  0.00     0.137 A 
HETATM   17  C14 UNL     1      -3.005  -1.054  -0.817  1.00  0.00     0.166 A 
BRANCH  14  18
HETATM   18  O2  UNL     1      -5.767   1.783   0.426  1.00  0.00    -0.353 OA
HETATM   19  C10 UNL     1      -5.594   2.832   1.330  1.00  0.00     0.210 C 
ENDBRANCH  14  18
BRANCH  15  20
HETATM   20  O3  UNL     1      -6.542  -0.116  -1.365  1.00  0.00    -0.351 OA
HETATM   21  C12 UNL     1      -7.476  -0.896  -0.606  1.00  0.00     0.210 C 
ENDBRANCH  15  20
BRANCH  16  22
HETATM   22  O4  UNL     1      -4.778  -1.993  -2.212  1.00  0.00    -0.356 OA
ATOM     23  H4  UNL     1      -4.141  -2.640  -2.493  1.00  0.00     0.218 HD
ENDBRANCH  16  22
BRANCH  17  24
HETATM   24  N6  UNL     1      -2.122  -2.057  -1.296  1.00  0.00    -0.110 N 
HETATM   25  O5  UNL     1      -1.809  -2.994  -0.541  1.00  0.00    -0.532 OA
HETATM   26  O6  UNL     1      -1.622  -1.999  -2.564  1.00  0.00    -0.532 OA
ENDBRANCH  17  24
ENDBRANCH  10  12
ENDBRANCH   8  10
ENDBRANCH   4   8
BRANCH   7  27
HETATM   27  S1  UNL     1       3.095  -2.134   2.322  1.00  0.00     0.157 S 
HETATM   28  O7  UNL     1       4.160  -3.081   1.907  1.00  0.00    -0.590 OA
HETATM   29  O8  UNL     1       1.842  -2.966   2.619  1.00  0.00    -0.590 OA
HETATM   30  O9  UNL     1       3.487  -1.405   3.788  1.00  0.00    -0.590 OA
ENDBRANCH   7  27
BRANCH   1  31
HETATM   31  N3  UNL     1       5.059  -0.543   0.538  1.00  0.00    -0.187 N 
HETATM   32  C2  UNL     1       6.036   0.079  -0.285  1.00  0.00     0.697 C 
HETATM   33  N1  UNL     1       6.607   1.331   0.033  1.00  0.00    -0.229 N 
HETATM   34  N2  UNL     1       6.408  -0.523  -1.352  1.00  0.00    -0.099 N 
HETATM   35  C1  UNL     1       7.009   2.203  -1.055  1.00  0.00     0.165 C 
ATOM     36  H1  UNL     1       6.734   1.615   1.004  1.00  0.00     0.177 HD
ATOM     37  H2  UNL     1       7.110  -0.086  -1.950  1.00  0.00     0.213 HD
ATOM     38  H3  UNL     1       5.371  -1.191   1.261  1.00  0.00     0.184 HD
BRANCH  34  39
HETATM   39  O1  UNL     1       5.885  -1.747  -1.715  1.00  0.00    -0.276 OA
ATOM     40  H1  UNL     1       6.161  -2.194  -2.507  1.00  0.00     0.245 HD
ENDBRANCH  34  39
ENDBRANCH   1  31
TORSDOF 10
