REMARK  11 active torsions:
REMARK  status: ('A' for Active; 'I' for Inactive)
REMARK    1  A    between atoms: N1_2  and  C1_4 
REMARK    2  A    between atoms: C3_6  and  N2_7 
REMARK    3  A    between atoms: C4_10  and  N3_11 
REMARK    4  A    between atoms: N3_11  and  N4_13 
REMARK    5  A    between atoms: N4_13  and  C5_15 
REMARK    6  A    between atoms: C5_15  and  O5_16 
REMARK    7  A    between atoms: C5_15  and  C6_18 
REMARK    8  A    between atoms: N7_24  and  N8_26 
REMARK    9  A    between atoms: C8_28  and  C9_29 
REMARK   10  A    between atoms: C12_34  and  O6_35 
REMARK   11  A    between atoms: C13_38  and  N10_39 
ROOT
HETATM    1  C5  UNL     1      -0.652  -1.411  -1.453  1.00  0.00     0.310 C 
ENDROOT
BRANCH   1   2
HETATM    2  N4  UNL     1      -1.834  -0.694  -1.266  1.00  0.00    -0.300 N 
ATOM      3  H4  UNL     1      -2.160  -0.079  -2.011  1.00  0.00     0.183 HD
BRANCH   2   4
HETATM    4  N3  UNL     1      -2.562  -0.787  -0.131  1.00  0.00    -0.298 N 
ATOM      5  H3  UNL     1      -2.175  -1.238   0.698  1.00  0.00     0.187 HD
BRANCH   4   6
HETATM    6  C4  UNL     1      -3.880  -0.245  -0.112  1.00  0.00     0.114 A 
HETATM    7  C3  UNL     1      -4.108   1.111   0.025  1.00  0.00     0.135 A 
HETATM    8  C2  UNL     1      -5.388   1.642   0.034  1.00  0.00     0.074 A 
HETATM    9  C1  UNL     1      -6.502   0.842  -0.092  1.00  0.00     0.107 A 
HETATM   10  C14 UNL     1      -6.298  -0.494  -0.227  1.00  0.00     0.074 A 
HETATM   11  C13 UNL     1      -5.003  -1.031  -0.236  1.00  0.00     0.135 A 
BRANCH   7  12
HETATM   12  N2  UNL     1      -3.023   2.001   0.156  1.00  0.00    -0.113 N 
HETATM   13  O3  UNL     1      -3.147   3.170  -0.232  1.00  0.00    -0.532 OA
HETATM   14  O4  UNL     1      -1.850   1.581   0.703  1.00  0.00    -0.532 OA
ENDBRANCH   7  12
BRANCH   9  15
HETATM   15  N1  UNL     1      -7.824   1.398  -0.082  1.00  0.00    -0.116 N 
HETATM   16  O1  UNL     1      -8.788   0.619  -0.202  1.00  0.00    -0.532 OA
HETATM   17  O2  UNL     1      -7.976   2.744   0.056  1.00  0.00    -0.532 OA
ENDBRANCH   9  15
BRANCH  11  18
HETATM   18  N10 UNL     1      -4.880  -2.438  -0.369  1.00  0.00    -0.113 N 
HETATM   19  O8  UNL     1      -5.723  -3.140  -0.968  1.00  0.00    -0.532 OA
HETATM   20  O9  UNL     1      -3.802  -3.058   0.178  1.00  0.00    -0.532 OA
ENDBRANCH  11  18
ENDBRANCH   4   6
ENDBRANCH   2   4
ENDBRANCH   1   2
BRANCH   1  21
HETATM   21  O5  UNL     1      -0.922  -2.801  -1.459  1.00  0.00    -0.368 OA
ATOM     22  H5  UNL     1      -0.117  -3.289  -1.586  1.00  0.00     0.212 HD
ENDBRANCH   1  21
BRANCH   1  23
HETATM   23  C6  UNL     1       0.450  -1.177  -0.517  1.00  0.00     0.192 A 
HETATM   24  N5  UNL     1       0.396  -1.118   0.815  1.00  0.00    -0.276 N 
HETATM   25  N6  UNL     1       1.610  -0.890   1.279  1.00  0.00    -0.262 N 
ATOM     26  H5  UNL     1      -0.445  -1.231   1.381  1.00  0.00     0.189 HD
HETATM   27  C7  UNL     1       2.419  -0.807   0.214  1.00  0.00     0.260 A 
ATOM     28  H6  UNL     1       1.880  -0.795   2.258  1.00  0.00     0.190 HD
HETATM   29  N7  UNL     1       3.712  -0.589   0.211  1.00  0.00    -0.264 N 
HETATM   30  O7  UNL     1       1.701  -0.982  -0.845  1.00  0.00    -0.258 OA
ATOM     31  H7  UNL     1       4.196  -0.553  -0.686  1.00  0.00     0.190 HD
BRANCH  29  32
HETATM   32  N8  UNL     1       4.442  -0.408   1.351  1.00  0.00    -0.308 N 
HETATM   33  C8  UNL     1       5.585   0.106   1.519  1.00  0.00     0.123 C 
ATOM     34  H8  UNL     1       3.993  -0.741   2.204  1.00  0.00     0.186 HD
BRANCH  33  35
HETATM   35  C9  UNL     1       6.436   0.653   0.479  1.00  0.00     0.033 A 
HETATM   36  C10 UNL     1       6.236   0.749  -0.876  1.00  0.00     0.034 A 
HETATM   37  C11 UNL     1       7.330   1.349  -1.479  1.00  0.00     0.091 A 
HETATM   38  N9  UNL     1       8.209   1.626  -0.506  1.00  0.00    -0.346 N 
HETATM   39  C12 UNL     1       7.705   1.224   0.669  1.00  0.00     0.151 A 
ATOM     40  H9  UNL     1       9.117   2.072  -0.639  1.00  0.00     0.167 HD
BRANCH  39  41
HETATM   41  O6  UNL     1       8.368   1.365   1.881  1.00  0.00    -0.345 OA
ATOM     42  H6  UNL     1       9.226   1.751   2.010  1.00  0.00     0.219 HD
ENDBRANCH  39  41
ENDBRANCH  33  35
ENDBRANCH  29  32
ENDBRANCH   1  23
TORSDOF 11
