REMARK  8 active torsions:
REMARK  status: ('A' for Active; 'I' for Inactive)
REMARK    1  A    between atoms: C3_6  and  C4_7 
REMARK    2  A    between atoms: C4_7  and  C5_8 
REMARK    3  A    between atoms: C5_8  and  N3_9 
REMARK    4  A    between atoms: C7_14  and  N4_15 
REMARK    5  A    between atoms: N5_18  and  C8_19 
REMARK    6  A    between atoms: C8_19  and  C9_20 
REMARK    7  A    between atoms: C9_20  and  O1_21 
REMARK    8  A    between atoms: O1_21  and  C10_22 
ROOT
HETATM    1  C1  UNL     1       1.490  -3.715  -2.148  1.00  0.00     0.233 C 
HETATM    2  N1  UNL     1       1.491  -2.609  -1.769  1.00  0.00    -0.395 NA
HETATM    3  C2  UNL     1       1.522  -1.298  -1.339  1.00  0.00     0.262 A 
HETATM    4  N2  UNL     1       2.695  -0.743  -1.002  1.00  0.00    -0.320 N 
ATOM      5  H2  UNL     1       3.539  -1.313  -1.053  1.00  0.00     0.170 HD
HETATM    6  C3  UNL     1       2.801   0.531  -0.601  1.00  0.00     0.018 A 
HETATM    7  C6  UNL     1       1.650   1.259  -0.549  1.00  0.00     0.073 A 
HETATM    8  C7  UNL     1       0.433   0.656  -0.907  1.00  0.00     0.106 A 
HETATM    9  N5  UNL     1       0.330  -0.614  -1.303  1.00  0.00    -0.291 N 
ENDROOT
BRANCH   9  10
HETATM   10  C8  UNL     1      -0.887  -1.276  -1.699  1.00  0.00     0.161 C 
BRANCH  10  11
HETATM   11  C9  UNL     1      -1.597  -2.070  -0.685  1.00  0.00     0.196 C 
BRANCH  11  12
HETATM   12  O1  UNL     1      -2.160  -1.530   0.434  1.00  0.00    -0.350 OA
BRANCH  12  13
HETATM   13  C10 UNL     1      -3.181  -0.674   0.659  1.00  0.00     0.068 A 
HETATM   14  C11 UNL     1      -3.999  -0.079  -0.275  1.00  0.00     0.037 A 
HETATM   15  C12 UNL     1      -5.018   0.783   0.040  1.00  0.00     0.003 A 
HETATM   16  C13 UNL     1      -5.244   1.076   1.362  1.00  0.00     0.000 A 
HETATM   17  C14 UNL     1      -4.468   0.519   2.344  1.00  0.00     0.003 A 
HETATM   18  C15 UNL     1      -3.453  -0.343   1.994  1.00  0.00     0.037 A 
ENDBRANCH  12  13
ENDBRANCH  11  12
ENDBRANCH  10  11
ENDBRANCH   9  10
BRANCH   6  19
HETATM   19  C4  UNL     1       4.119   1.102  -0.238  1.00  0.00     0.084 C 
BRANCH  19  20
HETATM   20  C5  UNL     1       4.304   0.850   1.255  1.00  0.00     0.235 C 
BRANCH  20  21
HETATM   21  N3  UNL     1       5.571   1.388   1.648  1.00  0.00    -0.079 N 
ATOM     22  H33 UNL     1       6.343   1.023   1.090  1.00  0.00     0.274 HD
ATOM     23  H32 UNL     1       5.674   2.372   1.400  1.00  0.00     0.274 HD
ATOM     24  H31 UNL     1       5.695   1.219   2.646  1.00  0.00     0.274 HD
ENDBRANCH  20  21
ENDBRANCH  19  20
ENDBRANCH   6  19
BRANCH   8  25
HETATM   25  N4  UNL     1      -0.637   1.388  -0.891  1.00  0.00    -0.385 N 
ATOM     26  H42 UNL     1      -0.558   2.359  -0.588  1.00  0.00     0.157 HD
ATOM     27  H41 UNL     1      -1.521   0.950  -1.151  1.00  0.00     0.157 HD
ENDBRANCH   8  25
TORSDOF 8
