REMARK  11 active torsions:
REMARK  status: ('A' for Active; 'I' for Inactive)
REMARK    1  A    between atoms: N3_4  and  C2_6 
REMARK    2  A    between atoms: C2_6  and  C3_7 
REMARK    3  A    between atoms: C3_7  and  C4_8 
REMARK    4  A    between atoms: C4_8  and  C5_9 
REMARK    5  A    between atoms: C5_9  and  C6_10 
REMARK    6  A    between atoms: C6_10  and  C7_11 
REMARK    7  A    between atoms: C7_11  and  C8_12 
REMARK    8  A    between atoms: C9_13  and  C10_14 
REMARK    9  A    between atoms: N4_17  and  O1_18 
REMARK   10  A    between atoms: C14_21  and  C15_22 
REMARK   11  A    between atoms: C15_22  and  O2_23 
ROOT
HETATM    1  C8  UNL     1      -1.654  -0.870  -0.191  1.00  0.00    -0.101 C 
HETATM    2  C9  UNL     1      -2.761  -0.629   0.189  1.00  0.00    -0.066 C 
ENDROOT
BRANCH   1   3
HETATM    3  C7  UNL     1      -0.259  -1.200  -0.663  1.00  0.00     0.098 C 
BRANCH   3   4
HETATM    4  C6  UNL     1       0.275   0.068  -1.192  1.00  0.00     0.039 C 
BRANCH   4   5
HETATM    5  C5  UNL     1       1.615   0.037  -1.770  1.00  0.00    -0.030 C 
BRANCH   5   6
HETATM    6  C4  UNL     1       2.825  -0.284  -1.019  1.00  0.00    -0.029 C 
BRANCH   6   7
HETATM    7  C3  UNL     1       3.019  -1.589  -0.362  1.00  0.00     0.046 C 
BRANCH   7   8
HETATM    8  C2  UNL     1       4.465  -1.522   0.242  1.00  0.00     0.125 C 
BRANCH   8   9
HETATM    9  N3  UNL     1       4.436  -0.407   1.164  1.00  0.00    -0.367 N 
HETATM   10  C1  UNL     1       5.452   0.355   1.252  1.00  0.00     0.196 C 
HETATM   11  N1  UNL     1       6.592   0.115   0.461  1.00  0.00    -0.067 NA
HETATM   12  N2  UNL     1       5.431   1.445   2.150  1.00  0.00    -0.067 NA
ATOM     13  H3  UNL     1       3.610  -0.233   1.737  1.00  0.00     0.161 HD
ENDBRANCH   8   9
ENDBRANCH   7   8
ENDBRANCH   6   7
ENDBRANCH   5   6
ENDBRANCH   4   5
ENDBRANCH   3   4
ENDBRANCH   1   3
BRANCH   2  14
HETATM   14  C10 UNL     1      -4.082  -0.327   0.664  1.00  0.00     0.029 A 
HETATM   15  C11 UNL     1      -4.505  -0.747   1.923  1.00  0.00     0.041 A 
HETATM   16  C12 UNL     1      -5.780  -0.441   2.352  1.00  0.00     0.124 A 
HETATM   17  N4  UNL     1      -6.606   0.256   1.560  1.00  0.00    -0.247 N 
HETATM   18  C13 UNL     1      -6.209   0.666   0.343  1.00  0.00     0.133 A 
HETATM   19  C14 UNL     1      -4.940   0.386  -0.136  1.00  0.00     0.002 A 
BRANCH  17  20
HETATM   20  O1  UNL     1      -7.865   0.527   2.049  1.00  0.00    -0.284 OA
ATOM     21  H1  UNL     1      -8.451   1.021   1.487  1.00  0.00     0.245 HD
ENDBRANCH  17  20
BRANCH  19  22
HETATM   22  C15 UNL     1      -4.468   0.817  -1.461  1.00  0.00     0.205 C 
BRANCH  22  23
HETATM   23  O2  UNL     1      -5.441   1.529  -2.161  1.00  0.00    -0.396 OA
ATOM     24  H2  UNL     1      -5.136   1.807  -3.017  1.00  0.00     0.209 HD
ENDBRANCH  22  23
ENDBRANCH  19  22
ENDBRANCH   2  14
TORSDOF 11
