REMARK  1 active torsions:
REMARK  status: ('A' for Active; 'I' for Inactive)
REMARK    1  A    between atoms: N1_1  and  C1_5 
ROOT
HETATM    1  C1  UNL     1       1.298  -0.448   0.122  1.00  0.00     0.127 C 
HETATM    2  C2  UNL     1       0.614  -0.863  -1.125  1.00  0.00     0.043 C 
HETATM    3  C3  UNL     1      -0.536  -0.026  -1.546  1.00  0.00    -0.012 C 
HETATM    4  C4  UNL     1      -1.815  -0.480  -0.929  1.00  0.00     0.008 C 
HETATM    5  C5  UNL     1      -1.694  -0.993   0.464  1.00  0.00     0.044 C 
HETATM    6  C6  UNL     1      -0.817  -0.189   1.360  1.00  0.00     0.106 C 
HETATM    7  F1  UNL     1      -1.314  -0.319   2.667  1.00  0.00    -0.243 F 
HETATM    8  C7  UNL     1      -0.822   1.251   1.033  1.00  0.00     0.048 C 
HETATM    9  C8  UNL     1       0.205   1.722   0.081  1.00  0.00    -0.009 C 
HETATM   10  C9  UNL     1      -0.267   1.448  -1.343  1.00  0.00     0.009 C 
HETATM   11  C10 UNL     1       1.547   1.041   0.218  1.00  0.00     0.043 C 
HETATM   12  C11 UNL     1       0.552  -0.825   1.382  1.00  0.00     0.082 C 
ENDROOT
BRANCH   1  13
HETATM   13  N1  UNL     1       2.608  -1.120   0.152  1.00  0.00    -0.070 N 
ATOM     14  H13 UNL     1       2.538  -2.133   0.055  1.00  0.00     0.275 HD
ATOM     15  H12 UNL     1       3.165  -0.944  -0.685  1.00  0.00     0.275 HD
ATOM     16  H11 UNL     1       3.079  -0.834   1.011  1.00  0.00     0.275 HD
ENDBRANCH   1  13
TORSDOF 1
