REMARK  1 active torsions:
REMARK  status: ('A' for Active; 'I' for Inactive)
REMARK    1  A    between atoms: O1_1  and  C1_3 
ROOT
HETATM    1  C1  UNL     1       1.153   0.800   0.699  1.00  0.00     0.162 C 
HETATM    2  C2  UNL     1       1.004  -0.653   0.966  1.00  0.00     0.018 C 
HETATM    3  C3  UNL     1      -0.333  -1.028   1.511  1.00  0.00     0.012 C 
HETATM    4  C4  UNL     1      -1.422  -0.593   0.532  1.00  0.00    -0.014 C 
HETATM    5  C5  UNL     1      -1.690   0.873   0.601  1.00  0.00     0.008 C 
HETATM    6  C6  UNL     1      -0.911   1.722  -0.321  1.00  0.00     0.046 C 
HETATM    7  C7  UNL     1       0.510   1.300  -0.537  1.00  0.00     0.130 C 
HETATM    8  F1  UNL     1       1.209   2.448  -0.941  1.00  0.00    -0.240 F 
HETATM    9  C8  UNL     1       0.551   0.353  -1.700  1.00  0.00     0.051 C 
HETATM   10  C9  UNL     1       0.233  -1.078  -1.300  1.00  0.00    -0.010 C 
HETATM   11  C10 UNL     1      -1.169  -1.130  -0.826  1.00  0.00     0.009 C 
HETATM   12  C11 UNL     1       1.257  -1.482  -0.272  1.00  0.00     0.012 C 
ENDROOT
BRANCH   1  13
HETATM   13  O1  UNL     1       2.520   1.113   0.779  1.00  0.00    -0.392 OA
ATOM     14  H1  UNL     1       2.615   2.043   0.608  1.00  0.00     0.210 HD
ENDBRANCH   1  13
TORSDOF 1
