REMARK  2 active torsions:
REMARK  status: ('A' for Active; 'I' for Inactive)
REMARK    1  A    between atoms: C1_4  and  N2_5 
REMARK    2  A    between atoms: C1_4  and  C2_8 
ROOT
HETATM    1  C2  UNL     1       0.690  -0.253  -0.691  1.00  0.00     0.058 C 
HETATM    2  C3  UNL     1      -0.186  -1.428  -0.326  1.00  0.00     0.020 C 
HETATM    3  C4  UNL     1      -1.399  -0.690   0.245  1.00  0.00     0.021 C 
HETATM    4  C5  UNL     1      -0.628   0.260   1.183  1.00  0.00     0.013 C 
HETATM    5  C6  UNL     1       0.154   0.948   0.057  1.00  0.00    -0.000 C 
HETATM    6  C7  UNL     1      -0.999   1.481  -0.761  1.00  0.00     0.043 C 
HETATM    7  C8  UNL     1      -1.970   0.299  -0.720  1.00  0.00     0.174 C 
HETATM    8  F1  UNL     1      -2.195  -0.219  -1.971  1.00  0.00    -0.249 F 
ENDROOT
BRANCH   1   9
HETATM    9  C1  UNL     1       2.115  -0.426  -0.382  1.00  0.00     0.086 C 
HETATM   10  N1  UNL     1       2.666  -1.466   0.123  1.00  0.00    -0.388 N 
ATOM     11  H12 UNL     1       3.656  -1.586   0.338  1.00  0.00     0.157 HD
ATOM     12  H11 UNL     1       2.053  -2.254   0.333  1.00  0.00     0.157 HD
BRANCH   9  13
HETATM   13  N2  UNL     1       2.971   0.675  -0.676  1.00  0.00    -0.309 N 
HETATM   14  S1  UNL     1       3.653   1.585   0.447  1.00  0.00     0.043 SA
ATOM     15  H2  UNL     1       3.158   0.894  -1.655  1.00  0.00     0.176 HD
ENDBRANCH   9  13
ENDBRANCH   1   9
TORSDOF 2
