REMARK  1 active torsions:
REMARK  status: ('A' for Active; 'I' for Inactive)
REMARK    1  A    between atoms: N1_1  and  C1_5 
ROOT
HETATM    1  C1  UNL     1       1.178  -0.003   0.122  1.00  0.00     0.125 C 
HETATM    2  C2  UNL     1       0.487   1.308   0.387  1.00  0.00     0.045 C 
HETATM    3  C3  UNL     1      -0.996   1.232   0.227  1.00  0.00     0.007 C 
HETATM    4  C4  UNL     1      -1.589   0.103   1.070  1.00  0.00     0.011 C 
HETATM    5  C5  UNL     1      -0.871  -1.091   0.427  1.00  0.00    -0.006 C 
HETATM    6  C6  UNL     1       0.541  -1.061   1.030  1.00  0.00     0.043 C 
HETATM    7  C7  UNL     1      -0.730  -0.735  -1.015  1.00  0.00     0.011 C 
HETATM    8  C8  UNL     1       0.779  -0.580  -1.235  1.00  0.00     0.045 C 
HETATM    9  C9  UNL     1      -1.276   0.691  -1.174  1.00  0.00     0.091 C 
HETATM   10 CL1  UNL     1      -2.975   0.710  -1.580  1.00  0.00    -0.124 Cl
ENDROOT
BRANCH   1  11
HETATM   11  N1  UNL     1       2.584   0.101   0.296  1.00  0.00    -0.070 N 
ATOM     12  H13 UNL     1       2.975   0.850  -0.275  1.00  0.00     0.275 HD
ATOM     13  H12 UNL     1       2.819   0.466   1.219  1.00  0.00     0.275 HD
ATOM     14  H11 UNL     1       3.052  -0.787   0.116  1.00  0.00     0.275 HD
ENDBRANCH   1  11
TORSDOF 1
