REMARK  3 active torsions:
REMARK  status: ('A' for Active; 'I' for Inactive)
REMARK    1  A    between atoms: O1_2  and  C2_3 
REMARK    2  A    between atoms: C2_3  and  O2_7 
REMARK    3  A    between atoms: O2_7  and  C3_8 
ROOT
HETATM    1  C3  UNL     1       0.184  -0.150  -0.042  1.00  0.00     0.160 C 
HETATM    2  C4  UNL     1      -0.312   0.926   0.850  1.00  0.00     0.265 C 
HETATM    3  N2  UNL     1      -1.710   0.516   1.073  1.00  0.00    -0.065 N 
ATOM      4  H21 UNL     1      -2.312   1.286   1.366  1.00  0.00     0.278 HD
ATOM      5  H22 UNL     1      -1.830  -0.065   1.903  1.00  0.00     0.278 HD
HETATM    6  C5  UNL     1      -2.153  -0.118  -0.125  1.00  0.00     0.121 C 
HETATM    7  C6  UNL     1      -2.548  -1.577   0.143  1.00  0.00     0.046 C 
HETATM    8  C7  UNL     1      -3.338   0.586  -0.703  1.00  0.00     0.046 C 
HETATM    9  C8  UNL     1      -0.970  -0.165  -1.081  1.00  0.00     0.072 C 
ENDROOT
BRANCH   1  10
HETATM   10  O2  UNL     1       1.402  -0.000  -0.662  1.00  0.00    -0.310 OA
BRANCH  10  11
HETATM   11  C2  UNL     1       2.581   0.155  -0.020  1.00  0.00     0.258 C 
HETATM   12  N1  UNL     1       2.754   1.193   0.698  1.00  0.00    -0.359 N 
ATOM     13  H12 UNL     1       3.644   1.310   1.183  1.00  0.00     0.160 HD
ATOM     14  H11 UNL     1       1.957   1.829   0.723  1.00  0.00     0.160 HD
BRANCH  11  15
HETATM   15  O1  UNL     1       3.679  -0.722  -0.054  1.00  0.00    -0.322 OA
HETATM   16  C1  UNL     1       4.986  -0.163  -0.066  1.00  0.00     0.213 C 
ENDBRANCH  11  15
ENDBRANCH  10  11
ENDBRANCH   1  10
TORSDOF 3
