REMARK  2 active torsions:
REMARK  status: ('A' for Active; 'I' for Inactive)
REMARK    1  A    between atoms: O1_1  and  C1_3 
REMARK    2  A    between atoms: C8_11  and  O2_12 
ROOT
HETATM    1  C1  UNL     1       1.985  -0.442   0.486  1.00  0.00     0.157 C 
HETATM    2  C2  UNL     1       0.893  -1.260  -0.163  1.00  0.00     0.035 C 
HETATM    3  C3  UNL     1      -0.301  -1.455   0.737  1.00  0.00     0.003 C 
HETATM    4  C4  UNL     1      -1.585  -1.486  -0.041  1.00  0.00     0.000 C 
HETATM    5  C5  UNL     1      -1.926  -0.184  -0.694  1.00  0.00     0.001 C 
HETATM    6  C6  UNL     1      -2.062   0.964   0.241  1.00  0.00     0.010 C 
HETATM    7  C7  UNL     1      -0.997   2.037  -0.017  1.00  0.00     0.076 C 
HETATM    8  S1  UNL     1       0.468   1.782   0.990  1.00  0.00    -0.135 SA
HETATM    9  C8  UNL     1       1.817   1.022   0.096  1.00  0.00     0.208 C 
ENDROOT
BRANCH   1  10
HETATM   10  O1  UNL     1       3.224  -0.833  -0.066  1.00  0.00    -0.392 OA
ATOM     11  H1  UNL     1       3.911  -0.319   0.342  1.00  0.00     0.210 HD
ENDBRANCH   1  10
BRANCH   9  12
HETATM   12  O2  UNL     1       1.644   1.079  -1.292  1.00  0.00    -0.383 OA
ATOM     13  H2  UNL     1       1.539   1.991  -1.535  1.00  0.00     0.211 HD
ENDBRANCH   9  12
TORSDOF 2
