REMARK  2 active torsions:
REMARK  status: ('A' for Active; 'I' for Inactive)
REMARK    1  A    between atoms: C4_5  and  N1_6 
REMARK    2  A    between atoms: N1_6  and  C5_8 
ROOT
HETATM    1  C1  UNL     1      -2.967   0.749   1.040  1.00  0.00     0.041 C 
HETATM    2  C2  UNL     1      -2.812   0.445  -0.428  1.00  0.00     0.194 C 
HETATM    3  C3  UNL     1      -2.797  -1.069  -0.677  1.00  0.00     0.110 C 
HETATM    4  S1  UNL     1      -1.052  -1.409  -0.198  1.00  0.00    -0.114 SA
HETATM    5  C4  UNL     1      -0.514   0.319  -0.061  1.00  0.00     0.344 C 
HETATM    6  N2  UNL     1      -1.560   0.952  -0.888  1.00  0.00    -0.041 N 
ATOM      7  H21 UNL     1      -1.513   1.971  -0.885  1.00  0.00     0.281 HD
ATOM      8  H22 UNL     1      -1.416   0.820  -1.889  1.00  0.00     0.281 HD
ENDROOT
BRANCH   5   9
HETATM    9  N1  UNL     1       0.762   0.604  -0.575  1.00  0.00    -0.380 N 
ATOM     10  H1  UNL     1       0.872   1.255  -1.352  1.00  0.00     0.156 HD
BRANCH   9  11
HETATM   11  C5  UNL     1       1.893  -0.024  -0.000  1.00  0.00     0.017 C 
HETATM   12  C6  UNL     1       1.926  -1.519  -0.129  1.00  0.00     0.037 C 
HETATM   13  C7  UNL     1       3.118   0.526  -0.734  1.00  0.00     0.037 C 
HETATM   14  C8  UNL     1       2.057   0.337   1.465  1.00  0.00     0.037 C 
ENDBRANCH   9  11
ENDBRANCH   5   9
TORSDOF 2
