REMARK  11 active torsions:
REMARK  status: ('A' for Active; 'I' for Inactive)
REMARK    1  A    between atoms: C2_2  and  O1_3 
REMARK    2  A    between atoms: C2_2  and  C3_5 
REMARK    3  A    between atoms: C3_5  and  C4_6 
REMARK    4  A    between atoms: C3_5  and  C19_23 
REMARK    5  A    between atoms: C5_7  and  C6_8 
REMARK    6  A    between atoms: C6_8  and  C8_10 
REMARK    7  A    between atoms: C19_23  and  C21_25 
REMARK    8  A    between atoms: C21_25  and  C22_29 
REMARK    9  A    between atoms: C28_35  and  O4_36 
REMARK   10  A    between atoms: C29_38  and  O5_39 
REMARK   11  A    between atoms: C30_41  and  O6_42 
ROOT
HETATM    1  C3  UNL     1      -0.849  -0.139   0.540  1.00  0.00     0.094 C 
ENDROOT
BRANCH   1   2
HETATM    2  C2  UNL     1      -0.664   0.923   1.495  1.00  0.00     0.045 C 
HETATM    3  C1  UNL     1      -1.153   2.114   1.479  1.00  0.00     0.047 C 
BRANCH   2   4
HETATM    4  O1  UNL     1       0.168   0.631   2.612  1.00  0.00    -0.365 OA
ATOM      5  H1  UNL     1       0.529  -0.248   2.624  1.00  0.00     0.217 HD
ENDBRANCH   2   4
ENDBRANCH   1   2
BRANCH   1   6
HETATM    6  C4  UNL     1       0.531  -0.554   0.081  1.00  0.00    -0.015 C 
HETATM    7  C5  UNL     1       1.085  -1.688   0.426  1.00  0.00    -0.025 C 
BRANCH   7   8
HETATM    8  C6  UNL     1       2.421  -2.183   0.034  1.00  0.00     0.008 C 
HETATM    9  C7  UNL     1       3.160  -2.725   1.238  1.00  0.00     0.014 C 
BRANCH   8  10
HETATM   10  C8  UNL     1       3.233  -1.285  -0.814  1.00  0.00    -0.004 C 
HETATM   11  C9  UNL     1       3.589   0.042  -0.228  1.00  0.00     0.008 C 
HETATM   12  C10 UNL     1       5.036  -0.079   0.197  1.00  0.00     0.039 C 
HETATM   13  C11 UNL     1       5.620  -1.221  -0.568  1.00  0.00     0.071 C 
HETATM   14  C12 UNL     1       6.564  -0.662  -1.600  1.00  0.00     0.043 C 
HETATM   15  O3  UNL     1       6.288  -2.091   0.343  1.00  0.00    -0.306 OA
HETATM   16  C18 UNL     1       4.494  -1.918  -1.268  1.00  0.00     0.044 C 
HETATM   17  C13 UNL     1       7.917  -0.315  -1.076  1.00  0.00     0.047 C 
HETATM   18  C14 UNL     1       8.044  -0.422   0.396  1.00  0.00     0.013 C 
HETATM   19  C15 UNL     1       8.730   0.437   1.125  1.00  0.00    -0.018 C 
HETATM   20  C17 UNL     1       7.360  -1.549   1.036  1.00  0.00     0.289 C 
HETATM   21  C16 UNL     1       9.406   1.568   0.410  1.00  0.00     0.036 C 
HETATM   22  O2  UNL     1       7.746  -1.984   2.157  1.00  0.00    -0.260 OA
ENDBRANCH   8  10
ENDBRANCH   7   8
ENDBRANCH   1   6
BRANCH   1  23
HETATM   23  C19 UNL     1      -1.746   0.061  -0.648  1.00  0.00    -0.047 C 
HETATM   24  C20 UNL     1      -1.393   1.195  -1.540  1.00  0.00     0.046 C 
BRANCH  23  25
HETATM   25  C21 UNL     1      -3.147  -0.219  -0.406  1.00  0.00     0.011 C 
HETATM   26  N1  UNL     1      -3.648  -1.267  -1.034  1.00  0.00    -0.402 N 
ATOM     27  H12 UNL     1      -2.946  -1.724  -1.616  1.00  0.00     0.156 HD
ATOM     28  H11 UNL     1      -4.634  -1.464  -0.864  1.00  0.00     0.156 HD
BRANCH  25  29
HETATM   29  C22 UNL     1      -4.152   0.436   0.428  1.00  0.00     0.051 A 
HETATM   30  C23 UNL     1      -4.743   1.739   0.329  1.00  0.00     0.004 A 
HETATM   31  C24 UNL     1      -5.332   2.351   1.598  1.00  0.00     0.011 C 
HETATM   32  C25 UNL     1      -5.514   0.608  -0.234  1.00  0.00     0.002 A 
HETATM   33  C26 UNL     1      -5.650   0.543  -1.718  1.00  0.00     0.016 C 
HETATM   34  C30 UNL     1      -6.760   0.166   0.491  1.00  0.00     0.159 C 
HETATM   35  C27 UNL     1      -6.866   1.329  -2.165  1.00  0.00     0.035 C 
HETATM   36  C28 UNL     1      -8.112   0.737  -1.563  1.00  0.00     0.149 C 
HETATM   37  C29 UNL     1      -7.862  -0.216  -0.440  1.00  0.00     0.176 C 
BRANCH  36  38
HETATM   38  O4  UNL     1      -8.832   0.044  -2.563  1.00  0.00    -0.393 OA
ATOM     39  H4  UNL     1      -9.618  -0.330  -2.183  1.00  0.00     0.210 HD
ENDBRANCH  36  38
BRANCH  37  40
HETATM   40  O5  UNL     1      -9.049  -0.255   0.327  1.00  0.00    -0.390 OA
ATOM     41  H5  UNL     1      -8.890  -0.861   1.041  1.00  0.00     0.210 HD
ENDBRANCH  37  40
BRANCH  34  42
HETATM   42  O6  UNL     1      -6.442  -0.952   1.264  1.00  0.00    -0.392 OA
ATOM     43  H6  UNL     1      -7.227  -1.230   1.721  1.00  0.00     0.210 HD
ENDBRANCH  34  42
ENDBRANCH  25  29
ENDBRANCH  23  25
ENDBRANCH   1  23
TORSDOF 11
