REMARK  10 active torsions:
REMARK  status: ('A' for Active; 'I' for Inactive)
REMARK    1  A    between atoms: C2_2  and  C3_3 
REMARK    2  A    between atoms: C2_2  and  C10_16 
REMARK    3  A    between atoms: C3_3  and  C4_4 
REMARK    4  A    between atoms: C4_4  and  O1_5 
REMARK    5  A    between atoms: C4_4  and  C5_7 
REMARK    6  A    between atoms: C6_8  and  C7_9 
REMARK    7  A    between atoms: C7_9  and  S1_12 
REMARK    8  A    between atoms: C10_16  and  O5_17 
REMARK    9  A    between atoms: C10_16  and  C11_19 
REMARK   10  A    between atoms: C21_29  and  O6_30 
ROOT
HETATM    1  C11 UNL     1       0.097   0.576   0.123  1.00  0.00     0.154 C 
HETATM    2  C12 UNL     1      -0.669  -0.352  -0.729  1.00  0.00     0.073 C 
HETATM    3  C13 UNL     1      -1.643  -0.402   0.389  1.00  0.00     0.071 C 
HETATM    4  C14 UNL     1      -2.037  -1.825   0.690  1.00  0.00     0.039 C 
HETATM    5  C15 UNL     1      -3.394  -1.979   0.101  1.00  0.00     0.009 C 
HETATM    6  C16 UNL     1      -3.854  -0.615  -0.357  1.00  0.00     0.007 C 
HETATM    7  C17 UNL     1      -5.309  -0.391  -0.231  1.00  0.00    -0.011 C 
HETATM    8  C18 UNL     1      -5.965  -1.758   0.011  1.00  0.00     0.018 C 
HETATM    9  C19 UNL     1      -5.976   0.111  -1.520  1.00  0.00     0.016 C 
HETATM   10  C20 UNL     1      -7.095   1.047  -1.269  1.00  0.00     0.062 C 
HETATM   11  C21 UNL     1      -7.872   0.877  -0.016  1.00  0.00     0.319 C 
HETATM   12  N1  UNL     1      -7.113   0.362   1.110  1.00  0.00    -0.044 N 
ATOM     13  H11 UNL     1      -7.316  -0.616   1.317  1.00  0.00     0.280 HD
ATOM     14  H12 UNL     1      -7.412   0.748   2.005  1.00  0.00     0.280 HD
HETATM   15  C22 UNL     1      -5.728   0.603   0.826  1.00  0.00     0.197 C 
HETATM   16  C23 UNL     1      -4.830   0.627   2.004  1.00  0.00     0.035 C 
HETATM   17  C24 UNL     1      -3.392   0.572   1.735  1.00  0.00     0.014 C 
HETATM   18  C25 UNL     1      -2.937   0.335   0.328  1.00  0.00    -0.008 C 
HETATM   19  C26 UNL     1      -2.741   1.639  -0.370  1.00  0.00     0.019 C 
HETATM   20  O7  UNL     1      -0.642   0.127   1.213  1.00  0.00    -0.371 OA
ENDROOT
BRANCH   1  21
HETATM   21  C10 UNL     1       1.592   0.438   0.190  1.00  0.00     0.151 C 
BRANCH  21  22
HETATM   22  C2  UNL     1       2.130  -0.944   0.237  1.00  0.00     0.015 C 
HETATM   23  C1  UNL     1       1.687  -1.664   1.520  1.00  0.00     0.012 C 
BRANCH  22  24
HETATM   24  C3  UNL     1       3.631  -0.938   0.294  1.00  0.00     0.042 C 
BRANCH  24  25
HETATM   25  C4  UNL     1       4.391  -0.326  -0.807  1.00  0.00     0.141 C 
BRANCH  25  26
HETATM   26  O1  UNL     1       4.198   1.023  -1.043  1.00  0.00    -0.392 OA
ATOM     27  H1  UNL     1       4.689   1.418  -1.754  1.00  0.00     0.210 HD
ENDBRANCH  25  26
BRANCH  25  28
HETATM   28  C5  UNL     1       5.864  -0.516  -0.523  1.00  0.00     0.002 C 
HETATM   29  C6  UNL     1       6.706   0.467  -0.328  1.00  0.00    -0.001 C 
BRANCH  29  30
HETATM   30  C7  UNL     1       8.138   0.322  -0.050  1.00  0.00     0.093 C 
HETATM   31  C8  UNL     1       8.643  -1.065  -0.375  1.00  0.00     0.039 C 
HETATM   32  C9  UNL     1       8.443   0.560   1.428  1.00  0.00     0.039 C 
BRANCH  30  33
HETATM   33  S1  UNL     1       9.091   1.558  -0.943  1.00  0.00     0.114 S 
HETATM   34  O2  UNL     1      10.535   1.364  -0.571  1.00  0.00    -0.594 OA
HETATM   35  O3  UNL     1       8.864   1.357  -2.418  1.00  0.00    -0.594 OA
HETATM   36  O4  UNL     1       8.593   3.074  -0.461  1.00  0.00    -0.594 OA
ENDBRANCH  30  33
ENDBRANCH  29  30
ENDBRANCH  25  28
ENDBRANCH  24  25
ENDBRANCH  22  24
ENDBRANCH  21  22
BRANCH  21  37
HETATM   37  O5  UNL     1       2.059   1.197   1.287  1.00  0.00    -0.393 OA
ATOM     38  H5  UNL     1       1.715   2.082   1.257  1.00  0.00     0.210 HD
ENDBRANCH  21  37
ENDBRANCH   1  21
BRANCH  11  39
HETATM   39  O6  UNL     1      -9.089   0.197  -0.190  1.00  0.00    -0.370 OA
ATOM     40  H6  UNL     1      -9.586   0.088   0.612  1.00  0.00     0.212 HD
ENDBRANCH  11  39
TORSDOF 10
