REMARK  16 active torsions:
REMARK  status: ('A' for Active; 'I' for Inactive)
REMARK    1  A    between atoms: C3_3  and  C4_4 
REMARK    2  A    between atoms: C4_4  and  C5_5 
REMARK    3  A    between atoms: C5_5  and  C6_6 
REMARK    4  A    between atoms: C6_6  and  C7_7 
REMARK    5  A    between atoms: C7_7  and  C8_8 
REMARK    6  A    between atoms: C8_8  and  C9_9 
REMARK    7  A    between atoms: C8_8  and  N5_31 
REMARK    8  A    between atoms: C9_9  and  N1_10 
REMARK    9  A    between atoms: N4_16  and  C11_18 
REMARK   10  A    between atoms: C14_21  and  C15_22 
REMARK   11  A    between atoms: C15_22  and  O1_25 
REMARK   12  A    between atoms: N5_31  and  C21_33 
REMARK   13  A    between atoms: C21_33  and  C22_34 
REMARK   14  A    between atoms: C24_36  and  O3_37 
REMARK   15  A    between atoms: C26_39  and  O4_40 
REMARK   16  A    between atoms: C28_42  and  O5_43 
ROOT
HETATM    1  C1  UNL     1      -3.831   9.501   0.678  1.00  0.00     0.112 C 
HETATM    2  C2  UNL     1      -3.669   8.052   0.609  1.00  0.00    -0.106 C 
HETATM    3  C3  UNL     1      -3.553   6.853   0.537  1.00  0.00    -0.078 C 
ENDROOT
BRANCH   3   4
HETATM    4  C4  UNL     1      -3.442   5.456   0.430  1.00  0.00     0.073 C 
BRANCH   4   5
HETATM    5  C5  UNL     1      -2.280   4.823   0.621  1.00  0.00     0.073 C 
BRANCH   5   6
HETATM    6  C6  UNL     1      -2.253   3.370   0.492  1.00  0.00    -0.071 C 
BRANCH   6   7
HETATM    7  C7  UNL     1      -2.281   2.176   0.363  1.00  0.00    -0.043 C 
BRANCH   7   8
HETATM    8  C8  UNL     1      -2.387   0.734   0.186  1.00  0.00     0.104 C 
BRANCH   8   9
HETATM    9  C9  UNL     1      -1.526   0.078  -0.774  1.00  0.00     0.160 C 
BRANCH   9  10
HETATM   10  N1  UNL     1      -0.111   0.105  -0.742  1.00  0.00    -0.211 N 
HETATM   11  N2  UNL     1       0.606   0.965  -1.508  1.00  0.00    -0.232 N 
HETATM   12  N3  UNL     1       1.894   0.711  -1.385  1.00  0.00    -0.266 N 
ATOM     13  H2  UNL     1       0.208   1.700  -2.093  1.00  0.00     0.209 HD
HETATM   14  C10 UNL     1       2.086  -0.302  -0.555  1.00  0.00     0.189 A 
ATOM     15  H3  UNL     1       2.637   1.222  -1.862  1.00  0.00     0.190 HD
HETATM   16  N4  UNL     1       3.101  -0.964  -0.201  1.00  0.00    -0.366 N 
HETATM   17  C20 UNL     1       0.792  -0.682  -0.144  1.00  0.00     0.312 A 
ATOM     18  H4  UNL     1       2.914  -1.700   0.480  1.00  0.00     0.161 HD
HETATM   19  O2  UNL     1       0.584  -1.611   0.652  1.00  0.00    -0.262 OA
BRANCH  16  20
HETATM   20  C11 UNL     1       4.452  -0.852  -0.594  1.00  0.00     0.083 C 
HETATM   21  C12 UNL     1       5.216   0.246   0.048  1.00  0.00     0.026 C 
HETATM   22  C13 UNL     1       6.375  -0.128   0.898  1.00  0.00     0.009 C 
HETATM   23  C14 UNL     1       7.283  -1.201   0.441  1.00  0.00     0.019 C 
HETATM   24  C18 UNL     1       6.623  -2.077  -0.588  1.00  0.00     0.009 C 
HETATM   25  C19 UNL     1       5.153  -2.187  -0.258  1.00  0.00     0.026 C 
BRANCH  23  26
HETATM   26  C15 UNL     1       8.649  -0.744  -0.027  1.00  0.00     0.054 C 
HETATM   27  C16 UNL     1       9.418  -0.019   1.040  1.00  0.00     0.045 C 
HETATM   28  C17 UNL     1       8.603   0.062  -1.298  1.00  0.00     0.045 C 
BRANCH  26  29
HETATM   29  O1  UNL     1       9.430  -1.891  -0.335  1.00  0.00    -0.390 OA
ATOM     30  H1  UNL     1      10.287  -1.604  -0.629  1.00  0.00     0.210 HD
ENDBRANCH  26  29
ENDBRANCH  23  26
ENDBRANCH  16  20
ENDBRANCH   9  10
ENDBRANCH   8   9
BRANCH   8  31
HETATM   31  N5  UNL     1      -2.908   0.101   1.316  1.00  0.00    -0.357 N 
ATOM     32  H5  UNL     1      -3.252   0.664   2.094  1.00  0.00     0.166 HD
BRANCH  31  33
HETATM   33  C21 UNL     1      -2.965  -1.298   1.396  1.00  0.00     0.100 C 
BRANCH  33  34
HETATM   34  C22 UNL     1      -4.268  -1.834   0.938  1.00  0.00    -0.015 A 
HETATM   35  C23 UNL     1      -5.395  -1.070   1.001  1.00  0.00     0.052 A 
HETATM   36  C24 UNL     1      -6.578  -1.541   0.430  1.00  0.00     0.105 A 
HETATM   37  C26 UNL     1      -6.568  -2.779  -0.186  1.00  0.00     0.135 A 
HETATM   38  C28 UNL     1      -5.449  -3.559  -0.255  1.00  0.00     0.105 A 
HETATM   39  C30 UNL     1      -4.294  -3.053   0.325  1.00  0.00     0.052 A 
BRANCH  36  40
HETATM   40  O3  UNL     1      -7.736  -0.817   0.460  1.00  0.00    -0.353 OA
HETATM   41  C25 UNL     1      -7.870   0.447   1.031  1.00  0.00     0.210 C 
ENDBRANCH  36  40
BRANCH  37  42
HETATM   42  O4  UNL     1      -7.777  -3.212  -0.754  1.00  0.00    -0.351 OA
HETATM   43  C27 UNL     1      -7.946  -2.830  -2.129  1.00  0.00     0.210 C 
ENDBRANCH  37  42
BRANCH  38  44
HETATM   44  O5  UNL     1      -5.477  -4.785  -0.878  1.00  0.00    -0.353 OA
HETATM   45  C29 UNL     1      -4.332  -5.613  -0.985  1.00  0.00     0.210 C 
ENDBRANCH  38  44
ENDBRANCH  33  34
ENDBRANCH  31  33
ENDBRANCH   8  31
ENDBRANCH   7   8
ENDBRANCH   6   7
ENDBRANCH   5   6
ENDBRANCH   4   5
ENDBRANCH   3   4
TORSDOF 16
