REMARK  13 active torsions:
REMARK  status: ('A' for Active; 'I' for Inactive)
REMARK    1  A    between atoms: C4_4  and  C5_5 
REMARK    2  A    between atoms: C5_5  and  N1_6 
REMARK    3  A    between atoms: N1_6  and  C7_8 
REMARK    4  A    between atoms: C7_8  and  C8_9 
REMARK    5  A    between atoms: C13_15  and  C14_16 
REMARK    6  A    between atoms: C21_25  and  C22_26 
REMARK    7  A    between atoms: C22_26  and  O3_27 
REMARK    8  A    between atoms: C22_26  and  O4_29 
REMARK    9  A    between atoms: N2_34  and  C25_35 
REMARK   10  A    between atoms: C25_35  and  C26_36 
REMARK   11  A    between atoms: C25_35  and  C27_39 
REMARK   12  A    between atoms: C26_36  and  O6_37 
REMARK   13  A    between atoms: C27_39  and  O7_40 
ROOT
HETATM    1  C8  UNL     1      -1.003  -0.380  -0.458  1.00  0.00     0.162 C 
HETATM    2  O1  UNL     1       0.123  -0.338   0.411  1.00  0.00    -0.338 OA
HETATM    3  C9  UNL     1       1.433  -0.017   0.031  1.00  0.00     0.142 A 
HETATM    4  C10 UNL     1       2.057  -0.648  -1.025  1.00  0.00     0.106 A 
HETATM    5  C11 UNL     1       3.338  -0.239  -1.308  1.00  0.00     0.041 A 
HETATM    6  C12 UNL     1       3.993   0.753  -0.585  1.00  0.00     0.018 A 
HETATM    7  C13 UNL     1       3.389   1.397   0.479  1.00  0.00     0.011 A 
HETATM    8  C20 UNL     1       2.109   0.966   0.737  1.00  0.00     0.163 A 
HETATM    9  F1  UNL     1       1.452   1.533   1.820  1.00  0.00    -0.202 F 
HETATM   10  O2  UNL     1       1.459  -1.635  -1.769  1.00  0.00    -0.338 OA
HETATM   11  C21 UNL     1       1.121  -2.957  -1.576  1.00  0.00     0.192 C 
HETATM   12  C23 UNL     1       1.004  -3.489  -0.208  1.00  0.00     0.140 C 
HETATM   13  C24 UNL     1      -0.338  -4.106  -0.019  1.00  0.00     0.222 C 
HETATM   14  O5  UNL     1      -0.576  -5.128  -0.712  1.00  0.00    -0.273 OA
HETATM   15  N2  UNL     1      -1.338  -3.628   0.869  1.00  0.00    -0.343 N 
HETATM   16  C28 UNL     1      -1.576  -2.246   1.139  1.00  0.00     0.133 C 
HETATM   17  C29 UNL     1      -2.031  -1.387   0.016  1.00  0.00     0.031 C 
HETATM   18  C30 UNL     1      -2.674  -2.107  -1.145  1.00  0.00     0.014 C 
ENDROOT
BRANCH   1  19
HETATM   19  C7  UNL     1      -1.623   1.027  -0.291  1.00  0.00     0.304 C 
BRANCH  19  20
HETATM   20  N1  UNL     1      -2.752   1.256  -1.103  1.00  0.00     0.087 N 
HETATM   21  C6  UNL     1      -2.436   1.285  -2.517  1.00  0.00     0.310 C 
BRANCH  20  22
HETATM   22  C5  UNL     1      -3.374   2.502  -0.782  1.00  0.00     0.277 C 
BRANCH  22  23
HETATM   23  C4  UNL     1      -2.514   3.709  -0.870  1.00  0.00     0.018 A 
HETATM   24  C2  UNL     1      -3.083   5.044  -0.556  1.00  0.00    -0.012 A 
HETATM   25  C1  UNL     1      -4.487   5.178  -0.014  1.00  0.00     0.010 C 
HETATM   26  C3  UNL     1      -2.897   4.685  -2.001  1.00  0.00     0.011 A 
ENDBRANCH  22  23
ENDBRANCH  20  22
ENDBRANCH  19  20
ENDBRANCH   1  19
BRANCH  15  27
HETATM   27  C25 UNL     1      -2.144  -4.659   1.538  1.00  0.00     0.134 C 
BRANCH  27  28
HETATM   28  C26 UNL     1      -1.737  -4.633   3.033  1.00  0.00     0.191 C 
BRANCH  28  29
HETATM   29  O6  UNL     1      -2.433  -5.571   3.758  1.00  0.00    -0.399 OA
ATOM     30  H6  UNL     1      -2.183  -5.555   4.675  1.00  0.00     0.209 HD
ENDBRANCH  28  29
ENDBRANCH  27  28
BRANCH  27  31
HETATM   31  C27 UNL     1      -3.608  -4.392   1.528  1.00  0.00     0.191 C 
BRANCH  31  32
HETATM   32  O7  UNL     1      -4.219  -5.475   2.199  1.00  0.00    -0.399 OA
ATOM     33  H7  UNL     1      -5.154  -5.305   2.193  1.00  0.00     0.209 HD
ENDBRANCH  31  32
ENDBRANCH  27  31
ENDBRANCH  15  27
BRANCH   7  34
HETATM   34  C14 UNL     1       4.122   2.411   1.233  1.00  0.00    -0.049 C 
HETATM   35  C15 UNL     1       3.617   3.213   2.148  1.00  0.00    -0.019 C 
HETATM   36  C16 UNL     1       4.588   4.179   2.788  1.00  0.00     0.028 C 
HETATM   37  C17 UNL     1       5.315   4.953   1.718  1.00  0.00     0.004 C 
HETATM   38  C18 UNL     1       5.755   4.060   0.578  1.00  0.00     0.005 C 
HETATM   39  C19 UNL     1       5.606   2.630   1.054  1.00  0.00     0.039 C 
ENDBRANCH   7  34
BRANCH  11  40
HETATM   40  C22 UNL     1       2.001  -3.915  -2.382  1.00  0.00     0.283 C 
BRANCH  40  41
HETATM   41  O3  UNL     1       1.904  -3.674  -3.750  1.00  0.00    -0.369 OA
ATOM     42  H3  UNL     1       2.450  -4.269  -4.250  1.00  0.00     0.212 HD
ENDBRANCH  40  41
BRANCH  40  43
HETATM   43  O4  UNL     1       3.331  -3.825  -2.030  1.00  0.00    -0.369 OA
ATOM     44  H4  UNL     1       3.877  -4.420  -2.530  1.00  0.00     0.212 HD
ENDBRANCH  40  43
ENDBRANCH  11  40
TORSDOF 13
