REMARK  11 active torsions:
REMARK  status: ('A' for Active; 'I' for Inactive)
REMARK    1  A    between atoms: C2_2  and  N1_3 
REMARK    2  A    between atoms: N1_3  and  C3_5 
REMARK    3  A    between atoms: C5_9  and  N3_10 
REMARK    4  A    between atoms: N3_10  and  C6_11 
REMARK    5  A    between atoms: N3_10  and  C14_24 
REMARK    6  A    between atoms: C6_11  and  C7_12 
REMARK       I    between atoms: C7_12  and  N4_14 
REMARK    7  A    between atoms: N4_14  and  C9_16 
REMARK    8  A    between atoms: C14_24  and  C15_25 
REMARK    9  A    between atoms: C22_34  and  N6_35 
REMARK       I    between atoms: N6_35  and  C23_37 
REMARK   10  A    between atoms: C23_37  and  C24_39 
REMARK   11  A    between atoms: C24_39  and  O3_42 
ROOT
HETATM    1  N3  UNL     1      -1.554   0.841   0.383  1.00  0.00    -0.340 N 
ENDROOT
BRANCH   1   2
HETATM    2  C5  UNL     1      -2.193   2.081   0.781  1.00  0.00     0.095 A 
HETATM    3  C4  UNL     1      -3.216   2.775   0.191  1.00  0.00     0.127 A 
HETATM    4  N2  UNL     1      -3.653   3.851   0.793  1.00  0.00    -0.344 N 
HETATM    5  C3  UNL     1      -3.095   4.230   1.942  1.00  0.00     0.146 A 
ATOM      6  H2  UNL     1      -4.414   4.395   0.386  1.00  0.00     0.167 HD
HETATM    7  S2  UNL     1      -1.902   3.017   2.187  1.00  0.00    -0.035 SA
BRANCH   5   8
HETATM    8  N1  UNL     1      -3.327   5.229   2.712  1.00  0.00    -0.371 N 
ATOM      9  H1  UNL     1      -2.776   5.339   3.563  1.00  0.00     0.161 HD
BRANCH   8  10
HETATM   10  C2  UNL     1      -4.333   6.187   2.410  1.00  0.00     0.117 C 
HETATM   11  C1  UNL     1      -3.741   7.483   1.887  1.00  0.00     0.026 C 
ENDBRANCH   8  10
ENDBRANCH   5   8
ENDBRANCH   1   2
BRANCH   1  12
HETATM   12  C6  UNL     1      -2.171   0.050  -0.655  1.00  0.00     0.232 C 
BRANCH  12  13
HETATM   13  C7  UNL     1      -2.779  -1.135  -0.032  1.00  0.00     0.238 C 
HETATM   14  O1  UNL     1      -2.689  -1.350   1.237  1.00  0.00    -0.272 OA
HETATM   15  N4  UNL     1      -3.498  -2.090  -0.771  1.00  0.00    -0.349 N 
HETATM   16  C8  UNL     1      -3.544  -1.899  -2.234  1.00  0.00     0.153 C 
BRANCH  15  17
HETATM   17  C9  UNL     1      -4.213  -3.157  -0.139  1.00  0.00     0.112 C 
HETATM   18  C10 UNL     1      -3.649  -4.537  -0.387  1.00  0.00     0.029 C 
HETATM   19  C11 UNL     1      -4.618  -5.512   0.272  1.00  0.00     0.029 C 
HETATM   20  C12 UNL     1      -5.898  -5.489  -0.498  1.00  0.00     0.232 C 
HETATM   21  N5  UNL     1      -6.167  -4.243  -1.190  1.00  0.00    -0.073 N 
HETATM   22  C13 UNL     1      -5.706  -3.111  -0.384  1.00  0.00     0.257 C 
ATOM     23  H52 UNL     1      -5.766  -4.233  -2.128  1.00  0.00     0.277 HD
ATOM     24  H51 UNL     1      -7.150  -4.154  -1.447  1.00  0.00     0.277 HD
ENDBRANCH  15  17
ENDBRANCH  12  13
ENDBRANCH   1  12
BRANCH   1  25
HETATM   25  C14 UNL     1      -0.380   0.440   1.025  1.00  0.00     0.114 C 
BRANCH  25  26
HETATM   26  C15 UNL     1       0.897   0.807   0.363  1.00  0.00     0.060 A 
HETATM   27  S1  UNL     1       2.249  -0.281   0.227  1.00  0.00    -0.087 SA
HETATM   28  C16 UNL     1       3.414   0.799  -0.403  1.00  0.00     0.015 A 
HETATM   29  C17 UNL     1       2.726   1.963  -0.498  1.00  0.00    -0.003 A 
HETATM   30  C22 UNL     1       4.849   0.795  -0.753  1.00  0.00     0.125 C 
HETATM   31  C18 UNL     1       1.425   1.969  -0.102  1.00  0.00     0.142 A 
HETATM   32  C19 UNL     1       3.592   3.106  -1.066  1.00  0.00     0.043 C 
HETATM   33  F1  UNL     1       0.646   3.130  -0.220  1.00  0.00    -0.204 F 
HETATM   34  C20 UNL     1       4.701   3.203  -0.046  1.00  0.00     0.007 C 
HETATM   35  C21 UNL     1       5.491   1.945   0.074  1.00  0.00     0.031 C 
BRANCH  30  36
HETATM   36  N6  UNL     1       5.492  -0.430  -0.343  1.00  0.00    -0.349 N 
HETATM   37  C23 UNL     1       6.808  -0.827  -0.656  1.00  0.00     0.252 C 
HETATM   38  O2  UNL     1       7.526  -0.053  -1.341  1.00  0.00    -0.270 OA
ATOM     39  H6  UNL     1       4.941  -1.071   0.229  1.00  0.00     0.163 HD
BRANCH  37  40
HETATM   40  C24 UNL     1       7.370  -2.113  -0.199  1.00  0.00     0.131 C 
HETATM   41  C25 UNL     1       6.599  -2.684   0.947  1.00  0.00     0.056 C 
HETATM   42  C26 UNL     1       7.288  -3.159  -1.335  1.00  0.00     0.056 C 
BRANCH  40  43
HETATM   43  O3  UNL     1       8.733  -1.986   0.037  1.00  0.00    -0.381 OA
ATOM     44  H3  UNL     1       9.095  -2.814   0.331  1.00  0.00     0.211 HD
ENDBRANCH  40  43
ENDBRANCH  37  40
ENDBRANCH  30  36
ENDBRANCH  25  26
ENDBRANCH   1  25
TORSDOF 11
