REMARK  12 active torsions:
REMARK  status: ('A' for Active; 'I' for Inactive)
REMARK    1  A    between atoms: O1_2  and  C2_3 
REMARK    2  A    between atoms: C3_4  and  N1_5 
REMARK    3  A    between atoms: C8_10  and  C9_11 
REMARK       I    between atoms: C9_11  and  N2_13 
REMARK    4  A    between atoms: N2_13  and  C10_15 
REMARK    5  A    between atoms: C17_22  and  N3_23 
REMARK       I    between atoms: N3_23  and  C18_25 
REMARK    6  A    between atoms: C18_25  and  C19_27 
REMARK    7  A    between atoms: C19_27  and  O4_28 
REMARK    8  A    between atoms: O4_28  and  C20_29 
REMARK    9  A    between atoms: C20_29  and  C21_31 
REMARK   10  A    between atoms: C21_31  and  N4_32 
REMARK       I    between atoms: N4_32  and  C22_34 
REMARK   11  A    between atoms: C22_34  and  C23_36 
REMARK       I    between atoms: C23_36  and  N5_38 
REMARK   12  A    between atoms: N5_38  and  C24_40 
ROOT
HETATM    1  C2  UNL     1      -1.467  -2.488  -0.000  1.00  0.00     0.122 A 
HETATM    2  C3  UNL     1      -2.000  -2.751   1.237  1.00  0.00     0.065 A 
HETATM    3  C6  UNL     1      -2.974  -1.891   1.684  1.00  0.00     0.033 A 
HETATM    4  C7  UNL     1      -3.407  -0.813   0.949  1.00  0.00     0.022 A 
HETATM    5  C8  UNL     1      -2.879  -0.528  -0.308  1.00  0.00     0.061 A 
HETATM    6  C17 UNL     1      -1.900  -1.390  -0.766  1.00  0.00     0.086 A 
ENDROOT
BRANCH   6   7
HETATM    7  N3  UNL     1      -1.321  -1.168  -2.031  1.00  0.00    -0.322 N 
HETATM    8  C18 UNL     1      -0.164  -0.310  -2.137  1.00  0.00     0.246 C 
HETATM    9  O3  UNL     1       0.330   0.247  -1.138  1.00  0.00    -0.271 OA
ATOM     10  H3  UNL     1      -1.714  -1.608  -2.863  1.00  0.00     0.169 HD
BRANCH   8  11
HETATM   11  C19 UNL     1       0.458  -0.087  -3.470  1.00  0.00     0.281 C 
BRANCH  11  12
HETATM   12  O4  UNL     1       1.568   0.720  -3.387  1.00  0.00    -0.311 OA
BRANCH  12  13
HETATM   13  C20 UNL     1       2.707   0.407  -2.695  1.00  0.00     0.277 C 
HETATM   14  O5  UNL     1       2.811  -0.672  -2.084  1.00  0.00    -0.263 OA
BRANCH  13  15
HETATM   15  C21 UNL     1       3.800   1.421  -2.723  1.00  0.00     0.234 C 
BRANCH  15  16
HETATM   16  N4  UNL     1       4.925   0.916  -2.021  1.00  0.00    -0.344 N 
HETATM   17  C22 UNL     1       4.934   0.592  -0.660  1.00  0.00     0.309 C 
HETATM   18  O6  UNL     1       3.930   0.728   0.096  1.00  0.00    -0.262 OA
ATOM     19  H4  UNL     1       5.789   0.779  -2.546  1.00  0.00     0.163 HD
BRANCH  17  20
HETATM   20  C23 UNL     1       6.189   0.065  -0.100  1.00  0.00     0.309 C 
HETATM   21  O7  UNL     1       7.222  -0.078  -0.826  1.00  0.00    -0.262 OA
HETATM   22  N5  UNL     1       6.243  -0.289   1.261  1.00  0.00    -0.345 N 
ATOM     23  H5  UNL     1       5.417  -0.173   1.848  1.00  0.00     0.163 HD
BRANCH  22  24
HETATM   24  C24 UNL     1       7.473  -0.821   1.837  1.00  0.00     0.022 C 
HETATM   25  C25 UNL     1       8.611   0.179   1.694  1.00  0.00     0.037 C 
HETATM   26  C26 UNL     1       7.908  -2.095   1.174  1.00  0.00     0.037 C 
HETATM   27  C27 UNL     1       7.208  -1.142   3.291  1.00  0.00     0.037 C 
ENDBRANCH  22  24
ENDBRANCH  17  20
ENDBRANCH  15  16
ENDBRANCH  13  15
ENDBRANCH  12  13
ENDBRANCH  11  12
ENDBRANCH   8  11
ENDBRANCH   6   7
BRANCH   1  28
HETATM   28  O1  UNL     1      -0.491  -3.326  -0.488  1.00  0.00    -0.351 OA
HETATM   29  C1  UNL     1       0.886  -3.226  -0.324  1.00  0.00     0.210 C 
ENDBRANCH   1  28
BRANCH   5  30
HETATM   30  C9  UNL     1      -3.350   0.624  -1.077  1.00  0.00     0.254 C 
HETATM   31  O2  UNL     1      -2.881   0.894  -2.227  1.00  0.00    -0.268 OA
HETATM   32  N2  UNL     1      -4.343   1.522  -0.624  1.00  0.00    -0.352 N 
ATOM     33  H2  UNL     1      -4.771   1.355   0.286  1.00  0.00     0.163 HD
BRANCH  32  34
HETATM   34  C10 UNL     1      -4.782   2.674  -1.397  1.00  0.00     0.084 C 
HETATM   35  C11 UNL     1      -4.502   3.899  -0.594  1.00  0.00     0.025 C 
HETATM   36  C12 UNL     1      -5.056   3.957   0.777  1.00  0.00     0.002 C 
HETATM   37  C13 UNL     1      -6.454   4.479   0.769  1.00  0.00     0.000 C 
HETATM   38  C14 UNL     1      -7.344   3.578  -0.054  1.00  0.00     0.000 C 
HETATM   39  C15 UNL     1      -7.049   3.664  -1.530  1.00  0.00     0.002 C 
HETATM   40  C16 UNL     1      -6.136   2.554  -1.983  1.00  0.00     0.025 C 
ENDBRANCH  32  34
ENDBRANCH   5  30
BRANCH   2  41
HETATM   41  N1  UNL     1      -1.568  -3.867   2.020  1.00  0.00    -0.387 N 
HETATM   42  C4  UNL     1      -1.604  -5.237   1.547  1.00  0.00     0.149 C 
HETATM   43  C5  UNL     1      -1.077  -3.643   3.351  1.00  0.00     0.149 C 
ENDBRANCH   2  41
TORSDOF 12
