REMARK  13 active torsions:
REMARK  status: ('A' for Active; 'I' for Inactive)
REMARK    1  A    between atoms: C2_2  and  N1_3 
REMARK    2  A    between atoms: N1_3  and  C3_4 
REMARK       I    between atoms: N1_3  and  C11_17 
REMARK    3  A    between atoms: C3_4  and  C4_5 
REMARK    4  A    between atoms: C4_5  and  N2_6 
REMARK    5  A    between atoms: C6_8  and  O1_9 
REMARK    6  A    between atoms: N3_11  and  C7_12 
REMARK       I    between atoms: C11_17  and  N6_29 
REMARK    7  A    between atoms: N4_18  and  N5_20 
REMARK    8  A    between atoms: C12_22  and  C14_24 
REMARK    9  A    between atoms: C14_24  and  O3_26 
REMARK   10  A    between atoms: N6_29  and  C16_31 
REMARK   11  A    between atoms: C16_31  and  C17_32 
REMARK   12  A    between atoms: C17_32  and  C18_33 
REMARK   13  A    between atoms: C18_33  and  C19_34 
ROOT
HETATM    1  C18 UNL     1      -3.664  -1.038   0.274  1.00  0.00     0.089 C 
HETATM    2  O4  UNL     1      -5.016  -0.610   0.473  1.00  0.00    -0.354 OA
HETATM    3  C23 UNL     1      -5.501  -0.909   1.710  1.00  0.00     0.339 C 
HETATM    4  O5  UNL     1      -5.880  -2.269   1.797  1.00  0.00    -0.366 OA
HETATM    5  C24 UNL     1      -4.796  -3.015   1.410  1.00  0.00     0.192 C 
HETATM    6  C25 UNL     1      -3.533  -2.230   1.164  1.00  0.00     0.152 C 
HETATM    7  C26 UNL     1      -2.491  -3.163   0.831  1.00  0.00     0.069 C 
HETATM    8  N7  UNL     1      -1.664  -3.923   0.584  1.00  0.00    -0.197 NA
ENDROOT
BRANCH   1   9
HETATM    9  C17 UNL     1      -2.910   0.140   0.838  1.00  0.00     0.060 C 
BRANCH   9  10
HETATM   10  C16 UNL     1      -1.458   0.220   0.652  1.00  0.00     0.141 C 
BRANCH  10  11
HETATM   11  N6  UNL     1      -1.028   1.460   1.344  1.00  0.00    -0.225 N 
HETATM   12  C11 UNL     1       0.337   1.830   1.368  1.00  0.00     0.690 C 
HETATM   13  N1  UNL     1       1.247   1.034   2.113  1.00  0.00    -0.215 N 
HETATM   14  N4  UNL     1       0.826   2.845   0.771  1.00  0.00    -0.132 N 
ATOM     15  H4  UNL     1       1.829   2.986   0.890  1.00  0.00     0.205 HD
ATOM     16  H6  UNL     1      -1.721   2.049   1.805  1.00  0.00     0.177 HD
BRANCH  13  17
HETATM   17  C2  UNL     1       1.084   0.946   3.551  1.00  0.00     0.137 C 
HETATM   18  C1  UNL     1      -0.064   1.789   3.996  1.00  0.00     0.027 C 
ENDBRANCH  13  17
BRANCH  13  19
HETATM   19  C3  UNL     1       2.313   0.357   1.409  1.00  0.00     0.161 C 
BRANCH  19  20
HETATM   20  C4  UNL     1       2.206  -1.130   1.420  1.00  0.00     0.153 C 
BRANCH  20  21
HETATM   21  N2  UNL     1       3.356  -1.675   0.681  1.00  0.00    -0.304 N 
HETATM   22  C5  UNL     1       4.538  -1.982   1.195  1.00  0.00     0.151 A 
HETATM   23  C6  UNL     1       5.339  -2.461   0.159  1.00  0.00     0.162 A 
HETATM   24  N3  UNL     1       4.600  -2.424  -0.956  1.00  0.00    -0.274 N 
HETATM   25  C10 UNL     1       3.392  -1.941  -0.617  1.00  0.00     0.331 A 
HETATM   26  O2  UNL     1       2.393  -1.746  -1.386  1.00  0.00    -0.246 OA
BRANCH  23  27
HETATM   27  O1  UNL     1       6.629  -2.864   0.368  1.00  0.00    -0.345 OA
ATOM     28  H1  UNL     1       7.175  -3.190  -0.338  1.00  0.00     0.219 HD
ENDBRANCH  23  27
BRANCH  24  29
HETATM   29  C7  UNL     1       5.004  -2.819  -2.258  1.00  0.00     0.097 A 
HETATM   30  C8  UNL     1       6.394  -2.725  -2.743  1.00  0.00     0.028 A 
HETATM   31  C9  UNL     1       5.884  -4.065  -2.302  1.00  0.00     0.028 A 
ENDBRANCH  24  29
ENDBRANCH  20  21
ENDBRANCH  19  20
ENDBRANCH  13  19
BRANCH  14  32
HETATM   32  N5  UNL     1       0.184   3.772  -0.009  1.00  0.00    -0.289 N 
HETATM   33  C12 UNL     1       0.797   4.264  -1.048  1.00  0.00     0.066 C 
HETATM   34  C13 UNL     1       2.166   3.820  -1.371  1.00  0.00     0.071 C 
ATOM     35  H5  UNL     1      -0.763   4.073   0.222  1.00  0.00     0.187 HD
BRANCH  33  36
HETATM   36  C14 UNL     1       0.090   5.268  -1.881  1.00  0.00     0.239 C 
HETATM   37  C15 UNL     1       0.915   6.544  -1.848  1.00  0.00     0.091 C 
HETATM   38  F1  UNL     1       0.025   4.817  -3.176  1.00  0.00    -0.205 F 
BRANCH  36  39
HETATM   39  O3  UNL     1      -1.202   5.495  -1.413  1.00  0.00    -0.357 OA
ATOM     40  H3  UNL     1      -1.655   6.138  -1.946  1.00  0.00     0.213 HD
ENDBRANCH  36  39
ENDBRANCH  33  36
ENDBRANCH  14  32
ENDBRANCH  10  11
ENDBRANCH   9  10
ENDBRANCH   1   9
BRANCH   1  41
HETATM   41  C19 UNL     1      -3.605  -1.232  -1.178  1.00  0.00    -0.018 C 
HETATM   42  C20 UNL     1      -4.452  -2.456  -1.599  1.00  0.00     0.018 C 
HETATM   43  C21 UNL     1      -4.386  -0.063  -1.822  1.00  0.00     0.018 C 
HETATM   44  C22 UNL     1      -2.342  -1.359  -1.905  1.00  0.00     0.018 C 
ENDBRANCH   1  41
TORSDOF 13
