REMARK  10 active torsions:
REMARK  status: ('A' for Active; 'I' for Inactive)
REMARK    1  A    between atoms: C2_2  and  C3_3 
REMARK    2  A    between atoms: C3_3  and  C4_4 
REMARK    3  A    between atoms: C4_4  and  N1_5 
REMARK    4  A    between atoms: N2_8  and  C7_9 
REMARK    5  A    between atoms: C7_9  and  C8_10 
REMARK    6  A    between atoms: N3_12  and  C10_13 
REMARK    7  A    between atoms: C10_13  and  C11_14 
REMARK    8  A    between atoms: C13_19  and  C14_20 
REMARK    9  A    between atoms: C14_20  and  C15_21 
REMARK   10  A    between atoms: C19_31  and  O2_32 
ROOT
HETATM    1  C11 UNL     1       2.374   0.660   1.194  1.00  0.00     0.037 C 
HETATM    2  N4  UNL     1       2.619  -0.573   0.660  1.00  0.00    -0.325 N 
ATOM      3  H4  UNL     1       2.340  -1.394   1.197  1.00  0.00     0.169 HD
HETATM    4  C12 UNL     1       3.220  -0.768  -0.560  1.00  0.00     0.255 C 
HETATM    5  O1  UNL     1       2.673  -1.601  -1.337  1.00  0.00    -0.268 OA
HETATM    6  C13 UNL     1       4.347  -0.174  -1.061  1.00  0.00     0.048 C 
HETATM    7  C19 UNL     1       4.626   1.193  -0.883  1.00  0.00     0.087 C 
HETATM    8  C20 UNL     1       4.252   1.955   0.231  1.00  0.00     0.018 C 
HETATM    9  C21 UNL     1       3.251   1.750   1.156  1.00  0.00    -0.022 C 
HETATM   10  C22 UNL     1       3.273   2.857   2.122  1.00  0.00     0.044 C 
HETATM   11  C23 UNL     1       4.083   3.928   1.467  1.00  0.00     0.047 C 
HETATM   12  C24 UNL     1       5.014   3.205   0.547  1.00  0.00     0.207 C 
HETATM   13  F1  UNL     1       5.228   3.867  -0.635  1.00  0.00    -0.244 F 
ENDROOT
BRANCH   1  14
HETATM   14  C10 UNL     1       1.096   0.936   1.851  1.00  0.00     0.186 C 
BRANCH  14  15
HETATM   15  N3  UNL     1       0.118   1.529   0.970  1.00  0.00    -0.345 N 
HETATM   16  C9  UNL     1      -0.759   0.737   0.277  1.00  0.00     0.118 A 
HETATM   17  C8  UNL     1      -1.569   1.551  -0.491  1.00  0.00     0.044 A 
HETATM   18  N7  UNL     1      -1.176   2.807  -0.259  1.00  0.00    -0.353 N 
HETATM   19  C25 UNL     1      -0.144   2.787   0.637  1.00  0.00     0.183 A 
ATOM     20  H7  UNL     1      -1.580   3.643  -0.681  1.00  0.00     0.166 HD
BRANCH  17  21
HETATM   21  C7  UNL     1      -2.678   1.051  -1.392  1.00  0.00     0.185 C 
BRANCH  21  22
HETATM   22  N2  UNL     1      -3.187  -0.126  -0.728  1.00  0.00    -0.365 N 
HETATM   23  C6  UNL     1      -3.684   0.090   0.572  1.00  0.00     0.083 C 
HETATM   24  C5  UNL     1      -5.096  -0.293   0.845  1.00  0.00     0.162 C 
HETATM   25  N1  UNL     1      -5.849  -0.794  -0.248  1.00  0.00    -0.404 N 
HETATM   26  C27 UNL     1      -5.139  -1.579  -1.204  1.00  0.00     0.162 C 
HETATM   27  C26 UNL     1      -3.774  -1.111  -1.542  1.00  0.00     0.083 C 
BRANCH  25  28
HETATM   28  C4  UNL     1      -6.834   0.065  -0.780  1.00  0.00     0.117 C 
BRANCH  28  29
HETATM   29  C3  UNL     1      -8.006   0.300   0.106  1.00  0.00     0.019 C 
BRANCH  29  30
HETATM   30  C2  UNL     1      -8.839  -0.880   0.469  1.00  0.00    -0.003 C 
HETATM   31  C1  UNL     1      -8.090  -1.918   1.241  1.00  0.00     0.005 C 
ENDBRANCH  29  30
ENDBRANCH  28  29
ENDBRANCH  25  28
ENDBRANCH  21  22
ENDBRANCH  17  21
ENDBRANCH  14  15
ENDBRANCH   1  14
BRANCH   6  32
HETATM   32  C14 UNL     1       5.358  -0.931  -1.789  1.00  0.00     0.095 C 
BRANCH  32  33
HETATM   33  C15 UNL     1       6.353  -1.626  -0.897  1.00  0.00     0.013 A 
HETATM   34  S1  UNL     1       7.913  -0.979  -0.444  1.00  0.00    -0.057 SA
HETATM   35  C16 UNL     1       8.415  -2.252   0.564  1.00  0.00     0.142 A 
HETATM   36  N5  UNL     1       9.534  -2.390   1.246  1.00  0.00    -0.380 N 
HETATM   37  N6  UNL     1       7.395  -3.100   0.514  1.00  0.00    -0.340 N 
ATOM     38  H52 UNL     1      10.318  -1.738   1.284  1.00  0.00     0.158 HD
ATOM     39  H51 UNL     1       9.835  -3.154   1.851  1.00  0.00     0.158 HD
HETATM   40  C17 UNL     1       6.353  -2.793  -0.219  1.00  0.00     0.021 A 
ATOM     41  H6  UNL     1       7.422  -3.975   1.037  1.00  0.00     0.168 HD
HETATM   42  C18 UNL     1       5.174  -3.759  -0.328  1.00  0.00     0.069 C 
ENDBRANCH  32  33
ENDBRANCH   6  32
BRANCH   7  43
HETATM   43  O2  UNL     1       5.322   1.861  -1.870  1.00  0.00    -0.359 OA
ATOM     44  H2  UNL     1       5.510   2.784  -1.750  1.00  0.00     0.217 HD
ENDBRANCH   7  43
TORSDOF 10
