REMARK  8 active torsions:
REMARK  status: ('A' for Active; 'I' for Inactive)
REMARK    1  A    between atoms: N1_2  and  C2_4 
REMARK    2  A    between atoms: C2_4  and  C3_5 
REMARK    3  A    between atoms: C6_8  and  C7_9 
REMARK       I    between atoms: C7_9  and  N2_11 
REMARK    4  A    between atoms: N2_11  and  C8_13 
REMARK    5  A    between atoms: C11_16  and  C12_17 
REMARK    6  A    between atoms: C17_23  and  C18_24 
REMARK    7  A    between atoms: C24_35  and  C25_36 
REMARK    8  A    between atoms: C25_36  and  C26_37 
ROOT
HETATM    1  C7  UNL     1      -1.162  -0.677   0.929  1.00  0.00     0.268 C 
HETATM    2  O1  UNL     1      -0.682  -1.775   1.302  1.00  0.00    -0.266 OA
HETATM    3  N2  UNL     1      -0.275   0.374   0.692  1.00  0.00    -0.342 N 
ATOM      4  H2  UNL     1      -0.630   1.267   0.350  1.00  0.00     0.163 HD
ENDROOT
BRANCH   1   5
HETATM    5  C6  UNL     1      -2.625  -0.552   0.772  1.00  0.00     0.093 C 
HETATM    6  C5  UNL     1      -3.224   0.776   0.987  1.00  0.00     0.010 C 
HETATM    7  C4  UNL     1      -3.248   1.813  -0.041  1.00  0.00     0.060 C 
HETATM    8  C3  UNL     1      -4.583   1.830  -0.736  1.00  0.00     0.126 C 
HETATM    9  N5  UNL     1      -4.462   0.924  -1.865  1.00  0.00    -0.350 N 
HETATM   10  C30 UNL     1      -4.126  -0.441  -1.930  1.00  0.00     0.241 C 
ATOM     11  H5  UNL     1      -4.655   1.353  -2.770  1.00  0.00     0.163 HD
HETATM   12  C24 UNL     1      -4.100  -1.554  -0.996  1.00  0.00     0.174 C 
HETATM   13  O3  UNL     1      -3.765  -0.737  -3.116  1.00  0.00    -0.271 OA
HETATM   14  N4  UNL     1      -3.331  -1.574   0.133  1.00  0.00    -0.372 N 
ATOM     15  H4  UNL     1      -3.261  -2.486   0.584  1.00  0.00     0.160 HD
BRANCH   8  16
HETATM   16  C2  UNL     1      -5.182   3.131  -1.068  1.00  0.00     0.080 C 
BRANCH  16  17
HETATM   17  N1  UNL     1      -5.544   4.036  -0.061  1.00  0.00    -0.405 N 
HETATM   18  C1  UNL     1      -4.621   4.749   0.712  1.00  0.00     0.145 C 
ATOM     19  H1  UNL     1      -6.537   4.183   0.119  1.00  0.00     0.158 HD
ENDBRANCH  16  17
ENDBRANCH   8  16
BRANCH  12  20
HETATM   20  C25 UNL     1      -5.550  -1.915  -0.706  1.00  0.00     0.043 C 
BRANCH  20  21
HETATM   21  C26 UNL     1      -5.827  -3.242  -0.134  1.00  0.00    -0.049 C 
HETATM   22  C27 UNL     1      -7.373  -3.318  -0.002  1.00  0.00     0.014 C 
HETATM   23  C28 UNL     1      -5.439  -4.380  -1.042  1.00  0.00     0.014 C 
HETATM   24  C29 UNL     1      -5.319  -3.474   1.249  1.00  0.00     0.014 C 
ENDBRANCH  20  21
ENDBRANCH  12  20
ENDBRANCH   1   5
BRANCH   3  25
HETATM   25  C8  UNL     1       1.154   0.208   0.928  1.00  0.00     0.177 C 
HETATM   26  C9  UNL     1       1.905  -0.440  -0.183  1.00  0.00     0.041 C 
HETATM   27  C10 UNL     1       3.384  -0.264  -0.243  1.00  0.00     0.061 C 
HETATM   28  C11 UNL     1       3.981   0.787   0.603  1.00  0.00     0.026 C 
HETATM   29  N3  UNL     1       3.123   1.593   1.422  1.00  0.00    -0.328 N 
HETATM   30  C23 UNL     1       1.753   1.423   1.502  1.00  0.00     0.244 C 
ATOM     31  H3  UNL     1       3.548   2.335   1.978  1.00  0.00     0.168 HD
HETATM   32  O2  UNL     1       1.028   2.319   2.071  1.00  0.00    -0.271 OA
BRANCH  28  33
HETATM   33  C12 UNL     1       5.283   0.603   1.217  1.00  0.00     0.032 A 
HETATM   34  C13 UNL     1       5.363   0.596   2.621  1.00  0.00     0.129 A 
HETATM   35  F1  UNL     1       4.227   0.594   3.321  1.00  0.00    -0.205 F 
HETATM   36  C14 UNL     1       6.529   0.570   3.325  1.00  0.00     0.043 A 
HETATM   37  C15 UNL     1       7.712   0.548   2.648  1.00  0.00     0.004 A 
HETATM   38  C16 UNL     1       7.700   0.558   1.271  1.00  0.00     0.009 A 
HETATM   39  C17 UNL     1       6.471   0.587   0.567  1.00  0.00    -0.039 A 
BRANCH  39  40
HETATM   40  C18 UNL     1       6.557   0.678  -0.906  1.00  0.00     0.019 C 
HETATM   41  C19 UNL     1       7.889   1.284  -1.334  1.00  0.00     0.009 C 
HETATM   42  C20 UNL     1       8.797   0.258  -1.835  1.00  0.00     0.001 C 
HETATM   43  C21 UNL     1       8.125  -1.040  -1.536  1.00  0.00     0.001 C 
HETATM   44  C22 UNL     1       6.628  -0.699  -1.514  1.00  0.00     0.009 C 
ENDBRANCH  39  40
ENDBRANCH  28  33
ENDBRANCH   3  25
TORSDOF 8
