REMARK  11 active torsions:
REMARK  status: ('A' for Active; 'I' for Inactive)
REMARK    1  A    between atoms: C4_5  and  N2_6 
REMARK    2  A    between atoms: N2_6  and  C5_8 
REMARK    3  A    between atoms: C5_8  and  O1_9 
REMARK    4  A    between atoms: N3_11  and  C6_13 
REMARK    5  A    between atoms: C6_13  and  C7_14 
REMARK    6  A    between atoms: C7_14  and  C8_15 
REMARK    7  A    between atoms: C8_15  and  N4_16 
REMARK       I    between atoms: N4_16  and  C9_18 
REMARK    8  A    between atoms: C9_18  and  C10_20 
REMARK    9  A    between atoms: N5_23  and  C13_24 
REMARK   10  A    between atoms: C13_24  and  O3_25 
REMARK   11  A    between atoms: C13_24  and  C14_27 
ROOT
HETATM    1  C10 UNL     1       1.670  -0.320  -0.031  1.00  0.00     0.081 C 
HETATM    2  C11 UNL     1       1.440   0.865  -0.960  1.00  0.00     0.034 C 
HETATM    3  C12 UNL     1       0.382   1.777  -0.454  1.00  0.00     0.125 C 
HETATM    4  N5  UNL     1      -0.860   1.004  -0.267  1.00  0.00    -0.365 N 
HETATM    5  C25 UNL     1      -0.768  -0.116   0.606  1.00  0.00     0.125 C 
HETATM    6  C26 UNL     1       0.356  -1.038   0.181  1.00  0.00     0.034 C 
ENDROOT
BRANCH   1   7
HETATM    7  C9  UNL     1       2.247   0.224   1.206  1.00  0.00     0.225 C 
HETATM    8  N4  UNL     1       3.435   1.023   1.106  1.00  0.00    -0.337 N 
ATOM      9  H4  UNL     1       3.876   1.150   0.195  1.00  0.00     0.168 HD
HETATM   10  O2  UNL     1       1.715   0.009   2.307  1.00  0.00    -0.273 OA
BRANCH   8  11
HETATM   11  C8  UNL     1       4.010   1.640   2.247  1.00  0.00     0.092 C 
BRANCH  11  12
HETATM   12  C7  UNL     1       4.490   0.826   3.332  1.00  0.00     0.034 C 
BRANCH  12  13
HETATM   13  C6  UNL     1       5.646  -0.007   3.333  1.00  0.00     0.093 C 
BRANCH  13  14
HETATM   14  N3  UNL     1       5.928  -1.054   2.429  1.00  0.00    -0.332 N 
HETATM   15  C5  UNL     1       6.261  -1.149   1.197  1.00  0.00     0.221 C 
ATOM     16  H3  UNL     1       5.845  -1.969   2.871  1.00  0.00     0.168 HD
BRANCH  15  17
HETATM   17  N2  UNL     1       6.456  -2.128   0.211  1.00  0.00    -0.322 N 
ATOM     18  H2  UNL     1       6.281  -3.095   0.486  1.00  0.00     0.169 HD
BRANCH  17  19
HETATM   19  C4  UNL     1       6.876  -1.911  -1.144  1.00  0.00     0.036 A 
HETATM   20  C3  UNL     1       6.296  -2.622  -2.167  1.00  0.00     0.031 A 
HETATM   21  C2  UNL     1       6.756  -2.436  -3.469  1.00  0.00     0.030 A 
HETATM   22  C1  UNL     1       7.760  -1.586  -3.807  1.00  0.00     0.068 A 
HETATM   23  N1  UNL     1       8.247  -1.370  -5.115  1.00  0.00    -0.101 NA
HETATM   24  C28 UNL     1       8.329  -0.879  -2.730  1.00  0.00     0.060 A 
HETATM   25  C27 UNL     1       7.897  -1.038  -1.442  1.00  0.00     0.055 A 
HETATM   26 CL1  UNL     1       9.643   0.245  -3.080  1.00  0.00    -0.082 Cl
ENDBRANCH  17  19
ENDBRANCH  15  17
BRANCH  15  27
HETATM   27  O1  UNL     1       6.495   0.076   0.606  1.00  0.00    -0.332 OA
ATOM     28  H1  UNL     1       6.363   0.739   1.274  1.00  0.00     0.220 HD
ENDBRANCH  15  27
ENDBRANCH  13  14
ENDBRANCH  12  13
ENDBRANCH  11  12
ENDBRANCH   8  11
ENDBRANCH   1   7
BRANCH   4  29
HETATM   29  C13 UNL     1      -1.989   1.458  -0.945  1.00  0.00     0.117 C 
BRANCH  29  30
HETATM   30  O3  UNL     1      -1.861   2.496  -1.724  1.00  0.00    -0.349 OA
ATOM     31  H3  UNL     1      -2.631   2.806  -2.186  1.00  0.00     0.219 HD
ENDBRANCH  29  30
BRANCH  29  32
HETATM   32  C14 UNL     1      -3.369   0.926  -0.915  1.00  0.00     0.060 C 
HETATM   33  C15 UNL     1      -3.431  -0.405  -1.553  1.00  0.00     0.013 C 
HETATM   34  C16 UNL     1      -4.813  -1.035  -1.606  1.00  0.00     0.002 C 
HETATM   35  C17 UNL     1      -5.526  -1.098  -0.311  1.00  0.00     0.010 C 
HETATM   36  C18 UNL     1      -6.290   0.147   0.050  1.00  0.00    -0.037 C 
HETATM   37  C19 UNL     1      -7.307   0.443  -1.033  1.00  0.00     0.037 C 
HETATM   38  C22 UNL     1      -7.079  -0.198   1.301  1.00  0.00     0.037 C 
HETATM   39  C23 UNL     1      -5.410   1.308   0.376  1.00  0.00     0.010 C 
HETATM   40  C20 UNL     1      -8.180   1.622  -0.685  1.00  0.00     0.233 C 
HETATM   41  N6  UNL     1      -8.196   1.877   0.742  1.00  0.00    -0.075 N 
HETATM   42  C21 UNL     1      -8.372   0.589   1.381  1.00  0.00     0.233 C 
ATOM     43  H62 UNL     1      -7.376   2.385   1.072  1.00  0.00     0.277 HD
ATOM     44  H61 UNL     1      -8.892   2.568   1.023  1.00  0.00     0.277 HD
HETATM   45  C24 UNL     1      -3.951   0.931   0.471  1.00  0.00     0.013 C 
ENDBRANCH  29  32
ENDBRANCH   4  29
TORSDOF 11
