REMARK  9 active torsions:
REMARK  status: ('A' for Active; 'I' for Inactive)
REMARK    1  A    between atoms: C2_3  and  N2_4 
REMARK       I    between atoms: N2_4  and  C3_6 
REMARK       I    between atoms: C3_6  and  N3_8 
REMARK    2  A    between atoms: N3_8  and  C4_10 
REMARK    3  A    between atoms: C9_16  and  C10_17 
REMARK       I    between atoms: C10_17  and  N4_19 
REMARK    4  A    between atoms: N4_19  and  C11_21 
REMARK    5  A    between atoms: C11_21  and  C12_22 
REMARK    6  A    between atoms: C12_22  and  O3_23 
REMARK    7  A    between atoms: C12_22  and  N5_25 
REMARK    8  A    between atoms: N5_25  and  C13_27 
REMARK    9  A    between atoms: C13_27  and  C14_28 
ROOT
HETATM    1  N1  UNL     1      -6.659   0.747   3.034  1.00  0.00    -0.195 NA
HETATM    2  C1  UNL     1      -6.569   0.108   2.071  1.00  0.00     0.091 C 
HETATM    3  C2  UNL     1      -6.483  -0.717   0.819  1.00  0.00     0.126 C 
HETATM    4  C22 UNL     1      -7.477  -0.180  -0.185  1.00  0.00     0.074 C 
HETATM    5  C23 UNL     1      -8.477  -1.247  -0.604  1.00  0.00     0.235 C 
HETATM    6  N6  UNL     1      -7.740  -2.417  -1.034  1.00  0.00    -0.075 N 
ATOM      7  H61 UNL     1      -7.127  -2.195  -1.819  1.00  0.00     0.277 HD
ATOM      8  H62 UNL     1      -8.356  -3.090  -1.490  1.00  0.00     0.277 HD
HETATM    9  C24 UNL     1      -7.008  -3.031   0.031  1.00  0.00     0.235 C 
HETATM   10  C25 UNL     1      -6.821  -2.132   1.218  1.00  0.00     0.074 C 
ENDROOT
BRANCH   3  11
HETATM   11  N2  UNL     1      -5.116  -0.638   0.409  1.00  0.00    -0.321 N 
HETATM   12  C3  UNL     1      -4.483   0.594  -0.036  1.00  0.00     0.322 C 
HETATM   13  O1  UNL     1      -5.167   1.610  -0.094  1.00  0.00    -0.247 OA
HETATM   14  N3  UNL     1      -3.131   0.522  -0.369  1.00  0.00    -0.308 N 
ATOM     15  H3  UNL     1      -2.645  -0.364  -0.231  1.00  0.00     0.170 HD
ATOM     16  H2  UNL     1      -4.555  -1.490   0.429  1.00  0.00     0.166 HD
BRANCH  14  17
HETATM   17  C4  UNL     1      -2.403   1.610  -0.886  1.00  0.00     0.052 A 
HETATM   18  C5  UNL     1      -3.016   2.512  -1.778  1.00  0.00     0.032 A 
HETATM   19  C6  UNL     1      -2.288   3.485  -2.405  1.00  0.00     0.021 A 
HETATM   20  C7  UNL     1      -0.960   3.629  -2.203  1.00  0.00     0.012 A 
HETATM   21 BR1  UNL     1       0.055   5.014  -3.096  1.00  0.00    -0.051 Br
HETATM   22  C8  UNL     1      -0.296   2.765  -1.329  1.00  0.00     0.038 A 
HETATM   23  C9  UNL     1      -1.061   1.761  -0.679  1.00  0.00     0.060 A 
BRANCH  23  24
HETATM   24  C10 UNL     1      -0.382   1.003   0.390  1.00  0.00     0.255 C 
HETATM   25  O2  UNL     1      -1.103   0.276   1.130  1.00  0.00    -0.268 OA
HETATM   26  N4  UNL     1       1.008   1.070   0.619  1.00  0.00    -0.340 N 
ATOM     27  H4  UNL     1       1.568   1.630  -0.023  1.00  0.00     0.164 HD
BRANCH  26  28
HETATM   28  C11 UNL     1       1.700   0.393   1.711  1.00  0.00     0.098 A 
HETATM   29  C20 UNL     1       1.259  -1.053   1.879  1.00  0.00     0.042 A 
HETATM   30  C21 UNL     1       0.941  -0.042   2.901  1.00  0.00     0.042 A 
BRANCH  28  31
HETATM   31  C12 UNL     1       3.156   0.639   1.826  1.00  0.00     0.140 C 
BRANCH  31  32
HETATM   32  O3  UNL     1       3.496   1.197   2.982  1.00  0.00    -0.348 OA
ATOM     33  H3  UNL     1       4.430   1.355   3.056  1.00  0.00     0.219 HD
ENDBRANCH  31  32
BRANCH  31  34
HETATM   34  N5  UNL     1       4.168   0.363   0.929  1.00  0.00    -0.372 N 
ATOM     35  H5  UNL     1       3.933  -0.104   0.053  1.00  0.00     0.161 HD
BRANCH  34  36
HETATM   36  C13 UNL     1       5.548   0.710   1.183  1.00  0.00     0.126 C 
BRANCH  36  37
HETATM   37  C14 UNL     1       6.556   0.200   0.235  1.00  0.00     0.003 C 
HETATM   38  C15 UNL     1       6.410   0.560  -1.192  1.00  0.00     0.006 C 
HETATM   39  C16 UNL     1       7.260  -0.380  -2.045  1.00  0.00     0.000 C 
HETATM   40  C17 UNL     1       8.562  -0.757  -1.330  1.00  0.00     0.000 C 
HETATM   41  C18 UNL     1       8.259  -1.563  -0.077  1.00  0.00     0.000 C 
HETATM   42  C19 UNL     1       6.842  -1.281   0.386  1.00  0.00     0.006 C 
ENDBRANCH  36  37
ENDBRANCH  34  36
ENDBRANCH  31  34
ENDBRANCH  28  31
ENDBRANCH  26  28
ENDBRANCH  23  24
ENDBRANCH  14  17
ENDBRANCH   3  11
TORSDOF 9
