REMARK  7 active torsions:
REMARK  status: ('A' for Active; 'I' for Inactive)
REMARK    1  A    between atoms: C3_3  and  S1_4 
REMARK    2  A    between atoms: S1_4  and  N1_7 
REMARK    3  A    between atoms: N1_7  and  C4_9 
REMARK    4  A    between atoms: C4_9  and  C5_10 
REMARK    5  A    between atoms: C4_9  and  C17_28 
REMARK       I    between atoms: C5_10  and  N2_12 
REMARK       I    between atoms: N2_12  and  C6_14 
REMARK       I    between atoms: C6_14  and  N3_16 
REMARK    6  A    between atoms: N3_16  and  C7_18 
REMARK    7  A    between atoms: C22_33  and  N4_34 
REMARK       I    between atoms: N4_34  and  C23_36 
ROOT
HETATM    1  C4  UNL     1       1.205  -0.274  -0.287  1.00  0.00     0.188 C 
ENDROOT
BRANCH   1   2
HETATM    2  N1  UNL     1       2.055   0.392  -1.158  1.00  0.00    -0.301 N 
ATOM      3  H1  UNL     1       1.777   1.366  -1.280  1.00  0.00     0.173 HD
BRANCH   2   4
HETATM    4  S1  UNL     1       3.373   0.036  -2.035  1.00  0.00     0.260 S 
HETATM    5  O1  UNL     1       3.764   1.302  -2.852  1.00  0.00    -0.200 OA
HETATM    6  O2  UNL     1       3.073  -0.937  -3.201  1.00  0.00    -0.200 OA
BRANCH   4   7
HETATM    7  C3  UNL     1       4.863  -0.466  -1.265  1.00  0.00     0.087 A 
HETATM    8  C2  UNL     1       5.173  -1.698  -0.788  1.00  0.00    -0.015 A 
HETATM    9  C1  UNL     1       4.228  -2.854  -1.004  1.00  0.00     0.052 C 
HETATM   10  C24 UNL     1       6.362  -1.988  -0.155  1.00  0.00     0.068 A 
HETATM   11  C22 UNL     1       7.317  -0.971   0.042  1.00  0.00     0.058 A 
HETATM   12 CL1  UNL     1       6.645  -3.605   0.419  1.00  0.00    -0.081 Cl
HETATM   13  C21 UNL     1       7.054   0.283  -0.402  1.00  0.00     0.033 A 
HETATM   14  C20 UNL     1       5.808   0.513  -1.063  1.00  0.00     0.028 A 
BRANCH  11  15
HETATM   15  N4  UNL     1       8.525  -1.347   0.719  1.00  0.00    -0.310 N 
HETATM   16  C23 UNL     1       9.584  -0.496   1.055  1.00  0.00     0.333 C 
HETATM   17  N5  UNL     1      10.752  -0.993   1.692  1.00  0.00    -0.040 NA
HETATM   18  O5  UNL     1       9.605   0.770   0.833  1.00  0.00    -0.251 OA
ATOM     19  H4  UNL     1       8.621  -2.328   0.980  1.00  0.00     0.170 HD
ENDBRANCH  11  15
ENDBRANCH   4   7
ENDBRANCH   2   4
ENDBRANCH   1   2
BRANCH   1  20
HETATM   20  C5  UNL     1      -0.177  -0.238  -0.808  1.00  0.00     0.249 C 
HETATM   21  O3  UNL     1      -0.566  -0.399  -1.885  1.00  0.00    -0.271 OA
HETATM   22  N2  UNL     1      -1.352   0.111   0.375  1.00  0.00    -0.278 N 
HETATM   23  C6  UNL     1      -2.447   0.214  -0.523  1.00  0.00     0.323 C 
ATOM     24  H2  UNL     1      -1.290   0.212   1.388  1.00  0.00     0.173 HD
HETATM   25  O4  UNL     1      -2.647   0.012  -1.642  1.00  0.00    -0.247 OA
HETATM   26  N3  UNL     1      -3.690   0.690   0.194  1.00  0.00    -0.337 N 
ATOM     27  H3  UNL     1      -3.655   1.000   1.165  1.00  0.00     0.164 HD
BRANCH  26  28
HETATM   28  C7  UNL     1      -4.931   0.689  -0.550  1.00  0.00     0.102 C 
HETATM   29  C8  UNL     1      -5.587  -0.689  -0.527  1.00  0.00    -0.022 C 
HETATM   30  C9  UNL     1      -5.247  -1.586  -1.639  1.00  0.00     0.017 C 
HETATM   31  C10 UNL     1      -5.517  -1.241   0.857  1.00  0.00     0.011 C 
HETATM   32  C13 UNL     1      -7.086  -0.282  -0.573  1.00  0.00     0.016 C 
HETATM   33  C11 UNL     1      -6.430  -0.280   1.641  1.00  0.00     0.006 C 
HETATM   34  C12 UNL     1      -6.977   0.672   0.604  1.00  0.00    -0.004 C 
HETATM   35  C14 UNL     1      -5.913   1.594   0.093  1.00  0.00    -0.023 C 
HETATM   36  C15 UNL     1      -5.366   2.500   1.175  1.00  0.00     0.017 C 
HETATM   37  C16 UNL     1      -6.554   2.524  -0.929  1.00  0.00     0.017 C 
ENDBRANCH  26  28
ENDBRANCH   1  20
BRANCH   1  38
HETATM   38  C17 UNL     1       1.351   0.237   1.116  1.00  0.00     0.010 C 
HETATM   39  C18 UNL     1       2.814  -0.001   1.582  1.00  0.00     0.012 C 
HETATM   40  C19 UNL     1       1.223   1.761   1.149  1.00  0.00     0.012 C 
ENDBRANCH   1  38
TORSDOF 7
