REMARK  6 active torsions:
REMARK  status: ('A' for Active; 'I' for Inactive)
REMARK    1  A    between atoms: C2_2  and  N1_5 
REMARK       I    between atoms: N1_5  and  C5_7 
REMARK    2  A    between atoms: C5_7  and  C6_9 
REMARK    3  A    between atoms: C8_11  and  N2_12 
REMARK       I    between atoms: N3_17  and  C10_18 
REMARK    4  A    between atoms: C10_18  and  C11_20 
REMARK    5  A    between atoms: C13_22  and  C14_23 
REMARK       I    between atoms: N4_31  and  C22_32 
REMARK       I    between atoms: C22_32  and  N5_34 
REMARK    6  A    between atoms: N5_34  and  C23_36 
ROOT
HETATM    1  C11 UNL     1      -1.071  -0.228   1.048  1.00  0.00     0.181 C 
HETATM    2  C12 UNL     1      -1.147  -1.254  -0.022  1.00  0.00     0.040 C 
HETATM    3  C13 UNL     1      -1.916  -2.502   0.334  1.00  0.00    -0.005 C 
HETATM    4  C18 UNL     1      -2.953  -2.325   1.400  1.00  0.00     0.005 C 
HETATM    5  C19 UNL     1      -3.865  -1.173   1.271  1.00  0.00     0.002 C 
HETATM    6  C20 UNL     1      -3.695  -0.102   2.351  1.00  0.00     0.020 C 
HETATM    7  C21 UNL     1      -3.235   1.207   1.652  1.00  0.00     0.128 C 
HETATM    8  N4  UNL     1      -2.064   0.839   0.866  1.00  0.00    -0.321 N 
HETATM    9  C22 UNL     1      -1.868   1.634  -0.268  1.00  0.00     0.319 C 
HETATM   10  O3  UNL     1      -0.935   1.429  -1.120  1.00  0.00    -0.247 OA
HETATM   11  N5  UNL     1      -2.677   2.747  -0.591  1.00  0.00    -0.335 N 
ATOM     12  H5  UNL     1      -3.445   2.989   0.035  1.00  0.00     0.165 HD
ENDROOT
BRANCH   1  13
HETATM   13  C10 UNL     1       0.271   0.350   1.309  1.00  0.00     0.243 C 
HETATM   14  N3  UNL     1       1.456  -0.387   1.559  1.00  0.00    -0.335 N 
HETATM   15  C6  UNL     1       2.790   0.207   1.791  1.00  0.00     0.181 C 
HETATM   16  C9  UNL     1       1.726  -1.796   1.671  1.00  0.00     0.159 C 
HETATM   17  C7  UNL     1       3.566  -0.740   2.634  1.00  0.00     0.069 C 
HETATM   18  C8  UNL     1       2.556  -1.815   2.969  1.00  0.00     0.204 C 
HETATM   19  O2  UNL     1       0.427   1.631   1.322  1.00  0.00    -0.271 OA
BRANCH  15  20
HETATM   20  C5  UNL     1       3.485   0.391   0.488  1.00  0.00     0.241 C 
HETATM   21  N1  UNL     1       4.784   0.941   0.390  1.00  0.00    -0.351 N 
ATOM     22  H1  UNL     1       5.253   1.220   1.252  1.00  0.00     0.163 HD
HETATM   23  O1  UNL     1       2.919   0.051  -0.591  1.00  0.00    -0.271 OA
BRANCH  21  24
HETATM   24  C2  UNL     1       5.481   1.130  -0.851  1.00  0.00     0.022 C 
HETATM   25  C1  UNL     1       6.852   1.737  -0.649  1.00  0.00     0.037 C 
HETATM   26  C3  UNL     1       4.706   1.977  -1.838  1.00  0.00     0.037 C 
HETATM   27  C4  UNL     1       5.714  -0.224  -1.534  1.00  0.00     0.037 C 
ENDBRANCH  21  24
ENDBRANCH  15  20
BRANCH  18  28
HETATM   28  N2  UNL     1       1.787  -1.375   4.094  1.00  0.00    -0.073 N 
ATOM     29  H23 UNL     1       2.369  -1.121   4.892  1.00  0.00     0.274 HD
ATOM     30  H22 UNL     1       1.355  -0.464   3.942  1.00  0.00     0.274 HD
ATOM     31  H21 UNL     1       1.106  -2.100   4.320  1.00  0.00     0.274 HD
ENDBRANCH  18  28
ENDBRANCH   1  13
BRANCH   3  32
HETATM   32  C14 UNL     1      -2.410  -3.242  -0.865  1.00  0.00    -0.048 C 
HETATM   33  C15 UNL     1      -3.343  -2.500  -1.761  1.00  0.00     0.015 C 
HETATM   34  C16 UNL     1      -1.227  -3.687  -1.739  1.00  0.00     0.015 C 
HETATM   35  C17 UNL     1      -3.111  -4.544  -0.474  1.00  0.00     0.015 C 
ENDBRANCH   3  32
BRANCH  11  36
HETATM   36  C23 UNL     1      -2.464   3.562  -1.776  1.00  0.00     0.023 C 
HETATM   37  C24 UNL     1      -3.511   4.652  -1.792  1.00  0.00     0.037 C 
HETATM   38  C25 UNL     1      -1.109   4.216  -1.773  1.00  0.00     0.037 C 
HETATM   39  C26 UNL     1      -2.607   2.765  -3.052  1.00  0.00     0.037 C 
ENDBRANCH  11  36
TORSDOF 6
