REMARK  1 active torsions:
REMARK  status: ('A' for Active; 'I' for Inactive)
REMARK    1  A    between atoms: C1_2  and  C2_4 
ROOT
HETATM    1  C2  UNL     1      -3.566  -2.105  -0.984  1.00  0.00     0.282 C 
HETATM    2  C3  UNL     1      -2.225  -2.134  -1.682  1.00  0.00     0.251 C 
HETATM    3  O2  UNL     1      -2.198  -2.219  -2.938  1.00  0.00    -0.271 OA
HETATM    4  N2  UNL     1      -0.991  -2.070  -0.986  1.00  0.00    -0.359 N 
ATOM      5  H2  UNL     1      -0.242  -1.514  -1.399  1.00  0.00     0.162 HD
HETATM    6  C4  UNL     1      -0.719  -2.740   0.271  1.00  0.00     0.122 C 
HETATM    7  C5  UNL     1       0.369  -3.773   0.017  1.00  0.00     0.020 C 
HETATM    8  C6  UNL     1       1.456  -3.697   1.052  1.00  0.00     0.002 C 
HETATM    9  C7  UNL     1       2.448  -2.610   0.704  1.00  0.00     0.000 C 
HETATM   10  C8  UNL     1       3.858  -3.040   0.999  1.00  0.00     0.000 C 
HETATM   11  C9  UNL     1       4.693  -3.103  -0.261  1.00  0.00     0.000 C 
HETATM   12  C10 UNL     1       4.876  -1.740  -0.880  1.00  0.00     0.000 C 
HETATM   13  C11 UNL     1       5.475  -0.732   0.045  1.00  0.00     0.000 C 
HETATM   14  C12 UNL     1       4.459   0.344   0.402  1.00  0.00     0.000 C 
HETATM   15  C13 UNL     1       5.083   1.722   0.387  1.00  0.00     0.000 C 
HETATM   16  C14 UNL     1       4.302   2.682  -0.492  1.00  0.00     0.000 C 
HETATM   17  C15 UNL     1       2.834   2.652  -0.193  1.00  0.00     0.000 C 
HETATM   18  C16 UNL     1       2.278   4.035   0.059  1.00  0.00     0.000 C 
HETATM   19  C17 UNL     1       1.300   4.476  -0.985  1.00  0.00     0.000 C 
HETATM   20  C18 UNL     1      -0.142   4.308  -0.568  1.00  0.00     0.000 C 
HETATM   21  C19 UNL     1      -0.471   2.874  -0.240  1.00  0.00     0.000 C 
HETATM   22  C20 UNL     1      -1.862   2.830   0.333  1.00  0.00     0.000 C 
HETATM   23  C21 UNL     1      -2.940   2.664  -0.687  1.00  0.00     0.007 C 
HETATM   24  C22 UNL     1      -3.824   1.484  -0.280  1.00  0.00     0.010 C 
HETATM   25  C23 UNL     1      -3.153   0.250  -0.837  1.00  0.00     0.149 C 
HETATM   26  N3  UNL     1      -4.101  -0.797  -1.142  1.00  0.00    -0.302 N 
HETATM   27  N4  UNL     1      -5.358  -0.557  -0.660  1.00  0.00    -0.271 N 
ATOM     28  H4  UNL     1      -6.111  -0.662  -1.340  1.00  0.00     0.189 HD
HETATM   29  C24 UNL     1      -5.773  -0.182   0.649  1.00  0.00     0.240 C 
HETATM   30  O3  UNL     1      -6.932  -0.600   0.933  1.00  0.00    -0.271 OA
HETATM   31  C25 UNL     1      -5.061   0.602   1.691  1.00  0.00     0.084 A 
HETATM   32  C26 UNL     1      -3.675   0.339   2.071  1.00  0.00     0.020 A 
HETATM   33  C27 UNL     1      -3.994   1.480   1.201  1.00  0.00     0.005 A 
ENDROOT
BRANCH   1  34
HETATM   34  C1  UNL     1      -4.420  -3.205  -1.449  1.00  0.00     0.264 C 
HETATM   35  N1  UNL     1      -5.693  -3.072  -2.063  1.00  0.00    -0.060 NA
HETATM   36  O1  UNL     1      -4.039  -4.421  -1.319  1.00  0.00    -0.274 OA
ENDBRANCH   1  34
TORSDOF 1
