REMARK  8 active torsions:
REMARK  status: ('A' for Active; 'I' for Inactive)
REMARK    1  A    between atoms: C3_3  and  C4_4 
REMARK    2  A    between atoms: C3_3  and  N7_36 
REMARK    3  A    between atoms: C6_6  and  N1_7 
REMARK       I    between atoms: N1_7  and  C7_9 
REMARK    4  A    between atoms: C7_9  and  C8_11 
REMARK    5  A    between atoms: C12_16  and  N2_17 
REMARK    6  A    between atoms: N2_17  and  C13_19 
REMARK    7  A    between atoms: C13_19  and  O2_23 
REMARK    8  A    between atoms: O2_23  and  C15_24 
REMARK       I    between atoms: N7_36  and  C22_38 
ROOT
HETATM    1  C8  UNL     1       0.503   1.462  -1.100  1.00  0.00     0.034 A 
HETATM    2  C9  UNL     1       0.187   2.461  -0.215  1.00  0.00     0.018 A 
HETATM    3  C10 UNL     1      -1.037   2.401   0.408  1.00  0.00     0.022 A 
HETATM    4  C11 UNL     1      -1.929   1.350   0.141  1.00  0.00     0.035 A 
HETATM    5  S1  UNL     1      -3.490   0.907   0.672  1.00  0.00    -0.052 SA
HETATM    6  C12 UNL     1      -3.668  -0.518  -0.250  1.00  0.00     0.152 A 
HETATM    7  N4  UNL     1      -2.527  -0.591  -0.922  1.00  0.00    -0.335 N 
ATOM      8  H4  UNL     1      -2.351  -1.361  -1.568  1.00  0.00     0.168 HD
HETATM    9  C19 UNL     1      -1.632   0.344  -0.740  1.00  0.00     0.052 A 
HETATM   10  C20 UNL     1      -0.369   0.446  -1.353  1.00  0.00     0.048 A 
ENDROOT
BRANCH   1  11
HETATM   11  C7  UNL     1       1.822   1.488  -1.799  1.00  0.00     0.257 C 
HETATM   12  N1  UNL     1       2.732   2.533  -1.548  1.00  0.00    -0.308 N 
ATOM     13  H1  UNL     1       2.484   3.495  -1.778  1.00  0.00     0.170 HD
HETATM   14  O1  UNL     1       2.143   0.591  -2.614  1.00  0.00    -0.267 OA
BRANCH  12  15
HETATM   15  C6  UNL     1       3.879   2.268  -1.027  1.00  0.00     0.124 A 
HETATM   16  C5  UNL     1       4.383   1.057  -0.657  1.00  0.00     0.083 A 
HETATM   17  C4  UNL     1       5.677   1.240  -0.132  1.00  0.00     0.078 A 
HETATM   18  N6  UNL     1       5.884   2.562  -0.215  1.00  0.00    -0.297 N 
HETATM   19  N5  UNL     1       4.815   3.164  -0.746  1.00  0.00    -0.285 N 
ATOM     20  H6  UNL     1       6.734   3.040   0.084  1.00  0.00     0.187 HD
ATOM     21  H5  UNL     1       4.732   4.167  -0.911  1.00  0.00     0.188 HD
BRANCH  17  22
HETATM   22  C3  UNL     1       6.519   0.182   0.381  1.00  0.00     0.060 C 
HETATM   23  C2  UNL     1       7.719   0.289   0.797  1.00  0.00     0.001 C 
HETATM   24  C1  UNL     1       8.556   1.474   0.869  1.00  0.00     0.038 C 
BRANCH  22  25
HETATM   25  N7  UNL     1       5.918  -1.145   0.427  1.00  0.00    -0.321 N 
HETATM   26  C21 UNL     1       4.772  -1.369   1.258  1.00  0.00     0.159 C 
HETATM   27  C22 UNL     1       6.485  -2.198  -0.334  1.00  0.00     0.220 C 
HETATM   28  C23 UNL     1       7.678  -1.928  -1.160  1.00  0.00     0.117 C 
HETATM   29  O3  UNL     1       5.947  -3.329  -0.275  1.00  0.00    -0.274 OA
ENDBRANCH  22  25
ENDBRANCH  17  22
ENDBRANCH  12  15
ENDBRANCH   1  11
BRANCH   6  30
HETATM   30  N2  UNL     1      -4.683  -1.357  -0.299  1.00  0.00    -0.302 N 
ATOM     31  H2  UNL     1      -4.636  -2.174  -0.909  1.00  0.00     0.171 HD
BRANCH  30  32
HETATM   32  C13 UNL     1      -5.829  -1.135   0.482  1.00  0.00     0.221 C 
HETATM   33  N3  UNL     1      -5.893  -1.483   1.718  1.00  0.00    -0.360 N 
HETATM   34  C14 UNL     1      -4.757  -2.127   2.342  1.00  0.00     0.150 C 
ATOM     35  H3  UNL     1      -6.741  -1.306   2.257  1.00  0.00     0.162 HD
BRANCH  32  36
HETATM   36  O2  UNL     1      -6.927  -0.522  -0.089  1.00  0.00    -0.312 OA
BRANCH  36  37
HETATM   37  C15 UNL     1      -8.234  -0.635   0.401  1.00  0.00     0.060 C 
HETATM   38  C16 UNL     1      -9.135   0.192  -0.518  1.00  0.00     0.046 C 
HETATM   39  C17 UNL     1      -8.399  -0.061   1.792  1.00  0.00     0.046 C 
HETATM   40  C18 UNL     1      -8.644  -2.088   0.361  1.00  0.00     0.046 C 
ENDBRANCH  36  37
ENDBRANCH  32  36
ENDBRANCH  30  32
ENDBRANCH   6  30
TORSDOF 8
