REMARK  2 active torsions:
REMARK  status: ('A' for Active; 'I' for Inactive)
REMARK    1  A    between atoms: N1_1  and  N2_4 
REMARK       I    between atoms: N2_4  and  C1_5 
REMARK    2  A    between atoms: C1_5  and  C2_7 
ROOT
HETATM    1  C2  UNL     1       1.068  -0.437  -0.756  1.00  0.00     0.134 A 
HETATM    2  C3  UNL     1       0.123  -1.383  -0.430  1.00  0.00     0.129 A 
HETATM    3  N3  UNL     1      -0.966  -0.736   0.097  1.00  0.00    -0.341 N 
HETATM    4  C4  UNL     1      -0.692   0.574   0.090  1.00  0.00     0.101 A 
HETATM    5  N4  UNL     1       0.521   0.745  -0.415  1.00  0.00    -0.338 N 
ATOM      6  H4  UNL     1       0.978   1.649  -0.530  1.00  0.00     0.167 HD
HETATM    7  C5  UNL     1      -1.761   1.497   0.601  1.00  0.00     0.190 C 
HETATM    8  N5  UNL     1      -2.291   1.001   1.817  1.00  0.00    -0.413 N 
ATOM      9  H5  UNL     1      -2.488   1.613   2.609  1.00  0.00     0.153 HD
HETATM   10  C6  UNL     1      -2.535  -0.409   1.872  1.00  0.00     0.134 C 
HETATM   11  C7  UNL     1      -2.225  -1.163   0.619  1.00  0.00     0.149 C 
ENDROOT
BRANCH   1  12
HETATM   12  C1  UNL     1       2.389  -0.711  -1.378  1.00  0.00     0.362 C 
HETATM   13  N2  UNL     1       3.337   0.258  -1.422  1.00  0.00    -0.287 NA
HETATM   14  O1  UNL     1       2.490  -1.905  -1.828  1.00  0.00    -0.247 OA
BRANCH  13  15
HETATM   15  N1  UNL     1       4.265   1.206  -1.466  1.00  0.00    -0.276 N 
ATOM     16  H12 UNL     1       3.562   0.467  -1.469  1.00  0.00     0.191 HD
ATOM     17  H11 UNL     1       4.978   1.935  -1.499  1.00  0.00     0.191 HD
ENDBRANCH  13  15
ENDBRANCH   1  12
TORSDOF 2
