REMARK  1 active torsions:
REMARK  status: ('A' for Active; 'I' for Inactive)
REMARK    1  A    between atoms: C2_7  and  C3_8 
ROOT
HETATM    1  O1  UNL     1       4.607  -0.548   0.279  1.00  0.00    -0.245 OA
HETATM    2  C1  UNL     1       3.370  -0.397   0.217  1.00  0.00     0.341 A 
HETATM    3  N1  UNL     1       2.647  -1.246  -0.539  1.00  0.00    -0.251 N 
ATOM      4  H1  UNL     1       3.118  -1.995  -1.046  1.00  0.00     0.191 HD
HETATM    5  N2  UNL     1       1.352  -1.121  -0.630  1.00  0.00    -0.290 N 
ATOM      6  H2  UNL     1       0.851  -1.789  -1.216  1.00  0.00     0.187 HD
HETATM    7  C2  UNL     1       0.624  -0.165   0.000  1.00  0.00     0.140 A 
HETATM    8  C6  UNL     1       1.351   0.701   0.771  1.00  0.00     0.279 A 
HETATM    9  O2  UNL     1       0.839   1.628   1.408  1.00  0.00    -0.265 OA
HETATM   10  N5  UNL     1       2.708   0.576   0.870  1.00  0.00    -0.272 N 
ATOM     11  H5  UNL     1       3.230   1.233   1.450  1.00  0.00     0.173 HD
ENDROOT
BRANCH   7  12
HETATM   12  C3  UNL     1      -0.827  -0.086  -0.138  1.00  0.00     0.057 C 
HETATM   13  N3  UNL     1      -1.524  -0.904  -0.886  1.00  0.00    -0.306 N 
HETATM   14  N4  UNL     1      -2.881  -0.580  -0.818  1.00  0.00    -0.141 NA
ATOM     15  H3  UNL     1      -1.133  -1.667  -1.438  1.00  0.00     0.182 HD
HETATM   16  C4  UNL     1      -3.019   0.017   0.496  1.00  0.00     0.141 C 
HETATM   17  C5  UNL     1      -1.747   0.864   0.487  1.00  0.00     0.078 C 
ENDBRANCH   7  12
TORSDOF 1
