REMARK  1 active torsions:
REMARK  status: ('A' for Active; 'I' for Inactive)
REMARK    1  A    between atoms: C1_2  and  C2_4 
ROOT
HETATM    1  C2  UNL     1      -1.070  -0.075   0.210  1.00  0.00     0.115 A 
HETATM    2  C3  UNL     1      -0.731  -0.100  -1.128  1.00  0.00     0.128 A 
HETATM    3  N2  UNL     1       0.535  -0.017  -1.528  1.00  0.00    -0.199 N 
ATOM      4  H2  UNL     1       0.748  -0.038  -2.525  1.00  0.00     0.183 HD
HETATM    5  C4  UNL     1       1.546   0.095  -0.635  1.00  0.00     0.707 A 
HETATM    6  N3  UNL     1       2.886   0.194  -0.742  1.00  0.00    -0.184 N 
ATOM      7  H3  UNL     1       3.405   0.200  -1.620  1.00  0.00     0.185 HD
HETATM    8  C5  UNL     1       3.437   0.284   0.481  1.00  0.00     0.216 A 
HETATM    9  N4  UNL     1       2.408   0.237   1.346  1.00  0.00    -0.272 N 
ATOM     10  H4  UNL     1       2.500   0.282   2.361  1.00  0.00     0.189 HD
HETATM   11  N5  UNL     1       1.261   0.124   0.698  1.00  0.00    -0.046 N 
HETATM   12  C6  UNL     1      -0.022   0.040   1.098  1.00  0.00     0.299 A 
HETATM   13  O2  UNL     1      -0.290   0.067   2.326  1.00  0.00    -0.264 OA
ENDROOT
BRANCH   1  14
HETATM   14  C1  UNL     1      -2.450  -0.165   0.638  1.00  0.00     0.271 C 
HETATM   15  N1  UNL     1      -3.469  -0.281  -0.345  1.00  0.00    -0.057 NA
HETATM   16  O1  UNL     1      -2.743  -0.141   1.854  1.00  0.00    -0.271 OA
ENDBRANCH   1  14
TORSDOF 1
