REMARK  10 active torsions:
REMARK  status: ('A' for Active; 'I' for Inactive)
REMARK    1  A    between atoms: C2_2  and  C3_3 
REMARK    2  A    between atoms: C3_3  and  C5_5 
REMARK    3  A    between atoms: C7_7  and  N1_8 
REMARK    4  A    between atoms: N1_8  and  C8_10 
REMARK    5  A    between atoms: C8_10  and  C9_11 
REMARK    6  A    between atoms: C9_11  and  N2_12 
REMARK    7  A    between atoms: N2_12  and  C10_14 
REMARK    8  A    between atoms: C11_17  and  N4_18 
REMARK       I    between atoms: N6_24  and  C13_25 
REMARK    9  A    between atoms: C13_25  and  C14_27 
REMARK   10  A    between atoms: C14_27  and  N7_29 
ROOT
HETATM    1  C10 UNL     1      -0.346   1.548   0.450  1.00  0.00     0.681 A 
HETATM    2  N3  UNL     1      -0.739   2.586   1.231  1.00  0.00    -0.175 N 
ATOM      3  H3  UNL     1      -0.037   3.250   1.557  1.00  0.00     0.186 HD
HETATM    4  C11 UNL     1      -2.000   2.766   1.584  1.00  0.00     0.147 A 
HETATM    5  C12 UNL     1      -2.977   1.869   1.150  1.00  0.00     0.139 A 
HETATM    6  N5  UNL     1      -4.249   1.415   1.072  1.00  0.00    -0.283 N 
ATOM      7  H5  UNL     1      -5.142   1.730   1.451  1.00  0.00     0.188 HD
HETATM    8  N6  UNL     1      -3.879   0.406   0.314  1.00  0.00    -0.202 N 
HETATM    9  C13 UNL     1      -4.539  -0.678  -0.307  1.00  0.00     0.267 C 
HETATM   10  O1  UNL     1      -3.861  -1.514  -1.001  1.00  0.00    -0.269 OA
HETATM   11  C17 UNL     1      -2.603   0.817   0.362  1.00  0.00     0.177 A 
HETATM   12  N10 UNL     1      -1.279   0.693   0.036  1.00  0.00    -0.172 N 
ATOM     13  H10 UNL     1      -0.994  -0.091  -0.551  1.00  0.00     0.186 HD
ENDROOT
BRANCH   1  14
HETATM   14  N2  UNL     1       0.873   1.401   0.127  1.00  0.00    -0.224 N 
ATOM     15  H2  UNL     1       1.552   2.082   0.469  1.00  0.00     0.177 HD
BRANCH  14  16
HETATM   16  C9  UNL     1       1.339   0.328  -0.692  1.00  0.00     0.157 C 
BRANCH  16  17
HETATM   17  C8  UNL     1       1.609  -0.871   0.210  1.00  0.00     0.140 C 
BRANCH  17  18
HETATM   18  N1  UNL     1       2.078  -2.008  -0.491  1.00  0.00    -0.383 N 
ATOM     19  H1  UNL     1       1.406  -2.720  -0.778  1.00  0.00     0.160 HD
BRANCH  18  20
HETATM   20  C7  UNL     1       3.314  -2.177  -0.779  1.00  0.00     0.072 A 
HETATM   21  C6  UNL     1       4.340  -1.324  -0.471  1.00  0.00     0.062 A 
HETATM   22  C5  UNL     1       5.667  -1.508  -0.782  1.00  0.00     0.015 A 
HETATM   23  N11 UNL     1       6.185  -2.549  -1.439  1.00  0.00    -0.363 N 
HETATM   24  C18 UNL     1       5.523  -3.606  -1.918  1.00  0.00     0.140 A 
ATOM     25  H11 UNL     1       7.193  -2.536  -1.591  1.00  0.00     0.165 HD
HETATM   26  S1  UNL     1       3.847  -3.582  -1.639  1.00  0.00    -0.067 SA
BRANCH  22  27
HETATM   27  C3  UNL     1       6.652  -0.447  -0.352  1.00  0.00     0.031 C 
HETATM   28  C4  UNL     1       6.604  -0.382   1.150  1.00  0.00     0.016 C 
BRANCH  27  29
HETATM   29  C2  UNL     1       6.315   0.883  -0.962  1.00  0.00     0.006 C 
HETATM   30  C1  UNL     1       7.323   1.899  -0.476  1.00  0.00     0.006 C 
ENDBRANCH  27  29
ENDBRANCH  22  27
ENDBRANCH  18  20
ENDBRANCH  17  18
ENDBRANCH  16  17
ENDBRANCH  14  16
ENDBRANCH   1  14
BRANCH   4  31
HETATM   31  N4  UNL     1      -2.368   3.755   2.328  1.00  0.00    -0.383 N 
ATOM     32  H42 UNL     1      -1.654   4.411   2.645  1.00  0.00     0.157 HD
ATOM     33  H41 UNL     1      -3.341   3.894   2.600  1.00  0.00     0.157 HD
ENDBRANCH   4  31
BRANCH   9  34
HETATM   34  C14 UNL     1      -5.977  -0.940  -0.224  1.00  0.00     0.174 C 
HETATM   35  C15 UNL     1      -6.278  -2.322   0.344  1.00  0.00     0.042 C 
BRANCH  34  36
HETATM   36  N7  UNL     1      -6.716   0.009   0.559  1.00  0.00    -0.354 N 
HETATM   37  C16 UNL     1      -7.724   0.605   0.060  1.00  0.00     0.197 C 
HETATM   38  N8  UNL     1      -8.457   1.537   0.819  1.00  0.00    -0.067 NA
HETATM   39  N9  UNL     1      -8.130   0.343  -1.269  1.00  0.00    -0.067 NA
ATOM     40  H7  UNL     1      -6.432   0.207   1.519  1.00  0.00     0.162 HD
ENDBRANCH  34  36
ENDBRANCH   9  34
TORSDOF 10
