REMARK  6 active torsions:
REMARK  status: ('A' for Active; 'I' for Inactive)
REMARK    1  A    between atoms: N3_8  and  C4_10 
REMARK    2  A    between atoms: C4_10  and  C5_11 
REMARK    3  A    between atoms: C4_10  and  C10_18 
REMARK    4  A    between atoms: C5_11  and  N4_12 
REMARK    5  A    between atoms: C11_29  and  C12_30 
REMARK       I    between atoms: C12_30  and  N10_32 
REMARK    6  A    between atoms: N10_32  and  C13_34 
ROOT
HETATM    1  N1  UNL     1       1.759  -3.219  -2.567  1.00  0.00    -0.080 NA
HETATM    2  C1  UNL     1       0.817  -2.457  -1.824  1.00  0.00     0.151 A 
HETATM    3  N2  UNL     1      -0.504  -2.699  -1.895  1.00  0.00    -0.307 N 
ATOM      4  H2  UNL     1      -0.869  -3.443  -2.490  1.00  0.00     0.170 HD
HETATM    5  C2  UNL     1      -1.346  -1.920  -1.148  1.00  0.00     0.290 A 
HETATM    6  O1  UNL     1      -2.575  -2.195  -1.255  1.00  0.00    -0.264 OA
HETATM    7  C3  UNL     1      -0.905  -0.912  -0.337  1.00  0.00     0.172 A 
HETATM    8  N3  UNL     1      -1.637  -0.182   0.358  1.00  0.00    -0.358 N 
ATOM      9  H3  UNL     1      -1.105   0.507   0.889  1.00  0.00     0.162 HD
HETATM   10  N9  UNL     1       0.469  -0.714  -0.309  1.00  0.00    -0.331 N 
ATOM     11  H9  UNL     1       0.841   0.028   0.284  1.00  0.00     0.168 HD
HETATM   12  C11 UNL     1       1.320  -1.444  -1.016  1.00  0.00     0.144 A 
ENDROOT
BRANCH   8  13
HETATM   13  C4  UNL     1      -3.012  -0.081   0.584  1.00  0.00     0.171 C 
BRANCH  13  14
HETATM   14  C5  UNL     1      -3.648   0.847  -0.432  1.00  0.00     0.158 C 
BRANCH  14  15
HETATM   15  N4  UNL     1      -5.077   0.949  -0.223  1.00  0.00    -0.350 N 
HETATM   16  C6  UNL     1      -6.045   0.040  -0.815  1.00  0.00     0.126 C 
HETATM   17  C7  UNL     1      -7.358   0.741  -0.600  1.00  0.00     0.029 C 
HETATM   18  C8  UNL     1      -7.161   1.390   0.766  1.00  0.00     0.104 C 
HETATM   19  C9  UNL     1      -5.751   1.909   0.571  1.00  0.00     0.219 C 
HETATM   20  O2  UNL     1      -5.292   2.975   1.026  1.00  0.00    -0.273 OA
ENDBRANCH  14  15
ENDBRANCH  13  14
BRANCH  13  21
HETATM   21  C10 UNL     1      -3.316   0.393   1.978  1.00  0.00     0.137 A 
HETATM   22  N5  UNL     1      -2.692   1.349   2.693  1.00  0.00    -0.270 N 
HETATM   23  N6  UNL     1      -3.313   1.412   3.868  1.00  0.00    -0.227 N 
ATOM     24  H5  UNL     1      -1.898   1.914   2.392  1.00  0.00     0.190 HD
HETATM   25  N7  UNL     1      -4.300   0.539   3.924  1.00  0.00    -0.227 N 
ATOM     26  H6  UNL     1      -3.060   2.049   4.623  1.00  0.00     0.210 HD
HETATM   27  N8  UNL     1      -4.290  -0.086   2.745  1.00  0.00    -0.270 N 
ATOM     28  H7  UNL     1      -4.937   0.376   4.704  1.00  0.00     0.210 HD
ATOM     29  H8  UNL     1      -4.937  -0.825   2.472  1.00  0.00     0.190 HD
ENDBRANCH  13  21
ENDBRANCH   8  13
BRANCH  12  30
HETATM   30  C12 UNL     1       2.760  -1.216  -0.969  1.00  0.00     0.272 C 
HETATM   31  O3  UNL     1       3.528  -1.948  -1.670  1.00  0.00    -0.266 OA
HETATM   32  N10 UNL     1       3.376  -0.216  -0.183  1.00  0.00    -0.351 N 
ATOM     33  H10 UNL     1       2.795   0.393   0.394  1.00  0.00     0.163 HD
BRANCH  32  34
HETATM   34  C13 UNL     1       4.794  -0.039  -0.178  1.00  0.00     0.084 C 
HETATM   35  C14 UNL     1       5.403  -0.139   1.192  1.00  0.00     0.025 C 
HETATM   36  C15 UNL     1       6.852   0.140   1.247  1.00  0.00     0.002 C 
HETATM   37  C16 UNL     1       7.340   1.237   0.371  1.00  0.00     0.000 C 
HETATM   38  C17 UNL     1       6.633   1.340  -0.948  1.00  0.00     0.002 C 
HETATM   39  C18 UNL     1       5.153   1.324  -0.732  1.00  0.00     0.025 C 
ENDBRANCH  32  34
ENDBRANCH  12  30
TORSDOF 6
