REMARK  8 active torsions:
REMARK  status: ('A' for Active; 'I' for Inactive)
REMARK    1  A    between atoms: C2_2  and  O1_5 
REMARK    2  A    between atoms: O1_5  and  C5_6 
REMARK       I    between atoms: C5_6  and  N1_8 
REMARK    3  A    between atoms: N1_8  and  C6_10 
REMARK    4  A    between atoms: C7_11  and  N2_12 
REMARK       I    between atoms: N3_16  and  C11_17 
REMARK    5  A    between atoms: C11_17  and  O4_19 
REMARK    6  A    between atoms: O4_19  and  C12_20 
REMARK    7  A    between atoms: C12_20  and  C13_21 
REMARK    8  A    between atoms: C13_21  and  O5_22 
ROOT
HETATM    1  C6  UNL     1       1.785  -1.739   0.359  1.00  0.00     0.152 A 
HETATM    2  C7  UNL     1       0.381  -1.863   0.338  1.00  0.00     0.151 A 
HETATM    3  N4  UNL     1       0.119  -3.164   0.496  1.00  0.00    -0.281 N 
ATOM      4  H4  UNL     1      -0.817  -3.568   0.522  1.00  0.00     0.188 HD
HETATM    5  N5  UNL     1       1.231  -3.849   0.613  1.00  0.00    -0.263 N 
ATOM      6  H5  UNL     1       1.296  -4.859   0.744  1.00  0.00     0.190 HD
HETATM    7  C16 UNL     1       2.289  -2.988   0.531  1.00  0.00     0.290 A 
HETATM    8  O6  UNL     1       3.492  -3.398   0.615  1.00  0.00    -0.264 OA
ENDROOT
BRANCH   2   9
HETATM    9  N2  UNL     1      -0.541  -0.787   0.178  1.00  0.00    -0.363 N 
HETATM   10  C8  UNL     1      -0.899  -0.433  -1.193  1.00  0.00     0.126 C 
HETATM   11  C9  UNL     1      -2.149  -1.177  -1.521  1.00  0.00     0.040 C 
HETATM   12  C10 UNL     1      -3.232  -1.086  -0.491  1.00  0.00     0.129 C 
HETATM   13  N3  UNL     1      -3.232   0.140   0.265  1.00  0.00    -0.326 N 
HETATM   14  C11 UNL     1      -4.441   0.874   0.223  1.00  0.00     0.362 C 
HETATM   15  C14 UNL     1      -2.209   0.764   1.071  1.00  0.00     0.148 C 
HETATM   16  O3  UNL     1      -4.599   1.966   0.831  1.00  0.00    -0.238 OA
HETATM   17  C15 UNL     1      -1.036  -0.153   1.360  1.00  0.00     0.144 C 
BRANCH  14  18
HETATM   18  O4  UNL     1      -5.498   0.375  -0.517  1.00  0.00    -0.302 OA
BRANCH  18  19
HETATM   19  C12 UNL     1      -6.747   0.977  -0.656  1.00  0.00     0.206 C 
BRANCH  19  20
HETATM   20  C13 UNL     1      -7.502   1.170   0.626  1.00  0.00     0.191 C 
BRANCH  20  21
HETATM   21  O5  UNL     1      -8.720   1.780   0.299  1.00  0.00    -0.399 OA
ATOM     22  H5  UNL     1      -9.198   1.902   1.111  1.00  0.00     0.209 HD
ENDBRANCH  20  21
ENDBRANCH  19  20
ENDBRANCH  18  19
ENDBRANCH  14  18
ENDBRANCH   2   9
BRANCH   1  23
HETATM   23  N1  UNL     1       2.462  -0.521   0.220  1.00  0.00    -0.295 N 
HETATM   24  C5  UNL     1       3.841  -0.257   0.219  1.00  0.00     0.366 C 
HETATM   25  O2  UNL     1       4.775  -1.073   0.346  1.00  0.00    -0.238 OA
ATOM     26  H1  UNL     1       1.864   0.297   0.102  1.00  0.00     0.171 HD
BRANCH  24  27
HETATM   27  O1  UNL     1       4.305   1.072   0.059  1.00  0.00    -0.294 OA
BRANCH  27  28
HETATM   28  C2  UNL     1       5.664   1.402   0.049  1.00  0.00     0.061 C 
HETATM   29  C1  UNL     1       6.399   0.696  -1.076  1.00  0.00     0.046 C 
HETATM   30  C3  UNL     1       5.761   2.909  -0.065  1.00  0.00     0.046 C 
HETATM   31  C4  UNL     1       6.372   1.008   1.329  1.00  0.00     0.046 C 
ENDBRANCH  27  28
ENDBRANCH  24  27
ENDBRANCH   1  23
TORSDOF 8
