REMARK  4 active torsions:
REMARK  status: ('A' for Active; 'I' for Inactive)
REMARK       I    between atoms: N1_2  and  C2_4 
REMARK    1  A    between atoms: C2_4  and  C3_6 
REMARK    2  A    between atoms: C4_9  and  C5_10 
REMARK    3  A    between atoms: C7_12  and  C8_13 
REMARK    4  A    between atoms: C13_23  and  N5_24 
ROOT
HETATM    1  C3  UNL     1      -0.701   2.031   0.282  1.00  0.00     0.130 A 
HETATM    2  N2  UNL     1       0.480   1.334   0.212  1.00  0.00    -0.334 N 
ATOM      3  H2  UNL     1       1.359   1.851   0.192  1.00  0.00     0.168 HD
HETATM    4  C4  UNL     1       0.513  -0.013   0.169  1.00  0.00     0.134 A 
HETATM    5  N4  UNL     1      -0.670  -0.635   0.211  1.00  0.00    -0.325 N 
ATOM      6  H4  UNL     1      -0.669  -1.655   0.182  1.00  0.00     0.169 HD
HETATM    7  C13 UNL     1      -1.852  -0.021   0.288  1.00  0.00     0.132 A 
HETATM    8  C19 UNL     1      -1.900   1.367   0.325  1.00  0.00     0.122 A 
HETATM    9  N7  UNL     1      -3.154   2.073   0.403  1.00  0.00    -0.096 NA
ENDROOT
BRANCH   4  10
HETATM   10  C5  UNL     1       1.774  -0.774   0.081  1.00  0.00     0.077 A 
HETATM   11  C6  UNL     1       3.001  -0.237   0.022  1.00  0.00     0.044 A 
HETATM   12  C7  UNL     1       4.127  -1.002  -0.133  1.00  0.00    -0.012 A 
HETATM   13  C11 UNL     1       3.965  -2.394  -0.234  1.00  0.00     0.138 A 
HETATM   14  F1  UNL     1       5.068  -3.138  -0.400  1.00  0.00    -0.204 F 
HETATM   15  C12 UNL     1       2.726  -2.937  -0.170  1.00  0.00     0.131 A 
HETATM   16  N3  UNL     1       1.677  -2.133  -0.014  1.00  0.00    -0.360 N 
ATOM     17  H3  UNL     1       0.750  -2.555   0.037  1.00  0.00     0.165 HD
BRANCH  12  18
HETATM   18  C8  UNL     1       5.464  -0.469  -0.363  1.00  0.00     0.013 C 
HETATM   19  C9  UNL     1       6.083   0.324   0.771  1.00  0.00     0.015 C 
HETATM   20  C10 UNL     1       5.184   0.666  -1.449  1.00  0.00     0.015 C 
ENDBRANCH  12  18
ENDBRANCH   4  10
BRANCH   1  21
HETATM   21  C2  UNL     1      -0.651   3.474   0.120  1.00  0.00     0.269 C 
HETATM   22  N1  UNL     1       0.485   4.274   0.122  1.00  0.00    -0.360 N 
HETATM   23  C1  UNL     1       0.422   5.705  -0.097  1.00  0.00     0.149 C 
ATOM     24  H1  UNL     1       1.394   3.839   0.283  1.00  0.00     0.162 HD
HETATM   25  O1  UNL     1      -1.807   4.012  -0.050  1.00  0.00    -0.266 OA
ENDBRANCH   1  21
BRANCH   7  26
HETATM   26  N5  UNL     1      -3.069  -0.745   0.365  1.00  0.00    -0.364 N 
HETATM   27  C14 UNL     1      -3.961  -0.786  -0.794  1.00  0.00     0.126 C 
HETATM   28  C15 UNL     1      -3.754  -2.109  -1.486  1.00  0.00     0.047 C 
HETATM   29  C16 UNL     1      -4.421  -3.239  -0.758  1.00  0.00     0.234 C 
HETATM   30  N6  UNL     1      -3.867  -3.419   0.576  1.00  0.00    -0.074 N 
HETATM   31  C17 UNL     1      -4.353  -2.435   1.530  1.00  0.00     0.252 C 
ATOM     32  H62 UNL     1      -4.032  -4.367   0.914  1.00  0.00     0.277 HD
ATOM     33  H61 UNL     1      -2.847  -3.427   0.549  1.00  0.00     0.277 HD
HETATM   34  C18 UNL     1      -3.282  -1.385   1.646  1.00  0.00     0.152 C 
ENDBRANCH   7  26
TORSDOF 4
