REMARK  5 active torsions:
REMARK  status: ('A' for Active; 'I' for Inactive)
REMARK    1  A    between atoms: C4_5  and  C5_6 
REMARK    2  A    between atoms: C8_11  and  C9_12 
REMARK    3  A    between atoms: N3_17  and  C12_18 
REMARK    4  A    between atoms: C14_20  and  N4_21 
REMARK    5  A    between atoms: C18_30  and  N7_31 
ROOT
HETATM    1  C1  UNL     1       0.137   1.949  -1.673  1.00  0.00     0.054 C 
HETATM    2  C2  UNL     1      -1.032   1.762  -0.797  1.00  0.00     0.007 A 
HETATM    3  C3  UNL     1      -1.941   2.807  -0.575  1.00  0.00     0.140 A 
HETATM    4  F1  UNL     1      -1.688   3.975  -1.200  1.00  0.00    -0.204 F 
HETATM    5  C4  UNL     1      -3.024   2.605   0.248  1.00  0.00     0.069 A 
HETATM    6  C6  UNL     1      -3.206   1.377   0.848  1.00  0.00     0.035 A 
HETATM    7  C7  UNL     1      -2.336   0.341   0.650  1.00  0.00     0.019 A 
HETATM    8  C8  UNL     1      -2.327  -0.949   1.144  1.00  0.00     0.042 A 
HETATM    9  N2  UNL     1      -1.241  -1.528   0.621  1.00  0.00    -0.295 N 
ATOM     10  H2  UNL     1      -0.945  -2.490   0.790  1.00  0.00     0.187 HD
HETATM   11  N3  UNL     1      -0.603  -0.647  -0.159  1.00  0.00    -0.238 N 
HETATM   12  C19 UNL     1      -1.231   0.535  -0.186  1.00  0.00     0.079 A 
ENDROOT
BRANCH  11  13
HETATM   13  C12 UNL     1       0.576  -0.991  -0.837  1.00  0.00     0.146 A 
HETATM   14  C13 UNL     1       1.789  -0.604  -0.339  1.00  0.00     0.100 A 
HETATM   15  C14 UNL     1       2.961  -0.950  -0.962  1.00  0.00     0.124 A 
HETATM   16  N6  UNL     1       2.859  -1.696  -2.102  1.00  0.00    -0.177 N 
HETATM   17  C18 UNL     1       1.679  -2.086  -2.607  1.00  0.00     0.679 A 
ATOM     18  H6  UNL     1       3.714  -1.967  -2.588  1.00  0.00     0.185 HD
HETATM   19  N8  UNL     1       0.533  -1.734  -1.976  1.00  0.00    -0.175 N 
ATOM     20  H8  UNL     1      -0.367  -2.027  -2.357  1.00  0.00     0.186 HD
BRANCH  15  21
HETATM   21  N4  UNL     1       4.234  -0.577  -0.491  1.00  0.00    -0.342 N 
HETATM   22  C15 UNL     1       4.516   0.216   0.688  1.00  0.00     0.153 C 
HETATM   23  C16 UNL     1       5.861  -0.290   1.145  1.00  0.00     0.254 C 
HETATM   24  N5  UNL     1       6.478  -0.876  -0.007  1.00  0.00    -0.058 N 
HETATM   25  C17 UNL     1       5.509  -0.902  -1.074  1.00  0.00     0.358 C 
ATOM     26  H52 UNL     1       7.342  -0.404  -0.273  1.00  0.00     0.279 HD
ATOM     27  H51 UNL     1       6.876  -1.795   0.185  1.00  0.00     0.279 HD
ENDBRANCH  15  21
BRANCH  17  28
HETATM   28  N7  UNL     1       1.679  -2.786  -3.683  1.00  0.00    -0.234 N 
ATOM     29  H72 UNL     1       2.542  -3.051  -4.158  1.00  0.00     0.174 HD
ATOM     30  H71 UNL     1       0.782  -3.083  -4.067  1.00  0.00     0.174 HD
ENDBRANCH  17  28
ENDBRANCH  11  13
BRANCH   8  31
HETATM   31  C9  UNL     1      -3.321  -1.525   2.048  1.00  0.00     0.030 C 
HETATM   32  C10 UNL     1      -2.986  -2.951   2.450  1.00  0.00     0.016 C 
HETATM   33  C11 UNL     1      -4.723  -1.501   1.502  1.00  0.00     0.016 C 
ENDBRANCH   8  31
BRANCH   5  34
HETATM   34  C5  UNL     1      -3.962   3.692   0.474  1.00  0.00     0.268 C 
HETATM   35  N1  UNL     1      -3.779   4.952  -0.137  1.00  0.00    -0.057 NA
HETATM   36  O1  UNL     1      -4.976   3.552   1.225  1.00  0.00    -0.271 OA
ENDBRANCH   5  34
TORSDOF 5
