REMARK  10 active torsions:
REMARK  status: ('A' for Active; 'I' for Inactive)
REMARK    1  A    between atoms: C6_12  and  O2_13 
REMARK    2  A    between atoms: C7_15  and  S1_16 
REMARK    3  A    between atoms: S1_16  and  C8_17 
REMARK    4  A    between atoms: C8_17  and  N4_18 
REMARK    5  A    between atoms: N4_18  and  C9_20 
REMARK    6  A    between atoms: C9_20  and  O3_21 
REMARK    7  A    between atoms: C9_20  and  C10_23 
REMARK    8  A    between atoms: C10_23  and  C11_24 
REMARK    9  A    between atoms: C11_24  and  C12_25 
REMARK   10  A    between atoms: C13_28  and  N6_29 
ROOT
HETATM    1  C1  UNL     1      -4.869   2.693  -0.371  1.00  0.00     0.310 C 
HETATM    2  N1  UNL     1      -4.796   1.641  -1.397  1.00  0.00     0.094 N 
HETATM    3  C2  UNL     1      -5.268   0.378  -0.870  1.00  0.00     0.330 C 
HETATM    4  C3  UNL     1      -4.025  -0.200  -0.254  1.00  0.00     0.051 A 
HETATM    5  N2  UNL     1      -3.824  -1.188   0.639  1.00  0.00    -0.339 N 
ATOM      6  H2  UNL     1      -4.625  -1.692   1.019  1.00  0.00     0.167 HD
HETATM    7  C4  UNL     1      -2.583  -1.521   1.038  1.00  0.00     0.184 A 
HETATM    8  C5  UNL     1      -2.411  -2.547   1.962  1.00  0.00     0.292 A 
HETATM    9  O1  UNL     1      -3.454  -3.122   2.385  1.00  0.00    -0.264 OA
HETATM   10  N3  UNL     1      -1.179  -2.894   2.372  1.00  0.00    -0.299 N 
ATOM     11  H3  UNL     1      -1.082  -3.650   3.050  1.00  0.00     0.171 HD
HETATM   12  C6  UNL     1      -0.058  -2.275   1.916  1.00  0.00     0.178 A 
HETATM   13  C7  UNL     1      -0.230  -1.260   1.002  1.00  0.00     0.133 A 
HETATM   14  N5  UNL     1      -1.476  -0.912   0.589  1.00  0.00    -0.268 N 
HETATM   15  C13 UNL     1      -1.641   0.086  -0.310  1.00  0.00     0.118 A 
HETATM   16  C14 UNL     1      -2.907   0.447  -0.735  1.00  0.00     0.038 A 
HETATM   17  C15 UNL     1      -3.386   1.466  -1.680  1.00  0.00     0.317 C 
ENDROOT
BRANCH  13  18
HETATM   18  S1  UNL     1       1.186  -0.392   0.357  1.00  0.00    -0.088 SA
BRANCH  18  19
HETATM   19  C8  UNL     1       2.729  -1.001   1.047  1.00  0.00     0.203 C 
BRANCH  19  20
HETATM   20  N4  UNL     1       3.874  -0.247   0.440  1.00  0.00    -0.362 N 
ATOM     21  H4  UNL     1       4.526   0.305   0.997  1.00  0.00     0.162 HD
BRANCH  20  22
HETATM   22  C9  UNL     1       3.978  -0.361  -0.955  1.00  0.00     0.135 C 
BRANCH  22  23
HETATM   23  O3  UNL     1       3.068  -1.110  -1.546  1.00  0.00    -0.346 OA
ATOM     24  H3  UNL     1       3.138  -1.187  -2.490  1.00  0.00     0.219 HD
ENDBRANCH  22  23
BRANCH  22  25
HETATM   25  C10 UNL     1       4.958   0.245  -1.803  1.00  0.00     0.052 C 
BRANCH  25  26
HETATM   26  C11 UNL     1       5.950   1.016  -1.620  1.00  0.00    -0.008 C 
BRANCH  26  27
HETATM   27  C12 UNL     1       6.490   1.606  -0.406  1.00  0.00     0.142 C 
HETATM   28 CL1  UNL     1       8.171   0.980  -0.238  1.00  0.00    -0.126 Cl
ENDBRANCH  26  27
ENDBRANCH  25  26
ENDBRANCH  22  25
ENDBRANCH  20  22
ENDBRANCH  19  20
ENDBRANCH  18  19
ENDBRANCH  13  18
BRANCH  12  29
HETATM   29  O2  UNL     1       1.185  -2.686   2.383  1.00  0.00    -0.344 OA
ATOM     30  H2  UNL     1       1.968  -2.253   2.064  1.00  0.00     0.219 HD
ENDBRANCH  12  29
BRANCH  15  31
HETATM   31  N6  UNL     1      -0.573   0.673  -0.741  1.00  0.00    -0.384 N 
ATOM     32  H62 UNL     1       0.360   0.407  -0.428  1.00  0.00     0.157 HD
ATOM     33  H61 UNL     1      -0.697   1.425  -1.419  1.00  0.00     0.157 HD
ENDBRANCH  15  31
TORSDOF 10
