REMARK  7 active torsions:
REMARK  status: ('A' for Active; 'I' for Inactive)
REMARK    1  A    between atoms: C2_2  and  C3_3 
REMARK    2  A    between atoms: C3_3  and  N1_5 
REMARK    3  A    between atoms: N1_5  and  C5_7 
REMARK    4  A    between atoms: C7_13  and  N4_14 
REMARK    5  A    between atoms: N4_14  and  C8_16 
REMARK    6  A    between atoms: C11_21  and  N6_22 
REMARK    7  A    between atoms: C14_25  and  N7_26 
ROOT
HETATM    1  C5  UNL     1       2.734   0.232   0.244  1.00  0.00     0.681 A 
HETATM    2  N2  UNL     1       1.998   1.365   0.292  1.00  0.00    -0.175 N 
ATOM      3  H2  UNL     1       2.459   2.248   0.509  1.00  0.00     0.186 HD
HETATM    4  C6  UNL     1       0.685   1.357   0.063  1.00  0.00     0.153 A 
HETATM    5  N3  UNL     1      -0.043   2.490   0.128  1.00  0.00    -0.175 N 
ATOM      6  H3  UNL     1       0.418   3.373   0.347  1.00  0.00     0.186 HD
HETATM    7  C7  UNL     1      -1.363   2.469  -0.091  1.00  0.00     0.681 A 
HETATM    8  N5  UNL     1      -1.974   1.319  -0.378  1.00  0.00    -0.176 N 
ATOM      9  H5  UNL     1      -2.981   1.329  -0.540  1.00  0.00     0.186 HD
HETATM   10  C11 UNL     1      -1.291   0.096  -0.467  1.00  0.00     0.136 A 
HETATM   11  C17 UNL     1       0.050   0.138  -0.237  1.00  0.00     0.093 A 
HETATM   12  C18 UNL     1       0.813  -1.000  -0.278  1.00  0.00     0.137 A 
HETATM   13 CL1  UNL     1       0.105  -2.566  -0.567  1.00  0.00    -0.063 Cl
HETATM   14  N8  UNL     1       2.149  -0.926  -0.036  1.00  0.00    -0.180 N 
ATOM     15  H8  UNL     1       2.712  -1.776  -0.070  1.00  0.00     0.185 HD
ENDROOT
BRANCH  10  16
HETATM   16  N6  UNL     1      -2.107  -0.977  -0.868  1.00  0.00    -0.364 N 
HETATM   17  C12 UNL     1      -2.355  -1.429  -2.205  1.00  0.00     0.126 C 
HETATM   18  C13 UNL     1      -3.803  -2.001  -2.120  1.00  0.00     0.054 C 
HETATM   19  C14 UNL     1      -3.703  -2.691  -0.791  1.00  0.00     0.204 C 
HETATM   20  C16 UNL     1      -2.956  -1.701   0.046  1.00  0.00     0.157 C 
BRANCH  19  21
HETATM   21  N7  UNL     1      -4.992  -3.056  -0.249  1.00  0.00    -0.073 N 
HETATM   22  C15 UNL     1      -5.597  -3.997  -1.155  1.00  0.00     0.267 C 
ATOM     23  H72 UNL     1      -4.935  -3.407   0.707  1.00  0.00     0.277 HD
ATOM     24  H71 UNL     1      -5.586  -2.248  -0.061  1.00  0.00     0.277 HD
ENDBRANCH  19  21
ENDBRANCH  10  16
BRANCH   7  25
HETATM   25  N4  UNL     1      -2.057   3.519  -0.029  1.00  0.00    -0.222 N 
ATOM     26  H4  UNL     1      -3.048   3.364  -0.216  1.00  0.00     0.178 HD
BRANCH  25  27
HETATM   27  C8  UNL     1      -1.740   4.863   0.246  1.00  0.00     0.091 C 
HETATM   28  C9  UNL     1      -0.999   5.589  -0.871  1.00  0.00     0.032 C 
HETATM   29  C10 UNL     1      -1.031   5.122   1.552  1.00  0.00     0.032 C 
ENDBRANCH  25  27
ENDBRANCH   7  25
BRANCH   1  30
HETATM   30  N1  UNL     1       3.984   0.286   0.465  1.00  0.00    -0.222 N 
ATOM     31  H1  UNL     1       4.397   1.195   0.675  1.00  0.00     0.178 HD
BRANCH  30  32
HETATM   32  C3  UNL     1       4.847  -0.861   0.436  1.00  0.00     0.095 C 
HETATM   33  C4  UNL     1       6.251  -0.352   0.131  1.00  0.00     0.032 C 
BRANCH  32  34
HETATM   34  C2  UNL     1       4.837  -1.627   1.743  1.00  0.00     0.021 C 
HETATM   35  C1  UNL     1       5.762  -2.816   1.692  1.00  0.00     0.007 C 
ENDBRANCH  32  34
ENDBRANCH  30  32
ENDBRANCH   1  30
TORSDOF 7
