REMARK  8 active torsions:
REMARK  status: ('A' for Active; 'I' for Inactive)
REMARK    1  A    between atoms: C2_2  and  O1_5 
REMARK    2  A    between atoms: O1_5  and  C4_6 
REMARK    3  A    between atoms: C4_6  and  N1_7 
REMARK    4  A    between atoms: C4_6  and  C5_10 
REMARK    5  A    between atoms: C6_11  and  N2_12 
REMARK    6  A    between atoms: C10_16  and  C11_17 
REMARK    7  A    between atoms: C11_17  and  N3_18 
REMARK    8  A    between atoms: C19_33  and  N7_34 
ROOT
HETATM    1  C5  UNL     1       3.065  -0.913   1.117  1.00  0.00     0.102 A 
HETATM    2  C6  UNL     1       1.792  -1.353   0.944  1.00  0.00     0.122 A 
HETATM    3  N5  UNL     1       1.284  -2.358   1.750  1.00  0.00    -0.338 N 
ATOM      4  H5  UNL     1       0.325  -2.673   1.603  1.00  0.00     0.168 HD
HETATM    5  C18 UNL     1       2.010  -2.925   2.711  1.00  0.00     0.183 A 
HETATM    6  N6  UNL     1       3.268  -2.483   2.875  1.00  0.00    -0.338 N 
ATOM      7  H6  UNL     1       3.836  -2.908   3.608  1.00  0.00     0.168 HD
HETATM    8  C19 UNL     1       3.812  -1.524   2.136  1.00  0.00     0.118 A 
ENDROOT
BRANCH   2   9
HETATM    9  N2  UNL     1       0.953  -0.810  -0.051  1.00  0.00    -0.366 N 
HETATM   10  C7  UNL     1       0.956  -1.446  -1.378  1.00  0.00     0.124 C 
HETATM   11  C8  UNL     1      -0.408  -2.118  -1.472  1.00  0.00     0.020 C 
HETATM   12  C9  UNL     1      -1.515  -1.136  -1.303  1.00  0.00     0.009 C 
HETATM   13  C10 UNL     1      -1.418  -0.253  -0.098  1.00  0.00     0.032 C 
HETATM   14  C17 UNL     1       0.028   0.281   0.095  1.00  0.00     0.130 C 
BRANCH  13  15
HETATM   15  C11 UNL     1      -2.268   0.975  -0.257  1.00  0.00     0.278 C 
BRANCH  15  16
HETATM   16  N3  UNL     1      -3.664   0.725  -0.438  1.00  0.00     0.090 N 
HETATM   17  C12 UNL     1      -4.301   0.185   0.744  1.00  0.00     0.274 C 
HETATM   18  C13 UNL     1      -5.489  -0.634   0.297  1.00  0.00     0.057 C 
HETATM   19  C14 UNL     1      -6.761   0.194   0.399  1.00  0.00     0.234 C 
HETATM   20  N4  UNL     1      -6.538   1.589   0.183  1.00  0.00    -0.073 N 
HETATM   21  C15 UNL     1      -5.758   1.894  -0.981  1.00  0.00     0.262 C 
ATOM     22  H42 UNL     1      -7.426   2.090   0.157  1.00  0.00     0.277 HD
ATOM     23  H41 UNL     1      -6.121   2.014   1.011  1.00  0.00     0.277 HD
HETATM   24  C16 UNL     1      -4.292   2.021  -0.691  1.00  0.00     0.299 C 
ENDBRANCH  15  16
ENDBRANCH  13  15
ENDBRANCH   2   9
BRANCH   1  25
HETATM   25  C4  UNL     1       3.697   0.139   0.323  1.00  0.00     0.157 C 
BRANCH  25  26
HETATM   26  O1  UNL     1       5.015   0.522   0.581  1.00  0.00    -0.294 OA
BRANCH  26  27
HETATM   27  C2  UNL     1       5.808   1.376  -0.166  1.00  0.00     0.204 C 
HETATM   28  C1  UNL     1       6.058   0.956  -1.585  1.00  0.00     0.084 C 
HETATM   29  C3  UNL     1       7.151   1.473   0.590  1.00  0.00     0.084 C 
HETATM   30  F1  UNL     1       5.354   2.701  -0.194  1.00  0.00    -0.212 F 
ENDBRANCH  26  27
ENDBRANCH  25  26
BRANCH  25  31
HETATM   31  N1  UNL     1       3.108   0.748  -0.616  1.00  0.00    -0.379 N 
ATOM     32  H12 UNL     1       3.549   1.482  -1.170  1.00  0.00     0.158 HD
ATOM     33  H11 UNL     1       2.145   0.468  -0.804  1.00  0.00     0.158 HD
ENDBRANCH  25  31
ENDBRANCH   1  25
BRANCH   8  34
HETATM   34  N7  UNL     1       5.028  -1.106   2.303  1.00  0.00    -0.385 N 
ATOM     35  H72 UNL     1       5.446  -0.369   1.735  1.00  0.00     0.157 HD
ATOM     36  H71 UNL     1       5.571  -1.550   3.044  1.00  0.00     0.157 HD
ENDBRANCH   8  34
TORSDOF 8
