REMARK  6 active torsions:
REMARK  status: ('A' for Active; 'I' for Inactive)
REMARK    1  A    between atoms: C3_3  and  C4_4 
REMARK    2  A    between atoms: C4_4  and  O1_5 
REMARK    3  A    between atoms: N1_7  and  O2_9 
REMARK    4  A    between atoms: C5_11  and  C6_12 
REMARK    5  A    between atoms: C8_20  and  N5_22 
REMARK       I    between atoms: N5_22  and  C10_24 
REMARK    6  A    between atoms: C10_24  and  C11_26 
ROOT
HETATM    1  C1  UNL     1      -2.927  -0.933  -2.128  1.00  0.00     0.056 C 
HETATM    2  C2  UNL     1      -1.813  -0.927  -1.162  1.00  0.00    -0.014 C 
HETATM    3  C3  UNL     1      -1.340   0.133  -0.565  1.00  0.00     0.019 C 
HETATM    4  C5  UNL     1      -0.231   0.025   0.403  1.00  0.00     0.105 C 
HETATM    5  C8  UNL     1       0.948  -0.796   0.074  1.00  0.00     0.051 C 
HETATM    6  C9  UNL     1       1.556  -1.421   1.348  1.00  0.00     0.040 C 
HETATM    7  C12 UNL     1       0.769  -1.948  -0.879  1.00  0.00     0.111 C 
HETATM    8  S1  UNL     1      -0.965  -2.473  -0.728  1.00  0.00    -0.132 SA
ENDROOT
BRANCH   4   9
HETATM    9  C6  UNL     1      -0.822  -0.252   1.768  1.00  0.00     0.055 A 
HETATM   10  C7  UNL     1      -0.916   0.641   2.830  1.00  0.00     0.136 A 
HETATM   11  N2  UNL     1      -1.495   0.004   3.843  1.00  0.00    -0.296 N 
HETATM   12  N3  UNL     1      -1.754  -1.214   3.457  1.00  0.00    -0.243 N 
ATOM     13  H2  UNL     1      -1.700   0.399   4.761  1.00  0.00     0.187 HD
HETATM   14  N4  UNL     1      -1.360  -1.385   2.225  1.00  0.00    -0.288 N 
ATOM     15  H3  UNL     1      -2.199  -1.928   4.033  1.00  0.00     0.208 HD
ATOM     16  H4  UNL     1      -1.449  -2.251   1.693  1.00  0.00     0.188 HD
ENDBRANCH   4   9
BRANCH   3  17
HETATM   17  C4  UNL     1      -1.935   1.464  -0.846  1.00  0.00     0.168 C 
HETATM   18  N1  UNL     1      -1.416   2.476  -0.217  1.00  0.00    -0.247 N 
ATOM     19  H1  UNL     1      -0.641   2.320   0.428  1.00  0.00     0.196 HD
BRANCH  17  20
HETATM   20  O1  UNL     1      -2.975   1.588  -1.726  1.00  0.00    -0.344 OA
ATOM     21  H1  UNL     1      -3.356   2.440  -1.906  1.00  0.00     0.219 HD
ENDBRANCH  17  20
BRANCH  18  22
HETATM   22  O2  UNL     1      -1.886   3.739  -0.402  1.00  0.00    -0.288 OA
ATOM     23  H2  UNL     1      -1.507   4.479   0.058  1.00  0.00     0.244 HD
ENDBRANCH  18  22
ENDBRANCH   3  17
BRANCH   5  24
HETATM   24  N5  UNL     1       1.996   0.111  -0.436  1.00  0.00    -0.350 N 
HETATM   25  C10 UNL     1       3.243  -0.331  -0.898  1.00  0.00     0.228 C 
HETATM   26  O3  UNL     1       3.523  -1.544  -0.902  1.00  0.00    -0.273 OA
ATOM     27  H5  UNL     1       1.802   1.112  -0.453  1.00  0.00     0.163 HD
BRANCH  25  28
HETATM   28  C11 UNL     1       4.238   0.638  -1.386  1.00  0.00     0.187 C 
HETATM   29 BR1  UNL     1       3.540   2.451  -1.268  1.00  0.00    -0.087 Br
ENDBRANCH  25  28
ENDBRANCH   5  24
TORSDOF 6
