REMARK  6 active torsions:
REMARK  status: ('A' for Active; 'I' for Inactive)
REMARK    1  A    between atoms: O1_1  and  C1_3 
REMARK    2  A    between atoms: C2_7  and  N2_8 
REMARK    3  A    between atoms: N2_8  and  C3_10 
REMARK    4  A    between atoms: C9_16  and  O2_17 
REMARK    5  A    between atoms: C10_20  and  O4_21 
REMARK    6  A    between atoms: C11_23  and  O5_24 
ROOT
HETATM    1  C1  UNL     1      -2.024  -0.384  -1.305  1.00  0.00     0.355 C 
HETATM    2  N1  UNL     1      -0.582  -0.222  -1.165  1.00  0.00    -0.021 N 
ATOM      3  H11 UNL     1      -0.248   0.715  -1.389  1.00  0.00     0.283 HD
ATOM      4  H12 UNL     1      -0.040  -0.713  -1.876  1.00  0.00     0.283 HD
HETATM    5  C2  UNL     1      -0.281  -0.649   0.215  1.00  0.00     0.343 C 
HETATM    6  C9  UNL     1      -0.639   0.452   1.145  1.00  0.00     0.310 C 
HETATM    7  O3  UNL     1      -1.874   0.174   1.728  1.00  0.00    -0.325 OA
HETATM    8  C10 UNL     1      -2.957   0.346   0.919  1.00  0.00     0.293 C 
HETATM    9  C11 UNL     1      -2.689   0.687  -0.502  1.00  0.00     0.229 C 
ENDROOT
BRANCH   5  10
HETATM   10  N2  UNL     1       1.047  -1.153   0.292  1.00  0.00    -0.359 N 
ATOM     11  H2  UNL     1       1.143  -2.118   0.608  1.00  0.00     0.162 HD
BRANCH  10  12
HETATM   12  C3  UNL     1       2.248  -0.478  -0.017  1.00  0.00     0.029 A 
HETATM   13  C4  UNL     1       3.458  -1.134   0.137  1.00  0.00     0.029 A 
HETATM   14  C5  UNL     1       4.683  -0.564  -0.138  1.00  0.00     0.002 A 
HETATM   15  C6  UNL     1       4.677   0.733  -0.589  1.00  0.00     0.000 A 
HETATM   16  C7  UNL     1       3.496   1.415  -0.753  1.00  0.00     0.002 A 
HETATM   17  C8  UNL     1       2.287   0.818  -0.470  1.00  0.00     0.029 A 
ENDBRANCH  10  12
ENDBRANCH   5  10
BRANCH   6  18
HETATM   18  O2  UNL     1       0.282   0.489   2.219  1.00  0.00    -0.367 OA
ATOM     19  H2  UNL     1       0.053   1.193   2.814  1.00  0.00     0.212 HD
ENDBRANCH   6  18
BRANCH   1  20
HETATM   20  O1  UNL     1      -2.464  -1.635  -0.943  1.00  0.00    -0.368 OA
ATOM     21  H1  UNL     1      -3.404  -1.741  -1.034  1.00  0.00     0.212 HD
ENDBRANCH   1  20
BRANCH   9  22
HETATM   22  O5  UNL     1      -3.940   0.922  -1.122  1.00  0.00    -0.386 OA
ATOM     23  H5  UNL     1      -4.363   1.603  -0.612  1.00  0.00     0.210 HD
ENDBRANCH   9  22
BRANCH   8  24
HETATM   24  O4  UNL     1      -3.703  -0.854   0.928  1.00  0.00    -0.368 OA
ATOM     25  H4  UNL     1      -4.458  -0.734   0.364  1.00  0.00     0.212 HD
ENDBRANCH   8  24
TORSDOF 6
