REMARK  7 active torsions:
REMARK  status: ('A' for Active; 'I' for Inactive)
REMARK    1  A    between atoms: C2_2  and  N1_3 
REMARK    2  A    between atoms: C3_5  and  C4_6 
REMARK    3  A    between atoms: C5_7  and  O1_8 
REMARK    4  A    between atoms: C6_10  and  O2_11 
REMARK    5  A    between atoms: C7_13  and  O3_14 
REMARK    6  A    between atoms: C8_16  and  O4_17 
REMARK    7  A    between atoms: C9_19  and  O5_21 
ROOT
HETATM    1  C4  UNL     1       0.195  -0.361  -0.044  1.00  0.00     0.091 C 
HETATM    2  C5  UNL     1      -0.131   0.721   0.957  1.00  0.00     0.161 C 
HETATM    3  C6  UNL     1      -1.533   1.221   0.865  1.00  0.00     0.178 C 
HETATM    4  C7  UNL     1      -2.075   1.106  -0.538  1.00  0.00     0.181 C 
HETATM    5  C8  UNL     1      -1.994  -0.276  -1.098  1.00  0.00     0.184 C 
HETATM    6  C9  UNL     1      -1.076  -1.175  -0.286  1.00  0.00     0.093 C 
HETATM    7  C10 UNL     1      -0.729  -2.406  -1.084  1.00  0.00     0.049 C 
ENDROOT
BRANCH   1   8
HETATM    8  C3  UNL     1       1.264  -1.261   0.404  1.00  0.00     0.066 C 
HETATM    9  N1  UNL     1       2.510  -1.073   0.261  1.00  0.00    -0.402 N 
ATOM     10  H1  UNL     1       3.137  -1.790   0.626  1.00  0.00     0.158 HD
BRANCH   9  11
HETATM   11  C2  UNL     1       3.103   0.054  -0.365  1.00  0.00     0.114 C 
HETATM   12  C1  UNL     1       3.920   0.785   0.701  1.00  0.00     0.026 C 
ENDBRANCH   9  11
ENDBRANCH   1   8
BRANCH   2  13
HETATM   13  O1  UNL     1       0.129   0.233   2.241  1.00  0.00    -0.392 OA
ATOM     14  H1  UNL     1      -0.076   0.914   2.871  1.00  0.00     0.210 HD
ENDBRANCH   2  13
BRANCH   6  15
HETATM   15  O5  UNL     1      -1.604  -1.533   0.928  1.00  0.00    -0.387 OA
ATOM     16  H5  UNL     1      -2.394  -2.039   0.778  1.00  0.00     0.210 HD
ENDBRANCH   6  15
BRANCH   3  17
HETATM   17  O2  UNL     1      -1.513   2.591   1.181  1.00  0.00    -0.390 OA
ATOM     18  H2  UNL     1      -2.406   2.910   1.122  1.00  0.00     0.210 HD
ENDBRANCH   3  17
BRANCH   5  19
HETATM   19  O4  UNL     1      -1.418  -0.187  -2.386  1.00  0.00    -0.390 OA
ATOM     20  H4  UNL     1      -1.366  -1.066  -2.742  1.00  0.00     0.210 HD
ENDBRANCH   5  19
BRANCH   4  21
HETATM   21  O3  UNL     1      -1.383   2.048  -1.318  1.00  0.00    -0.390 OA
ATOM     22  H3  UNL     1      -1.724   1.976  -2.202  1.00  0.00     0.210 HD
ENDBRANCH   4  21
TORSDOF 7
