REMARK  8 active torsions:
REMARK  status: ('A' for Active; 'I' for Inactive)
REMARK    1  A    between atoms: O1_1  and  N1_3 
REMARK    2  A    between atoms: C1_5  and  O2_6 
REMARK    3  A    between atoms: C1_5  and  C2_8 
REMARK    4  A    between atoms: C3_9  and  C4_10 
REMARK    5  A    between atoms: C5_12  and  O4_13 
REMARK    6  A    between atoms: C6_15  and  O5_16 
REMARK    7  A    between atoms: C7_18  and  O6_19 
REMARK    8  A    between atoms: C8_21  and  O7_22 
ROOT
HETATM    1  C4  UNL     1       0.006   0.276   0.599  1.00  0.00     0.179 C 
HETATM    2  O3  UNL     1      -0.577  -0.467   1.590  1.00  0.00    -0.347 OA
HETATM    3  C5  UNL     1      -1.684  -1.182   1.213  1.00  0.00     0.289 C 
HETATM    4  C6  UNL     1      -2.745  -0.342   0.540  1.00  0.00     0.204 C 
HETATM    5  C7  UNL     1      -2.177   0.642  -0.435  1.00  0.00     0.183 C 
HETATM    6  C8  UNL     1      -0.740   0.280  -0.697  1.00  0.00     0.182 C 
ENDROOT
BRANCH   1   7
HETATM    7  C3  UNL     1       1.353  -0.320   0.320  1.00  0.00     0.012 C 
HETATM    8  C2  UNL     1       2.419   0.412   0.115  1.00  0.00     0.056 C 
BRANCH   8   9
HETATM    9  C1  UNL     1       3.684  -0.234  -0.148  1.00  0.00     0.159 C 
HETATM   10  N1  UNL     1       4.781   0.425  -0.360  1.00  0.00    -0.248 N 
ATOM     11  H1  UNL     1       5.639  -0.097  -0.540  1.00  0.00     0.196 HD
BRANCH  10  12
HETATM   12  O1  UNL     1       4.832   1.784  -0.352  1.00  0.00    -0.288 OA
ATOM     13  H1  UNL     1       5.635   2.267  -0.507  1.00  0.00     0.244 HD
ENDBRANCH  10  12
BRANCH   9  14
HETATM   14  O2  UNL     1       3.795  -1.623  -0.189  1.00  0.00    -0.345 OA
ATOM     15  H2  UNL     1       2.992  -2.106  -0.034  1.00  0.00     0.219 HD
ENDBRANCH   9  14
ENDBRANCH   8   9
ENDBRANCH   1   7
BRANCH   6  16
HETATM   16  O7  UNL     1      -0.139   1.233  -1.531  1.00  0.00    -0.390 OA
ATOM     17  H7  UNL     1      -0.613   1.236  -2.354  1.00  0.00     0.210 HD
ENDBRANCH   6  16
BRANCH   3  18
HETATM   18  O4  UNL     1      -1.380  -2.329   0.475  1.00  0.00    -0.368 OA
ATOM     19  H4  UNL     1      -2.147  -2.825   0.214  1.00  0.00     0.212 HD
ENDBRANCH   3  18
BRANCH   5  20
HETATM   20  O6  UNL     1      -2.868   0.692  -1.633  1.00  0.00    -0.390 OA
ATOM     21  H6  UNL     1      -2.508   1.316  -2.252  1.00  0.00     0.210 HD
ENDBRANCH   5  20
BRANCH   4  22
HETATM   22  O5  UNL     1      -3.453   0.326   1.553  1.00  0.00    -0.388 OA
ATOM     23  H5  UNL     1      -4.120   0.854   1.130  1.00  0.00     0.210 HD
ENDBRANCH   4  22
TORSDOF 8
