REMARK  1 active torsions:
REMARK  status: ('A' for Active; 'I' for Inactive)
REMARK       I    between atoms: C1_4  and  N3_6 
REMARK    1  A    between atoms: N3_6  and  N4_8 
ROOT
HETATM    1  N1  UNL     1      -1.617  -1.168  -0.762  1.00  0.00    -0.373 N 
ATOM      2  H11 UNL     1      -0.861  -1.511  -1.354  1.00  0.00     0.158 HD
ATOM      3  H12 UNL     1      -2.584  -1.400  -0.989  1.00  0.00     0.158 HD
HETATM    4  C1  UNL     1      -1.324  -0.445   0.264  1.00  0.00     0.198 C 
HETATM    5  N2  UNL     1      -2.370   0.029   1.083  1.00  0.00    -0.063 NA
HETATM    6  N3  UNL     1       0.018  -0.123   0.579  1.00  0.00    -0.259 N 
ATOM      7  H3  UNL     1       0.351  -0.148   1.543  1.00  0.00     0.186 HD
ENDROOT
BRANCH   6   8
HETATM    8  N4  UNL     1       0.867   0.227  -0.461  1.00  0.00     0.009 NA
HETATM    9  N5  UNL     1       1.691   1.418  -0.053  1.00  0.00    -0.197 N 
HETATM   10  S1  UNL     1       2.577   0.035  -0.259  1.00  0.00     0.350 S 
ATOM     11  H5  UNL     1       1.699   2.409   0.188  1.00  0.00     0.198 HD
HETATM   12  O1  UNL     1       2.961  -0.867   0.865  1.00  0.00    -0.184 OA
HETATM   13  O2  UNL     1       3.333  -0.101  -1.566  1.00  0.00    -0.184 OA
ENDBRANCH   6   8
TORSDOF 1
