REMARK  1 active torsions:
REMARK  status: ('A' for Active; 'I' for Inactive)
REMARK       I    between atoms: C1_4  and  N3_6 
REMARK    1  A    between atoms: N3_6  and  C2_8 
ROOT
HETATM    1  C2  UNL     1       0.459   0.100  -0.364  1.00  0.00     0.181 A 
HETATM    2  N4  UNL     1       0.899  -1.044   0.066  1.00  0.00    -0.290 N 
ATOM      3  H4  UNL     1       0.336  -1.891   0.144  1.00  0.00     0.172 HD
HETATM    4  C3  UNL     1       2.270  -0.950   0.411  1.00  0.00     0.328 A 
HETATM    5  O1  UNL     1       3.010  -1.854   0.857  1.00  0.00    -0.247 OA
HETATM    6  N5  UNL     1       2.676   0.385   0.159  1.00  0.00    -0.272 N 
ATOM      7  H5  UNL     1       3.607   0.776   0.305  1.00  0.00     0.174 HD
HETATM    8  C4  UNL     1       1.531   1.074  -0.338  1.00  0.00     0.293 A 
HETATM    9  O2  UNL     1       1.499   2.299  -0.679  1.00  0.00    -0.264 OA
ENDROOT
BRANCH   1  10
HETATM   10  N3  UNL     1      -0.880   0.388  -0.804  1.00  0.00    -0.312 N 
HETATM   11  C1  UNL     1      -1.927  -0.270  -0.131  1.00  0.00     0.187 C 
HETATM   12  N1  UNL     1      -2.449  -1.319  -0.634  1.00  0.00    -0.373 N 
HETATM   13  N2  UNL     1      -2.397   0.232   1.098  1.00  0.00    -0.064 NA
ATOM     14  H12 UNL     1      -3.208  -1.796  -0.146  1.00  0.00     0.158 HD
ATOM     15  H11 UNL     1      -2.109  -1.683  -1.524  1.00  0.00     0.158 HD
ATOM     16  H3  UNL     1      -1.062   1.039  -1.568  1.00  0.00     0.170 HD
ENDBRANCH   1  10
TORSDOF 1
