REMARK  2 active torsions:
REMARK  status: ('A' for Active; 'I' for Inactive)
REMARK    1  A    between atoms: N1_2  and  N2_3 
REMARK       I    between atoms: N1_2  and  C3_8 
REMARK       I    between atoms: C3_8  and  N5_10 
REMARK    2  A    between atoms: N5_10  and  N6_12 
ROOT
HETATM    1  C1  UNL     1       0.045   0.737   1.463  1.00  0.00     0.183 C 
HETATM    2  N1  UNL     1       0.183  -0.276   0.438  1.00  0.00    -0.244 N 
HETATM    3  C3  UNL     1       1.418  -0.459  -0.242  1.00  0.00     0.354 C 
HETATM    4  O1  UNL     1       1.539  -1.339  -1.134  1.00  0.00    -0.244 OA
HETATM    5  N5  UNL     1       2.566   0.327   0.040  1.00  0.00    -0.257 N 
ATOM      6  H5  UNL     1       2.494   1.048   0.758  1.00  0.00     0.191 HD
ENDROOT
BRANCH   2   7
HETATM    7  N2  UNL     1      -0.917  -1.065   0.132  1.00  0.00    -0.270 N 
HETATM    8  C2  UNL     1      -2.092  -0.632  -0.083  1.00  0.00     0.215 C 
HETATM    9  N3  UNL     1      -2.406   0.754  -0.031  1.00  0.00    -0.065 NA
HETATM   10  N4  UNL     1      -3.125  -1.562  -0.386  1.00  0.00    -0.065 NA
ATOM     11  H2  UNL     1      -0.770  -2.073   0.075  1.00  0.00     0.189 HD
ENDBRANCH   2   7
BRANCH   5  12
HETATM   12  N6  UNL     1       3.784   0.165  -0.612  1.00  0.00    -0.341 N 
ATOM     13  H62 UNL     1       3.838  -0.560  -1.327  1.00  0.00     0.177 HD
ATOM     14  H61 UNL     1       4.609   0.730  -0.409  1.00  0.00     0.177 HD
ENDBRANCH   5  12
TORSDOF 2
