REMARK  2 active torsions:
REMARK  status: ('A' for Active; 'I' for Inactive)
REMARK    1  A    between atoms: N1_2  and  N2_3 
REMARK       I    between atoms: N1_2  and  C3_10 
REMARK       I    between atoms: N2_3  and  C2_5 
REMARK    2  A    between atoms: C3_10  and  C4_12 
ROOT
HETATM    1  C1  UNL     1       0.610  -1.143   1.518  1.00  0.00     0.181 C 
HETATM    2  N1  UNL     1       0.278  -0.103   0.598  1.00  0.00    -0.255 N 
HETATM    3  C3  UNL     1       1.134   0.279  -0.447  1.00  0.00     0.326 C 
HETATM    4  O1  UNL     1       0.740   1.148  -1.321  1.00  0.00    -0.261 OA
ENDROOT
BRANCH   2   5
HETATM    5  N2  UNL     1      -0.928   0.620   0.753  1.00  0.00    -0.269 N 
HETATM    6  C2  UNL     1      -2.205   0.221   0.498  1.00  0.00     0.201 C 
HETATM    7  N3  UNL     1      -2.583  -0.926   0.085  1.00  0.00    -0.372 N 
HETATM    8  N4  UNL     1      -3.256   1.201   0.731  1.00  0.00    -0.062 NA
ATOM      9  H32 UNL     1      -1.847  -1.613  -0.078  1.00  0.00     0.158 HD
ATOM     10  H31 UNL     1      -3.539  -1.225  -0.106  1.00  0.00     0.158 HD
ATOM     11  H2  UNL     1      -0.827   1.572   1.104  1.00  0.00     0.190 HD
ENDBRANCH   2   5
BRANCH   3  12
HETATM   12  C4  UNL     1       2.500  -0.204  -0.696  1.00  0.00     0.324 C 
HETATM   13  N5  UNL     1       3.235   0.122  -1.829  1.00  0.00    -0.053 NA
HETATM   14  O2  UNL     1       2.925  -0.953   0.258  1.00  0.00    -0.266 OA
ENDBRANCH   3  12
TORSDOF 2
