REMARK  3 active torsions:
REMARK  status: ('A' for Active; 'I' for Inactive)
REMARK    1  A    between atoms: N1_1  and  N2_4 
REMARK    2  A    between atoms: C4_14  and  N5_15 
REMARK    3  A    between atoms: N5_15  and  N6_17 
ROOT
HETATM    1  N2  UNL     1      -1.388   2.569  -0.970  1.00  0.00    -0.138 N 
ATOM      2  H2  UNL     1      -0.731   3.065  -1.573  1.00  0.00     0.205 HD
HETATM    3  C1  UNL     1      -1.088   1.423  -0.463  1.00  0.00     0.702 A 
HETATM    4  N3  UNL     1      -1.949   0.672   0.384  1.00  0.00    -0.140 N 
ATOM      5  H3  UNL     1      -2.864   1.063   0.607  1.00  0.00     0.189 HD
HETATM    6  C2  UNL     1      -1.612  -0.582   0.934  1.00  0.00     0.340 A 
HETATM    7  O1  UNL     1      -2.405  -1.232   1.691  1.00  0.00    -0.246 OA
HETATM    8  N4  UNL     1      -0.329  -1.113   0.612  1.00  0.00    -0.292 N 
ATOM      9  H4  UNL     1      -0.052  -2.018   0.993  1.00  0.00     0.172 HD
HETATM   10  C3  UNL     1       0.575  -0.405  -0.232  1.00  0.00     0.141 A 
HETATM   11  C4  UNL     1       1.765  -0.913  -0.523  1.00  0.00     0.155 C 
HETATM   12  N7  UNL     1       0.193   0.857  -0.765  1.00  0.00    -0.174 N 
ATOM     13  H7  UNL     1       0.839   1.365  -1.369  1.00  0.00     0.186 HD
ENDROOT
BRANCH  11  14
HETATM   14  N5  UNL     1       2.213  -2.158  -0.032  1.00  0.00    -0.315 N 
ATOM     15  H5  UNL     1       1.621  -2.980  -0.152  1.00  0.00     0.185 HD
BRANCH  14  16
HETATM   16  N6  UNL     1       3.429  -2.296   0.605  1.00  0.00    -0.345 N 
ATOM     17  H62 UNL     1       4.009  -1.464   0.716  1.00  0.00     0.176 HD
ATOM     18  H61 UNL     1       3.753  -3.196   0.960  1.00  0.00     0.176 HD
ENDBRANCH  14  16
ENDBRANCH  11  14
BRANCH   1  19
HETATM   19  N1  UNL     1      -2.638   3.112  -0.670  1.00  0.00    -0.331 N 
ATOM     20  H12 UNL     1      -3.284   2.604  -0.066  1.00  0.00     0.177 HD
ATOM     21  H11 UNL     1      -2.875   4.019  -1.071  1.00  0.00     0.177 HD
ENDBRANCH   1  19
TORSDOF 3
