REMARK  3 active torsions:
REMARK  status: ('A' for Active; 'I' for Inactive)
REMARK    1  A    between atoms: N1_1  and  N2_4 
REMARK    2  A    between atoms: N2_4  and  C1_6 
REMARK    3  A    between atoms: C3_15  and  N6_16 
REMARK       I    between atoms: N6_16  and  C4_18 
ROOT
HETATM    1  C1  UNL     1      -1.229   0.705   0.220  1.00  0.00     0.179 A 
HETATM    2  N3  UNL     1      -2.374   0.053   0.466  1.00  0.00    -0.277 N 
ATOM      3  H3  UNL     1      -3.199   0.591   0.732  1.00  0.00     0.189 HD
HETATM    4  N4  UNL     1      -2.474  -1.266   0.376  1.00  0.00    -0.250 N 
ATOM      5  H4  UNL     1      -3.370  -1.712   0.575  1.00  0.00     0.192 HD
HETATM    6  C2  UNL     1      -1.422  -2.032   0.028  1.00  0.00     0.340 A 
HETATM    7  O1  UNL     1      -1.516  -3.300  -0.059  1.00  0.00    -0.245 OA
HETATM    8  N5  UNL     1      -0.263  -1.393  -0.223  1.00  0.00    -0.290 N 
ATOM      9  H5  UNL     1       0.552  -1.946  -0.488  1.00  0.00     0.172 HD
HETATM   10  C3  UNL     1      -0.134  -0.050  -0.138  1.00  0.00     0.160 A 
ENDROOT
BRANCH   1  11
HETATM   11  N2  UNL     1      -1.219   1.985   0.331  1.00  0.00    -0.288 N 
ATOM     12  H2  UNL     1      -2.085   2.450   0.603  1.00  0.00     0.188 HD
BRANCH  11  13
HETATM   13  N1  UNL     1      -0.094   2.775   0.102  1.00  0.00    -0.343 N 
ATOM     14  H12 UNL     1       0.763   2.293  -0.169  1.00  0.00     0.176 HD
ATOM     15  H11 UNL     1      -0.086   3.791   0.190  1.00  0.00     0.176 HD
ENDBRANCH  11  13
ENDBRANCH   1  11
BRANCH  10  16
HETATM   16  N6  UNL     1       0.977   0.554  -0.379  1.00  0.00    -0.294 N 
HETATM   17  C4  UNL     1       2.161  -0.114  -0.753  1.00  0.00     0.334 C 
HETATM   18  N7  UNL     1       3.287  -0.075   0.094  1.00  0.00    -0.040 NA
HETATM   19  O2  UNL     1       2.226  -0.742  -1.827  1.00  0.00    -0.251 OA
ATOM     20  H6  UNL     1       1.002   1.570  -0.295  1.00  0.00     0.172 HD
ENDBRANCH  10  16
TORSDOF 3
