REMARK  4 active torsions:
REMARK  status: ('A' for Active; 'I' for Inactive)
REMARK    1  A    between atoms: N1_1  and  N2_4 
REMARK       I    between atoms: N2_4  and  C1_5 
REMARK    2  A    between atoms: C1_5  and  C2_7 
REMARK    3  A    between atoms: C2_7  and  N5_13 
REMARK       I    between atoms: N3_8  and  C3_10 
REMARK    4  A    between atoms: N5_13  and  N6_15 
ROOT
HETATM    1  C2  UNL     1      -0.338  -0.260   0.129  1.00  0.00     0.209 C 
HETATM    2  N3  UNL     1       0.900  -0.068   0.349  1.00  0.00    -0.290 N 
ATOM      3  H3  UNL     1       1.255   0.888   0.387  1.00  0.00     0.172 HD
HETATM    4  C3  UNL     1       1.798  -1.143   0.542  1.00  0.00     0.334 C 
HETATM    5  N4  UNL     1       2.949  -1.196  -0.282  1.00  0.00    -0.040 NA
HETATM    6  O2  UNL     1       1.631  -2.048   1.392  1.00  0.00    -0.251 OA
ENDROOT
BRANCH   1   7
HETATM    7  C1  UNL     1      -1.250   0.927  -0.068  1.00  0.00     0.380 C 
HETATM    8  N2  UNL     1      -0.752   2.161  -0.007  1.00  0.00    -0.285 NA
HETATM    9  O1  UNL     1      -2.456   0.584  -0.284  1.00  0.00    -0.246 OA
BRANCH   8  10
HETATM   10  N1  UNL     1      -0.247   3.411   0.055  1.00  0.00    -0.276 N 
ATOM     11  H12 UNL     1      -0.611   2.459   0.016  1.00  0.00     0.191 HD
ATOM     12  H11 UNL     1       0.134   4.356   0.102  1.00  0.00     0.191 HD
ENDBRANCH   8  10
ENDBRANCH   1   7
BRANCH   1  13
HETATM   13  N5  UNL     1      -0.830  -1.580   0.081  1.00  0.00    -0.286 N 
ATOM     14  H5  UNL     1      -0.406  -2.254  -0.556  1.00  0.00     0.188 HD
BRANCH  13  15
HETATM   15  N6  UNL     1      -1.855  -1.959   0.868  1.00  0.00    -0.343 N 
ATOM     16  H62 UNL     1      -2.268  -1.272   1.499  1.00  0.00     0.176 HD
ATOM     17  H61 UNL     1      -2.211  -2.914   0.833  1.00  0.00     0.176 HD
ENDBRANCH  13  15
ENDBRANCH   1  13
TORSDOF 4
