REMARK  2 active torsions:
REMARK  status: ('A' for Active; 'I' for Inactive)
REMARK    1  A    between atoms: C1_2  and  C2_4 
REMARK    2  A    between atoms: C9_12  and  C10_13 
ROOT
HETATM    1  C2  UNL     1       1.555  -0.794  -0.109  1.00  0.00     0.103 C 
HETATM    2  C3  UNL     1       1.460  -0.776   1.385  1.00  0.00     0.018 C 
HETATM    3  C4  UNL     1       0.079  -0.236   1.729  1.00  0.00     0.022 C 
HETATM    4  C5  UNL     1      -0.596  -0.031   0.432  1.00  0.00     0.022 C 
HETATM    5  C6  UNL     1      -1.495  -1.096  -0.030  1.00  0.00     0.022 C 
HETATM    6  C7  UNL     1      -2.879  -0.641  -0.192  1.00  0.00     0.012 C 
HETATM    7  C8  UNL     1      -2.935   0.773  -0.648  1.00  0.00     0.075 C 
HETATM    8  S1  UNL     1      -1.601   1.501   0.389  1.00  0.00    -0.158 SA
HETATM    9  C9  UNL     1       0.502   0.169  -0.619  1.00  0.00     0.119 C 
ENDROOT
BRANCH   9  10
HETATM   10  C10 UNL     1       0.959   1.571  -0.612  1.00  0.00     0.179 C 
HETATM   11  O3  UNL     1       0.990   2.190  -1.703  1.00  0.00    -0.648 OA
HETATM   12  O4  UNL     1       1.332   2.132   0.597  1.00  0.00    -0.648 OA
ENDBRANCH   9  10
BRANCH   1  13
HETATM   13  C1  UNL     1       2.860  -0.352  -0.628  1.00  0.00     0.177 C 
HETATM   14  O1  UNL     1       3.773  -0.004   0.141  1.00  0.00    -0.648 OA
HETATM   15  O2  UNL     1       3.052  -0.331  -1.991  1.00  0.00    -0.648 OA
ENDBRANCH   1  13
TORSDOF 2
