REMARK  2 active torsions:
REMARK  status: ('A' for Active; 'I' for Inactive)
REMARK       I    between atoms: N1_2  and  C2_4 
REMARK       I    between atoms: C2_4  and  N3_9 
REMARK    1  A    between atoms: N2_5  and  O1_7 
REMARK       I    between atoms: N3_9  and  C4_11 
REMARK    2  A    between atoms: C4_11  and  C5_13 
ROOT
HETATM    1  C1  UNL     1       3.793  -1.906   0.603  1.00  0.00     0.165 C 
HETATM    2  N1  UNL     1       3.313  -0.536   0.459  1.00  0.00    -0.229 N 
ATOM      3  H1  UNL     1       3.542   0.146   1.182  1.00  0.00     0.177 HD
HETATM    4  C2  UNL     1       2.537  -0.123  -0.656  1.00  0.00     0.700 C 
HETATM    5  N2  UNL     1       3.158   0.116  -1.765  1.00  0.00    -0.097 N 
ATOM      6  H2  UNL     1       2.616   0.414  -2.577  1.00  0.00     0.213 HD
HETATM    7  N3  UNL     1       1.132   0.022  -0.559  1.00  0.00    -0.158 N 
ATOM      8  H3  UNL     1       0.607   0.320  -1.381  1.00  0.00     0.187 HD
HETATM    9  C4  UNL     1       0.437  -0.235   0.645  1.00  0.00     0.240 C 
HETATM   10  O2  UNL     1       1.132  -0.606   1.649  1.00  0.00    -0.272 OA
ENDROOT
BRANCH   9  11
HETATM   11  C5  UNL     1      -1.030  -0.092   0.779  1.00  0.00     0.079 C 
HETATM   12  C6  UNL     1      -1.495   1.294   0.496  1.00  0.00     0.014 C 
HETATM   13  C7  UNL     1      -2.768   1.435  -0.226  1.00  0.00     0.005 C 
HETATM   14  C8  UNL     1      -3.710   0.313  -0.235  1.00  0.00    -0.019 C 
HETATM   15  C9  UNL     1      -4.965   0.622   0.596  1.00  0.00     0.010 C 
HETATM   16  C10 UNL     1      -3.187  -0.997   0.271  1.00  0.00     0.005 C 
HETATM   17  C11 UNL     1      -1.715  -1.062  -0.154  1.00  0.00     0.014 C 
ENDBRANCH   9  11
BRANCH   5  18
HETATM   18  O1  UNL     1       4.519  -0.016  -1.891  1.00  0.00    -0.272 OA
HETATM   19  C3  UNL     1       5.393   0.856  -1.172  1.00  0.00     0.238 C 
ENDBRANCH   5  18
TORSDOF 2
