REMARK  6 active torsions:
REMARK  status: ('A' for Active; 'I' for Inactive)
REMARK    1  A    between atoms: C2_2  and  S1_4 
REMARK    2  A    between atoms: S1_4  and  C4_5 
REMARK    3  A    between atoms: N1_12  and  C11_13 
REMARK    4  A    between atoms: C11_13  and  C12_14 
REMARK    5  A    between atoms: C12_14  and  O1_15 
REMARK    6  A    between atoms: C17_22  and  O3_24 
ROOT
HETATM    1  C4  UNL     1      -2.035   0.273   0.623  1.00  0.00     0.086 C 
HETATM    2  C5  UNL     1      -1.264  -0.541  -0.260  1.00  0.00     0.010 C 
HETATM    3  C6  UNL     1      -1.494  -1.954  -0.598  1.00  0.00     0.010 C 
HETATM    4  C7  UNL     1      -0.076  -2.283  -1.158  1.00  0.00     0.043 C 
HETATM    5  C8  UNL     1       0.838  -1.274  -0.558  1.00  0.00     0.085 C 
HETATM    6  C9  UNL     1       2.126  -1.704  -0.093  1.00  0.00     0.028 C 
HETATM    7  C10 UNL     1       3.225  -0.949   0.016  1.00  0.00     0.084 C 
HETATM    8  N1  UNL     1       3.384   0.430  -0.294  1.00  0.00    -0.386 N 
HETATM    9  C13 UNL     1       2.373   1.479  -0.265  1.00  0.00     0.154 C 
HETATM   10  C14 UNL     1       0.961   0.974  -0.352  1.00  0.00     0.148 C 
HETATM   11  O2  UNL     1       0.966  -0.079  -1.243  1.00  0.00    -0.368 OA
HETATM   12  C15 UNL     1       0.380   0.524   0.943  1.00  0.00     0.059 C 
HETATM   13  C16 UNL     1      -0.007  -0.843   0.613  1.00  0.00     0.039 C 
HETATM   14  C17 UNL     1      -0.939   1.098   1.348  1.00  0.00     0.073 C 
HETATM   15  C18 UNL     1      -1.104   0.782   2.840  1.00  0.00     0.047 C 
ENDROOT
BRANCH   1  16
HETATM   16  S1  UNL     1      -2.978   1.509  -0.286  1.00  0.00    -0.157 SA
BRANCH  16  17
HETATM   17  C2  UNL     1      -4.287   0.947  -1.318  1.00  0.00     0.039 C 
HETATM   18  C1  UNL     1      -5.409   0.244  -0.556  1.00  0.00     0.021 C 
HETATM   19  C3  UNL     1      -3.852   0.111  -2.462  1.00  0.00     0.021 C 
ENDBRANCH  16  17
ENDBRANCH   1  16
BRANCH  14  20
HETATM   20  O3  UNL     1      -1.042   2.440   1.140  1.00  0.00    -0.389 OA
ATOM     21  H3  UNL     1      -0.371   2.945   1.584  1.00  0.00     0.210 HD
ENDBRANCH  14  20
BRANCH   8  22
HETATM   22  C11 UNL     1       4.658   0.932  -0.695  1.00  0.00     0.148 C 
BRANCH  22  23
HETATM   23  C12 UNL     1       5.694  -0.137  -0.751  1.00  0.00     0.183 C 
BRANCH  23  24
HETATM   24  O1  UNL     1       5.344  -1.146  -1.650  1.00  0.00    -0.399 OA
ATOM     25  H1  UNL     1       6.005  -1.828  -1.686  1.00  0.00     0.209 HD
ENDBRANCH  23  24
ENDBRANCH  22  23
ENDBRANCH   8  22
TORSDOF 6
