REMARK  3 active torsions:
REMARK  status: ('A' for Active; 'I' for Inactive)
REMARK    1  A    between atoms: N1_2  and  C2_4 
REMARK    2  A    between atoms: C10_18  and  O1_19 
REMARK    3  A    between atoms: O1_19  and  N5_20 
REMARK       I    between atoms: N5_20  and  C11_22 
ROOT
HETATM    1  C2  UNL     1      -2.732   1.077   0.150  1.00  0.00     0.132 A 
HETATM    2  N2  UNL     1      -3.014   2.370  -0.121  1.00  0.00    -0.318 N 
ATOM      3  H2  UNL     1      -3.986   2.677  -0.153  1.00  0.00     0.170 HD
HETATM    4  C3  UNL     1      -2.026   3.262  -0.350  1.00  0.00     0.177 A 
HETATM    5  S1  UNL     1      -2.414   4.817  -0.672  1.00  0.00    -0.040 SA
HETATM    6  N3  UNL     1      -0.742   2.864  -0.310  1.00  0.00    -0.334 N 
ATOM      7  H3  UNL     1      -0.002   3.544  -0.484  1.00  0.00     0.168 HD
HETATM    8  C4  UNL     1      -0.413   1.580  -0.043  1.00  0.00     0.044 A 
HETATM    9  C5  UNL     1      -1.423   0.685   0.188  1.00  0.00     0.098 A 
HETATM   10  N4  UNL     1      -1.025  -0.657   0.465  1.00  0.00    -0.369 N 
HETATM   11  C6  UNL     1      -1.836  -1.864   0.510  1.00  0.00     0.124 C 
HETATM   12  C7  UNL     1      -0.860  -3.040   0.444  1.00  0.00     0.022 C 
HETATM   13  C8  UNL     1       0.459  -2.383   0.112  1.00  0.00     0.029 C 
HETATM   14  C9  UNL     1       0.311  -1.025   0.760  1.00  0.00     0.116 C 
HETATM   15  C10 UNL     1       1.403  -0.098   0.374  1.00  0.00     0.180 C 
HETATM   16  C13 UNL     1       1.017   1.269  -0.035  1.00  0.00     0.096 C 
ENDROOT
BRANCH  15  17
HETATM   17  O1  UNL     1       2.094  -0.684  -0.688  1.00  0.00    -0.270 OA
BRANCH  17  18
HETATM   18  N5  UNL     1       3.385  -0.948  -0.408  1.00  0.00    -0.235 N 
HETATM   19  C11 UNL     1       4.398   0.021  -0.240  1.00  0.00     0.237 C 
HETATM   20  C12 UNL     1       5.795  -0.360   0.069  1.00  0.00     0.119 C 
HETATM   21  O2  UNL     1       4.135   1.251  -0.351  1.00  0.00    -0.272 OA
ATOM     22  H5  UNL     1       3.652  -1.927  -0.309  1.00  0.00     0.197 HD
ENDBRANCH  17  18
ENDBRANCH  15  17
BRANCH   1  23
HETATM   23  N1  UNL     1      -3.675   0.220   0.365  1.00  0.00    -0.379 N 
HETATM   24  C1  UNL     1      -5.051   0.645   0.317  1.00  0.00     0.147 C 
ATOM     25  H1  UNL     1      -3.446  -0.753   0.568  1.00  0.00     0.160 HD
ENDBRANCH   1  23
TORSDOF 3
