REMARK  5 active torsions:
REMARK  status: ('A' for Active; 'I' for Inactive)
REMARK    1  A    between atoms: C4_4  and  C5_5 
REMARK    2  A    between atoms: C9_9  and  O1_10 
REMARK    3  A    between atoms: C13_15  and  O2_16 
REMARK    4  A    between atoms: N1_19  and  N2_21 
REMARK    5  A    between atoms: N2_21  and  C15_23 
ROOT
HETATM    1  C5  UNL     1       1.704  -0.524  -0.306  1.00  0.00     0.014 C 
HETATM    2  C6  UNL     1       0.419  -0.735  -0.158  1.00  0.00    -0.009 C 
HETATM    3  C7  UNL     1      -0.118  -1.988   0.299  1.00  0.00     0.012 C 
HETATM    4  C8  UNL     1      -1.402  -2.167   0.434  1.00  0.00     0.015 C 
HETATM    5  C9  UNL     1      -2.387  -1.126   0.137  1.00  0.00     0.112 C 
HETATM    6  C10 UNL     1      -3.388  -1.162   1.305  1.00  0.00     0.046 C 
HETATM    7  C11 UNL     1      -2.643  -0.357   2.339  1.00  0.00     0.007 C 
HETATM    8  C12 UNL     1      -1.930   0.730   1.561  1.00  0.00     0.048 C 
HETATM    9  C13 UNL     1      -1.888   0.276   0.122  1.00  0.00     0.136 C 
HETATM   10  C14 UNL     1      -0.541   0.359  -0.472  1.00  0.00     0.073 C 
HETATM   11  N1  UNL     1      -0.124   1.280  -1.226  1.00  0.00    -0.299 N 
ATOM     12  H1  UNL     1       0.838   1.191  -1.553  1.00  0.00     0.186 HD
ENDROOT
BRANCH   9  13
HETATM   13  O2  UNL     1      -2.752   1.049  -0.653  1.00  0.00    -0.380 OA
ATOM     14  H2  UNL     1      -2.433   1.944  -0.663  1.00  0.00     0.211 HD
ENDBRANCH   9  13
BRANCH  11  15
HETATM   15  N2  UNL     1      -0.811   2.389  -1.660  1.00  0.00    -0.278 N 
ATOM     16  H2  UNL     1      -1.507   2.262  -2.395  1.00  0.00     0.189 HD
BRANCH  15  17
HETATM   17  C15 UNL     1      -0.614   3.697  -1.152  1.00  0.00     0.199 C 
HETATM   18  N3  UNL     1      -1.365   4.791  -1.655  1.00  0.00    -0.068 NA
HETATM   19  S1  UNL     1       0.474   4.016   0.024  1.00  0.00    -0.043 SA
ENDBRANCH  15  17
ENDBRANCH  11  15
BRANCH   1  20
HETATM   20  C4  UNL     1       2.725  -1.516  -0.030  1.00  0.00     0.003 C 
HETATM   21  C2  UNL     1       4.013  -1.248  -0.197  1.00  0.00    -0.088 C 
HETATM   22  C1  UNL     1       4.459   0.080  -0.673  1.00  0.00     0.043 C 
HETATM   23  C3  UNL     1       5.013  -2.290   0.097  1.00  0.00     0.043 C 
ENDBRANCH   1  20
BRANCH   5  24
HETATM   24  O1  UNL     1      -3.035  -1.471  -1.053  1.00  0.00    -0.382 OA
ATOM     25  H1  UNL     1      -3.674  -0.795  -1.246  1.00  0.00     0.211 HD
ENDBRANCH   5  24
TORSDOF 5
