REMARK  4 active torsions:
REMARK  status: ('A' for Active; 'I' for Inactive)
REMARK    1  A    between atoms: O1_1  and  C1_3 
REMARK    2  A    between atoms: C2_4  and  O2_5 
REMARK    3  A    between atoms: O2_5  and  C3_6 
REMARK    4  A    between atoms: C16_23  and  O3_24 
ROOT
HETATM    1  C1  UNL     1       0.783  -2.036  -0.649  1.00  0.00     0.176 C 
HETATM    2  C2  UNL     1       0.916  -0.565  -0.799  1.00  0.00     0.153 C 
HETATM    3  C8  UNL     1      -0.362   0.209  -0.738  1.00  0.00     0.042 C 
HETATM    4  C9  UNL     1      -1.510  -0.634  -0.331  1.00  0.00     0.024 C 
HETATM    5  C10 UNL     1      -1.176  -1.540   0.845  1.00  0.00     0.024 C 
HETATM    6  C11 UNL     1      -2.535  -2.180   1.037  1.00  0.00     0.010 C 
HETATM    7  C12 UNL     1      -3.505  -1.063   0.808  1.00  0.00     0.033 C 
HETATM    8  C13 UNL     1      -2.700   0.090   0.193  1.00  0.00     0.049 C 
HETATM    9  C14 UNL     1      -2.423   1.066   1.279  1.00  0.00     0.050 C 
HETATM   10  C15 UNL     1      -2.670   2.496   0.921  1.00  0.00     0.135 C 
HETATM   11  N1  UNL     1      -3.668   2.685  -0.094  1.00  0.00    -0.127 NA
HETATM   12  N2  UNL     1      -3.253   1.916  -1.210  1.00  0.00    -0.035 NA
HETATM   13  N3  UNL     1      -3.464   0.599  -0.904  1.00  0.00    -0.313 N 
ATOM     14  H3  UNL     1      -4.122   0.019  -1.424  1.00  0.00     0.178 HD
HETATM   15  C16 UNL     1      -0.121  -2.511   0.424  1.00  0.00     0.154 C 
ENDROOT
BRANCH   2  16
HETATM   16  O2  UNL     1       1.876  -0.094   0.097  1.00  0.00    -0.378 OA
BRANCH  16  17
HETATM   17  C3  UNL     1       2.995   0.419  -0.523  1.00  0.00     0.122 C 
HETATM   18  C4  UNL     1       4.282  -0.209  -0.061  1.00  0.00     0.032 C 
HETATM   19  C5  UNL     1       5.331   0.872  -0.334  1.00  0.00     0.002 C 
HETATM   20  C6  UNL     1       4.605   2.148   0.029  1.00  0.00     0.002 C 
HETATM   21  C7  UNL     1       3.134   1.872  -0.106  1.00  0.00     0.032 C 
ENDBRANCH  16  17
ENDBRANCH   2  16
BRANCH   1  22
HETATM   22  O1  UNL     1       0.464  -2.633  -1.888  1.00  0.00    -0.390 OA
ATOM     23  H1  UNL     1       0.379  -3.574  -1.792  1.00  0.00     0.210 HD
ENDBRANCH   1  22
BRANCH  15  24
HETATM   24  O3  UNL     1      -0.770  -3.676  -0.046  1.00  0.00    -0.393 OA
ATOM     25  H3  UNL     1      -1.350  -3.981   0.642  1.00  0.00     0.210 HD
ENDBRANCH  15  24
TORSDOF 4
