REMARK  3 active torsions:
REMARK  status: ('A' for Active; 'I' for Inactive)
REMARK    1  A    between atoms: C2_2  and  C3_3 
REMARK    2  A    between atoms: C13_15  and  N2_16 
REMARK    3  A    between atoms: C14_20  and  C15_21 
ROOT
HETATM    1  C3  UNL     1      -1.113   0.768   1.435  1.00  0.00     0.023 C 
HETATM    2  C4  UNL     1       0.355   0.396   1.341  1.00  0.00     0.062 C 
HETATM    3  C5  UNL     1       0.501  -0.896   2.155  1.00  0.00     0.013 C 
HETATM    4  C6  UNL     1      -0.654  -1.815   1.943  1.00  0.00     0.008 C 
HETATM    5  C7  UNL     1      -1.443  -1.538   0.694  1.00  0.00     0.013 C 
HETATM    6  C8  UNL     1      -0.649  -1.869  -0.555  1.00  0.00     0.087 C 
HETATM    7  C9  UNL     1      -1.587  -1.887  -1.717  1.00  0.00     0.025 C 
HETATM    8  C10 UNL     1      -2.596  -0.791  -1.707  1.00  0.00     0.002 C 
HETATM    9  C11 UNL     1      -2.242   0.342  -0.768  1.00  0.00     0.006 C 
HETATM   10  C12 UNL     1      -1.996  -0.148   0.622  1.00  0.00    -0.000 C 
HETATM   11  N1  UNL     1       0.368  -0.860  -0.786  1.00  0.00    -0.373 N 
ATOM     12  H1  UNL     1       0.812  -0.908  -1.703  1.00  0.00     0.161 HD
HETATM   13  C13 UNL     1       0.812   0.101  -0.016  1.00  0.00     0.100 C 
ENDROOT
BRANCH  13  14
HETATM   14  N2  UNL     1       1.812   0.866  -0.623  1.00  0.00    -0.234 N 
HETATM   15  N3  UNL     1       1.636   2.099  -1.257  1.00  0.00    -0.007 NA
HETATM   16  N4  UNL     1       2.482   1.975  -2.364  1.00  0.00    -0.015 NA
HETATM   17  N5  UNL     1       3.656   1.494  -1.758  1.00  0.00    -0.090 NA
HETATM   18  C14 UNL     1       3.229   0.571  -0.734  1.00  0.00     0.317 C 
BRANCH  18  19
HETATM   19  C15 UNL     1       3.495  -0.795  -1.173  1.00  0.00     0.216 C 
HETATM   20  O1  UNL     1       4.015  -1.013  -2.285  1.00  0.00    -0.645 OA
HETATM   21  O2  UNL     1       3.179  -1.870  -0.369  1.00  0.00    -0.645 OA
ENDBRANCH  18  19
ENDBRANCH  13  14
BRANCH   1  22
HETATM   22  C2  UNL     1      -1.315   2.195   1.079  1.00  0.00    -0.031 C 
HETATM   23  C1  UNL     1      -1.718   3.043   1.996  1.00  0.00     0.007 C 
ENDBRANCH   1  22
TORSDOF 3
