REMARK  6 active torsions:
REMARK  status: ('A' for Active; 'I' for Inactive)
REMARK       I    between atoms: N1_2  and  C2_4 
REMARK       I    between atoms: C2_4  and  N2_6 
REMARK    1  A    between atoms: N2_6  and  N3_8 
REMARK    2  A    between atoms: N3_8  and  C3_9 
REMARK    3  A    between atoms: C3_9  and  O2_10 
REMARK    4  A    between atoms: C3_9  and  C4_12 
REMARK    5  A    between atoms: C4_12  and  N4_14 
REMARK    6  A    between atoms: C10_19  and  O3_20 
ROOT
HETATM    1  N4  UNL     1      -0.480  -0.915   0.605  1.00  0.00    -0.294 N 
HETATM    2  C6  UNL     1      -1.713  -1.380   0.265  1.00  0.00     0.022 A 
HETATM    3  C7  UNL     1      -2.115  -2.835   0.317  1.00  0.00     0.069 C 
HETATM    4  C8  UNL     1      -2.539  -0.319  -0.088  1.00  0.00    -0.025 A 
HETATM    5  C9  UNL     1      -1.755   0.779   0.059  1.00  0.00     0.002 A 
HETATM    6  C10 UNL     1      -0.495   0.431   0.483  1.00  0.00     0.154 A 
HETATM    7  C11 UNL     1      -2.076   2.200  -0.135  1.00  0.00     0.043 C 
HETATM    8  C12 UNL     1      -3.358   2.477  -0.884  1.00  0.00     0.005 C 
HETATM    9  C13 UNL     1      -4.452   1.853  -0.015  1.00  0.00     0.001 C 
HETATM   10  C14 UNL     1      -4.813   0.587  -0.699  1.00  0.00     0.005 C 
HETATM   11  C15 UNL     1      -3.900  -0.555  -0.505  1.00  0.00     0.041 C 
ENDROOT
BRANCH   1  12
HETATM   12  C4  UNL     1       0.631  -1.750   1.038  1.00  0.00     0.082 C 
HETATM   13  C5  UNL     1       0.946  -2.911   0.170  1.00  0.00     0.075 C 
BRANCH  12  14
HETATM   14  C3  UNL     1       1.802  -0.936   1.517  1.00  0.00     0.261 C 
BRANCH  14  15
HETATM   15  N3  UNL     1       2.988  -0.753   0.911  1.00  0.00    -0.294 NA
BRANCH  15  16
HETATM   16  N2  UNL     1       4.181  -0.560   0.316  1.00  0.00    -0.182 N 
HETATM   17  C2  UNL     1       4.719   0.567  -0.320  1.00  0.00     0.344 C 
HETATM   18  N1  UNL     1       6.101   0.516  -0.746  1.00  0.00    -0.345 N 
HETATM   19  O1  UNL     1       4.123   1.620  -0.548  1.00  0.00    -0.245 OA
HETATM   20  C1  UNL     1       6.646   1.685  -1.381  1.00  0.00     0.151 C 
ATOM     21  H1  UNL     1       6.668  -0.319  -0.601  1.00  0.00     0.163 HD
ATOM     22  H2  UNL     1       4.798  -1.372   0.331  1.00  0.00     0.207 HD
ENDBRANCH  15  16
ENDBRANCH  14  15
BRANCH  14  23
HETATM   23  O2  UNL     1       1.561  -0.360   2.671  1.00  0.00    -0.333 OA
ATOM     24  H2  UNL     1       0.723  -0.489   3.099  1.00  0.00     0.220 HD
ENDBRANCH  14  23
ENDBRANCH  12  14
ENDBRANCH   1  12
BRANCH   6  25
HETATM   25  O3  UNL     1       0.556   1.364   0.722  1.00  0.00    -0.345 OA
ATOM     26  H3  UNL     1       0.545   2.310   0.636  1.00  0.00     0.219 HD
ENDBRANCH   6  25
TORSDOF 6
