REMARK  2 active torsions:
REMARK  status: ('A' for Active; 'I' for Inactive)
REMARK    1  A    between atoms: N6_19  and  C10_20 
REMARK    2  A    between atoms: C10_20  and  C11_21 
ROOT
HETATM    1  C1  UNL     1      -0.367  -0.445  -2.805  1.00  0.00     0.024 C 
HETATM    2  C2  UNL     1      -0.714  -1.462  -1.756  1.00  0.00     0.075 C 
HETATM    3  S1  UNL     1       0.249  -2.969  -2.043  1.00  0.00    -0.088 SA
HETATM    4  C3  UNL     1       1.236  -3.284  -0.602  1.00  0.00     0.134 C 
HETATM    5  N1  UNL     1       2.100  -4.241  -0.632  1.00  0.00    -0.380 N 
ATOM      6  H11 UNL     1       2.667  -4.422   0.196  1.00  0.00     0.158 HD
ATOM      7  H12 UNL     1       2.245  -4.830  -1.452  1.00  0.00     0.158 HD
HETATM    8  N2  UNL     1       1.035  -2.465   0.537  1.00  0.00    -0.361 N 
ATOM      9  H2  UNL     1       1.192  -2.839   1.473  1.00  0.00     0.162 HD
HETATM   10  C4  UNL     1       0.612  -1.113   0.365  1.00  0.00     0.157 C 
HETATM   11  C5  UNL     1       1.735  -0.346  -0.277  1.00  0.00     0.355 C 
HETATM   12  N3  UNL     1       2.850  -0.347   0.667  1.00  0.00    -0.125 NA
HETATM   13  N4  UNL     1       3.609   0.750   0.313  1.00  0.00    -0.209 NA
HETATM   14  C6  UNL     1       4.107   1.351   1.532  1.00  0.00     0.134 C 
HETATM   15  C7  UNL     1       2.786   1.624  -0.471  1.00  0.00     0.384 C 
HETATM   16  N5  UNL     1       1.438   1.032  -0.489  1.00  0.00     0.127 N 
HETATM   17  C8  UNL     1       0.711   1.673   0.558  1.00  0.00     0.295 C 
HETATM   18  C9  UNL     1      -0.715   1.201   0.724  1.00  0.00     0.147 C 
HETATM   19  N6  UNL     1      -1.201   0.352  -0.294  1.00  0.00    -0.403 N 
HETATM   20  C14 UNL     1      -0.694  -0.976  -0.355  1.00  0.00     0.119 C 
ENDROOT
BRANCH  19  21
HETATM   21  C10 UNL     1      -2.576   0.506  -0.620  1.00  0.00     0.122 C 
BRANCH  21  22
HETATM   22  C11 UNL     1      -3.578   0.081   0.388  1.00  0.00     0.003 A 
HETATM   23  C12 UNL     1      -3.700   0.653   1.751  1.00  0.00     0.007 A 
HETATM   24  C13 UNL     1      -4.694   1.048   0.685  1.00  0.00     0.007 A 
ENDBRANCH  21  22
ENDBRANCH  19  21
TORSDOF 2
