REMARK  6 active torsions:
REMARK  status: ('A' for Active; 'I' for Inactive)
REMARK    1  A    between atoms: C2_2  and  C3_3 
REMARK    2  A    between atoms: C3_3  and  C4_4 
REMARK    3  A    between atoms: C6_6  and  O1_8 
REMARK    4  A    between atoms: C12_15  and  O3_16 
REMARK    5  A    between atoms: C14_19  and  O4_20 
REMARK    6  A    between atoms: C15_22  and  O5_23 
ROOT
HETATM    1  C4  UNL     1      -1.195   0.007   0.489  1.00  0.00     0.047 C 
HETATM    2  C5  UNL     1      -0.805   0.762   1.758  1.00  0.00     0.024 C 
HETATM    3  C6  UNL     1      -1.610  -1.382   0.969  1.00  0.00     0.084 C 
HETATM    4  C7  UNL     1      -2.182  -2.231  -0.139  1.00  0.00     0.051 C 
HETATM    5  C8  UNL     1      -0.521  -2.101   1.628  1.00  0.00     0.010 C 
HETATM    6  C9  UNL     1       0.732  -2.243   1.230  1.00  0.00     0.010 C 
HETATM    7  C10 UNL     1       1.311  -1.680  -0.018  1.00  0.00     0.083 C 
HETATM    8  C11 UNL     1       2.225  -2.718  -0.635  1.00  0.00     0.051 C 
HETATM    9  O2  UNL     1       0.288  -1.332  -0.851  1.00  0.00    -0.339 OA
HETATM   10  C12 UNL     1      -0.112  -0.017  -0.519  1.00  0.00     0.180 C 
HETATM   11  C13 UNL     1       1.151   0.698  -0.140  1.00  0.00     0.087 C 
HETATM   12  C14 UNL     1       1.919   1.293  -1.280  1.00  0.00     0.156 C 
HETATM   13  C15 UNL     1       3.345   1.186  -0.709  1.00  0.00     0.148 C 
HETATM   14  C16 UNL     1       3.364  -0.297  -0.409  1.00  0.00     0.043 C 
HETATM   15  C17 UNL     1       2.060  -0.436   0.355  1.00  0.00     0.038 C 
ENDROOT
BRANCH   1  16
HETATM   16  C3  UNL     1      -2.458   0.645  -0.008  1.00  0.00     0.018 C 
BRANCH  16  17
HETATM   17  C2  UNL     1      -2.395   2.092  -0.316  1.00  0.00    -0.004 C 
HETATM   18  C1  UNL     1      -3.744   2.615  -0.821  1.00  0.00     0.005 C 
ENDBRANCH  16  17
ENDBRANCH   1  16
BRANCH   3  19
HETATM   19  O1  UNL     1      -2.631  -1.167   1.904  1.00  0.00    -0.385 OA
ATOM     20  H1  UNL     1      -2.889  -2.031   2.203  1.00  0.00     0.211 HD
ENDBRANCH   3  19
BRANCH  10  21
HETATM   21  O3  UNL     1      -0.625   0.450  -1.735  1.00  0.00    -0.364 OA
ATOM     22  H3  UNL     1       0.070   0.435  -2.382  1.00  0.00     0.213 HD
ENDBRANCH  10  21
BRANCH  12  23
HETATM   23  O4  UNL     1       1.697   2.639  -1.478  1.00  0.00    -0.392 OA
ATOM     24  H4  UNL     1       2.184   3.016  -2.201  1.00  0.00     0.210 HD
ENDBRANCH  12  23
BRANCH  13  25
HETATM   25  O5  UNL     1       3.423   1.908   0.481  1.00  0.00    -0.393 OA
ATOM     26  H5  UNL     1       4.303   1.842   0.833  1.00  0.00     0.210 HD
ENDBRANCH  13  25
TORSDOF 6
