REMARK  4 active torsions:
REMARK  status: ('A' for Active; 'I' for Inactive)
REMARK    1  A    between atoms: C1_2  and  C2_4 
REMARK    2  A    between atoms: C5_8  and  C6_9 
REMARK    3  A    between atoms: C6_9  and  O3_10 
REMARK    4  A    between atoms: C14_22  and  O4_23 
ROOT
HETATM    1  C2  UNL     1      -0.450   1.844   1.230  1.00  0.00     0.091 A 
HETATM    2  S1  UNL     1      -2.015   1.386   1.820  1.00  0.00    -0.084 SA
HETATM    3  C3  UNL     1      -2.219  -0.050   1.040  1.00  0.00     0.019 A 
HETATM    4  C4  UNL     1      -1.031  -0.222   0.271  1.00  0.00    -0.032 A 
HETATM    5  C5  UNL     1      -0.127   0.771   0.385  1.00  0.00     0.007 A 
HETATM    6  C11 UNL     1      -1.226  -1.554  -0.438  1.00  0.00     0.040 C 
HETATM    7  C12 UNL     1      -2.488  -1.336  -1.309  1.00  0.00     0.007 C 
HETATM    8  C13 UNL     1      -3.656  -1.527  -0.387  1.00  0.00     0.037 C 
HETATM    9  C14 UNL     1      -3.287  -1.098   0.983  1.00  0.00     0.158 C 
ENDROOT
BRANCH   5  10
HETATM   10  C6  UNL     1       1.256   0.785  -0.231  1.00  0.00     0.090 C 
HETATM   11  C7  UNL     1       2.355   0.576   0.723  1.00  0.00     0.070 C 
HETATM   12  C8  UNL     1       3.660   0.242  -0.038  1.00  0.00     0.235 C 
HETATM   13  N1  UNL     1       3.633  -1.055  -0.625  1.00  0.00    -0.075 N 
HETATM   14  C9  UNL     1       2.262  -1.439  -0.879  1.00  0.00     0.235 C 
ATOM     15  H12 UNL     1       4.211  -1.111  -1.463  1.00  0.00     0.277 HD
ATOM     16  H11 UNL     1       4.129  -1.745  -0.060  1.00  0.00     0.277 HD
HETATM   17  C10 UNL     1       1.504  -0.226  -1.348  1.00  0.00     0.070 C 
BRANCH  10  18
HETATM   18  O3  UNL     1       1.334   2.048  -0.893  1.00  0.00    -0.385 OA
ATOM     19  H3  UNL     1       2.202   2.057  -1.280  1.00  0.00     0.211 HD
ENDBRANCH  10  18
ENDBRANCH   5  10
BRANCH   1  20
HETATM   20  C1  UNL     1       0.199   3.090   1.592  1.00  0.00     0.217 C 
HETATM   21  O1  UNL     1      -0.452   3.834   2.452  1.00  0.00    -0.643 OA
HETATM   22  O2  UNL     1       1.363   3.644   1.203  1.00  0.00    -0.643 OA
ENDBRANCH   1  20
BRANCH   9  23
HETATM   23  O4  UNL     1      -4.456  -0.552   1.567  1.00  0.00    -0.390 OA
ATOM     24  H4  UNL     1      -5.134  -1.217   1.531  1.00  0.00     0.210 HD
ENDBRANCH   9  23
TORSDOF 4
