REMARK  5 active torsions:
REMARK  status: ('A' for Active; 'I' for Inactive)
REMARK    1  A    between atoms: N3_9  and  N4_10 
REMARK    2  A    between atoms: N4_10  and  C4_12 
REMARK    3  A    between atoms: C4_12  and  N5_14 
REMARK    4  A    between atoms: N5_14  and  N6_16 
REMARK       I    between atoms: N6_16  and  C5_18 
REMARK    5  A    between atoms: C5_18  and  C6_20 
ROOT
HETATM    1  C4  UNL     1      -2.330  -1.520   1.031  1.00  0.00     0.206 C 
HETATM    2  S2  UNL     1      -3.371  -2.668   1.433  1.00  0.00    -0.038 SA
ENDROOT
BRANCH   1   3
HETATM    3  N4  UNL     1      -2.595  -0.283   0.505  1.00  0.00    -0.265 N 
ATOM      4  H4  UNL     1      -1.734   0.256   0.410  1.00  0.00     0.190 HD
BRANCH   3   5
HETATM    5  N3  UNL     1      -3.671   0.451   0.067  1.00  0.00    -0.213 N 
HETATM    6  C2  UNL     1      -4.947   0.233  -0.217  1.00  0.00     0.117 A 
HETATM    7  C1  UNL     1      -5.635  -1.077  -0.281  1.00  0.00     0.092 C 
HETATM    8  N1  UNL     1      -5.560   1.424  -0.513  1.00  0.00    -0.285 N 
HETATM    9  N2  UNL     1      -4.692   2.387  -0.423  1.00  0.00    -0.273 N 
ATOM     10  H1  UNL     1      -6.542   1.536  -0.764  1.00  0.00     0.188 HD
HETATM   11  C3  UNL     1      -3.537   1.824  -0.072  1.00  0.00     0.213 A 
ATOM     12  H2  UNL     1      -4.862   3.379  -0.589  1.00  0.00     0.189 HD
HETATM   13  S1  UNL     1      -2.176   2.706   0.152  1.00  0.00    -0.037 SA
ENDBRANCH   3   5
ENDBRANCH   1   3
BRANCH   1  14
HETATM   14  N5  UNL     1      -0.933  -1.865   1.331  1.00  0.00    -0.272 N 
ATOM     15  H5  UNL     1      -0.684  -2.774   1.721  1.00  0.00     0.189 HD
BRANCH  14  16
HETATM   16  N6  UNL     1       0.032  -0.908   1.064  1.00  0.00    -0.268 N 
HETATM   17  C5  UNL     1       1.095  -1.090   0.151  1.00  0.00     0.240 C 
HETATM   18  O1  UNL     1       1.167  -2.196  -0.458  1.00  0.00    -0.271 OA
ATOM     19  H6  UNL     1      -0.028  -0.017   1.557  1.00  0.00     0.190 HD
BRANCH  17  20
HETATM   20  C6  UNL     1       2.121  -0.059  -0.129  1.00  0.00     0.079 C 
HETATM   21  C7  UNL     1       3.117  -0.610  -1.089  1.00  0.00     0.014 C 
HETATM   22  C8  UNL     1       4.252   0.371  -1.251  1.00  0.00     0.001 C 
HETATM   23  C9  UNL     1       4.949   0.471   0.084  1.00  0.00     0.000 C 
HETATM   24  C10 UNL     1       4.029   1.014   1.123  1.00  0.00     0.001 C 
HETATM   25  C11 UNL     1       2.688   0.379   1.189  1.00  0.00     0.014 C 
ENDBRANCH  17  20
ENDBRANCH  14  16
ENDBRANCH   1  14
TORSDOF 5
