REMARK  5 active torsions:
REMARK  status: ('A' for Active; 'I' for Inactive)
REMARK    1  A    between atoms: C2_2  and  O2_4 
REMARK    2  A    between atoms: O2_4  and  C3_5 
REMARK    3  A    between atoms: C4_6  and  O3_7 
REMARK    4  A    between atoms: C7_11  and  C8_12 
REMARK    5  A    between atoms: C8_12  and  O4_13 
ROOT
HETATM    1  C3  UNL     1       1.441   0.185  -0.274  1.00  0.00     0.166 C 
HETATM    2  C4  UNL     1       1.222   1.477   0.426  1.00  0.00     0.152 C 
HETATM    3  C5  UNL     1      -0.091   2.154   0.209  1.00  0.00     0.024 C 
HETATM    4  C6  UNL     1      -0.010   3.224  -0.862  1.00  0.00     0.013 C 
HETATM    5  C7  UNL     1      -1.250   1.244  -0.049  1.00  0.00    -0.009 C 
HETATM    6  C9  UNL     1      -1.817   0.688   1.199  1.00  0.00     0.014 C 
HETATM    7  C10 UNL     1      -1.090  -0.382   1.896  1.00  0.00     0.021 C 
HETATM    8  C11 UNL     1      -0.900  -1.674   1.181  1.00  0.00     0.101 C 
HETATM    9  C12 UNL     1      -2.237  -2.337   1.184  1.00  0.00     0.064 C 
HETATM   10  N1  UNL     1      -3.285  -2.848   1.206  1.00  0.00    -0.197 NA
HETATM   11  C13 UNL     1      -0.253  -1.730  -0.092  1.00  0.00    -0.021 C 
HETATM   12  C14 UNL     1       0.715  -2.914  -0.177  1.00  0.00     0.017 C 
HETATM   13  C15 UNL     1      -1.304  -2.078  -1.170  1.00  0.00     0.011 C 
HETATM   14  C16 UNL     1      -1.961  -0.771  -1.373  1.00  0.00     0.007 C 
HETATM   15  C17 UNL     1      -0.906   0.260  -1.109  1.00  0.00     0.004 C 
HETATM   16  C18 UNL     1       0.306  -0.556  -0.785  1.00  0.00     0.032 C 
ENDROOT
BRANCH   5  17
HETATM   17  C8  UNL     1      -2.377   2.113  -0.641  1.00  0.00     0.174 C 
BRANCH  17  18
HETATM   18  O4  UNL     1      -2.765   3.113   0.220  1.00  0.00    -0.400 OA
ATOM     19  H4  UNL     1      -3.460   3.649  -0.145  1.00  0.00     0.209 HD
ENDBRANCH  17  18
ENDBRANCH   5  17
BRANCH   1  20
HETATM   20  O2  UNL     1       2.309  -0.595   0.568  1.00  0.00    -0.313 OA
BRANCH  20  21
HETATM   21  C2  UNL     1       3.621  -0.880   0.257  1.00  0.00     0.255 C 
HETATM   22  C1  UNL     1       4.534  -1.670   1.090  1.00  0.00     0.126 C 
HETATM   23  O1  UNL     1       4.066  -0.422  -0.832  1.00  0.00    -0.266 OA
ENDBRANCH  20  21
ENDBRANCH   1  20
BRANCH   2  24
HETATM   24  O3  UNL     1       2.206   2.435   0.047  1.00  0.00    -0.393 OA
ATOM     25  H3  UNL     1       2.066   3.261   0.495  1.00  0.00     0.210 HD
ENDBRANCH   2  24
TORSDOF 5
