REMARK  4 active torsions:
REMARK  status: ('A' for Active; 'I' for Inactive)
REMARK    1  A    between atoms: O1_2  and  C2_3 
REMARK    2  A    between atoms: C3_4  and  O2_5 
REMARK    3  A    between atoms: C5_9  and  C6_10 
REMARK    4  A    between atoms: C6_10  and  O4_13 
ROOT
HETATM    1  C2  UNL     1      -2.201   1.218   0.451  1.00  0.00     0.163 C 
HETATM    2  C3  UNL     1      -0.718   1.144   0.828  1.00  0.00     0.177 C 
HETATM    3  C4  UNL     1       0.025   0.741  -0.427  1.00  0.00     0.162 C 
HETATM    4  O3  UNL     1       1.355   1.093  -0.408  1.00  0.00    -0.374 OA
HETATM    5  C5  UNL     1       2.125   0.457   0.519  1.00  0.00     0.155 C 
HETATM    6  C9  UNL     1       1.773  -0.953   0.809  1.00  0.00     0.036 C 
HETATM    7  C10 UNL     1       0.893  -1.607  -0.204  1.00  0.00     0.015 C 
HETATM    8  C11 UNL     1      -0.187  -0.731  -0.749  1.00  0.00    -0.011 C 
HETATM    9  C12 UNL     1      -0.178  -0.879  -2.263  1.00  0.00     0.018 C 
HETATM   10  C13 UNL     1      -1.517  -1.112  -0.157  1.00  0.00     0.010 C 
HETATM   11  C14 UNL     1      -2.201  -2.232  -0.866  1.00  0.00     0.013 C 
HETATM   12  C15 UNL     1      -3.652  -2.087  -0.394  1.00  0.00     0.079 C 
HETATM   13  C16 UNL     1      -3.776  -0.678   0.069  1.00  0.00     0.134 C 
HETATM   14  O5  UNL     1      -4.743  -0.253   0.672  1.00  0.00    -0.297 OA
HETATM   15  C17 UNL     1      -2.543   0.015  -0.349  1.00  0.00     0.091 C 
ENDROOT
BRANCH   5  16
HETATM   16  C6  UNL     1       3.580   0.649   0.128  1.00  0.00     0.076 C 
HETATM   17  C7  UNL     1       4.530  -0.019   1.068  1.00  0.00     0.048 C 
HETATM   18  C8  UNL     1       3.848   0.108  -1.267  1.00  0.00     0.048 C 
BRANCH  16  19
HETATM   19  O4  UNL     1       3.913   2.004   0.096  1.00  0.00    -0.388 OA
ATOM     20  H4  UNL     1       4.823   2.124  -0.149  1.00  0.00     0.210 HD
ENDBRANCH  16  19
ENDBRANCH   5  16
BRANCH   2  21
HETATM   21  O2  UNL     1      -0.240   2.381   1.229  1.00  0.00    -0.390 OA
ATOM     22  H2  UNL     1       0.680   2.335   1.463  1.00  0.00     0.210 HD
ENDBRANCH   2  21
BRANCH   1  23
HETATM   23  O1  UNL     1      -2.998   1.426   1.551  1.00  0.00    -0.387 OA
HETATM   24  C1  UNL     1      -3.626   2.667   1.456  1.00  0.00     0.202 C 
ENDBRANCH   1  23
TORSDOF 4
