REMARK  7 active torsions:
REMARK  status: ('A' for Active; 'I' for Inactive)
REMARK    1  A    between atoms: C8_8  and  O1_9 
REMARK    2  A    between atoms: O1_9  and  C9_10 
REMARK    3  A    between atoms: C11_13  and  O3_14 
REMARK    4  A    between atoms: C16_20  and  C17_21 
REMARK    5  A    between atoms: C17_21  and  O5_22 
REMARK    6  A    between atoms: C18_24  and  O6_25 
REMARK    7  A    between atoms: C21_29  and  O7_30 
ROOT
HETATM    1  C1  UNL     1      -4.001   1.374  -1.699  1.00  0.00     0.017 C 
HETATM    2  C2  UNL     1      -2.918   1.026  -1.013  1.00  0.00    -0.056 C 
HETATM    3  C3  UNL     1      -3.017   1.007   0.468  1.00  0.00     0.018 C 
HETATM    4  C4  UNL     1      -2.131   2.100   1.098  1.00  0.00     0.009 C 
HETATM    5  C5  UNL     1      -0.661   1.646   1.079  1.00  0.00     0.007 C 
HETATM    6  C6  UNL     1      -0.375   1.468  -0.339  1.00  0.00     0.006 A 
HETATM    7  C7  UNL     1       0.677   0.626  -0.958  1.00  0.00     0.036 A 
HETATM    8  C8  UNL     1       1.668   0.296   0.020  1.00  0.00     0.167 C 
HETATM    9  C11 UNL     1       2.392  -1.025  -0.020  1.00  0.00     0.161 C 
HETATM   10  C13 UNL     1       1.331  -2.063   0.408  1.00  0.00     0.084 C 
HETATM   11  C14 UNL     1       1.052  -2.062   1.844  1.00  0.00     0.020 C 
HETATM   12  C15 UNL     1       0.261  -1.832  -0.546  1.00  0.00     0.147 C 
HETATM   13  O4  UNL     1       0.581  -2.419  -1.599  1.00  0.00    -0.296 OA
HETATM   14  C16 UNL     1      -1.051  -1.116  -0.615  1.00  0.00     0.079 C 
HETATM   15  C18 UNL     1      -2.025  -1.356   0.442  1.00  0.00     0.137 C 
HETATM   16  C19 UNL     1      -2.681  -0.249   1.155  1.00  0.00     0.042 C 
HETATM   17  C20 UNL     1      -0.701   0.248  -1.025  1.00  0.00     0.019 A 
HETATM   18  C21 UNL     1      -1.767   0.722  -1.952  1.00  0.00     0.157 C 
ENDROOT
BRANCH   8  19
HETATM   19  O1  UNL     1       2.755   1.243  -0.130  1.00  0.00    -0.313 OA
BRANCH  19  20
HETATM   20  C9  UNL     1       3.285   1.987   0.874  1.00  0.00     0.255 C 
HETATM   21  C10 UNL     1       4.415   2.951   0.629  1.00  0.00     0.126 C 
HETATM   22  O2  UNL     1       2.825   1.872   2.039  1.00  0.00    -0.266 OA
ENDBRANCH  19  20
ENDBRANCH   8  19
BRANCH   9  23
HETATM   23  O3  UNL     1       2.983  -1.327  -1.195  1.00  0.00    -0.387 OA
HETATM   24  C12 UNL     1       4.350  -1.552  -1.055  1.00  0.00     0.202 C 
ENDBRANCH   9  23
BRANCH  14  25
HETATM   25  C17 UNL     1      -1.690  -1.793  -1.856  1.00  0.00     0.184 C 
BRANCH  25  26
HETATM   26  O5  UNL     1      -1.818  -3.175  -1.676  1.00  0.00    -0.400 OA
ATOM     27  H5  UNL     1      -2.209  -3.590  -2.436  1.00  0.00     0.209 HD
ENDBRANCH  25  26
ENDBRANCH  14  25
BRANCH  18  28
HETATM   28  O7  UNL     1      -1.463   2.001  -2.502  1.00  0.00    -0.390 OA
ATOM     29  H7  UNL     1      -0.742   1.811  -3.090  1.00  0.00     0.210 HD
ENDBRANCH  18  28
BRANCH  15  30
HETATM   30  O6  UNL     1      -3.110  -2.220   0.066  1.00  0.00    -0.394 OA
ATOM     31  H6  UNL     1      -3.745  -2.376   0.755  1.00  0.00     0.210 HD
ENDBRANCH  15  30
TORSDOF 7
