REMARK  6 active torsions:
REMARK  status: ('A' for Active; 'I' for Inactive)
REMARK    1  A    between atoms: N1_2  and  C2_5 
REMARK    2  A    between atoms: C14_19  and  O3_20 
REMARK    3  A    between atoms: O3_20  and  C15_21 
REMARK    4  A    between atoms: C18_25  and  O5_26 
REMARK    5  A    between atoms: C19_28  and  O6_29 
REMARK    6  A    between atoms: C20_31  and  O7_32 
ROOT
HETATM    1  C2  UNL     1      -2.544   1.391  -0.148  1.00  0.00     0.350 C 
HETATM    2  O1  UNL     1      -1.201   1.320  -0.277  1.00  0.00    -0.349 OA
HETATM    3  C3  UNL     1      -0.705   1.078  -1.537  1.00  0.00     0.153 C 
HETATM    4  C4  UNL     1      -1.527   0.032  -2.226  1.00  0.00     0.035 C 
HETATM    5  C5  UNL     1      -1.940  -1.184  -1.493  1.00  0.00     0.014 C 
HETATM    6  C6  UNL     1      -2.420  -1.134  -0.121  1.00  0.00    -0.014 C 
HETATM    7  C7  UNL     1      -3.495  -2.249   0.023  1.00  0.00     0.018 C 
HETATM    8  C8  UNL     1      -1.518  -1.313   1.039  1.00  0.00     0.012 C 
HETATM    9  C9  UNL     1      -0.249  -2.027   0.891  1.00  0.00     0.009 C 
HETATM   10  C10 UNL     1       0.903  -1.302   0.371  1.00  0.00     0.026 C 
HETATM   11  C11 UNL     1       2.257  -1.995   0.514  1.00  0.00     0.060 C 
HETATM   12  C12 UNL     1       2.690  -2.279   1.889  1.00  0.00     0.018 C 
HETATM   13  C13 UNL     1       3.167  -1.134  -0.296  1.00  0.00     0.161 C 
HETATM   14  O2  UNL     1       4.224  -1.640  -0.631  1.00  0.00    -0.295 OA
HETATM   15  C14 UNL     1       2.947   0.252  -0.743  1.00  0.00     0.210 C 
HETATM   16  C17 UNL     1       1.603   0.859  -0.437  1.00  0.00     0.083 C 
HETATM   17  C18 UNL     1       0.760   0.975  -1.642  1.00  0.00     0.156 C 
HETATM   18  C19 UNL     1       1.113   0.102   0.765  1.00  0.00     0.132 C 
HETATM   19  C20 UNL     1      -3.283   0.128   0.070  1.00  0.00     0.182 C 
ENDROOT
BRANCH   1  20
HETATM   20  N1  UNL     1      -2.804   2.322   0.966  1.00  0.00    -0.050 N 
HETATM   21  C1  UNL     1      -4.173   2.701   1.077  1.00  0.00     0.270 C 
ATOM     22  H12 UNL     1      -2.205   3.145   0.898  1.00  0.00     0.279 HD
ATOM     23  H11 UNL     1      -2.462   1.937   1.847  1.00  0.00     0.279 HD
ENDBRANCH   1  20
BRANCH  19  24
HETATM   24  O7  UNL     1      -4.361  -0.031  -0.826  1.00  0.00    -0.390 OA
ATOM     25  H7  UNL     1      -4.836  -0.842  -0.686  1.00  0.00     0.210 HD
ENDBRANCH  19  24
BRANCH  17  26
HETATM   26  O5  UNL     1       1.089   0.055  -2.683  1.00  0.00    -0.392 OA
ATOM     27  H5  UNL     1       2.034  -0.011  -2.751  1.00  0.00     0.210 HD
ENDBRANCH  17  26
BRANCH  15  28
HETATM   28  O3  UNL     1       3.919   1.014  -0.002  1.00  0.00    -0.308 OA
BRANCH  28  29
HETATM   29  C15 UNL     1       4.942   1.717  -0.569  1.00  0.00     0.255 C 
HETATM   30  C16 UNL     1       5.891   2.472   0.292  1.00  0.00     0.126 C 
HETATM   31  O4  UNL     1       5.048   1.700  -1.823  1.00  0.00    -0.266 OA
ENDBRANCH  28  29
ENDBRANCH  15  28
BRANCH  18  32
HETATM   32  O6  UNL     1       2.239   0.204   1.654  1.00  0.00    -0.395 OA
ATOM     33  H6  UNL     1       2.374   1.109   1.908  1.00  0.00     0.210 HD
ENDBRANCH  18  32
TORSDOF 6
