REMARK  6 active torsions:
REMARK  status: ('A' for Active; 'I' for Inactive)
REMARK    1  A    between atoms: O1_2  and  C2_3 
REMARK    2  A    between atoms: C2_3  and  C3_5 
REMARK    3  A    between atoms: C3_5  and  N1_7 
REMARK    4  A    between atoms: C6_9  and  O3_10 
REMARK    5  A    between atoms: C12_18  and  O5_19 
REMARK    6  A    between atoms: C19_27  and  O6_28 
ROOT
HETATM    1  N1  UNL     1       3.166   0.575  -0.705  1.00  0.00    -0.394 N 
HETATM    2  C5  UNL     1       2.207   0.998   0.258  1.00  0.00     0.159 C 
HETATM    3  C6  UNL     1       0.919   0.687  -0.465  1.00  0.00     0.113 C 
HETATM    4  C7  UNL     1      -0.294   0.648   0.397  1.00  0.00     0.051 C 
HETATM    5  C8  UNL     1      -1.477   0.485  -0.508  1.00  0.00     0.028 C 
HETATM    6  C9  UNL     1      -1.763  -0.914  -0.926  1.00  0.00     0.004 C 
HETATM    7  C10 UNL     1      -1.094  -1.163  -2.275  1.00  0.00     0.087 C 
HETATM    8  C11 UNL     1       0.360  -1.021  -2.174  1.00  0.00     0.166 C 
HETATM    9  O4  UNL     1       0.973  -1.194  -3.201  1.00  0.00    -0.294 OA
HETATM   10  C12 UNL     1       1.193  -0.696  -0.999  1.00  0.00     0.166 C 
HETATM   11  C13 UNL     1       2.669  -0.591  -1.362  1.00  0.00     0.167 C 
HETATM   12  C14 UNL     1      -3.282  -1.035  -1.085  1.00  0.00    -0.003 C 
HETATM   13  C15 UNL     1      -3.754  -1.836   0.106  1.00  0.00     0.006 C 
HETATM   14  C16 UNL     1      -3.151  -1.292   1.358  1.00  0.00     0.007 C 
HETATM   15  C17 UNL     1      -2.979   0.181   1.420  1.00  0.00     0.017 C 
HETATM   16  C18 UNL     1      -4.109   0.815   2.231  1.00  0.00     0.013 C 
HETATM   17  C19 UNL     1      -2.797   0.886   0.128  1.00  0.00     0.069 C 
HETATM   18  C20 UNL     1      -3.725   0.391  -0.965  1.00  0.00     0.021 C 
HETATM   19  C21 UNL     1      -5.151   0.622  -0.721  1.00  0.00     0.013 C 
ENDROOT
BRANCH   1  20
HETATM   20  C3  UNL     1       4.527   0.588  -0.343  1.00  0.00     0.175 C 
HETATM   21  C4  UNL     1       4.975   2.027  -0.090  1.00  0.00     0.043 C 
BRANCH  20  22
HETATM   22  C2  UNL     1       4.936  -0.297   0.757  1.00  0.00     0.280 C 
HETATM   23  O2  UNL     1       4.109  -1.038   1.310  1.00  0.00    -0.263 OA
BRANCH  22  24
HETATM   24  O1  UNL     1       6.245  -0.307   1.179  1.00  0.00    -0.325 OA
HETATM   25  C1  UNL     1       6.695  -1.140   2.236  1.00  0.00     0.213 C 
ENDBRANCH  22  24
ENDBRANCH  20  22
ENDBRANCH   1  20
BRANCH   3  26
HETATM   26  O3  UNL     1       0.761   1.578  -1.516  1.00  0.00    -0.385 OA
ATOM     27  H3  UNL     1      -0.050   1.382  -1.971  1.00  0.00     0.210 HD
ENDBRANCH   3  26
BRANCH  10  28
HETATM   28  O5  UNL     1       1.072  -1.698  -0.071  1.00  0.00    -0.377 OA
ATOM     29  H5  UNL     1       1.245  -2.569  -0.407  1.00  0.00     0.211 HD
ENDBRANCH  10  28
BRANCH  17  30
HETATM   30  O6  UNL     1      -2.949   2.239   0.267  1.00  0.00    -0.389 OA
ATOM     31  H6  UNL     1      -3.774   2.490   0.665  1.00  0.00     0.210 HD
ENDBRANCH  17  30
TORSDOF 6
