REMARK  6 active torsions:
REMARK  status: ('A' for Active; 'I' for Inactive)
REMARK    1  A    between atoms: N2_6  and  C4_8 
REMARK    2  A    between atoms: C4_8  and  O1_9 
REMARK    3  A    between atoms: C4_8  and  C5_11 
REMARK    4  A    between atoms: C8_16  and  C10_18 
REMARK    5  A    between atoms: C10_18  and  N3_19 
REMARK       I    between atoms: N3_19  and  C11_20 
REMARK    6  A    between atoms: C11_20  and  O3_22 
ROOT
HETATM    1  O3  UNL     1       4.907   0.384  -3.580  1.00  0.00    -0.174 OA
HETATM    2  C12 UNL     1       5.898   1.132  -4.114  1.00  0.00     0.238 C 
HETATM    3  N4  UNL     1       6.745   1.778  -4.559  1.00  0.00    -0.163 NA
ENDROOT
BRANCH   1   4
HETATM    4  C11 UNL     1       3.871   0.958  -2.762  1.00  0.00     0.454 C 
HETATM    5  N3  UNL     1       2.893   0.212  -2.232  1.00  0.00    -0.360 NA
HETATM    6  O2  UNL     1       4.067   2.232  -2.653  1.00  0.00    -0.220 OA
BRANCH   5   7
HETATM    7  C10 UNL     1       1.895  -0.548  -1.693  1.00  0.00     0.184 C 
BRANCH   7   8
HETATM    8  C8  UNL     1       1.731  -0.541  -0.187  1.00  0.00     0.076 C 
HETATM    9  C2  UNL     1       0.593  -1.447   0.184  1.00  0.00     0.104 C 
HETATM   10  C1  UNL     1      -0.448  -1.570  -0.910  1.00  0.00     0.034 C 
HETATM   11  N1  UNL     1      -0.021  -0.969   1.379  1.00  0.00    -0.364 N 
HETATM   12  C3  UNL     1      -0.389   0.410   1.254  1.00  0.00     0.143 C 
ATOM     13  H1  UNL     1      -0.178  -1.535   2.213  1.00  0.00     0.162 HD
HETATM   14  N2  UNL     1      -1.327   1.114   1.599  1.00  0.00    -0.320 N 
HETATM   15  S1  UNL     1       1.068   1.081   0.358  1.00  0.00    -0.076 SA
ATOM     16  H2  UNL     1      -1.222   2.087   1.310  1.00  0.00     0.169 HD
HETATM   17  C9  UNL     1       2.948  -0.959   0.555  1.00  0.00     0.036 C 
BRANCH  14  18
HETATM   18  C4  UNL     1      -2.492   0.883   2.291  1.00  0.00     0.140 C 
BRANCH  18  19
HETATM   19  O1  UNL     1      -2.617   1.475   3.443  1.00  0.00    -0.348 OA
ATOM     20  H1  UNL     1      -3.422   1.315   3.921  1.00  0.00     0.219 HD
ENDBRANCH  18  19
BRANCH  18  21
HETATM   21  C5  UNL     1      -3.575   0.018   1.801  1.00  0.00     0.094 C 
HETATM   22  C6  UNL     1      -3.997   0.415   0.420  1.00  0.00     0.041 C 
HETATM   23  C7  UNL     1      -4.792   0.321   2.707  1.00  0.00     0.041 C 
HETATM   24 CL1  UNL     1      -3.259  -1.704   1.894  1.00  0.00    -0.111 Cl
ENDBRANCH  18  21
ENDBRANCH  14  18
ENDBRANCH   7   8
ENDBRANCH   5   7
ENDBRANCH   1   4
TORSDOF 6
