REMARK  5 active torsions:
REMARK  status: ('A' for Active; 'I' for Inactive)
REMARK    1  A    between atoms: C6_7  and  O2_8 
REMARK    2  A    between atoms: O2_8  and  C7_9 
REMARK    3  A    between atoms: C9_13  and  C10_14 
REMARK    4  A    between atoms: C10_14  and  O4_15 
REMARK    5  A    between atoms: C15_21  and  O5_22 
ROOT
HETATM    1  C1  UNL     1       3.069   0.592  -1.442  1.00  0.00     0.046 C 
HETATM    2  C2  UNL     1       2.645   0.467  -0.030  1.00  0.00     0.060 C 
HETATM    3  C3  UNL     1       3.909   0.355   0.819  1.00  0.00     0.046 C 
HETATM    4  O1  UNL     1       2.030   1.677   0.410  1.00  0.00    -0.375 OA
HETATM    5  C4  UNL     1       0.714   1.244   0.427  1.00  0.00     0.129 C 
HETATM    6  C5  UNL     1      -0.425   2.021   0.772  1.00  0.00     0.065 C 
HETATM    7  C6  UNL     1      -1.594   1.508  -0.059  1.00  0.00     0.136 C 
HETATM    8  C8  UNL     1      -2.139   0.197   0.169  1.00  0.00     0.044 C 
HETATM    9  C9  UNL     1      -1.430  -1.075  -0.008  1.00  0.00    -0.014 C 
HETATM   10  C11 UNL     1      -0.910  -1.659   1.319  1.00  0.00     0.012 C 
HETATM   11  C12 UNL     1      -0.169  -0.561   1.995  1.00  0.00     0.009 C 
HETATM   12  C13 UNL     1       0.906   0.056   1.292  1.00  0.00     0.024 C 
HETATM   13  C14 UNL     1       1.689  -0.686   0.256  1.00  0.00     0.055 C 
HETATM   14  C15 UNL     1       0.985  -1.259  -0.874  1.00  0.00     0.126 C 
HETATM   15  C16 UNL     1      -0.469  -1.250  -1.100  1.00  0.00     0.044 C 
ENDROOT
BRANCH   7  16
HETATM   16  O2  UNL     1      -2.640   2.467   0.172  1.00  0.00    -0.303 OA
BRANCH  16  17
HETATM   17  C7  UNL     1      -3.085   3.352  -0.765  1.00  0.00     0.358 C 
HETATM   18  O3  UNL     1      -2.568   3.353  -1.907  1.00  0.00    -0.245 OA
HETATM   19 CL1  UNL     1      -4.374   4.463  -0.327  1.00  0.00    -0.012 Cl
ENDBRANCH  16  17
ENDBRANCH   7  16
BRANCH   9  20
HETATM   20  C10 UNL     1      -2.564  -2.119  -0.267  1.00  0.00     0.173 C 
BRANCH  20  21
HETATM   21  O4  UNL     1      -3.204  -1.678  -1.403  1.00  0.00    -0.400 OA
ATOM     22  H4  UNL     1      -3.893  -2.313  -1.560  1.00  0.00     0.209 HD
ENDBRANCH  20  21
ENDBRANCH   9  20
BRANCH  14  23
HETATM   23  O5  UNL     1       1.461  -2.605  -0.982  1.00  0.00    -0.395 OA
ATOM     24  H5  UNL     1       1.000  -2.981  -1.723  1.00  0.00     0.210 HD
ENDBRANCH  14  23
TORSDOF 5
