REMARK  2 active torsions:
REMARK  status: ('A' for Active; 'I' for Inactive)
REMARK    1  A    between atoms: N1_3  and  N2_4 
REMARK    2  A    between atoms: N2_4  and  C2_5 
ROOT
HETATM    1  C2  UNL     1      -0.640  -0.452   0.515  1.00  0.00     0.299 C 
HETATM    2  C3  UNL     1      -2.019  -0.889   0.223  1.00  0.00     0.063 C 
HETATM    3  C4  UNL     1      -3.098   0.114   0.154  1.00  0.00    -0.015 C 
HETATM    4  C5  UNL     1      -2.709   1.529   0.352  1.00  0.00     0.039 C 
HETATM    5  C6  UNL     1      -1.335   1.716  -0.293  1.00  0.00     0.235 C 
HETATM    6  N3  UNL     1      -0.431   0.970   0.542  1.00  0.00    -0.056 N 
ATOM      7  H31 UNL     1       0.537   1.193   0.308  1.00  0.00     0.279 HD
ATOM      8  H32 UNL     1      -0.462   1.317   1.501  1.00  0.00     0.279 HD
HETATM    9  C7  UNL     1      -3.839   0.036  -1.195  1.00  0.00     0.037 C 
HETATM   10  C8  UNL     1      -4.807  -1.141  -1.171  1.00  0.00     0.168 C 
HETATM   11  O2  UNL     1      -5.870  -0.899  -0.309  1.00  0.00    -0.390 OA
HETATM   12  C9  UNL     1      -5.564   0.049   0.656  1.00  0.00     0.188 C 
HETATM   13  C10 UNL     1      -4.177  -0.213   1.181  1.00  0.00     0.114 C 
HETATM   14 CL1  UNL     1      -3.858   0.600   2.704  1.00  0.00    -0.122 Cl
ENDROOT
BRANCH   1  15
HETATM   15  N2  UNL     1       0.264  -1.051  -0.478  1.00  0.00    -0.101 NA
BRANCH  15  16
HETATM   16  N1  UNL     1       1.592  -0.789  -0.239  1.00  0.00    -0.237 N 
HETATM   17  C1  UNL     1       2.437   0.301  -0.542  1.00  0.00     0.272 C 
HETATM   18  O1  UNL     1       2.139   1.280  -1.245  1.00  0.00    -0.268 OA
HETATM   19  C12 UNL     1       3.710   0.045   0.126  1.00  0.00     0.145 C 
HETATM   20  O3  UNL     1       3.456  -0.970   1.054  1.00  0.00    -0.350 OA
HETATM   21  C13 UNL     1       4.770  -0.525  -0.833  1.00  0.00     0.048 C 
HETATM   22  C16 UNL     1       4.386   1.231   0.729  1.00  0.00     0.048 C 
HETATM   23  C11 UNL     1       2.455  -1.750   0.472  1.00  0.00     0.317 C 
HETATM   24  C14 UNL     1       5.984  -0.412   0.106  1.00  0.00     0.004 C 
HETATM   25  C15 UNL     1       5.889   1.043   0.511  1.00  0.00     0.004 C 
ENDBRANCH  15  16
ENDBRANCH   1  15
TORSDOF 2
