REMARK  9 active torsions:
REMARK  status: ('A' for Active; 'I' for Inactive)
REMARK    1  A    between atoms: C3_4  and  O2_5 
REMARK    2  A    between atoms: O2_5  and  C4_6 
REMARK    3  A    between atoms: C5_8  and  C6_9 
REMARK    4  A    between atoms: C6_9  and  O4_10 
REMARK    5  A    between atoms: C7_12  and  O5_13 
REMARK    6  A    between atoms: C8_15  and  C9_16 
REMARK    7  A    between atoms: C9_16  and  C10_17 
REMARK    8  A    between atoms: C18_25  and  O6_26 
REMARK    9  A    between atoms: C19_28  and  O7_29 
ROOT
HETATM    1  C4  UNL     1       1.150   1.385  -0.068  1.00  0.00     0.270 C 
HETATM    2  O3  UNL     1       1.083   2.414   0.874  1.00  0.00    -0.351 OA
HETATM    3  C5  UNL     1       0.580   3.492   0.194  1.00  0.00     0.177 C 
HETATM    4  C7  UNL     1      -0.144   2.971  -1.051  1.00  0.00     0.158 C 
HETATM    5  C8  UNL     1      -0.162   1.463  -0.703  1.00  0.00     0.073 C 
ENDROOT
BRANCH   1   6
HETATM    6  O2  UNL     1       1.657   0.226   0.375  1.00  0.00    -0.328 OA
BRANCH   6   7
HETATM    7  C3  UNL     1       2.894  -0.119  -0.167  1.00  0.00     0.294 C 
HETATM    8  O1  UNL     1       3.793  -0.141   0.889  1.00  0.00    -0.351 OA
HETATM    9  C2  UNL     1       3.761  -1.408   1.438  1.00  0.00     0.152 C 
HETATM   10  C1  UNL     1       5.197  -1.806   1.733  1.00  0.00     0.042 C 
HETATM   11  C19 UNL     1       3.062  -2.340   0.519  1.00  0.00     0.180 C 
HETATM   12  C18 UNL     1       2.808  -1.504  -0.713  1.00  0.00     0.204 C 
BRANCH  11  13
HETATM   13  O7  UNL     1       3.849  -3.452   0.189  1.00  0.00    -0.390 OA
ATOM     14  H7  UNL     1       3.401  -4.049  -0.399  1.00  0.00     0.210 HD
ENDBRANCH  11  13
BRANCH  12  15
HETATM   15  O6  UNL     1       3.849  -1.769  -1.601  1.00  0.00    -0.388 OA
ATOM     16  H6  UNL     1       3.794  -2.651  -1.949  1.00  0.00     0.210 HD
ENDBRANCH  12  15
ENDBRANCH   6   7
ENDBRANCH   1   6
BRANCH   5  17
HETATM   17  C9  UNL     1      -1.391   1.185  -0.003  1.00  0.00     0.020 C 
BRANCH  17  18
HETATM   18  C10 UNL     1      -1.700  -0.118   0.610  1.00  0.00     0.008 C 
HETATM   19  C11 UNL     1      -3.030  -0.172   1.305  1.00  0.00    -0.026 C 
HETATM   20  C12 UNL     1      -4.268  -0.079   0.597  1.00  0.00    -0.030 C 
HETATM   21  C13 UNL     1      -4.467  -0.517  -0.794  1.00  0.00     0.027 C 
HETATM   22  C14 UNL     1      -4.211  -1.942  -1.128  1.00  0.00     0.004 C 
HETATM   23  C15 UNL     1      -3.566  -2.780  -0.089  1.00  0.00     0.000 C 
HETATM   24  C16 UNL     1      -2.125  -2.546   0.141  1.00  0.00     0.001 C 
HETATM   25  C17 UNL     1      -1.558  -1.266  -0.401  1.00  0.00     0.008 C 
ENDBRANCH  17  18
ENDBRANCH   5  17
BRANCH   3  26
HETATM   26  C6  UNL     1       1.654   4.487  -0.191  1.00  0.00     0.198 C 
BRANCH  26  27
HETATM   27  O4  UNL     1       1.157   5.570  -0.872  1.00  0.00    -0.398 OA
ATOM     28  H4  UNL     1       1.831   6.194  -1.114  1.00  0.00     0.209 HD
ENDBRANCH  26  27
ENDBRANCH   3  26
BRANCH   4  29
HETATM   29  O5  UNL     1       0.675   3.156  -2.139  1.00  0.00    -0.392 OA
ATOM     30  H5  UNL     1       0.226   2.833  -2.911  1.00  0.00     0.210 HD
ENDBRANCH   4  29
TORSDOF 9
