REMARK  10 active torsions:
REMARK  status: ('A' for Active; 'I' for Inactive)
REMARK    1  A    between atoms: C2_2  and  S1_3 
REMARK    2  A    between atoms: S1_3  and  C3_4 
REMARK    3  A    between atoms: C4_5  and  O1_6 
REMARK    4  A    between atoms: C5_8  and  O2_9 
REMARK    5  A    between atoms: C6_11  and  O3_12 
REMARK    6  A    between atoms: C7_14  and  C8_15 
REMARK    7  A    between atoms: C8_15  and  O4_16 
REMARK    8  A    between atoms: C9_18  and  O5_19 
REMARK    9  A    between atoms: O5_19  and  C10_20 
REMARK   10  A    between atoms: C10_20  and  C11_22 
ROOT
HETATM    1  C3  UNL     1      -2.223   0.244  -0.004  1.00  0.00     0.108 C 
HETATM    2  C4  UNL     1      -3.613  -0.226  -0.016  1.00  0.00     0.165 C 
HETATM    3  C5  UNL     1      -3.981  -1.378   0.832  1.00  0.00     0.177 C 
HETATM    4  C6  UNL     1      -2.933  -1.818   1.811  1.00  0.00     0.158 C 
HETATM    5  C7  UNL     1      -1.621  -1.969   1.066  1.00  0.00     0.071 C 
HETATM    6  C9  UNL     1      -1.195  -0.595   0.685  1.00  0.00     0.157 C 
ENDROOT
BRANCH   6   7
HETATM    7  O5  UNL     1       0.098  -0.461   0.208  1.00  0.00    -0.313 OA
BRANCH   7   8
HETATM    8  C10 UNL     1       1.186   0.097   0.791  1.00  0.00     0.271 C 
HETATM    9  O6  UNL     1       0.931   0.545   1.930  1.00  0.00    -0.264 OA
BRANCH   8  10
HETATM   10  C11 UNL     1       2.544   0.197   0.204  1.00  0.00     0.062 C 
HETATM   11  C12 UNL     1       3.134  -1.161  -0.091  1.00  0.00     0.030 C 
HETATM   12  C13 UNL     1       3.485   0.925   1.081  1.00  0.00    -0.005 C 
HETATM   13  C14 UNL     1       4.586   1.414   0.503  1.00  0.00    -0.086 C 
HETATM   14  C15 UNL     1       5.537   2.148   1.380  1.00  0.00     0.043 C 
HETATM   15  C16 UNL     1       4.897   1.264  -0.931  1.00  0.00     0.033 C 
HETATM   16  C17 UNL     1       3.698   1.148  -1.812  1.00  0.00     0.006 C 
HETATM   17  C18 UNL     1       2.404   1.018  -1.069  1.00  0.00     0.024 C 
ENDBRANCH   8  10
ENDBRANCH   7   8
ENDBRANCH   6   7
BRANCH   1  18
HETATM   18  S1  UNL     1      -1.765   0.615  -1.751  1.00  0.00    -0.159 SA
BRANCH  18  19
HETATM   19  C2  UNL     1      -2.772   2.021  -2.290  1.00  0.00     0.070 C 
HETATM   20  C1  UNL     1      -2.374   3.270  -1.494  1.00  0.00     0.016 C 
ENDBRANCH  18  19
ENDBRANCH   1  18
BRANCH   5  21
HETATM   21  C8  UNL     1      -1.682  -2.996   0.003  1.00  0.00     0.174 C 
BRANCH  21  22
HETATM   22  O4  UNL     1      -1.998  -4.218   0.605  1.00  0.00    -0.400 OA
ATOM     23  H4  UNL     1      -2.037  -4.878  -0.078  1.00  0.00     0.209 HD
ENDBRANCH  21  22
ENDBRANCH   5  21
BRANCH   2  24
HETATM   24  O1  UNL     1      -4.068  -0.523  -1.330  1.00  0.00    -0.392 OA
ATOM     25  H1  UNL     1      -4.968  -0.827  -1.338  1.00  0.00     0.210 HD
ENDBRANCH   2  24
BRANCH   4  26
HETATM   26  O3  UNL     1      -3.343  -2.988   2.424  1.00  0.00    -0.392 OA
ATOM     27  H3  UNL     1      -2.679  -3.267   3.044  1.00  0.00     0.210 HD
ENDBRANCH   4  26
BRANCH   3  28
HETATM   28  O2  UNL     1      -5.162  -1.160   1.575  1.00  0.00    -0.390 OA
ATOM     29  H2  UNL     1      -5.399  -1.901   2.120  1.00  0.00     0.210 HD
ENDBRANCH   3  28
TORSDOF 10
