REMARK  8 active torsions:
REMARK  status: ('A' for Active; 'I' for Inactive)
REMARK    1  A    between atoms: C2_2  and  C3_3 
REMARK    2  A    between atoms: C3_3  and  O1_4 
REMARK    3  A    between atoms: O1_4  and  C4_5 
REMARK    4  A    between atoms: C5_6  and  C6_7 
REMARK    5  A    between atoms: C7_9  and  C8_10 
REMARK    6  A    between atoms: C11_15  and  O4_16 
REMARK    7  A    between atoms: C15_21  and  O5_22 
REMARK    8  A    between atoms: C16_25  and  O7_26 
ROOT
HETATM    1  C4  UNL     1      -0.959   0.339  -0.581  1.00  0.00     0.153 C 
HETATM    2  C5  UNL     1      -1.739  -0.840  -1.054  1.00  0.00     0.055 C 
HETATM    3  C7  UNL     1      -1.015  -2.144  -1.055  1.00  0.00     0.131 C 
HETATM    4  O2  UNL     1      -0.123  -2.284  -0.009  1.00  0.00    -0.354 OA
HETATM    5  C10 UNL     1       0.844  -1.326   0.059  1.00  0.00     0.286 C 
HETATM    6  O3  UNL     1       1.540  -1.525   1.237  1.00  0.00    -0.318 OA
HETATM    7  C11 UNL     1       1.836  -0.275   1.767  1.00  0.00     0.227 C 
HETATM    8  C12 UNL     1       3.125   0.170   1.112  1.00  0.00     0.055 C 
HETATM    9  C13 UNL     1       3.871   1.182   1.941  1.00  0.00     0.016 C 
HETATM   10  C14 UNL     1       2.806   0.653  -0.263  1.00  0.00     0.079 C 
HETATM   11  C15 UNL     1       1.376   1.112  -0.369  1.00  0.00     0.186 C 
HETATM   12  O6  UNL     1       1.086   1.813   0.800  1.00  0.00    -0.311 OA
HETATM   13  C16 UNL     1       0.674   0.627   1.355  1.00  0.00     0.243 C 
HETATM   14  C17 UNL     1       0.374   0.072  -0.007  1.00  0.00     0.153 C 
ENDROOT
BRANCH   1  15
HETATM   15  O1  UNL     1      -1.803   1.049   0.297  1.00  0.00    -0.380 OA
BRANCH  15  16
HETATM   16  C3  UNL     1      -2.169   2.290  -0.209  1.00  0.00     0.194 C 
BRANCH  16  17
HETATM   17  C2  UNL     1      -3.060   3.026   0.722  1.00  0.00    -0.011 C 
HETATM   18  C1  UNL     1      -2.729   4.198   1.222  1.00  0.00     0.009 C 
ENDBRANCH  16  17
ENDBRANCH  15  16
ENDBRANCH   1  15
BRANCH   2  19
HETATM   19  C6  UNL     1      -3.029  -1.027  -0.241  1.00  0.00     0.096 C 
HETATM   20  S1  UNL     1      -3.950  -2.463  -0.839  1.00  0.00    -0.097 SA
ENDBRANCH   2  19
BRANCH   3  21
HETATM   21  C8  UNL     1      -0.329  -2.417  -2.402  1.00  0.00     0.028 C 
HETATM   22  C9  UNL     1       0.365  -3.752  -2.285  1.00  0.00     0.007 C 
ENDBRANCH   3  21
BRANCH  11  23
HETATM   23  O5  UNL     1       1.157   1.856  -1.501  1.00  0.00    -0.364 OA
ATOM     24  H5  UNL     1       0.255   2.146  -1.568  1.00  0.00     0.213 HD
ENDBRANCH  11  23
BRANCH  13  25
HETATM   25  O7  UNL     1      -0.370   0.678   2.247  1.00  0.00    -0.360 OA
ATOM     26  H7  UNL     1      -1.093   1.239   1.991  1.00  0.00     0.213 HD
ENDBRANCH  13  25
BRANCH   7  27
HETATM   27  O4  UNL     1       2.013  -0.300   3.137  1.00  0.00    -0.361 OA
ATOM     28  H4  UNL     1       2.215   0.555   3.499  1.00  0.00     0.213 HD
ENDBRANCH   7  27
TORSDOF 8
