REMARK  7 active torsions:
REMARK  status: ('A' for Active; 'I' for Inactive)
REMARK    1  A    between atoms: C2_2  and  N1_3 
REMARK       I    between atoms: N1_3  and  C3_5 
REMARK       I    between atoms: C3_5  and  N2_7 
REMARK    2  A    between atoms: N2_7  and  C4_9 
REMARK    3  A    between atoms: C7_12  and  N3_13 
REMARK    4  A    between atoms: N3_13  and  C8_15 
REMARK    5  A    between atoms: C9_18  and  O2_19 
REMARK    6  A    between atoms: O2_19  and  C10_20 
REMARK    7  A    between atoms: C13_23  and  O3_24 
ROOT
HETATM    1  C8  UNL     1      -1.085  -0.019  -0.206  1.00  0.00     0.164 A 
HETATM    2  N4  UNL     1      -2.403  -0.110  -0.103  1.00  0.00    -0.301 N 
ATOM      3  H4  UNL     1      -2.865  -1.012  -0.219  1.00  0.00     0.171 HD
HETATM    4  C9  UNL     1      -3.100   0.950   0.145  1.00  0.00     0.232 A 
HETATM    5  N5  UNL     1      -2.447   2.113   0.288  1.00  0.00    -0.289 N 
ATOM      6  H5  UNL     1      -2.824   3.040   0.483  1.00  0.00     0.178 HD
HETATM    7  S1  UNL     1      -0.844   1.649   0.062  1.00  0.00     0.025 SA
ENDROOT
BRANCH   1   8
HETATM    8  N3  UNL     1      -0.264  -1.000  -0.450  1.00  0.00    -0.365 N 
ATOM      9  H3  UNL     1      -0.650  -1.935  -0.577  1.00  0.00     0.162 HD
BRANCH   8  10
HETATM   10  C7  UNL     1       1.150  -0.830  -0.548  1.00  0.00     0.083 C 
HETATM   11  C6  UNL     1       1.601   0.106  -1.640  1.00  0.00     0.027 C 
HETATM   12  C5  UNL     1       3.099  -0.049  -1.780  1.00  0.00     0.027 C 
HETATM   13  C4  UNL     1       3.787   0.188  -0.480  1.00  0.00     0.086 C 
HETATM   14  C17 UNL     1       2.791   0.634   0.553  1.00  0.00     0.027 C 
HETATM   15  C16 UNL     1       1.688  -0.373   0.771  1.00  0.00     0.027 C 
BRANCH  13  16
HETATM   16  N2  UNL     1       4.832   1.176  -0.609  1.00  0.00    -0.339 N 
HETATM   17  C3  UNL     1       6.184   0.898  -0.352  1.00  0.00     0.316 C 
HETATM   18  N1  UNL     1       7.181   1.908  -0.493  1.00  0.00    -0.343 N 
HETATM   19  O1  UNL     1       6.555  -0.244   0.007  1.00  0.00    -0.247 OA
ATOM     20  H1  UNL     1       6.901   2.845  -0.784  1.00  0.00     0.164 HD
ATOM     21  H2  UNL     1       4.576   2.119  -0.900  1.00  0.00     0.164 HD
BRANCH  18  22
HETATM   22  C2  UNL     1       8.580   1.638  -0.234  1.00  0.00     0.120 C 
HETATM   23  C1  UNL     1       8.829   1.182   1.186  1.00  0.00     0.026 C 
ENDBRANCH  18  22
ENDBRANCH  13  16
ENDBRANCH   8  10
ENDBRANCH   1   8
BRANCH   4  24
HETATM   24  O2  UNL     1      -4.512   0.934   0.270  1.00  0.00    -0.316 OA
BRANCH  24  25
HETATM   25  C10 UNL     1      -5.200  -0.264   0.124  1.00  0.00     0.135 C 
HETATM   26  C11 UNL     1      -6.248  -0.201  -0.984  1.00  0.00     0.035 C 
HETATM   27  C12 UNL     1      -6.866  -1.555  -1.119  1.00  0.00     0.037 C 
HETATM   28  C13 UNL     1      -7.506  -1.979   0.186  1.00  0.00     0.152 C 
HETATM   29  C14 UNL     1      -6.411  -2.059   1.245  1.00  0.00     0.201 C 
HETATM   30  F1  UNL     1      -6.958  -2.534   2.419  1.00  0.00    -0.247 F 
HETATM   31  C15 UNL     1      -5.905  -0.644   1.436  1.00  0.00     0.072 C 
BRANCH  28  32
HETATM   32  O3  UNL     1      -8.078  -3.224   0.078  1.00  0.00    -0.393 OA
ATOM     33  H3  UNL     1      -8.480  -3.490   0.897  1.00  0.00     0.210 HD
ENDBRANCH  28  32
ENDBRANCH  24  25
ENDBRANCH   4  24
TORSDOF 7
