REMARK  10 active torsions:
REMARK  status: ('A' for Active; 'I' for Inactive)
REMARK    1  A    between atoms: C2_2  and  C3_3 
REMARK    2  A    between atoms: C4_4  and  C5_5 
REMARK    3  A    between atoms: C5_5  and  O1_6 
REMARK    4  A    between atoms: C8_10  and  N1_11 
REMARK    5  A    between atoms: C10_13  and  C11_14 
REMARK    6  A    between atoms: C11_14  and  N2_15 
REMARK    7  A    between atoms: N2_15  and  N3_17 
REMARK    8  A    between atoms: C14_22  and  C15_23 
REMARK    9  A    between atoms: C15_23  and  C16_25 
REMARK   10  A    between atoms: C19_29  and  N4_31 
ROOT
HETATM    1  C5  UNL     1       2.687   0.573  -0.019  1.00  0.00     0.153 C 
HETATM    2  C6  UNL     1       2.360   0.494   1.452  1.00  0.00     0.056 C 
HETATM    3  C7  UNL     1       0.834   0.328   1.498  1.00  0.00     0.030 C 
HETATM    4  C8  UNL     1       0.309  -0.744   0.610  1.00  0.00     0.091 C 
HETATM    5  C18 UNL     1       0.840  -0.773  -0.781  1.00  0.00     0.068 C 
HETATM    6  C19 UNL     1       2.364  -0.664  -0.770  1.00  0.00     0.164 C 
HETATM    7  C20 UNL     1       2.926  -1.937  -0.210  1.00  0.00     0.050 C 
ENDROOT
BRANCH   4   8
HETATM    8  N1  UNL     1      -1.141  -0.694   0.565  1.00  0.00    -0.360 N 
HETATM    9  C9  UNL     1      -1.731   0.215  -0.228  1.00  0.00     0.103 A 
HETATM   10  C10 UNL     1      -3.114   0.276  -0.310  1.00  0.00     0.023 A 
HETATM   11  C13 UNL     1      -3.903  -0.588   0.426  1.00  0.00     0.196 A 
HETATM   12  O2  UNL     1      -5.164  -0.514   0.342  1.00  0.00    -0.287 OA
HETATM   13  C14 UNL     1      -3.295  -1.496   1.226  1.00  0.00     0.078 A 
HETATM   14  C17 UNL     1      -1.916  -1.530   1.279  1.00  0.00     0.110 A 
BRANCH  10  15
HETATM   15  C11 UNL     1      -3.803   1.141  -1.309  1.00  0.00     0.156 C 
BRANCH  15  16
HETATM   16  N2  UNL     1      -4.828   1.934  -0.632  1.00  0.00    -0.238 NA
HETATM   17  C12 UNL     1      -6.061   1.842  -1.488  1.00  0.00     0.136 C 
BRANCH  16  18
HETATM   18  N3  UNL     1      -4.497   3.308  -0.623  1.00  0.00    -0.363 NA
ATOM     19  H32 UNL     1      -3.661   3.370  -0.042  1.00  0.00     0.171 HD
ATOM     20  H31 UNL     1      -5.212   3.861  -0.151  1.00  0.00     0.171 HD
ENDBRANCH  16  18
ENDBRANCH  15  16
ENDBRANCH  10  15
BRANCH  13  21
HETATM   21  C15 UNL     1      -4.159  -2.348   2.044  1.00  0.00     0.193 C 
HETATM   22  O3  UNL     1      -4.975  -1.779   2.855  1.00  0.00    -0.289 OA
BRANCH  21  23
HETATM   23  C16 UNL     1      -4.067  -3.823   1.891  1.00  0.00     0.306 C 
HETATM   24  F1  UNL     1      -4.818  -4.490   2.817  1.00  0.00    -0.247 F 
ENDBRANCH  21  23
ENDBRANCH  13  21
ENDBRANCH   4   8
BRANCH   6  25
HETATM   25  N4  UNL     1       2.861  -0.525  -2.127  1.00  0.00    -0.067 N 
ATOM     26  H43 UNL     1       2.510   0.315  -2.588  1.00  0.00     0.275 HD
ATOM     27  H42 UNL     1       3.855  -0.297  -2.158  1.00  0.00     0.275 HD
ATOM     28  H41 UNL     1       2.639  -1.376  -2.644  1.00  0.00     0.275 HD
ENDBRANCH   6  25
BRANCH   1  29
HETATM   29  C4  UNL     1       4.069   1.018  -0.256  1.00  0.00    -0.066 C 
HETATM   30  C3  UNL     1       5.184   1.409  -0.414  1.00  0.00    -0.104 C 
BRANCH  30  31
HETATM   31  C2  UNL     1       6.568   1.907  -0.578  1.00  0.00     0.089 C 
HETATM   32  C1  UNL     1       7.462   0.995   0.244  1.00  0.00     0.018 C 
ENDBRANCH  30  31
ENDBRANCH   1  29
BRANCH   1  33
HETATM   33  O1  UNL     1       1.786   1.546  -0.519  1.00  0.00    -0.375 OA
ATOM     34  H1  UNL     1       0.894   1.259  -0.366  1.00  0.00     0.211 HD
ENDBRANCH   1  33
TORSDOF 10
