REMARK  19 active torsions:
REMARK  status: ('A' for Active; 'I' for Inactive)
REMARK    1  A    between atoms: C2_2  and  C3_3 
REMARK    2  A    between atoms: C2_2  and  C5_10 
REMARK    3  A    between atoms: C3_3  and  C4_4 
REMARK    4  A    between atoms: C4_4  and  P1_5 
REMARK    5  A    between atoms: P1_5  and  O1_6 
REMARK    6  A    between atoms: P1_5  and  O2_8 
REMARK       I    between atoms: C5_10  and  N1_12 
REMARK    7  A    between atoms: N1_12  and  C6_14 
REMARK    8  A    between atoms: C6_14  and  C7_15 
REMARK    9  A    between atoms: C6_14  and  N8_35 
REMARK   10  A    between atoms: C7_15  and  C8_16 
REMARK   11  A    between atoms: C8_16  and  N2_17 
REMARK   12  A    between atoms: N2_17  and  C9_19 
REMARK   13  A    between atoms: C9_19  and  N7_31 
REMARK   14  A    between atoms: N7_31  and  C14_33 
REMARK   15  A    between atoms: N8_35  and  C15_36 
REMARK   16  A    between atoms: N8_35  and  C17_38 
REMARK   17  A    between atoms: C17_38  and  C18_39 
REMARK   18  A    between atoms: C18_39  and  C19_40 
REMARK   19  A    between atoms: C19_40  and  O5_41 
ROOT
HETATM    1  C6  UNL     1      -0.886  -0.492  -0.812  1.00  0.00     0.325 C 
ENDROOT
BRANCH   1   2
HETATM    2  N1  UNL     1      -1.627   0.776  -0.453  1.00  0.00    -0.326 N 
HETATM    3  C5  UNL     1      -2.619   0.964   0.458  1.00  0.00     0.260 C 
HETATM    4  O3  UNL     1      -3.056   0.062   1.204  1.00  0.00    -0.267 OA
ATOM      5  H1  UNL     1      -1.342   1.609  -0.968  1.00  0.00     0.165 HD
BRANCH   3   6
HETATM    6  C2  UNL     1      -3.268   2.276   0.639  1.00  0.00     0.068 C 
HETATM    7  C1  UNL     1      -2.861   3.309  -0.192  1.00  0.00     0.038 C 
BRANCH   6   8
HETATM    8  C3  UNL     1      -4.238   2.633   1.529  1.00  0.00    -0.107 C 
BRANCH   8   9
HETATM    9  C4  UNL     1      -5.147   2.938   2.378  1.00  0.00     0.121 C 
BRANCH   9  10
HETATM   10  P1  UNL     1      -5.856   4.671   2.346  1.00  0.00     0.197 P 
BRANCH  10  11
HETATM   11  O1  UNL     1      -6.309   5.078   0.720  1.00  0.00    -0.346 OA
ATOM     12  H1  UNL     1      -6.669   5.957   0.704  1.00  0.00     0.217 HD
ENDBRANCH  10  11
BRANCH  10  13
HETATM   13  O2  UNL     1      -4.709   5.818   2.901  1.00  0.00    -0.346 OA
ATOM     14  H2  UNL     1      -5.069   6.697   2.885  1.00  0.00     0.217 HD
ENDBRANCH  10  13
ENDBRANCH   9  10
ENDBRANCH   8   9
ENDBRANCH   6   8
ENDBRANCH   3   6
ENDBRANCH   1   2
BRANCH   1  15
HETATM   15  C7  UNL     1       0.521  -0.284  -0.506  1.00  0.00     0.077 C 
BRANCH  15  16
HETATM   16  C8  UNL     1       1.561  -1.301  -0.887  1.00  0.00     0.125 C 
BRANCH  16  17
HETATM   17  N2  UNL     1       2.889  -0.883  -0.567  1.00  0.00    -0.373 N 
ATOM     18  H2  UNL     1       3.413  -1.464   0.088  1.00  0.00     0.161 HD
BRANCH  17  19
HETATM   19  C9  UNL     1       3.561   0.293  -1.089  1.00  0.00     0.151 C 
HETATM   20  C10 UNL     1       4.383   0.917  -0.224  1.00  0.00     0.167 A 
HETATM   21  N3  UNL     1       5.097   2.062  -0.591  1.00  0.00    -0.268 N 
HETATM   22  N6  UNL     1       4.623   0.422   1.094  1.00  0.00    -0.327 N 
HETATM   23  N4  UNL     1       5.925   2.631   0.221  1.00  0.00    -0.240 N 
ATOM     24  H3  UNL     1       4.961   2.457  -1.521  1.00  0.00     0.190 HD
HETATM   25  N5  UNL     1       6.145   2.134   1.492  1.00  0.00    -0.275 N 
ATOM     26  H4  UNL     1       6.427   3.465  -0.082  1.00  0.00     0.208 HD
HETATM   27  C11 UNL     1       5.560   1.094   1.966  1.00  0.00     0.094 A 
ATOM     28  H5  UNL     1       6.812   2.623   2.089  1.00  0.00     0.189 HD
HETATM   29  C12 UNL     1       5.858   0.632   3.329  1.00  0.00     0.090 C 
ATOM     30  H6  UNL     1       4.131  -0.409   1.422  1.00  0.00     0.169 HD
BRANCH  19  31
HETATM   31  N7  UNL     1       3.336   0.803  -2.354  1.00  0.00    -0.313 N 
HETATM   32  C13 UNL     1       2.698  -0.079  -3.371  1.00  0.00     0.160 C 
BRANCH  31  33
HETATM   33  C14 UNL     1       3.686   2.063  -2.857  1.00  0.00     0.356 C 
HETATM   34  O4  UNL     1       3.424   2.382  -4.089  1.00  0.00    -0.283 OA
ENDBRANCH  31  33
ENDBRANCH  19  31
ENDBRANCH  17  19
ENDBRANCH  16  17
ENDBRANCH  15  16
ENDBRANCH   1  15
BRANCH   1  35
HETATM   35  N8  UNL     1      -1.659  -1.515  -0.231  1.00  0.00     0.111 N 
BRANCH  35  36
HETATM   36  C15 UNL     1      -2.766  -1.874  -1.132  1.00  0.00     0.270 C 
HETATM   37  C16 UNL     1      -2.325  -2.585  -2.358  1.00  0.00     0.037 C 
ENDBRANCH  35  36
BRANCH  35  38
HETATM   38  C17 UNL     1      -1.081  -2.650   0.355  1.00  0.00     0.277 C 
BRANCH  38  39
HETATM   39  C18 UNL     1      -2.080  -3.629   0.957  1.00  0.00     0.056 C 
BRANCH  39  40
HETATM   40  C19 UNL     1      -1.301  -4.822   1.516  1.00  0.00     0.165 C 
BRANCH  40  41
HETATM   41  O5  UNL     1      -0.593  -5.402   0.432  1.00  0.00    -0.401 OA
ATOM     42  H5  UNL     1      -0.109  -6.142   0.779  1.00  0.00     0.209 HD
ENDBRANCH  40  41
ENDBRANCH  39  40
ENDBRANCH  38  39
ENDBRANCH  35  38
ENDBRANCH   1  35
TORSDOF 19
