REMARK  4 active torsions:
REMARK  status: ('A' for Active; 'I' for Inactive)
REMARK    1  A    between atoms: N5_10  and  C3_12 
REMARK    2  A    between atoms: C3_12  and  C4_13 
REMARK    3  A    between atoms: C7_22  and  N8_23 
REMARK    4  A    between atoms: N8_23  and  S1_25 
ROOT
HETATM    1  C4  UNL     1      -0.995  -0.194   0.003  1.00  0.00     0.085 A 
HETATM    2  N6  UNL     1      -0.706  -1.460   0.295  1.00  0.00    -0.305 N 
ATOM      3  H6  UNL     1       0.140  -1.880  -0.091  1.00  0.00     0.171 HD
HETATM    4  C5  UNL     1      -1.517  -2.209   1.100  1.00  0.00     0.327 A 
HETATM    5  O2  UNL     1      -1.187  -3.410   1.342  1.00  0.00    -0.247 OA
HETATM    6  N7  UNL     1      -2.644  -1.722   1.642  1.00  0.00    -0.273 N 
ATOM      7  H7  UNL     1      -3.227  -2.308   2.239  1.00  0.00     0.173 HD
HETATM    8  C6  UNL     1      -2.992  -0.450   1.385  1.00  0.00     0.279 A 
HETATM    9  O3  UNL     1      -4.049   0.046   1.878  1.00  0.00    -0.265 OA
HETATM   10  C7  UNL     1      -2.165   0.318   0.561  1.00  0.00     0.139 A 
ENDROOT
BRANCH   1  11
HETATM   11  C3  UNL     1      -0.159   0.687  -0.863  1.00  0.00     0.122 C 
BRANCH  11  12
HETATM   12  N5  UNL     1       0.984  -0.006  -1.306  1.00  0.00    -0.345 N 
HETATM   13  C2  UNL     1       2.068  -0.185  -0.726  1.00  0.00     0.188 C 
HETATM   14  C1  UNL     1       2.403   0.306   0.598  1.00  0.00     0.303 C 
HETATM   15  N4  UNL     1       3.151  -0.933  -1.352  1.00  0.00    -0.267 N 
HETATM   16  O1  UNL     1       1.624   0.969   1.313  1.00  0.00    -0.263 OA
HETATM   17  N1  UNL     1       3.735  -0.025   1.062  1.00  0.00    -0.249 N 
HETATM   18  N2  UNL     1       4.710  -0.062   0.087  1.00  0.00    -0.006 NA
ATOM     19  H1  UNL     1       3.938  -0.218   2.043  1.00  0.00     0.187 HD
HETATM   20  N3  UNL     1       4.450  -0.929  -0.947  1.00  0.00    -0.007 NA
ATOM     21  H4  UNL     1       2.915  -1.507  -2.161  1.00  0.00     0.185 HD
ATOM     22  H5  UNL     1       0.912  -0.420  -2.235  1.00  0.00     0.167 HD
ENDBRANCH  11  12
ENDBRANCH   1  11
BRANCH  10  23
HETATM   23  N8  UNL     1      -2.519   1.661   0.298  1.00  0.00    -0.263 N 
ATOM     24  H8  UNL     1      -2.166   2.410   0.894  1.00  0.00     0.180 HD
BRANCH  23  25
HETATM   25  S1  UNL     1      -3.541   2.024  -1.022  1.00  0.00     0.359 S 
HETATM   26  O4  UNL     1      -3.622   0.885  -2.032  1.00  0.00    -0.187 OA
HETATM   27  O5  UNL     1      -3.222   3.306  -1.698  1.00  0.00    -0.187 OA
ENDBRANCH  23  25
ENDBRANCH  10  23
TORSDOF 4
