REMARK  4 active torsions:
REMARK  status: ('A' for Active; 'I' for Inactive)
REMARK    1  A    between atoms: N1_1  and  N2_4 
REMARK    2  A    between atoms: N2_4  and  C1_5 
REMARK    3  A    between atoms: C1_5  and  C2_6 
REMARK       I    between atoms: C2_6  and  N3_8 
REMARK       I    between atoms: N3_8  and  C3_10 
REMARK       I    between atoms: C3_10  and  N4_11 
REMARK       I    between atoms: C3_10  and  N5_15 
REMARK    4  A    between atoms: N5_15  and  C4_17 
ROOT
HETATM    1  C4  UNL     1      -1.394  -0.679  -0.193  1.00  0.00     0.124 A 
HETATM    2  N6  UNL     1      -1.783  -1.946  -0.401  1.00  0.00    -0.338 N 
ATOM      3  H6  UNL     1      -1.086  -2.658  -0.619  1.00  0.00     0.168 HD
HETATM    4  C5  UNL     1      -3.087  -2.290  -0.325  1.00  0.00     0.183 A 
HETATM    5  N7  UNL     1      -4.037  -1.380  -0.040  1.00  0.00    -0.338 N 
ATOM      6  H7  UNL     1      -5.014  -1.668   0.011  1.00  0.00     0.168 HD
HETATM    7  C6  UNL     1      -3.708  -0.090   0.179  1.00  0.00     0.128 A 
HETATM    8  N8  UNL     1      -4.802   0.643   0.444  1.00  0.00    -0.304 N 
ATOM      9  H8  UNL     1      -5.701   0.170   0.353  1.00  0.00     0.171 HD
HETATM   10  C7  UNL     1      -4.838   1.944   0.819  1.00  0.00     0.315 C 
HETATM   11  O2  UNL     1      -5.945   2.399   1.158  1.00  0.00    -0.262 OA
HETATM   12  C8  UNL     1      -3.758   2.814   0.859  1.00  0.00     0.316 C 
HETATM   13  O3  UNL     1      -4.077   4.034   1.005  1.00  0.00    -0.262 OA
HETATM   14  N9  UNL     1      -2.445   2.589   0.772  1.00  0.00    -0.285 N 
ATOM     15  H9  UNL     1      -1.835   3.332   1.114  1.00  0.00     0.172 HD
HETATM   16  C9  UNL     1      -1.834   1.493   0.284  1.00  0.00     0.266 C 
HETATM   17  O4  UNL     1      -0.610   1.609  -0.049  1.00  0.00    -0.267 OA
HETATM   18  C10 UNL     1      -2.372   0.242   0.097  1.00  0.00     0.120 A 
ENDROOT
BRANCH   1  19
HETATM   19  N5  UNL     1      -0.188  -0.247  -0.241  1.00  0.00    -0.332 N 
HETATM   20  C3  UNL     1       0.867  -1.157  -0.537  1.00  0.00     0.390 C 
HETATM   21  N3  UNL     1       2.187  -0.638  -0.265  1.00  0.00    -0.316 N 
HETATM   22  N4  UNL     1       0.878  -1.569  -1.947  1.00  0.00    -0.041 N 
HETATM   23  C2  UNL     1       3.120  -1.263   0.589  1.00  0.00     0.236 C 
ATOM     24  H3  UNL     1       2.462   0.234  -0.718  1.00  0.00     0.166 HD
HETATM   25  O1  UNL     1       2.896  -2.332   1.196  1.00  0.00    -0.272 OA
ATOM     26  H43 UNL     1       1.163  -0.827  -2.586  1.00  0.00     0.279 HD
ATOM     27  H42 UNL     1       1.627  -2.222  -2.175  1.00  0.00     0.279 HD
ATOM     28  H41 UNL     1      -0.054  -1.936  -2.139  1.00  0.00     0.279 HD
ATOM     29  H5  UNL     1       0.014   0.738  -0.069  1.00  0.00     0.165 HD
BRANCH  23  30
HETATM   30  C1  UNL     1       4.452  -0.639   0.798  1.00  0.00     0.237 C 
BRANCH  30  31
HETATM   31  N2  UNL     1       4.581   0.592   0.038  1.00  0.00    -0.139 NA
BRANCH  31  32
HETATM   32  N1  UNL     1       5.816   1.183   0.224  1.00  0.00    -0.348 N 
ATOM     33  H12 UNL     1       6.539   0.790   0.826  1.00  0.00     0.172 HD
ATOM     34  H11 UNL     1       5.907   2.047  -0.310  1.00  0.00     0.172 HD
ENDBRANCH  31  32
ENDBRANCH  30  31
ENDBRANCH  23  30
ENDBRANCH   1  19
TORSDOF 4
