REMARK  7 active torsions:
REMARK  status: ('A' for Active; 'I' for Inactive)
REMARK       I    between atoms: C1_2  and  N2_4 
REMARK       I    between atoms: N2_4  and  C2_6 
REMARK    1  A    between atoms: C2_6  and  C3_8 
REMARK    2  A    between atoms: C3_8  and  N3_9 
REMARK    3  A    between atoms: C3_8  and  C5_14 
REMARK    4  A    between atoms: C5_14  and  O3_15 
REMARK    5  A    between atoms: C5_14  and  C6_17 
REMARK    6  A    between atoms: C6_17  and  O4_18 
REMARK    7  A    between atoms: C6_17  and  N6_20 
ROOT
HETATM    1  C5  UNL     1       0.370   0.203  -0.363  1.00  0.00     0.199 C 
ENDROOT
BRANCH   1   2
HETATM    2  C3  UNL     1      -0.963  -0.444  -0.529  1.00  0.00     0.209 C 
BRANCH   2   3
HETATM    3  C2  UNL     1      -1.876   0.590  -1.088  1.00  0.00     0.250 C 
HETATM    4  N2  UNL     1      -3.068   1.026  -0.491  1.00  0.00    -0.280 N 
HETATM    5  C1  UNL     1      -3.865   2.014  -1.103  1.00  0.00     0.335 C 
ATOM      6  H2  UNL     1      -3.362   0.622   0.398  1.00  0.00     0.173 HD
HETATM    7  N1  UNL     1      -5.081   2.495  -0.546  1.00  0.00    -0.040 NA
HETATM    8  O1  UNL     1      -3.508   2.522  -2.210  1.00  0.00    -0.251 OA
HETATM    9  O2  UNL     1      -1.532   1.098  -2.181  1.00  0.00    -0.271 OA
ENDBRANCH   2   3
BRANCH   2  10
HETATM   10  N3  UNL     1      -1.562  -0.870   0.708  1.00  0.00    -0.351 N 
HETATM   11  C4  UNL     1      -1.851  -2.030   1.068  1.00  0.00     0.197 C 
HETATM   12  N4  UNL     1      -2.439  -2.257   2.328  1.00  0.00    -0.067 NA
HETATM   13  N5  UNL     1      -1.600  -3.136   0.234  1.00  0.00    -0.067 NA
ATOM     14  H3  UNL     1      -1.778  -0.130   1.376  1.00  0.00     0.162 HD
ENDBRANCH   2  10
ENDBRANCH   1   2
BRANCH   1  15
HETATM   15  O3  UNL     1       0.837   0.565  -1.627  1.00  0.00    -0.389 OA
ATOM     16  H3  UNL     1       1.686   0.977  -1.521  1.00  0.00     0.210 HD
ENDBRANCH   1  15
BRANCH   1  17
HETATM   17  C6  UNL     1       1.412  -0.684   0.265  1.00  0.00     0.260 C 
BRANCH  17  18
HETATM   18  O4  UNL     1       1.631  -1.829  -0.496  1.00  0.00    -0.373 OA
ATOM     19  H4  UNL     1       2.288  -2.389  -0.100  1.00  0.00     0.212 HD
ENDBRANCH  17  18
BRANCH  17  20
HETATM   20  N6  UNL     1       2.643   0.064   0.313  1.00  0.00    -0.280 N 
HETATM   21  C7  UNL     1       2.839   0.921   1.325  1.00  0.00     0.104 A 
HETATM   22  C8  UNL     1       4.019   1.673   1.418  1.00  0.00     0.092 A 
HETATM   23  C9  UNL     1       4.941   1.476   0.421  1.00  0.00     0.250 A 
HETATM   24  O5  UNL     1       6.016   2.133   0.467  1.00  0.00    -0.268 OA
HETATM   25  N7  UNL     1       4.747   0.615  -0.598  1.00  0.00    -0.275 N 
HETATM   26  C10 UNL     1       3.577  -0.089  -0.634  1.00  0.00     0.331 A 
ATOM     27  H7  UNL     1       5.455   0.493  -1.322  1.00  0.00     0.173 HD
HETATM   28  O6  UNL     1       3.391  -0.897  -1.587  1.00  0.00    -0.246 OA
ENDBRANCH  17  20
ENDBRANCH   1  17
TORSDOF 7
