REMARK  10 active torsions:
REMARK  status: ('A' for Active; 'I' for Inactive)
REMARK    1  A    between atoms: N1_1  and  C1_4 
REMARK    2  A    between atoms: C2_7  and  O1_8 
REMARK    3  A    between atoms: C3_10  and  C4_11 
REMARK    4  A    between atoms: C4_11  and  N3_12 
REMARK    5  A    between atoms: N3_12  and  C5_14 
REMARK    6  A    between atoms: C6_19  and  C7_20 
REMARK    7  A    between atoms: C7_20  and  N6_21 
REMARK    8  A    between atoms: C7_20  and  O2_25 
REMARK    9  A    between atoms: N8_30  and  N9_32 
REMARK   10  A    between atoms: N9_32  and  C9_34 
ROOT
HETATM    1  C1  UNL     1      -4.302  -0.710  -1.081  1.00  0.00     0.679 A 
HETATM    2  N2  UNL     1      -3.588  -1.837  -1.213  1.00  0.00    -0.170 N 
ATOM      3  H2  UNL     1      -4.004  -2.636  -1.692  1.00  0.00     0.186 HD
HETATM    4  C2  UNL     1      -2.328  -1.941  -0.726  1.00  0.00     0.167 A 
HETATM    5  C3  UNL     1      -1.775  -0.869  -0.087  1.00  0.00     0.057 A 
HETATM    6  C8  UNL     1      -2.508   0.287   0.060  1.00  0.00     0.147 A 
HETATM    7  N8  UNL     1      -1.998   1.202   0.764  1.00  0.00    -0.282 N 
ATOM      8  H8  UNL     1      -1.080   0.962   1.138  1.00  0.00     0.188 HD
HETATM    9  N10 UNL     1      -3.779   0.347  -0.451  1.00  0.00    -0.175 N 
ATOM     10  H10 UNL     1      -4.327   1.201  -0.350  1.00  0.00     0.186 HD
ENDROOT
BRANCH   5  11
HETATM   11  C4  UNL     1      -0.336  -0.983   0.388  1.00  0.00     0.185 C 
BRANCH  11  12
HETATM   12  N3  UNL     1       0.412  -0.140  -0.480  1.00  0.00    -0.220 N 
ATOM     13  H3  UNL     1      -0.154   0.415  -1.122  1.00  0.00     0.178 HD
BRANCH  12  14
HETATM   14  C5  UNL     1       1.634   0.035  -0.589  1.00  0.00     0.694 A 
HETATM   15  N4  UNL     1       2.251   0.889  -1.492  1.00  0.00    -0.131 N 
HETATM   16  N5  UNL     1       3.535   0.858  -1.247  1.00  0.00    -0.271 N 
ATOM     17  H4  UNL     1       1.788   1.440  -2.215  1.00  0.00     0.205 HD
HETATM   18  C6  UNL     1       3.733   0.007  -0.214  1.00  0.00     0.169 A 
ATOM     19  H5  UNL     1       4.256   1.380  -1.744  1.00  0.00     0.189 HD
HETATM   20  N7  UNL     1       2.574  -0.516   0.206  1.00  0.00    -0.174 N 
ATOM     21  H7  UNL     1       2.433  -1.185   0.963  1.00  0.00     0.185 HD
BRANCH  18  22
HETATM   22  C7  UNL     1       5.048  -0.299   0.448  1.00  0.00     0.386 C 
BRANCH  22  23
HETATM   23  N6  UNL     1       6.067  -0.381  -0.581  1.00  0.00    -0.046 N 
ATOM     24  H63 UNL     1       5.832  -1.049  -1.315  1.00  0.00     0.277 HD
ATOM     25  H62 UNL     1       6.106   0.456  -1.163  1.00  0.00     0.277 HD
ATOM     26  H61 UNL     1       6.959  -0.589  -0.132  1.00  0.00     0.277 HD
ENDBRANCH  22  23
BRANCH  22  27
HETATM   27  O2  UNL     1       5.271   0.815   1.280  1.00  0.00    -0.364 OA
ATOM     28  H2  UNL     1       6.102   0.622   1.698  1.00  0.00     0.212 HD
ENDBRANCH  22  27
ENDBRANCH  18  22
ENDBRANCH  12  14
ENDBRANCH  11  12
ENDBRANCH   5  11
BRANCH   4  29
HETATM   29  O1  UNL     1      -1.557  -3.106  -0.851  1.00  0.00    -0.345 OA
ATOM     30  H1  UNL     1      -0.673  -3.179  -0.510  1.00  0.00     0.219 HD
ENDBRANCH   4  29
BRANCH   7  31
HETATM   31  N9  UNL     1      -2.425   2.450   1.128  1.00  0.00    -0.276 N 
ATOM     32  H9  UNL     1      -2.371   3.227   0.469  1.00  0.00     0.189 HD
BRANCH  31  33
HETATM   33  C9  UNL     1      -2.954   2.653   2.460  1.00  0.00     0.368 C 
HETATM   34  O3  UNL     1      -3.052   1.747   3.314  1.00  0.00    -0.282 OA
ENDBRANCH  31  33
ENDBRANCH   7  31
BRANCH   1  35
HETATM   35  N1  UNL     1      -5.480  -0.639  -1.625  1.00  0.00    -0.234 N 
ATOM     36  H12 UNL     1      -5.879  -1.445  -2.106  1.00  0.00     0.174 HD
ATOM     37  H11 UNL     1      -6.023   0.218  -1.525  1.00  0.00     0.174 HD
ENDBRANCH   1  35
TORSDOF 10
