REMARK  9 active torsions:
REMARK  status: ('A' for Active; 'I' for Inactive)
REMARK    1  A    between atoms: N1_1  and  C1_4 
REMARK    2  A    between atoms: C3_10  and  N4_11 
REMARK    3  A    between atoms: N4_11  and  C4_13 
REMARK    4  A    between atoms: C4_13  and  C5_14 
REMARK       I    between atoms: C5_14  and  N5_16 
REMARK    5  A    between atoms: N5_16  and  C6_18 
REMARK    6  A    between atoms: C6_18  and  C7_19 
REMARK    7  A    between atoms: N7_24  and  N8_25 
REMARK    8  A    between atoms: C9_28  and  C10_29 
REMARK    9  A    between atoms: C10_29  and  N9_30 
ROOT
HETATM    1  C5  UNL     1       0.693  -0.393   0.537  1.00  0.00     0.236 C 
HETATM    2  O1  UNL     1       0.318  -0.057  -0.610  1.00  0.00    -0.272 OA
HETATM    3  N5  UNL     1      -0.215  -1.122   1.346  1.00  0.00    -0.354 N 
ATOM      4  H5  UNL     1       0.093  -1.400   2.278  1.00  0.00     0.162 HD
ENDROOT
BRANCH   3   5
HETATM    5  C6  UNL     1      -1.534  -1.492   0.939  1.00  0.00     0.181 C 
BRANCH   5   6
HETATM    6  C7  UNL     1      -2.459  -0.371   0.690  1.00  0.00     0.058 A 
HETATM    7  N6  UNL     1      -2.207   0.939   0.843  1.00  0.00    -0.307 N 
HETATM    8  C8  UNL     1      -3.359   1.578   0.514  1.00  0.00     0.345 A 
ATOM      9  H6  UNL     1      -1.331   1.366   1.144  1.00  0.00     0.170 HD
HETATM   10  O2  UNL     1      -3.530   2.828   0.529  1.00  0.00    -0.245 OA
HETATM   11  N7  UNL     1      -4.306   0.677   0.164  1.00  0.00    -0.213 N 
HETATM   12  C9  UNL     1      -3.772  -0.553   0.265  1.00  0.00     0.088 A 
BRANCH  11  13
HETATM   13  N8  UNL     1      -5.606   1.007  -0.229  1.00  0.00    -0.334 N 
ATOM     14  H82 UNL     1      -6.011   1.940  -0.306  1.00  0.00     0.177 HD
ATOM     15  H81 UNL     1      -6.320   0.328  -0.493  1.00  0.00     0.177 HD
ENDBRANCH  11  13
BRANCH  12  16
HETATM   16  C10 UNL     1      -4.451  -1.845  -0.022  1.00  0.00     0.290 C 
BRANCH  16  17
HETATM   17  N9  UNL     1      -5.820  -1.649  -0.444  1.00  0.00    -0.074 N 
ATOM     18  H93 UNL     1      -6.343  -1.097   0.236  1.00  0.00     0.274 HD
ATOM     19  H92 UNL     1      -5.876  -1.015  -1.241  1.00  0.00     0.274 HD
ATOM     20  H91 UNL     1      -6.286  -2.535  -0.641  1.00  0.00     0.274 HD
ENDBRANCH  16  17
ENDBRANCH  12  16
ENDBRANCH   5   6
ENDBRANCH   3   5
BRANCH   1  21
HETATM   21  C4  UNL     1       2.052  -0.014   0.982  1.00  0.00     0.240 C 
BRANCH  21  22
HETATM   22  N4  UNL     1       2.728   0.715  -0.052  1.00  0.00    -0.217 N 
ATOM     23  H4  UNL     1       2.168   1.236  -0.726  1.00  0.00     0.178 HD
BRANCH  22  24
HETATM   24  C3  UNL     1       3.999   0.741  -0.167  1.00  0.00     0.693 A 
HETATM   25  N3  UNL     1       4.751   0.068   0.704  1.00  0.00    -0.187 N 
HETATM   26  C2  UNL     1       6.085   0.046   0.651  1.00  0.00     0.215 A 
ATOM     27  H3  UNL     1       4.285  -0.455   1.446  1.00  0.00     0.185 HD
HETATM   28  N2  UNL     1       6.682   0.740  -0.330  1.00  0.00    -0.187 N 
HETATM   29  C1  UNL     1       5.952   1.429  -1.223  1.00  0.00     0.691 A 
ATOM     30  H2  UNL     1       7.700   0.745  -0.398  1.00  0.00     0.185 HD
HETATM   31  N10 UNL     1       4.608   1.431  -1.143  1.00  0.00    -0.023 N 
ATOM     32  H10 UNL     1       4.055   1.955  -1.822  1.00  0.00     0.203 HD
BRANCH  29  33
HETATM   33  N1  UNL     1       6.566   2.081  -2.149  1.00  0.00    -0.234 N 
ATOM     34  H12 UNL     1       7.584   2.079  -2.210  1.00  0.00     0.174 HD
ATOM     35  H11 UNL     1       6.012   2.604  -2.827  1.00  0.00     0.174 HD
ENDBRANCH  29  33
ENDBRANCH  22  24
ENDBRANCH  21  22
ENDBRANCH   1  21
TORSDOF 9
