REMARK  9 active torsions:
REMARK  status: ('A' for Active; 'I' for Inactive)
REMARK    1  A    between atoms: N1_1  and  C1_4 
REMARK    2  A    between atoms: C2_7  and  N3_8 
REMARK    3  A    between atoms: N5_14  and  C6_16 
REMARK    4  A    between atoms: C6_16  and  C7_17 
REMARK    5  A    between atoms: C7_17  and  O1_18 
REMARK    6  A    between atoms: O1_18  and  C8_19 
REMARK    7  A    between atoms: C8_19  and  C9_20 
REMARK    8  A    between atoms: C9_20  and  N6_21 
REMARK    9  A    between atoms: C11_30  and  N9_31 
ROOT
HETATM    1  N3  UNL     1       2.542  -0.069  -0.773  1.00  0.00    -0.121 N 
HETATM    2  C3  UNL     1       2.020  -1.434  -0.701  1.00  0.00     0.187 C 
HETATM    3  C4  UNL     1       0.948  -1.440   0.331  1.00  0.00     0.143 C 
HETATM    4  N4  UNL     1      -0.224  -0.698  -0.076  1.00  0.00    -0.374 N 
ATOM      5  H4  UNL     1      -1.090  -1.224  -0.194  1.00  0.00     0.161 HD
HETATM    6  C5  UNL     1      -0.276   0.686  -0.324  1.00  0.00     0.114 C 
HETATM    7  N5  UNL     1      -1.408   1.240  -0.176  1.00  0.00    -0.373 N 
ATOM      8  H5  UNL     1      -1.523   2.241  -0.337  1.00  0.00     0.161 HD
HETATM    9  C10 UNL     1       0.803   1.565  -0.726  1.00  0.00     0.155 C 
HETATM   10  N7  UNL     1       1.914   0.993  -1.374  1.00  0.00    -0.292 N 
ATOM     11  H7  UNL     1       2.244   1.358  -2.267  1.00  0.00     0.186 HD
ENDROOT
BRANCH   1  12
HETATM   12  C2  UNL     1       3.816   0.156  -0.169  1.00  0.00     0.728 A 
HETATM   13  N2  UNL     1       4.854  -0.509  -0.697  1.00  0.00    -0.020 N 
HETATM   14  C1  UNL     1       6.069  -0.317  -0.156  1.00  0.00     0.705 A 
ATOM     15  H2  UNL     1       4.725  -1.142  -1.486  1.00  0.00     0.203 HD
HETATM   16  N10 UNL     1       6.208   0.529   0.889  1.00  0.00    -0.022 N 
HETATM   17  C11 UNL     1       5.158   1.190   1.409  1.00  0.00     0.705 A 
ATOM     18  H10 UNL     1       7.133   0.670   1.294  1.00  0.00     0.203 HD
HETATM   19  N8  UNL     1       3.926   0.994   0.859  1.00  0.00    -0.020 N 
ATOM     20  H8  UNL     1       3.107   1.479   1.227  1.00  0.00     0.203 HD
BRANCH  14  21
HETATM   21  N1  UNL     1       7.102  -0.936  -0.623  1.00  0.00    -0.234 N 
ATOM     22  H12 UNL     1       6.997  -1.574  -1.412  1.00  0.00     0.174 HD
ATOM     23  H11 UNL     1       8.024  -0.790  -0.212  1.00  0.00     0.174 HD
ENDBRANCH  14  21
BRANCH  17  24
HETATM   24  N9  UNL     1       5.329   1.996   2.406  1.00  0.00    -0.234 N 
ATOM     25  H92 UNL     1       4.533   2.497   2.800  1.00  0.00     0.174 HD
ATOM     26  H91 UNL     1       6.251   2.143   2.817  1.00  0.00     0.174 HD
ENDBRANCH  17  24
ENDBRANCH   1  12
BRANCH   7  27
HETATM   27  C6  UNL     1      -2.552   0.407   0.234  1.00  0.00     0.147 C 
BRANCH  27  28
HETATM   28  C7  UNL     1      -3.736   1.259   0.538  1.00  0.00     0.187 C 
BRANCH  28  29
HETATM   29  O1  UNL     1      -4.813   0.522   0.931  1.00  0.00    -0.388 OA
BRANCH  29  30
HETATM   30  C8  UNL     1      -5.270  -0.352  -0.019  1.00  0.00     0.195 C 
BRANCH  30  31
HETATM   31  C9  UNL     1      -6.517  -1.106   0.503  1.00  0.00     0.255 C 
BRANCH  31  32
HETATM   32  N6  UNL     1      -6.943  -2.001  -0.536  1.00  0.00    -0.077 N 
ATOM     33  H63 UNL     1      -7.106  -1.530  -1.426  1.00  0.00     0.274 HD
ATOM     34  H62 UNL     1      -6.202  -2.627  -0.851  1.00  0.00     0.274 HD
ATOM     35  H61 UNL     1      -7.765  -2.498  -0.192  1.00  0.00     0.274 HD
ENDBRANCH  31  32
ENDBRANCH  30  31
ENDBRANCH  29  30
ENDBRANCH  28  29
ENDBRANCH  27  28
ENDBRANCH   7  27
TORSDOF 9
