REMARK  8 active torsions:
REMARK  status: ('A' for Active; 'I' for Inactive)
REMARK    1  A    between atoms: C2_2  and  C3_3 
REMARK    2  A    between atoms: C4_4  and  C5_5 
REMARK       I    between atoms: C5_5  and  N1_7 
REMARK    3  A    between atoms: N1_7  and  C6_9 
REMARK    4  A    between atoms: C6_9  and  C7_10 
REMARK    5  A    between atoms: C7_10  and  C8_11 
REMARK    6  A    between atoms: N4_18  and  C11_19 
REMARK    7  A    between atoms: N9_31  and  C13_32 
REMARK    8  A    between atoms: C14_38  and  N12_39 
ROOT
HETATM    1  C5  UNL     1       0.825   1.042  -0.282  1.00  0.00     0.270 C 
HETATM    2  O1  UNL     1       0.339   1.732  -1.200  1.00  0.00    -0.266 OA
HETATM    3  N1  UNL     1      -0.010   0.570   0.753  1.00  0.00    -0.355 N 
ATOM      4  H1  UNL     1       0.429   0.009   1.484  1.00  0.00     0.162 HD
ENDROOT
BRANCH   3   5
HETATM    5  C6  UNL     1      -1.413   0.806   0.870  1.00  0.00     0.129 C 
BRANCH   5   6
HETATM    6  C7  UNL     1      -2.234   0.264  -0.290  1.00  0.00     0.081 C 
BRANCH   6   7
HETATM    7  C8  UNL     1      -3.667   0.541  -0.092  1.00  0.00     0.063 A 
HETATM    8  C9  UNL     1      -4.233   1.798  -0.289  1.00  0.00     0.048 A 
HETATM    9  C10 UNL     1      -3.546   3.041  -0.718  1.00  0.00     0.072 C 
HETATM   10  N2  UNL     1      -5.537   1.633  -0.007  1.00  0.00    -0.288 N 
HETATM   11  N3  UNL     1      -5.744   0.392   0.330  1.00  0.00    -0.234 N 
ATOM     12  H2  UNL     1      -6.249   2.362  -0.050  1.00  0.00     0.188 HD
HETATM   13  N4  UNL     1      -4.607  -0.329   0.292  1.00  0.00    -0.223 N 
ATOM     14  H3  UNL     1      -6.654   0.013   0.590  1.00  0.00     0.209 HD
BRANCH  13  15
HETATM   15  C11 UNL     1      -4.492  -1.708   0.603  1.00  0.00     0.196 A 
HETATM   16  N5  UNL     1      -3.677  -2.657   0.124  1.00  0.00    -0.220 N 
HETATM   17  O2  UNL     1      -3.926  -3.802   0.704  1.00  0.00    -0.153 OA
ATOM     18  H5  UNL     1      -2.965  -2.508  -0.591  1.00  0.00     0.198 HD
HETATM   19  N6  UNL     1      -4.885  -3.674   1.567  1.00  0.00    -0.222 N 
HETATM   20  C12 UNL     1      -5.278  -2.387   1.546  1.00  0.00     0.169 A 
ATOM     21  H6  UNL     1      -5.271  -4.413   2.154  1.00  0.00     0.198 HD
HETATM   22  N7  UNL     1      -6.198  -1.838   2.244  1.00  0.00    -0.381 N 
ATOM     23  H72 UNL     1      -6.496  -0.863   2.228  1.00  0.00     0.157 HD
ATOM     24  H71 UNL     1      -6.769  -2.332   2.930  1.00  0.00     0.157 HD
ENDBRANCH  13  15
ENDBRANCH   6   7
ENDBRANCH   5   6
ENDBRANCH   3   5
BRANCH   1  25
HETATM   25  C4  UNL     1       2.264   0.750  -0.326  1.00  0.00     0.128 A 
HETATM   26  C3  UNL     1       3.196   1.130  -1.262  1.00  0.00     0.045 A 
HETATM   27  C15 UNL     1       4.411   0.615  -0.860  1.00  0.00     0.277 A 
HETATM   28  N9  UNL     1       4.230  -0.060   0.286  1.00  0.00    -0.197 N 
HETATM   29  O4  UNL     1       5.470   0.771  -1.480  1.00  0.00    -0.266 OA
HETATM   30  N8  UNL     1       2.957   0.024   0.597  1.00  0.00    -0.283 N 
ATOM     31  H8  UNL     1       2.539  -0.400   1.425  1.00  0.00     0.188 HD
BRANCH  26  32
HETATM   32  C2  UNL     1       2.899   1.941  -2.474  1.00  0.00     0.042 C 
HETATM   33  C1  UNL     1       2.239   1.152  -3.560  1.00  0.00     0.010 C 
ENDBRANCH  26  32
BRANCH  28  34
HETATM   34  C13 UNL     1       5.262  -0.746   1.029  1.00  0.00     0.198 A 
HETATM   35  N10 UNL     1       6.458  -0.246   1.390  1.00  0.00    -0.220 N 
HETATM   36  O3  UNL     1       7.100  -1.169   2.045  1.00  0.00    -0.153 OA
ATOM     37  H10 UNL     1       6.801   0.693   1.186  1.00  0.00     0.198 HD
HETATM   38  N11 UNL     1       6.411  -2.250   2.142  1.00  0.00    -0.222 N 
HETATM   39  C14 UNL     1       5.235  -2.034   1.514  1.00  0.00     0.169 A 
ATOM     40  H11 UNL     1       6.699  -3.111   2.607  1.00  0.00     0.198 HD
BRANCH  39  41
HETATM   41  N12 UNL     1       4.267  -2.870   1.387  1.00  0.00    -0.381 N 
ATOM     42 2H12 UNL     1       3.379  -2.707   0.913  1.00  0.00     0.157 HD
ATOM     43 1H12 UNL     1       4.247  -3.824   1.746  1.00  0.00     0.157 HD
ENDBRANCH  39  41
ENDBRANCH  28  34
ENDBRANCH   1  25
TORSDOF 8
