REMARK  10 active torsions:
REMARK  status: ('A' for Active; 'I' for Inactive)
REMARK    1  A    between atoms: O1_2  and  C2_3 
REMARK    2  A    between atoms: C2_3  and  C3_5 
REMARK    3  A    between atoms: C9_12  and  N2_13 
REMARK    4  A    between atoms: N2_13  and  N3_14 
REMARK    5  A    between atoms: N3_14  and  C10_16 
REMARK    6  A    between atoms: C11_17  and  C12_18 
REMARK       I    between atoms: C12_18  and  N4_20 
REMARK    7  A    between atoms: N4_20  and  N5_22 
REMARK       I    between atoms: N7_27  and  C13_28 
REMARK    8  A    between atoms: C13_28  and  C14_30 
REMARK    9  A    between atoms: C14_30  and  N8_31 
REMARK   10  A    between atoms: C14_30  and  C15_35 
ROOT
HETATM    1  C10 UNL     1       1.034   0.191   0.707  1.00  0.00     0.164 A 
HETATM    2  C11 UNL     1       1.649   1.368   0.317  1.00  0.00     0.153 A 
HETATM    3  N6  UNL     1       2.952   1.098   0.179  1.00  0.00    -0.281 N 
ATOM      4  H6  UNL     1       3.662   1.774  -0.101  1.00  0.00     0.188 HD
HETATM    5  N7  UNL     1       3.187  -0.187   0.461  1.00  0.00    -0.182 N 
HETATM    6  C13 UNL     1       4.466  -0.800   0.382  1.00  0.00     0.287 C 
HETATM    7  O4  UNL     1       5.446  -0.076  -0.008  1.00  0.00    -0.268 OA
HETATM    8  C16 UNL     1       2.029  -0.764   0.787  1.00  0.00     0.301 A 
HETATM    9  O7  UNL     1       1.790  -1.978   1.124  1.00  0.00    -0.263 OA
ENDROOT
BRANCH   1  10
HETATM   10  N3  UNL     1      -0.339   0.073   0.959  1.00  0.00    -0.227 N 
ATOM     11  H3  UNL     1      -0.512   0.304   1.937  1.00  0.00     0.202 HD
BRANCH  10  12
HETATM   12  N2  UNL     1      -1.333  -0.188   0.466  1.00  0.00    -0.324 NA
BRANCH  12  13
HETATM   13  C9  UNL     1      -2.236  -0.552  -0.470  1.00  0.00     0.155 A 
HETATM   14  C3  UNL     1      -3.550  -0.080  -0.355  1.00  0.00     0.106 A 
HETATM   15  C4  UNL     1      -4.540  -0.419  -1.273  1.00  0.00     0.066 A 
HETATM   16  N1  UNL     1      -5.851   0.090  -1.091  1.00  0.00    -0.101 NA
HETATM   17  C5  UNL     1      -4.215  -1.245  -2.328  1.00  0.00     0.028 A 
HETATM   18  C6  UNL     1      -2.941  -1.733  -2.484  1.00  0.00     0.012 A 
HETATM   19  C7  UNL     1      -1.975  -1.387  -1.566  1.00  0.00    -0.018 A 
HETATM   20  C8  UNL     1      -0.603  -1.930  -1.753  1.00  0.00     0.052 C 
BRANCH  14  21
HETATM   21  C2  UNL     1      -3.887   0.794   0.745  1.00  0.00     0.298 C 
HETATM   22  O2  UNL     1      -3.044   1.127   1.591  1.00  0.00    -0.259 OA
BRANCH  21  23
HETATM   23  O1  UNL     1      -5.184   1.276   0.861  1.00  0.00    -0.322 OA
HETATM   24  C1  UNL     1      -5.600   2.139   1.909  1.00  0.00     0.213 C 
ENDBRANCH  21  23
ENDBRANCH  14  21
ENDBRANCH  12  13
ENDBRANCH  10  12
ENDBRANCH   1  10
BRANCH   2  25
HETATM   25  C12 UNL     1       1.007   2.674   0.106  1.00  0.00     0.290 C 
HETATM   26  O3  UNL     1      -0.216   2.809   0.340  1.00  0.00    -0.264 OA
HETATM   27  N4  UNL     1       1.744   3.787  -0.358  1.00  0.00    -0.271 N 
ATOM     28  H4  UNL     1       2.739   3.662  -0.545  1.00  0.00     0.189 HD
BRANCH  27  29
HETATM   29  N5  UNL     1       1.193   5.030  -0.572  1.00  0.00    -0.342 N 
ATOM     30  H52 UNL     1       0.197   5.137  -0.380  1.00  0.00     0.176 HD
ATOM     31  H51 UNL     1       1.725   5.833  -0.907  1.00  0.00     0.176 HD
ENDBRANCH  27  29
ENDBRANCH   2  25
BRANCH   6  32
HETATM   32  C14 UNL     1       4.790  -2.193   0.700  1.00  0.00     0.376 C 
BRANCH  32  33
HETATM   33  N8  UNL     1       5.993  -2.607  -0.074  1.00  0.00    -0.056 N 
ATOM     34  H83 UNL     1       5.879  -2.456  -1.076  1.00  0.00     0.275 HD
ATOM     35  H82 UNL     1       6.784  -1.982   0.078  1.00  0.00     0.275 HD
ATOM     36  H81 UNL     1       6.219  -3.577   0.147  1.00  0.00     0.275 HD
ENDBRANCH  32  33
BRANCH  32  37
HETATM   37  C15 UNL     1       5.183  -2.353   2.153  1.00  0.00     0.214 C 
HETATM   38  O5  UNL     1       4.419  -2.062   3.099  1.00  0.00    -0.646 OA
HETATM   39  O6  UNL     1       6.451  -2.847   2.499  1.00  0.00    -0.646 OA
ENDBRANCH  32  37
ENDBRANCH   6  32
TORSDOF 10
