REMARK  10 active torsions:
REMARK  status: ('A' for Active; 'I' for Inactive)
REMARK    1  A    between atoms: C2_2  and  O2_4 
REMARK    2  A    between atoms: O2_4  and  C3_5 
REMARK    3  A    between atoms: C3_5  and  C4_6 
REMARK    4  A    between atoms: C4_6  and  N1_7 
REMARK    5  A    between atoms: C5_9  and  C6_10 
REMARK    6  A    between atoms: C8_12  and  O3_13 
REMARK    7  A    between atoms: C10_17  and  O4_18 
REMARK    8  A    between atoms: C14_27  and  O5_28 
REMARK    9  A    between atoms: C17_32  and  C18_33 
REMARK   10  A    between atoms: N5_34  and  N6_36 
ROOT
HETATM    1  C6  UNL     1       1.321  -0.208  -0.918  1.00  0.00     0.024 A 
HETATM    2  C7  UNL     1       1.065  -0.269   0.362  1.00  0.00     0.043 A 
HETATM    3  C8  UNL     1       1.028  -0.365   1.849  1.00  0.00     0.104 C 
HETATM    4  C9  UNL     1      -0.035  -0.464   2.687  1.00  0.00     0.114 C 
HETATM    5  N2  UNL     1       0.229  -0.543   4.058  1.00  0.00    -0.096 NA
HETATM    6  C10 UNL     1      -1.467  -0.522   2.323  1.00  0.00     0.108 C 
HETATM    7  C11 UNL     1      -2.117   0.207   1.415  1.00  0.00     0.065 C 
HETATM    8  C12 UNL     1      -1.778   1.277   0.488  1.00  0.00     0.104 C 
HETATM    9  N3  UNL     1      -0.746   1.144  -0.431  1.00  0.00    -0.364 N 
ATOM     10  H3  UNL     1      -0.452   1.945  -0.990  1.00  0.00     0.162 HD
HETATM   11  C13 UNL     1      -0.107  -0.101  -0.589  1.00  0.00     0.168 A 
HETATM   12  N4  UNL     1      -1.019  -1.213  -0.666  1.00  0.00    -0.336 N 
ATOM     13  H4  UNL     1      -0.663  -2.048  -0.200  1.00  0.00     0.164 HD
HETATM   14  C14 UNL     1      -2.263  -1.406  -1.226  1.00  0.00     0.145 C 
HETATM   15  C15 UNL     1      -3.619  -0.963  -1.001  1.00  0.00     0.004 C 
HETATM   16  C16 UNL     1      -4.500  -0.940  -2.240  1.00  0.00     0.054 C 
HETATM   17  C17 UNL     1      -4.216  -0.556   0.112  1.00  0.00     0.042 C 
HETATM   18  C19 UNL     1      -3.464  -0.452   1.380  1.00  0.00     0.198 C 
HETATM   19  O6  UNL     1      -3.911  -0.903   2.450  1.00  0.00    -0.286 OA
ENDROOT
BRANCH   1  20
HETATM   20  C5  UNL     1       2.367  -0.237  -1.941  1.00  0.00     0.095 C 
HETATM   21  N1  UNL     1       3.604  -0.370  -1.675  1.00  0.00    -0.396 N 
ATOM     22  H1  UNL     1       3.883  -0.461  -0.698  1.00  0.00     0.158 HD
BRANCH  21  23
HETATM   23  C4  UNL     1       4.615  -0.398  -2.672  1.00  0.00     0.146 C 
BRANCH  23  24
HETATM   24  C3  UNL     1       5.791   0.484  -2.506  1.00  0.00     0.198 C 
BRANCH  24  25
HETATM   25  O2  UNL     1       6.601   0.353  -1.417  1.00  0.00    -0.320 OA
BRANCH  25  26
HETATM   26  C2  UNL     1       6.366   0.556  -0.099  1.00  0.00     0.254 C 
HETATM   27  C1  UNL     1       7.433   0.330   0.953  1.00  0.00     0.126 C 
HETATM   28  O1  UNL     1       5.230   0.943   0.261  1.00  0.00    -0.266 OA
ENDBRANCH  25  26
ENDBRANCH  24  25
ENDBRANCH  23  24
ENDBRANCH  21  23
ENDBRANCH   1  20
BRANCH   3  29
HETATM   29  O3  UNL     1       2.223  -0.355   2.480  1.00  0.00    -0.358 OA
ATOM     30  H3  UNL     1       2.199  -0.416   3.428  1.00  0.00     0.217 HD
ENDBRANCH   3  29
BRANCH  14  31
HETATM   31  O5  UNL     1      -2.169  -2.255  -2.276  1.00  0.00    -0.346 OA
ATOM     32  H5  UNL     1      -3.027  -2.388  -2.662  1.00  0.00     0.219 HD
ENDBRANCH  14  31
BRANCH   6  33
HETATM   33  O4  UNL     1      -2.227  -1.445   3.018  1.00  0.00    -0.358 OA
ATOM     34  H4  UNL     1      -3.147  -1.482   2.784  1.00  0.00     0.217 HD
ENDBRANCH   6  33
BRANCH  17  35
HETATM   35  C18 UNL     1      -5.625  -0.136   0.212  1.00  0.00     0.122 C 
HETATM   36  N5  UNL     1      -6.469  -0.090  -0.744  1.00  0.00    -0.318 N 
ATOM     37  H5  UNL     1      -6.175  -0.364  -1.681  1.00  0.00     0.185 HD
BRANCH  36  38
HETATM   38  N6  UNL     1      -7.778   0.324  -0.539  1.00  0.00    -0.345 N 
ATOM     39  H62 UNL     1      -8.056   0.595   0.404  1.00  0.00     0.176 HD
ATOM     40  H61 UNL     1      -8.453   0.361  -1.303  1.00  0.00     0.176 HD
ENDBRANCH  36  38
ENDBRANCH  17  35
TORSDOF 10
