REMARK  7 active torsions:
REMARK  status: ('A' for Active; 'I' for Inactive)
REMARK    1  A    between atoms: C1_2  and  S1_3 
REMARK    2  A    between atoms: S1_3  and  C2_4 
REMARK    3  A    between atoms: N1_7  and  C5_8 
REMARK    4  A    between atoms: C7_10  and  O2_11 
REMARK    5  A    between atoms: C8_13  and  O3_14 
REMARK    6  A    between atoms: C9_16  and  O4_17 
REMARK    7  A    between atoms: C10_19  and  O5_20 
ROOT
HETATM    1  C5  UNL     1      -0.356  -0.135   0.361  1.00  0.00     0.122 C 
HETATM    2  C6  UNL     1      -0.681   1.207  -0.301  1.00  0.00     0.062 C 
HETATM    3  C7  UNL     1      -2.051   1.134  -0.977  1.00  0.00     0.151 C 
HETATM    4  C8  UNL     1      -2.879   0.179  -0.185  1.00  0.00     0.178 C 
HETATM    5  C9  UNL     1      -2.362  -1.229  -0.473  1.00  0.00     0.180 C 
HETATM    6  C10 UNL     1      -0.831  -1.208  -0.549  1.00  0.00     0.172 C 
ENDROOT
BRANCH   1   7
HETATM    7  N1  UNL     1       1.065  -0.176   0.632  1.00  0.00    -0.358 N 
HETATM    8  C4  UNL     1       1.740  -1.212   1.147  1.00  0.00     0.092 A 
HETATM    9  C3  UNL     1       3.080  -0.897   1.269  1.00  0.00     0.037 A 
HETATM   10  C2  UNL     1       3.212   0.393   0.802  1.00  0.00     0.024 A 
HETATM   11  C11 UNL     1       1.969   0.798   0.424  1.00  0.00     0.110 A 
BRANCH  10  12
HETATM   12  S1  UNL     1       4.762   1.321   0.728  1.00  0.00    -0.060 SA
BRANCH  12  13
HETATM   13  C1  UNL     1       5.591   1.079  -0.812  1.00  0.00     0.309 C 
HETATM   14  O1  UNL     1       6.492   0.269  -0.928  1.00  0.00    -0.295 OA
ENDBRANCH  12  13
ENDBRANCH  10  12
ENDBRANCH   1   7
BRANCH   6  15
HETATM   15  O5  UNL     1      -0.391  -2.471  -0.253  1.00  0.00    -0.391 OA
ATOM     16  H5  UNL     1      -0.695  -3.157  -0.835  1.00  0.00     0.210 HD
ENDBRANCH   6  15
BRANCH   3  17
HETATM   17  O2  UNL     1      -2.622   2.392  -1.096  1.00  0.00    -0.393 OA
ATOM     18  H2  UNL     1      -3.473   2.347  -1.516  1.00  0.00     0.210 HD
ENDBRANCH   3  17
BRANCH   5  19
HETATM   19  O4  UNL     1      -2.802  -2.099   0.522  1.00  0.00    -0.390 OA
ATOM     20  H4  UNL     1      -2.480  -2.975   0.343  1.00  0.00     0.210 HD
ENDBRANCH   5  19
BRANCH   4  21
HETATM   21  O3  UNL     1      -4.230   0.220  -0.479  1.00  0.00    -0.390 OA
ATOM     22  H3  UNL     1      -4.757  -0.388   0.025  1.00  0.00     0.210 HD
ENDBRANCH   4  21
TORSDOF 7
