REMARK  7 active torsions:
REMARK  status: ('A' for Active; 'I' for Inactive)
REMARK    1  A    between atoms: C3_3  and  C4_4 
REMARK    2  A    between atoms: C4_4  and  S1_5 
REMARK    3  A    between atoms: S1_5  and  S2_6 
REMARK    4  A    between atoms: C6_9  and  O2_10 
REMARK    5  A    between atoms: C7_12  and  O3_13 
REMARK    6  A    between atoms: C8_15  and  O4_16 
REMARK    7  A    between atoms: C9_18  and  O5_19 
ROOT
HETATM    1  C4  UNL     1      -0.425   0.350   0.221  1.00  0.00     0.168 C 
HETATM    2  O1  UNL     1       0.643   0.827   1.022  1.00  0.00    -0.330 OA
HETATM    3  C6  UNL     1       1.398  -0.231   1.524  1.00  0.00     0.290 C 
HETATM    4  C7  UNL     1       2.247  -0.875   0.454  1.00  0.00     0.204 C 
HETATM    5  C8  UNL     1       1.628  -0.464  -0.891  1.00  0.00     0.184 C 
HETATM    6  C9  UNL     1       0.127  -0.729  -0.684  1.00  0.00     0.199 C 
ENDROOT
BRANCH   1   7
HETATM    7  C3  UNL     1      -0.906   1.523  -0.553  1.00  0.00     0.021 C 
HETATM    8  C2  UNL     1      -0.983   2.751  -0.057  1.00  0.00    -0.031 C 
HETATM    9  C1  UNL     1      -1.459   3.890  -0.839  1.00  0.00     0.036 C 
ENDBRANCH   1   7
BRANCH   1  10
HETATM   10  S1  UNL     1      -1.668  -0.253   1.380  1.00  0.00    -0.052 SA
BRANCH  10  11
HETATM   11  S2  UNL     1      -3.301  -1.006   0.250  1.00  0.00    -0.099 SA
HETATM   12  C5  UNL     1      -2.995  -2.739  -0.050  1.00  0.00     0.103 C 
ENDBRANCH  10  11
ENDBRANCH   1  10
BRANCH   6  13
HETATM   13  O5  UNL     1       0.068  -1.995  -0.100  1.00  0.00    -0.389 OA
ATOM     14  H5  UNL     1       0.415  -2.673  -0.668  1.00  0.00     0.210 HD
ENDBRANCH   6  13
BRANCH   3  15
HETATM   15  O2  UNL     1       2.288   0.330   2.451  1.00  0.00    -0.368 OA
ATOM     16  H2  UNL     1       2.803  -0.391   2.793  1.00  0.00     0.212 HD
ENDBRANCH   3  15
BRANCH   5  17
HETATM   17  O4  UNL     1       2.101  -1.304  -1.875  1.00  0.00    -0.390 OA
ATOM     18  H4  UNL     1       1.718  -1.050  -2.707  1.00  0.00     0.210 HD
ENDBRANCH   5  17
BRANCH   4  19
HETATM   19  O3  UNL     1       3.580  -0.500   0.527  1.00  0.00    -0.388 OA
ATOM     20  H3  UNL     1       4.114  -0.905  -0.146  1.00  0.00     0.210 HD
ENDBRANCH   4  19
TORSDOF 7
