REMARK  7 active torsions:
REMARK  status: ('A' for Active; 'I' for Inactive)
REMARK    1  A    between atoms: O1_1  and  C1_3 
REMARK    2  A    between atoms: C1_3  and  C2_4 
REMARK    3  A    between atoms: C3_5  and  C4_6 
REMARK    4  A    between atoms: C4_6  and  O2_7 
REMARK    5  A    between atoms: O2_7  and  C5_8 
REMARK    6  A    between atoms: C10_15  and  O4_16 
REMARK    7  A    between atoms: C11_18  and  O5_19 
ROOT
HETATM    1  C2  UNL     1      -1.514  -0.804   0.200  1.00  0.00     0.072 C 
HETATM    2  C3  UNL     1      -0.405  -0.015   0.743  1.00  0.00     0.154 C 
HETATM    3  O3  UNL     1      -0.574   1.351   0.753  1.00  0.00    -0.381 OA
HETATM    4  C9  UNL     1      -1.380   1.872  -0.213  1.00  0.00     0.202 C 
HETATM    5  C10 UNL     1      -2.775   1.337  -0.138  1.00  0.00     0.171 C 
HETATM    6  C11 UNL     1      -2.851  -0.073   0.397  1.00  0.00     0.157 C 
ENDROOT
BRANCH   2   7
HETATM    7  C4  UNL     1       0.945  -0.307   0.142  1.00  0.00     0.208 C 
BRANCH   7   8
HETATM    8  O2  UNL     1       1.983   0.287   0.883  1.00  0.00    -0.348 OA
BRANCH   8   9
HETATM    9  C5  UNL     1       3.349   0.148   0.503  1.00  0.00     0.075 A 
HETATM   10  C6  UNL     1       3.772  -0.542  -0.565  1.00  0.00     0.044 A 
HETATM   11  C7  UNL     1       5.112  -0.593  -0.811  1.00  0.00     0.052 A 
HETATM   12  S1  UNL     1       5.770   0.329   0.460  1.00  0.00    -0.111 SA
HETATM   13  C8  UNL     1       4.326   0.752   1.267  1.00  0.00     0.086 A 
ENDBRANCH   8   9
ENDBRANCH   7   8
ENDBRANCH   2   7
BRANCH   1  14
HETATM   14  C1  UNL     1      -1.453  -1.202  -1.230  1.00  0.00     0.174 C 
BRANCH  14  15
HETATM   15  O1  UNL     1      -0.381  -1.974  -1.595  1.00  0.00    -0.400 OA
ATOM     16  H1  UNL     1      -0.342  -2.229  -2.509  1.00  0.00     0.209 HD
ENDBRANCH  14  15
ENDBRANCH   1  14
BRANCH   6  17
HETATM   17  O5  UNL     1      -3.265  -0.131   1.718  1.00  0.00    -0.392 OA
ATOM     18  H5  UNL     1      -4.092   0.321   1.840  1.00  0.00     0.210 HD
ENDBRANCH   6  17
BRANCH   5  19
HETATM   19  O4  UNL     1      -3.522   2.137   0.728  1.00  0.00    -0.391 OA
ATOM     20  H4  UNL     1      -4.408   1.797   0.776  1.00  0.00     0.210 HD
ENDBRANCH   5  19
TORSDOF 7
