REMARK  4 active torsions:
REMARK  status: ('A' for Active; 'I' for Inactive)
REMARK    1  A    between atoms: C2_2  and  C3_3 
REMARK    2  A    between atoms: C5_5  and  N1_6 
REMARK       I    between atoms: N1_6  and  C6_8 
REMARK       I    between atoms: C6_8  and  N2_10 
REMARK       I    between atoms: N2_10  and  C7_12 
REMARK    3  A    between atoms: C7_12  and  C8_14 
REMARK    4  A    between atoms: C11_18  and  C12_19 
ROOT
HETATM    1  N1  UNL     1      -3.223   1.841   0.787  1.00  0.00    -0.287 N 
ATOM      2  H1  UNL     1      -2.955   2.390   1.604  1.00  0.00     0.172 HD
HETATM    3  C6  UNL     1      -2.647   2.162  -0.449  1.00  0.00     0.329 C 
HETATM    4  O1  UNL     1      -3.365   2.686  -1.328  1.00  0.00    -0.247 OA
HETATM    5  N2  UNL     1      -1.277   1.912  -0.732  1.00  0.00    -0.275 N 
ATOM      6  H2  UNL     1      -0.896   2.162  -1.645  1.00  0.00     0.173 HD
HETATM    7  C7  UNL     1      -0.450   1.330   0.222  1.00  0.00     0.265 C 
HETATM    8  O2  UNL     1      -1.009   1.035   1.343  1.00  0.00    -0.267 OA
ENDROOT
BRANCH   7   9
HETATM    9  C8  UNL     1       0.961   1.014   0.105  1.00  0.00     0.109 A 
HETATM   10  C9  UNL     1       1.785   1.356  -0.938  1.00  0.00     0.136 A 
HETATM   11  F1  UNL     1       1.289   2.077  -1.959  1.00  0.00    -0.205 F 
HETATM   12  C10 UNL     1       3.132   0.972  -0.942  1.00  0.00     0.055 A 
HETATM   13  C11 UNL     1       3.694   0.251   0.071  1.00  0.00    -0.020 A 
HETATM   14  C18 UNL     1       2.860  -0.087   1.114  1.00  0.00     0.055 A 
HETATM   15  C19 UNL     1       1.535   0.273   1.148  1.00  0.00     0.136 A 
HETATM   16  F2  UNL     1       0.784  -0.105   2.218  1.00  0.00    -0.205 F 
BRANCH  13  17
HETATM   17  C12 UNL     1       5.094  -0.149   0.069  1.00  0.00    -0.026 A 
HETATM   18  C13 UNL     1       5.497  -1.336   0.683  1.00  0.00     0.012 A 
HETATM   19  C14 UNL     1       6.826  -1.712   0.680  1.00  0.00     0.001 A 
HETATM   20  C15 UNL     1       7.793  -0.935   0.076  1.00  0.00     0.000 A 
HETATM   21  C16 UNL     1       7.420   0.253  -0.543  1.00  0.00     0.001 A 
HETATM   22  C17 UNL     1       6.089   0.599  -0.523  1.00  0.00     0.012 A 
ENDBRANCH  13  17
ENDBRANCH   7   9
BRANCH   1  23
HETATM   23  C5  UNL     1      -4.073   0.888   0.943  1.00  0.00     0.176 A 
HETATM   24  C4  UNL     1      -4.535   0.062  -0.039  1.00  0.00     0.085 A 
HETATM   25  C3  UNL     1      -5.430  -0.823   0.542  1.00  0.00     0.036 A 
HETATM   26  N3  UNL     1      -5.459  -0.481   1.849  1.00  0.00    -0.263 N 
HETATM   27  O3  UNL     1      -4.657   0.523   2.060  1.00  0.00    -0.220 OA
ATOM     28  H3  UNL     1      -6.024  -0.940   2.563  1.00  0.00     0.194 HD
BRANCH  25  29
HETATM   29  C2  UNL     1      -6.177  -1.898  -0.149  1.00  0.00     0.055 C 
HETATM   30  C1  UNL     1      -7.505  -1.391  -0.660  1.00  0.00     0.011 C 
ENDBRANCH  25  29
ENDBRANCH   1  23
TORSDOF 4
