REMARK  3 active torsions:
REMARK  status: ('A' for Active; 'I' for Inactive)
REMARK       I    between atoms: N1_2  and  C2_4 
REMARK    1  A    between atoms: C2_4  and  C3_6 
REMARK    2  A    between atoms: C5_8  and  C6_9 
REMARK    3  A    between atoms: C6_9  and  C7_10 
ROOT
HETATM    1  C6  UNL     1      -0.966   1.119  -1.100  1.00  0.00     0.099 C 
ENDROOT
BRANCH   1   2
HETATM    2  C5  UNL     1       0.093   0.413  -0.325  1.00  0.00    -0.036 A 
HETATM    3  C4  UNL     1       1.392   0.589  -0.736  1.00  0.00     0.028 A 
HETATM    4  C3  UNL     1       2.440  -0.081  -0.048  1.00  0.00     0.054 A 
HETATM    5  C15 UNL     1       2.158  -0.892   1.010  1.00  0.00     0.021 A 
HETATM    6  N4  UNL     1       0.851  -1.042   1.392  1.00  0.00    -0.368 N 
HETATM    7  C16 UNL     1       3.189  -1.676   1.749  1.00  0.00     0.069 C 
HETATM    8  C14 UNL     1      -0.141  -0.410   0.745  1.00  0.00     0.095 A 
ATOM      9  H4  UNL     1       0.627  -1.646   2.183  1.00  0.00     0.165 HD
BRANCH   4  10
HETATM   10  C2  UNL     1       3.769   0.198  -0.486  1.00  0.00     0.253 C 
HETATM   11  N1  UNL     1       4.914   0.221   0.283  1.00  0.00    -0.361 N 
HETATM   12  C1  UNL     1       6.245   0.516  -0.287  1.00  0.00     0.149 C 
ATOM     13  H1  UNL     1       4.839   0.027   1.282  1.00  0.00     0.162 HD
HETATM   14  O1  UNL     1       3.912   0.462  -1.737  1.00  0.00    -0.268 OA
ENDBRANCH   4  10
ENDBRANCH   1   2
BRANCH   1  15
HETATM   15  C7  UNL     1      -2.254   0.418  -1.204  1.00  0.00     0.042 A 
HETATM   16  N2  UNL     1      -2.565  -0.452  -2.200  1.00  0.00    -0.303 N 
HETATM   17  N3  UNL     1      -3.754  -0.977  -2.034  1.00  0.00    -0.298 N 
ATOM     18  H2  UNL     1      -1.948  -0.670  -2.982  1.00  0.00     0.186 HD
HETATM   19  C8  UNL     1      -4.257  -0.448  -0.901  1.00  0.00     0.077 A 
ATOM     20  H3  UNL     1      -4.211  -1.655  -2.644  1.00  0.00     0.187 HD
HETATM   21  C9  UNL     1      -5.462  -0.612  -0.245  1.00  0.00     0.043 A 
HETATM   22  C13 UNL     1      -3.335   0.432  -0.362  1.00  0.00     0.021 A 
HETATM   23 BR1  UNL     1      -6.755  -1.834  -0.974  1.00  0.00    -0.049 Br
HETATM   24  C10 UNL     1      -5.735   0.080   0.908  1.00  0.00     0.063 A 
HETATM   25  C11 UNL     1      -4.797   0.959   1.431  1.00  0.00     0.118 A 
HETATM   26  F1  UNL     1      -5.055   1.655   2.574  1.00  0.00    -0.206 F 
HETATM   27  C12 UNL     1      -3.603   1.135   0.800  1.00  0.00     0.058 A 
ENDBRANCH   1  15
TORSDOF 3
