REMARK  3 active torsions:
REMARK  status: ('A' for Active; 'I' for Inactive)
REMARK    1  A    between atoms: C2_2  and  C4_4 
REMARK    2  A    between atoms: C4_4  and  N1_5 
REMARK       I    between atoms: N1_5  and  C5_7 
REMARK    3  A    between atoms: C5_7  and  C6_9 
ROOT
HETATM    1  C6  UNL     1       0.360  -0.608   0.316  1.00  0.00     0.050 A 
HETATM    2  C7  UNL     1      -0.535   0.347   0.731  1.00  0.00     0.034 A 
HETATM    3  C8  UNL     1      -1.898   0.196   0.466  1.00  0.00     0.027 A 
HETATM    4  C9  UNL     1      -2.386  -0.896  -0.209  1.00  0.00    -0.004 A 
HETATM    5  C10 UNL     1      -1.455  -1.871  -0.631  1.00  0.00     0.031 A 
HETATM    6  C11 UNL     1      -0.119  -1.704  -0.360  1.00  0.00     0.027 A 
HETATM    7 BR1  UNL     1       1.087  -3.051  -0.954  1.00  0.00    -0.050 Br
HETATM    8  C12 UNL     1      -3.799  -1.140  -0.532  1.00  0.00     0.241 A 
HETATM    9  F1  UNL     1      -4.179  -2.357   0.052  1.00  0.00    -0.239 F 
HETATM   10  C13 UNL     1      -4.733  -0.101  -0.074  1.00  0.00     0.029 A 
HETATM   11  C14 UNL     1      -6.134  -0.012  -0.209  1.00  0.00     0.120 A 
HETATM   12  N2  UNL     1      -6.472   1.133   0.387  1.00  0.00    -0.311 N 
ATOM     13  H2  UNL     1      -7.426   1.488   0.460  1.00  0.00     0.186 HD
HETATM   14  N3  UNL     1      -5.406   1.745   0.869  1.00  0.00    -0.297 N 
ATOM     15  H3  UNL     1      -5.412   2.636   1.366  1.00  0.00     0.187 HD
HETATM   16  C15 UNL     1      -4.301   1.005   0.601  1.00  0.00     0.110 A 
HETATM   17  C16 UNL     1      -2.882   1.185   0.889  1.00  0.00     0.211 A 
HETATM   18  O2  UNL     1      -2.514   2.207   1.509  1.00  0.00    -0.285 OA
ENDROOT
BRANCH   1  19
HETATM   19  C5  UNL     1       1.803  -0.526   0.552  1.00  0.00     0.253 C 
HETATM   20  N1  UNL     1       2.471   0.716   0.497  1.00  0.00    -0.353 N 
ATOM     21  H1  UNL     1       1.870   1.516   0.298  1.00  0.00     0.163 HD
HETATM   22  O1  UNL     1       2.459  -1.565   0.806  1.00  0.00    -0.268 OA
BRANCH  20  23
HETATM   23  C4  UNL     1       3.836   1.030   0.673  1.00  0.00     0.155 C 
BRANCH  23  24
HETATM   24  C2  UNL     1       4.832   0.526  -0.266  1.00  0.00    -0.075 C 
HETATM   25  C1  UNL     1       5.545   1.439  -0.969  1.00  0.00     0.015 C 
HETATM   26  C3  UNL     1       5.154  -0.880  -0.496  1.00  0.00     0.044 C 
ENDBRANCH  23  24
ENDBRANCH  20  23
ENDBRANCH   1  19
TORSDOF 3
