REMARK  6 active torsions:
REMARK  status: ('A' for Active; 'I' for Inactive)
REMARK    1  A    between atoms: O1_1  and  C1_3 
REMARK    2  A    between atoms: C2_5  and  O3_6 
REMARK    3  A    between atoms: O3_6  and  C3_7 
REMARK    4  A    between atoms: C7_12  and  O4_13 
REMARK    5  A    between atoms: C8_15  and  O5_16 
REMARK    6  A    between atoms: C9_18  and  O6_19 
ROOT
HETATM    1  C1  UNL     1      -1.387  -1.435   0.700  1.00  0.00     0.291 C 
HETATM    2  O2  UNL     1      -0.315  -1.351  -0.205  1.00  0.00    -0.326 OA
HETATM    3  C2  UNL     1       0.258  -0.076  -0.165  1.00  0.00     0.300 C 
HETATM    4  C7  UNL     1      -0.739   0.985  -0.591  1.00  0.00     0.205 C 
HETATM    5  C8  UNL     1      -2.102   0.777  -0.023  1.00  0.00     0.185 C 
HETATM    6  C9  UNL     1      -2.525  -0.653   0.069  1.00  0.00     0.204 C 
ENDROOT
BRANCH   3   7
HETATM    7  O3  UNL     1       1.305  -0.082  -1.069  1.00  0.00    -0.317 OA
BRANCH   7   8
HETATM    8  C3  UNL     1       2.632   0.150  -0.659  1.00  0.00     0.079 A 
HETATM    9  C4  UNL     1       3.045   0.396   0.592  1.00  0.00     0.044 A 
HETATM   10  C5  UNL     1       4.385   0.599   0.799  1.00  0.00     0.052 A 
HETATM   11  S1  UNL     1       5.038   0.440  -0.767  1.00  0.00    -0.111 SA
HETATM   12  C6  UNL     1       3.617   0.125  -1.634  1.00  0.00     0.086 A 
ENDBRANCH   7   8
ENDBRANCH   3   7
BRANCH   4  13
HETATM   13  O4  UNL     1      -0.771   1.107  -1.975  1.00  0.00    -0.388 OA
ATOM     14  H4  UNL     1      -1.395   1.771  -2.242  1.00  0.00     0.210 HD
ENDBRANCH   4  13
BRANCH   1  15
HETATM   15  O1  UNL     1      -1.784  -2.762   0.796  1.00  0.00    -0.368 OA
ATOM     16  H1  UNL     1      -2.509  -2.819   1.408  1.00  0.00     0.212 HD
ENDBRANCH   1  15
BRANCH   5  17
HETATM   17  O5  UNL     1      -2.270   1.418   1.209  1.00  0.00    -0.390 OA
ATOM     18  H5  UNL     1      -3.138   1.285   1.571  1.00  0.00     0.210 HD
ENDBRANCH   5  17
BRANCH   6  19
HETATM   19  O6  UNL     1      -3.676  -0.746   0.843  1.00  0.00    -0.388 OA
ATOM     20  H6  UNL     1      -4.388  -0.257   0.448  1.00  0.00     0.210 HD
ENDBRANCH   6  19
TORSDOF 6
