REMARK  6 active torsions:
REMARK  status: ('A' for Active; 'I' for Inactive)
REMARK    1  A    between atoms: N1_1  and  C1_4 
REMARK    2  A    between atoms: N2_7  and  C4_8 
REMARK    3  A    between atoms: C5_10  and  C6_11 
REMARK    4  A    between atoms: C6_11  and  O1_12 
REMARK    5  A    between atoms: C7_14  and  O2_15 
REMARK    6  A    between atoms: C8_17  and  O3_18 
ROOT
HETATM    1  C4  UNL     1       0.305  -0.347  -0.745  1.00  0.00     0.189 C 
HETATM    2  S1  UNL     1      -0.461   1.325  -0.694  1.00  0.00    -0.130 SA
HETATM    3  C5  UNL     1      -1.828   0.935   0.474  1.00  0.00     0.104 C 
HETATM    4  C7  UNL     1      -1.877  -0.576   0.289  1.00  0.00     0.165 C 
HETATM    5  C8  UNL     1      -0.426  -1.020   0.380  1.00  0.00     0.181 C 
ENDROOT
BRANCH   1   6
HETATM    6  N2  UNL     1       1.721  -0.139  -0.436  1.00  0.00    -0.309 N 
HETATM    7  C3  UNL     1       2.611  -1.024   0.010  1.00  0.00     0.103 A 
HETATM    8  C2  UNL     1       3.866  -0.592   0.224  1.00  0.00     0.056 A 
HETATM    9  C1  UNL     1       4.123   0.723  -0.037  1.00  0.00     0.085 A 
HETATM   10  S2  UNL     1       2.603   1.289  -0.565  1.00  0.00     0.006 SA
BRANCH   9  11
HETATM   11  N1  UNL     1       5.266   1.356   0.098  1.00  0.00    -0.392 N 
ATOM     12  H12 UNL     1       6.175   1.018   0.414  1.00  0.00     0.156 HD
ATOM     13  H11 UNL     1       5.458   2.339  -0.097  1.00  0.00     0.156 HD
ENDBRANCH   9  11
ENDBRANCH   1   6
BRANCH   5  14
HETATM   14  O3  UNL     1      -0.347  -2.387   0.273  1.00  0.00    -0.390 OA
ATOM     15  H3  UNL     1      -0.810  -2.813   0.985  1.00  0.00     0.210 HD
ENDBRANCH   5  14
BRANCH   3  16
HETATM   16  C6  UNL     1      -3.110   1.575   0.002  1.00  0.00     0.181 C 
BRANCH  16  17
HETATM   17  O1  UNL     1      -3.445   1.100  -1.255  1.00  0.00    -0.400 OA
ATOM     18  H1  UNL     1      -4.252   1.503  -1.552  1.00  0.00     0.209 HD
ENDBRANCH  16  17
ENDBRANCH   3  16
BRANCH   4  19
HETATM   19  O2  UNL     1      -2.613  -1.119   1.303  1.00  0.00    -0.392 OA
ATOM     20  H2  UNL     1      -2.644  -2.061   1.188  1.00  0.00     0.210 HD
ENDBRANCH   4  19
TORSDOF 6
