REMARK  6 active torsions:
REMARK  status: ('A' for Active; 'I' for Inactive)
REMARK    1  A    between atoms: C2_2  and  O1_4 
REMARK    2  A    between atoms: O1_4  and  C3_5 
REMARK    3  A    between atoms: C4_7  and  C5_8 
REMARK    4  A    between atoms: C5_8  and  O3_9 
REMARK    5  A    between atoms: C6_11  and  O4_12 
REMARK    6  A    between atoms: C7_14  and  O5_15 
ROOT
HETATM    1  C3  UNL     1       0.589  -0.864   0.594  1.00  0.00     0.284 C 
HETATM    2  O2  UNL     1      -0.110   0.045   1.329  1.00  0.00    -0.349 OA
HETATM    3  C4  UNL     1      -1.107   0.738   0.719  1.00  0.00     0.179 C 
HETATM    4  C6  UNL     1      -2.066  -0.084  -0.096  1.00  0.00     0.179 C 
HETATM    5  C7  UNL     1      -1.399  -1.132  -0.933  1.00  0.00     0.168 C 
HETATM    6  C8  UNL     1      -0.188  -1.739  -0.319  1.00  0.00     0.145 C 
HETATM    7  S2  UNL     1      -0.634  -3.292   0.548  1.00  0.00    -0.085 SA
ENDROOT
BRANCH   1   8
HETATM    8  O1  UNL     1       1.682  -0.306  -0.115  1.00  0.00    -0.312 OA
BRANCH   8   9
HETATM    9  C2  UNL     1       2.726   0.333   0.537  1.00  0.00     0.112 C 
HETATM   10  C1  UNL     1       3.666   1.230  -0.133  1.00  0.00     0.089 C 
HETATM   11  S1  UNL     1       2.889   0.053   2.136  1.00  0.00    -0.058 SA
ENDBRANCH   8   9
ENDBRANCH   1   8
BRANCH   3  12
HETATM   12  C5  UNL     1      -0.581   1.934  -0.085  1.00  0.00     0.198 C 
BRANCH  12  13
HETATM   13  O3  UNL     1      -1.638   2.616  -0.690  1.00  0.00    -0.398 OA
ATOM     14  H3  UNL     1      -1.312   3.357  -1.188  1.00  0.00     0.209 HD
ENDBRANCH  12  13
ENDBRANCH   3  12
BRANCH   5  15
HETATM   15  O5  UNL     1      -1.069  -0.621  -2.202  1.00  0.00    -0.392 OA
ATOM     16  H5  UNL     1      -0.646  -1.286  -2.733  1.00  0.00     0.210 HD
ENDBRANCH   5  15
BRANCH   4  17
HETATM   17  O4  UNL     1      -3.012  -0.670   0.745  1.00  0.00    -0.390 OA
ATOM     18  H4  UNL     1      -3.618  -1.189   0.230  1.00  0.00     0.210 HD
ENDBRANCH   4  17
TORSDOF 6
