REMARK  5 active torsions:
REMARK  status: ('A' for Active; 'I' for Inactive)
REMARK    1  A    between atoms: C3_4  and  C4_5 
REMARK    2  A    between atoms: C3_4  and  C5_8 
REMARK    3  A    between atoms: C4_5  and  O2_6 
REMARK    4  A    between atoms: C5_8  and  O3_9 
REMARK    5  A    between atoms: C7_13  and  O5_14 
ROOT
HETATM    1  C1  UNL     1      -0.413   1.417   1.462  1.00  0.00     0.061 C 
HETATM    2  C2  UNL     1      -0.249   1.028   0.044  1.00  0.00     0.137 C 
HETATM    3  O1  UNL     1       1.075   1.111  -0.340  1.00  0.00    -0.327 OA
HETATM    4  C3  UNL     1       1.611  -0.163  -0.304  1.00  0.00     0.209 C 
HETATM    5  O4  UNL     1       0.617  -1.029   0.180  1.00  0.00    -0.339 OA
HETATM    6  C6  UNL     1      -0.526  -0.430  -0.248  1.00  0.00     0.198 C 
HETATM    7  C7  UNL     1      -1.807  -0.937   0.261  1.00  0.00     0.151 C 
HETATM    8  C8  UNL     1      -2.947  -0.014   0.059  1.00  0.00     0.045 C 
HETATM    9  C9  UNL     1      -2.844   0.856  -1.173  1.00  0.00     0.079 C 
HETATM   10  S1  UNL     1      -1.376   1.954  -1.036  1.00  0.00    -0.129 SA
ENDROOT
BRANCH   4  11
HETATM   11  C4  UNL     1       2.064  -0.570  -1.687  1.00  0.00     0.235 C 
BRANCH  11  12
HETATM   12  O2  UNL     1       3.022   0.325  -2.119  1.00  0.00    -0.395 OA
ATOM     13  H2  UNL     1       3.307   0.069  -2.988  1.00  0.00     0.209 HD
ENDBRANCH  11  12
ENDBRANCH   4  11
BRANCH   4  14
HETATM   14  C5  UNL     1       2.788  -0.283   0.642  1.00  0.00     0.235 C 
BRANCH  14  15
HETATM   15  O3  UNL     1       2.438   0.031   1.948  1.00  0.00    -0.395 OA
ATOM     16  H3  UNL     1       3.176  -0.044   2.541  1.00  0.00     0.209 HD
ENDBRANCH  14  15
ENDBRANCH   4  14
BRANCH   7  17
HETATM   17  O5  UNL     1      -1.765  -1.335   1.612  1.00  0.00    -0.393 OA
ATOM     18  H5  UNL     1      -2.594  -1.663   1.941  1.00  0.00     0.210 HD
ENDBRANCH   7  17
TORSDOF 5
