REMARK  6 active torsions:
REMARK  status: ('A' for Active; 'I' for Inactive)
REMARK    1  A    between atoms: O1_1  and  C1_3 
REMARK    2  A    between atoms: C1_3  and  C2_4 
REMARK    3  A    between atoms: C3_6  and  O3_7 
REMARK    4  A    between atoms: C4_9  and  O4_10 
REMARK    5  A    between atoms: C5_12  and  N1_13 
REMARK    6  A    between atoms: N1_13  and  C6_15 
ROOT
HETATM    1  C2  UNL     1      -1.947   0.573   1.396  1.00  0.00     0.289 C 
HETATM    2  O2  UNL     1      -2.997  -0.197   1.028  1.00  0.00    -0.327 OA
HETATM    3  C3  UNL     1      -2.970  -0.715  -0.233  1.00  0.00     0.292 C 
HETATM    4  C4  UNL     1      -1.660  -1.458  -0.396  1.00  0.00     0.221 C 
HETATM    5  C5  UNL     1      -0.569  -0.440  -0.183  1.00  0.00     0.258 C 
HETATM    6  O5  UNL     1      -0.706   0.221   1.014  1.00  0.00    -0.332 OA
ENDROOT
BRANCH   5   7
HETATM    7  N1  UNL     1       0.712  -1.087  -0.334  1.00  0.00    -0.361 N 
ATOM      8  H1  UNL     1       0.716  -2.089  -0.523  1.00  0.00     0.162 HD
BRANCH   7   9
HETATM    9  C6  UNL     1       1.954  -0.436  -0.240  1.00  0.00     0.029 A 
HETATM   10  C7  UNL     1       3.114  -1.151  -0.342  1.00  0.00     0.029 A 
HETATM   11  C8  UNL     1       4.341  -0.534  -0.257  1.00  0.00     0.002 A 
HETATM   12  C9  UNL     1       4.395   0.837  -0.063  1.00  0.00     0.000 A 
HETATM   13  C10 UNL     1       3.231   1.539   0.038  1.00  0.00     0.002 A 
HETATM   14  C11 UNL     1       1.999   0.916  -0.048  1.00  0.00     0.029 A 
ENDBRANCH   7   9
ENDBRANCH   5   7
BRANCH   4  15
HETATM   15  O4  UNL     1      -1.561  -2.100  -1.602  1.00  0.00    -0.386 OA
ATOM     16  H4  UNL     1      -0.739  -2.566  -1.704  1.00  0.00     0.210 HD
ENDBRANCH   4  15
BRANCH   3  17
HETATM   17  O3  UNL     1      -4.035  -1.591  -0.379  1.00  0.00    -0.368 OA
ATOM     18  H3  UNL     1      -4.016  -1.952  -1.258  1.00  0.00     0.212 HD
ENDBRANCH   3  17
BRANCH   1  19
HETATM   19  C1  UNL     1      -2.207   1.991   0.866  1.00  0.00     0.225 C 
BRANCH  19  20
HETATM   20  O1  UNL     1      -1.194   2.861   1.188  1.00  0.00    -0.396 OA
ATOM     21  H1  UNL     1      -1.355   3.738   0.860  1.00  0.00     0.209 HD
ENDBRANCH  19  20
ENDBRANCH   1  19
TORSDOF 6
