REMARK  8 active torsions:
REMARK  status: ('A' for Active; 'I' for Inactive)
REMARK    1  A    between atoms: O1_2  and  C2_3 
REMARK    2  A    between atoms: C3_5  and  O3_6 
REMARK    3  A    between atoms: C4_8  and  C5_9 
REMARK    4  A    between atoms: C5_9  and  O4_10 
REMARK    5  A    between atoms: C5_9  and  C6_12 
REMARK    6  A    between atoms: C6_12  and  S1_13 
REMARK    7  A    between atoms: C8_15  and  O5_16 
REMARK    8  A    between atoms: C9_18  and  O6_19 
ROOT
HETATM    1  C2  UNL     1      -2.402  -0.033  -0.603  1.00  0.00     0.293 C 
HETATM    2  O2  UNL     1      -1.824  -0.413  -1.789  1.00  0.00    -0.329 OA
HETATM    3  C3  UNL     1      -0.567  -0.968  -1.661  1.00  0.00     0.269 C 
HETATM    4  C4  UNL     1       0.261  -0.264  -0.591  1.00  0.00     0.102 C 
HETATM    5  C8  UNL     1      -0.397  -0.462   0.743  1.00  0.00     0.163 C 
HETATM    6  C9  UNL     1      -1.866  -0.756   0.597  1.00  0.00     0.202 C 
ENDROOT
BRANCH   4   7
HETATM    7  C5  UNL     1       1.637  -0.881  -0.648  1.00  0.00     0.138 C 
BRANCH   7   8
HETATM    8  O4  UNL     1       1.620  -2.238  -0.402  1.00  0.00    -0.394 OA
ATOM      9  H4  UNL     1       2.486  -2.626  -0.438  1.00  0.00     0.210 HD
ENDBRANCH   7   8
BRANCH   7  10
HETATM   10  C6  UNL     1       2.615  -0.220   0.260  1.00  0.00     0.105 C 
BRANCH  10  11
HETATM   11  S1  UNL     1       2.843   1.538  -0.126  1.00  0.00    -0.171 SA
HETATM   12  C7  UNL     1       4.024   2.319   0.977  1.00  0.00     0.089 C 
ENDBRANCH  10  11
ENDBRANCH   7  10
ENDBRANCH   4   7
BRANCH   3  13
HETATM   13  O3  UNL     1      -0.566  -2.316  -1.398  1.00  0.00    -0.371 OA
ATOM     14  H3  UNL     1       0.299  -2.698  -1.310  1.00  0.00     0.212 HD
ENDBRANCH   3  13
BRANCH   5  15
HETATM   15  O5  UNL     1       0.197  -1.499   1.456  1.00  0.00    -0.392 OA
ATOM     16  H5  UNL     1      -0.220  -1.624   2.301  1.00  0.00     0.210 HD
ENDBRANCH   5  15
BRANCH   6  17
HETATM   17  O6  UNL     1      -2.559  -0.256   1.717  1.00  0.00    -0.388 OA
ATOM     18  H6  UNL     1      -2.220  -0.714   2.477  1.00  0.00     0.210 HD
ENDBRANCH   6  17
BRANCH   1  19
HETATM   19  O1  UNL     1      -2.169   1.330  -0.422  1.00  0.00    -0.363 OA
HETATM   20  C1  UNL     1      -3.353   2.055  -0.312  1.00  0.00     0.204 C 
ENDBRANCH   1  19
TORSDOF 8
