REMARK  4 active torsions:
REMARK  status: ('A' for Active; 'I' for Inactive)
REMARK    1  A    between atoms: C2_2  and  C3_3 
REMARK    2  A    between atoms: C2_2  and  C10_11 
REMARK    3  A    between atoms: C3_3  and  C4_4 
REMARK    4  A    between atoms: C4_4  and  N1_5 
ROOT
HETATM    1  C10 UNL     1      -0.480  -0.892   0.906  1.00  0.00     0.098 C 
HETATM    2  C11 UNL     1      -0.676  -2.275   1.344  1.00  0.00     0.264 C 
HETATM    3  O1  UNL     1       0.146  -2.587   2.292  1.00  0.00    -0.265 OA
HETATM    4  O2  UNL     1      -1.485  -3.326   1.030  1.00  0.00    -0.321 OA
HETATM    5  C12 UNL     1      -2.822  -3.323   0.671  1.00  0.00     0.179 C 
HETATM    6  C13 UNL     1      -3.372  -1.886   0.706  1.00  0.00     0.042 C 
HETATM    7  C14 UNL     1      -2.604  -1.198  -0.383  1.00  0.00     0.097 C 
HETATM    8  C15 UNL     1      -3.571  -0.618  -1.309  1.00  0.00     0.265 C 
HETATM    9  O3  UNL     1      -3.714  -1.153  -2.453  1.00  0.00    -0.265 OA
HETATM   10  O4  UNL     1      -4.426   0.482  -1.178  1.00  0.00    -0.303 OA
HETATM   11  C16 UNL     1      -4.540   1.418  -0.163  1.00  0.00     0.123 C 
HETATM   12  C17 UNL     1      -4.376   2.842  -0.652  1.00  0.00     0.055 C 
HETATM   13  C18 UNL     1      -5.997   1.333   0.324  1.00  0.00     0.055 C 
HETATM   14  C19 UNL     1      -3.588   1.109   0.927  1.00  0.00     0.162 C 
HETATM   15  O5  UNL     1      -4.179   1.019   2.020  1.00  0.00    -0.295 OA
HETATM   16  C20 UNL     1      -2.169   0.901   0.967  1.00  0.00     0.092 C 
HETATM   17  C21 UNL     1      -1.561  -0.225   0.156  1.00  0.00    -0.012 C 
HETATM   18  C22 UNL     1      -1.098   0.483  -1.130  1.00  0.00     0.017 C 
ENDROOT
BRANCH   1  19
HETATM   19  C2  UNL     1       0.921  -0.856   0.346  1.00  0.00    -0.003 C 
HETATM   20  C1  UNL     1       1.245  -1.706  -0.804  1.00  0.00     0.011 C 
BRANCH  19  21
HETATM   21  C3  UNL     1       1.683   0.419   0.531  1.00  0.00     0.035 C 
BRANCH  21  22
HETATM   22  C4  UNL     1       3.179   0.166   0.727  1.00  0.00     0.272 C 
BRANCH  22  23
HETATM   23  N1  UNL     1       3.839  -0.445  -0.375  1.00  0.00     0.088 N 
HETATM   24  C5  UNL     1       5.178  -0.817   0.110  1.00  0.00     0.272 C 
HETATM   25  C6  UNL     1       5.972   0.359   0.572  1.00  0.00     0.030 C 
HETATM   26  C7  UNL     1       6.106   1.433  -0.464  1.00  0.00     0.003 C 
HETATM   27  C8  UNL     1       4.753   1.766  -1.008  1.00  0.00     0.030 C 
HETATM   28  C9  UNL     1       4.007   0.550  -1.448  1.00  0.00     0.272 C 
ENDBRANCH  22  23
ENDBRANCH  21  22
ENDBRANCH  19  21
ENDBRANCH   1  19
TORSDOF 4
