REMARK  7 active torsions:
REMARK  status: ('A' for Active; 'I' for Inactive)
REMARK    1  A    between atoms: O1_2  and  C2_3 
REMARK    2  A    between atoms: C2_3  and  C3_5 
REMARK    3  A    between atoms: C3_5  and  C4_6 
REMARK    4  A    between atoms: C4_6  and  C5_7 
REMARK    5  A    between atoms: C5_7  and  O3_8 
REMARK    6  A    between atoms: C5_7  and  N1_10 
REMARK    7  A    between atoms: N2_19  and  C13_20 
ROOT
HETATM    1  C4  UNL     1      -1.760   0.409  -0.854  1.00  0.00     0.061 C 
HETATM    2  C10 UNL     1      -1.248   0.787  -2.299  1.00  0.00     0.104 C 
HETATM    3  C11 UNL     1       0.119   0.495  -2.316  1.00  0.00    -0.162 C 
HETATM    4  C12 UNL     1       1.497   0.192  -2.229  1.00  0.00     0.203 C 
HETATM    5  N2  UNL     1       1.710  -0.297  -0.832  1.00  0.00    -0.376 N 
HETATM    6  C20 UNL     1       0.549  -0.533  -0.093  1.00  0.00     0.084 C 
HETATM    7  C21 UNL     1      -0.598   0.349   0.099  1.00  0.00     0.009 C 
ENDROOT
BRANCH   1   8
HETATM    8  C3  UNL     1      -2.765   1.406  -0.488  1.00  0.00     0.134 C 
BRANCH   8   9
HETATM    9  C2  UNL     1      -2.419   2.806  -0.316  1.00  0.00     0.259 C 
HETATM   10  O2  UNL     1      -1.301   3.287  -0.497  1.00  0.00    -0.265 OA
BRANCH   9  11
HETATM   11  O1  UNL     1      -3.403   3.745   0.093  1.00  0.00    -0.326 OA
HETATM   12  C1  UNL     1      -3.079   5.103   0.261  1.00  0.00     0.213 C 
ENDBRANCH   9  11
ENDBRANCH   8   9
ENDBRANCH   1   8
BRANCH   1  13
HETATM   13  C5  UNL     1      -2.426  -0.908  -0.993  1.00  0.00     0.127 C 
BRANCH  13  14
HETATM   14  O3  UNL     1      -2.234  -1.475  -2.164  1.00  0.00    -0.349 OA
ATOM     15  H3  UNL     1      -2.661  -2.319  -2.253  1.00  0.00     0.219 HD
ENDBRANCH  13  14
BRANCH  13  16
HETATM   16  N1  UNL     1      -3.199  -1.654  -0.147  1.00  0.00    -0.360 N 
HETATM   17  C6  UNL     1      -3.683  -2.986  -0.618  1.00  0.00     0.151 C 
HETATM   18  C7  UNL     1      -5.081  -3.121  -0.103  1.00  0.00     0.187 C 
HETATM   19  O4  UNL     1      -5.108  -3.259   1.280  1.00  0.00    -0.388 OA
HETATM   20  C8  UNL     1      -4.069  -2.625   1.910  1.00  0.00     0.187 C 
HETATM   21  C9  UNL     1      -3.656  -1.338   1.159  1.00  0.00     0.151 C 
ENDBRANCH  13  16
ENDBRANCH   1  13
BRANCH   5  22
HETATM   22  C13 UNL     1       2.904   0.113  -0.274  1.00  0.00     0.089 C 
HETATM   23  C14 UNL     1       3.106   1.602  -0.064  1.00  0.00     0.051 C 
HETATM   24  C15 UNL     1       4.289   1.706   0.906  1.00  0.00     0.171 C 
HETATM   25  O5  UNL     1       5.220   0.714   0.722  1.00  0.00    -0.381 OA
HETATM   26  C16 UNL     1       4.811  -0.551   1.070  1.00  0.00     0.055 C 
HETATM   27  C17 UNL     1       5.237  -1.501  -0.051  1.00  0.00     0.045 C 
HETATM   28  C18 UNL     1       5.345  -1.042   2.369  1.00  0.00     0.045 C 
HETATM   29  C19 UNL     1       3.273  -0.548   1.036  1.00  0.00     0.062 C 
ENDBRANCH   5  22
TORSDOF 7
