REMARK  3 active torsions:
REMARK  status: ('A' for Active; 'I' for Inactive)
REMARK    1  A    between atoms: C2_2  and  N1_3 
REMARK    2  A    between atoms: C12_17  and  C13_18 
REMARK    3  A    between atoms: C13_18  and  C14_19 
REMARK       I    between atoms: C14_19  and  N2_21 
ROOT
HETATM    1  N1  UNL     1       0.072   1.950  -1.103  1.00  0.00    -0.343 N 
HETATM    2  C3  UNL     1      -1.166   1.698  -0.384  1.00  0.00     0.211 C 
HETATM    3  S1  UNL     1      -1.038   1.969   1.383  1.00  0.00    -0.078 SA
HETATM    4  S2  UNL     1      -2.903   1.452   2.266  1.00  0.00    -0.096 SA
HETATM    5  C4  UNL     1      -4.107   0.931   1.014  1.00  0.00     0.086 C 
HETATM    6  C5  UNL     1      -4.812  -0.285   1.512  1.00  0.00     0.021 C 
HETATM    7  C6  UNL     1      -5.478  -1.105   0.470  1.00  0.00     0.112 C 
HETATM    8  C7  UNL     1      -4.655  -1.503  -0.671  1.00  0.00     0.258 C 
HETATM    9  O1  UNL     1      -5.313  -1.726  -1.751  1.00  0.00    -0.265 OA
HETATM   10  O2  UNL     1      -3.311  -1.661  -0.724  1.00  0.00    -0.321 OA
HETATM   11  C8  UNL     1      -2.431  -2.252   0.168  1.00  0.00     0.178 C 
HETATM   12  C9  UNL     1      -1.110  -2.482  -0.581  1.00  0.00     0.027 C 
HETATM   13  C10 UNL     1       0.030  -1.920   0.233  1.00  0.00     0.003 C 
HETATM   14  C11 UNL     1       1.176  -1.418  -0.610  1.00  0.00     0.014 C 
HETATM   15  C12 UNL     1       1.543  -0.009  -0.249  1.00  0.00     0.087 C 
HETATM   16  C17 UNL     1       1.091   0.980  -1.290  1.00  0.00     0.225 C 
HETATM   17  O4  UNL     1       1.663   0.945  -2.414  1.00  0.00    -0.273 OA
ENDROOT
BRANCH  15  18
HETATM   18  C13 UNL     1       3.039   0.179  -0.034  1.00  0.00     0.117 C 
BRANCH  18  19
HETATM   19  C14 UNL     1       3.616  -0.625   1.027  1.00  0.00     0.219 C 
HETATM   20  O3  UNL     1       2.889  -1.399   1.689  1.00  0.00    -0.273 OA
HETATM   21  N2  UNL     1       4.986  -0.542   1.319  1.00  0.00    -0.361 N 
HETATM   22  C15 UNL     1       5.834   0.342   0.571  1.00  0.00     0.152 C 
HETATM   23  C16 UNL     1       5.547  -1.344   2.369  1.00  0.00     0.152 C 
ENDBRANCH  18  19
ENDBRANCH  15  18
BRANCH   1  24
HETATM   24  C2  UNL     1       0.232   3.287  -1.648  1.00  0.00     0.122 C 
HETATM   25  C1  UNL     1      -0.305   3.421  -3.045  1.00  0.00     0.026 C 
ENDBRANCH   1  24
TORSDOF 3
