REMARK  13 active torsions:
REMARK  status: ('A' for Active; 'I' for Inactive)
REMARK    1  A    between atoms: C3_4  and  C4_5 
REMARK    2  A    between atoms: C4_5  and  O2_6 
REMARK    3  A    between atoms: C4_5  and  C5_8 
REMARK    4  A    between atoms: C5_8  and  O3_9 
REMARK    5  A    between atoms: C5_8  and  C6_11 
REMARK    6  A    between atoms: C6_11  and  O4_12 
REMARK    7  A    between atoms: C6_11  and  C7_14 
REMARK    8  A    between atoms: C7_14  and  O5_15 
REMARK    9  A    between atoms: C10_21  and  O8_22 
REMARK   10  A    between atoms: C10_21  and  O9_24 
REMARK   11  A    between atoms: C11_26  and  C12_27 
REMARK   12  A    between atoms: C12_27  and  O10_28 
REMARK   13  A    between atoms: C12_27  and  O11_30 
ROOT
HETATM    1  O1  UNL     1      -0.270  -3.303  -0.514  1.00  0.00    -0.271 OA
HETATM    2  C1  UNL     1       0.015  -2.063  -0.632  1.00  0.00     0.245 C 
HETATM    3  C2  UNL     1       1.429  -1.609  -0.702  1.00  0.00     0.139 C 
HETATM    4  C3  UNL     1       1.418  -0.116  -0.452  1.00  0.00     0.168 C 
HETATM    5  O6  UNL     1       0.608   0.558  -1.335  1.00  0.00    -0.319 OA
HETATM    6  C8  UNL     1      -0.692   0.166  -1.360  1.00  0.00     0.338 C 
HETATM    7  O7  UNL     1      -1.482   1.219  -0.912  1.00  0.00    -0.322 OA
HETATM    8  C9  UNL     1      -1.785   1.211   0.418  1.00  0.00     0.243 C 
HETATM    9  C10 UNL     1      -3.242   0.917   0.700  1.00  0.00     0.192 C 
HETATM   10  C11 UNL     1      -3.956   0.282  -0.453  1.00  0.00     0.140 C 
HETATM   11  C13 UNL     1      -3.380  -1.027  -0.900  1.00  0.00     0.186 C 
HETATM   12  N1  UNL     1      -2.234  -1.355  -0.140  1.00  0.00    -0.310 N 
ATOM     13  H1  UNL     1      -2.314  -1.779   0.784  1.00  0.00     0.182 HD
HETATM   14  N2  UNL     1      -1.002  -1.078  -0.700  1.00  0.00    -0.192 N 
HETATM   15  S1  UNL     1      -3.166  -1.125  -2.698  1.00  0.00    -0.063 SA
HETATM   16  S2  UNL     1      -1.294  -0.118  -3.086  1.00  0.00    -0.001 SA
ENDROOT
BRANCH   4  17
HETATM   17  C4  UNL     1       2.840   0.380  -0.664  1.00  0.00     0.179 C 
BRANCH  17  18
HETATM   18  O2  UNL     1       2.824   1.748  -0.409  1.00  0.00    -0.390 OA
ATOM     19  H2  UNL     1       3.712   2.058  -0.541  1.00  0.00     0.210 HD
ENDBRANCH  17  18
BRANCH  17  20
HETATM   20  C5  UNL     1       3.811  -0.273   0.286  1.00  0.00     0.180 C 
BRANCH  20  21
HETATM   21  O3  UNL     1       3.482  -0.089   1.609  1.00  0.00    -0.390 OA
ATOM     22  H3  UNL     1       4.094  -0.501   2.208  1.00  0.00     0.210 HD
ENDBRANCH  20  21
BRANCH  20  23
HETATM   23  C6  UNL     1       5.159   0.418   0.066  1.00  0.00     0.173 C 
BRANCH  23  24
HETATM   24  O4  UNL     1       5.078   1.776   0.352  1.00  0.00    -0.391 OA
ATOM     25  H4  UNL     1       5.915   2.205   0.215  1.00  0.00     0.210 HD
ENDBRANCH  23  24
BRANCH  23  26
HETATM   26  C7  UNL     1       6.228  -0.196   0.944  1.00  0.00     0.198 C 
BRANCH  26  27
HETATM   27  O5  UNL     1       5.900  -0.016   2.294  1.00  0.00    -0.398 OA
ATOM     28  H5  UNL     1       6.571  -0.401   2.845  1.00  0.00     0.209 HD
ENDBRANCH  26  27
ENDBRANCH  23  26
ENDBRANCH  20  23
ENDBRANCH  17  20
ENDBRANCH   4  17
BRANCH   9  29
HETATM   29  O8  UNL     1      -3.317   0.035   1.779  1.00  0.00    -0.363 OA
ATOM     30  H8  UNL     1      -4.232  -0.150   1.956  1.00  0.00     0.213 HD
ENDBRANCH   9  29
BRANCH   9  31
HETATM   31  O9  UNL     1      -3.935   2.065   1.074  1.00  0.00    -0.363 OA
ATOM     32  H9  UNL     1      -4.850   1.880   1.251  1.00  0.00     0.213 HD
ENDBRANCH   9  31
BRANCH  10  33
HETATM   33  C12 UNL     1      -5.422   0.132  -0.049  1.00  0.00     0.266 C 
BRANCH  33  34
HETATM   34  O10 UNL     1      -6.143  -0.465  -1.095  1.00  0.00    -0.371 OA
ATOM     35  H10 UNL     1      -7.054  -0.558  -0.844  1.00  0.00     0.212 HD
ENDBRANCH  33  34
BRANCH  33  36
HETATM   36  O11 UNL     1      -6.014   1.326   0.288  1.00  0.00    -0.371 OA
ATOM     37  H11 UNL     1      -6.925   1.233   0.539  1.00  0.00     0.212 HD
ENDBRANCH  33  36
ENDBRANCH  10  33
TORSDOF 13
