REMARK  12 active torsions:
REMARK  status: ('A' for Active; 'I' for Inactive)
REMARK    1  A    between atoms: C1_2  and  C2_4 
REMARK    2  A    between atoms: N4_8  and  C3_9 
REMARK    3  A    between atoms: C3_9  and  C4_10 
REMARK    4  A    between atoms: C4_10  and  O2_11 
REMARK    5  A    between atoms: C4_10  and  C5_13 
REMARK    6  A    between atoms: C5_13  and  O3_14 
REMARK    7  A    between atoms: C5_13  and  C6_16 
REMARK    8  A    between atoms: N5_18  and  C8_19 
REMARK    9  A    between atoms: C9_20  and  C10_21 
REMARK   10  A    between atoms: C10_21  and  N6_22 
REMARK   11  A    between atoms: C10_21  and  O4_26 
REMARK   12  A    between atoms: C15_38  and  O7_39 
ROOT
HETATM    1  C6  UNL     1      -0.582  -1.657  -0.077  1.00  0.00     0.080 A 
HETATM    2  C7  UNL     1      -1.381  -0.514  -0.274  1.00  0.00     0.121 A 
HETATM    3  N5  UNL     1      -2.705  -0.628  -0.530  1.00  0.00    -0.271 N 
HETATM    4  C13 UNL     1      -3.242  -1.856  -0.582  1.00  0.00     0.334 A 
HETATM    5  O5  UNL     1      -4.468  -2.042  -0.797  1.00  0.00    -0.246 OA
HETATM    6  N8  UNL     1      -2.498  -2.994  -0.404  1.00  0.00    -0.274 N 
ATOM      7  H8  UNL     1      -2.945  -3.909  -0.460  1.00  0.00     0.173 HD
HETATM    8  C14 UNL     1      -1.188  -2.905  -0.157  1.00  0.00     0.263 A 
HETATM    9  O6  UNL     1      -0.444  -3.896   0.021  1.00  0.00    -0.267 OA
ENDROOT
BRANCH   1  10
HETATM   10  C5  UNL     1       0.872  -1.579   0.111  1.00  0.00     0.094 C 
BRANCH  10  11
HETATM   11  C4  UNL     1       1.295  -1.048   1.425  1.00  0.00     0.215 C 
BRANCH  11  12
HETATM   12  C3  UNL     1       2.194   0.075   1.566  1.00  0.00     0.128 C 
BRANCH  12  13
HETATM   13  N4  UNL     1       3.551  -0.001   1.127  1.00  0.00    -0.228 N 
HETATM   14  N3  UNL     1       4.550  -0.609   1.742  1.00  0.00    -0.013 NA
HETATM   15  N2  UNL     1       5.670  -0.463   1.025  1.00  0.00    -0.275 N 
HETATM   16  C2  UNL     1       5.359   0.265  -0.074  1.00  0.00     0.164 A 
ATOM     17  H2  UNL     1       6.590  -0.833   1.263  1.00  0.00     0.184 HD
HETATM   18  C15 UNL     1       4.032   0.557  -0.024  1.00  0.00     0.193 A 
BRANCH  16  19
HETATM   19  C1  UNL     1       6.367   0.717  -1.034  1.00  0.00     0.286 C 
HETATM   20  N1  UNL     1       6.061   1.638  -2.094  1.00  0.00    -0.056 NA
HETATM   21  O1  UNL     1       7.558   0.310  -0.945  1.00  0.00    -0.269 OA
ENDBRANCH  16  19
BRANCH  18  22
HETATM   22  O7  UNL     1       3.315   1.278  -0.966  1.00  0.00    -0.343 OA
ATOM     23  H7  UNL     1       2.388   1.482  -0.931  1.00  0.00     0.219 HD
ENDBRANCH  18  22
ENDBRANCH  12  13
ENDBRANCH  11  12
BRANCH  11  24
HETATM   24  O2  UNL     1       1.779  -2.156   2.217  1.00  0.00    -0.384 OA
ATOM     25  H2  UNL     1       1.188  -2.894   2.124  1.00  0.00     0.211 HD
ENDBRANCH  11  24
ENDBRANCH  10  11
BRANCH  10  26
HETATM   26  O3  UNL     1       1.644  -2.369  -0.637  1.00  0.00    -0.361 OA
ATOM     27  H3  UNL     1       1.372  -2.710  -1.481  1.00  0.00     0.217 HD
ENDBRANCH  10  26
ENDBRANCH   1  10
BRANCH   3  28
HETATM   28  C8  UNL     1      -3.493   0.554  -0.883  1.00  0.00     0.085 A 
HETATM   29  C9  UNL     1      -3.523   1.691  -0.161  1.00  0.00     0.033 A 
HETATM   30  C11 UNL     1      -4.303   2.722  -0.669  1.00  0.00     0.065 A 
HETATM   31  S1  UNL     1      -4.942   2.085  -2.092  1.00  0.00    -0.084 SA
HETATM   32  C12 UNL     1      -4.232   0.533  -2.049  1.00  0.00     0.115 A 
HETATM   33  N7  UNL     1      -4.425  -0.449  -3.069  1.00  0.00    -0.092 NA
BRANCH  29  34
HETATM   34  C10 UNL     1      -2.740   1.992   1.116  1.00  0.00     0.353 C 
BRANCH  34  35
HETATM   35  N6  UNL     1      -2.781   0.958   2.084  1.00  0.00    -0.049 N 
ATOM     36  H63 UNL     1      -3.747   0.717   2.307  1.00  0.00     0.277 HD
ATOM     37  H62 UNL     1      -2.471   0.076   1.676  1.00  0.00     0.277 HD
ATOM     38  H61 UNL     1      -2.258   1.159   2.937  1.00  0.00     0.277 HD
ENDBRANCH  34  35
BRANCH  34  39
HETATM   39  O4  UNL     1      -3.269   3.140   1.761  1.00  0.00    -0.366 OA
ATOM     40  H4  UNL     1      -2.782   3.327   2.555  1.00  0.00     0.212 HD
ENDBRANCH  34  39
ENDBRANCH  29  34
ENDBRANCH   3  28
TORSDOF 12
