REMARK  10 active torsions:
REMARK  status: ('A' for Active; 'I' for Inactive)
REMARK    1  A    between atoms: N1_1  and  C1_4 
REMARK    2  A    between atoms: C4_12  and  C5_13 
REMARK    3  A    between atoms: C5_13  and  N4_14 
REMARK    4  A    between atoms: N4_14  and  C6_15 
REMARK    5  A    between atoms: N4_14  and  C7_18 
REMARK    6  A    between atoms: C6_15  and  O2_16 
REMARK    7  A    between atoms: C7_18  and  C8_19 
REMARK    8  A    between atoms: C10_21  and  N5_22 
REMARK    9  A    between atoms: C12_28  and  N8_29 
REMARK   10  A    between atoms: C13_34  and  N10_35 
ROOT
HETATM    1  N4  UNL     1      -1.094  -2.500  -0.581  1.00  0.00    -0.342 N 
ENDROOT
BRANCH   1   2
HETATM    2  C5  UNL     1      -2.356  -2.582  -1.223  1.00  0.00     0.207 C 
BRANCH   2   3
HETATM    3  C4  UNL     1      -3.405  -1.719  -0.659  1.00  0.00     0.115 A 
HETATM    4  N3  UNL     1      -3.483  -0.420  -1.006  1.00  0.00    -0.336 N 
HETATM    5  C3  UNL     1      -4.484   0.315  -0.444  1.00  0.00     0.149 A 
ATOM      6  H3  UNL     1      -2.821  -0.004  -1.661  1.00  0.00     0.167 HD
HETATM    7  C2  UNL     1      -4.634   1.657  -0.746  1.00  0.00     0.290 A 
HETATM    8  C15 UNL     1      -5.381  -0.239   0.440  1.00  0.00     0.168 A 
HETATM    9  N2  UNL     1      -5.636   2.334  -0.165  1.00  0.00    -0.154 N 
HETATM   10  O1  UNL     1      -3.820   2.178  -1.554  1.00  0.00    -0.265 OA
HETATM   11  C1  UNL     1      -6.503   1.765   0.701  1.00  0.00     0.680 A 
ATOM     12  H2  UNL     1      -5.748   3.323  -0.387  1.00  0.00     0.187 HD
HETATM   13  N14 UNL     1      -6.362   0.467   0.996  1.00  0.00    -0.173 N 
ATOM     14  H14 UNL     1      -7.007   0.019   1.647  1.00  0.00     0.186 HD
HETATM   15  N13 UNL     1      -5.266  -1.551   0.762  1.00  0.00    -0.282 N 
HETATM   16  N12 UNL     1      -4.296  -2.268   0.219  1.00  0.00    -0.286 N 
ATOM     17  H13 UNL     1      -5.920  -1.981   1.416  1.00  0.00     0.188 HD
ATOM     18  H12 UNL     1      -4.211  -3.255   0.462  1.00  0.00     0.188 HD
BRANCH  11  19
HETATM   19  N1  UNL     1      -7.442   2.457   1.227  1.00  0.00    -0.234 N 
ATOM     20  H12 UNL     1      -7.549   3.446   1.002  1.00  0.00     0.174 HD
ATOM     21  H11 UNL     1      -8.097   2.027   1.881  1.00  0.00     0.174 HD
ENDBRANCH  11  19
ENDBRANCH   2   3
ENDBRANCH   1   2
BRANCH   1  22
HETATM   22  C6  UNL     1      -1.004  -2.817   0.778  1.00  0.00     0.225 C 
BRANCH  22  23
HETATM   23  O2  UNL     1      -1.451  -4.110   1.097  1.00  0.00    -0.356 OA
ATOM     24  H2  UNL     1      -1.390  -4.325   2.020  1.00  0.00     0.218 HD
ENDBRANCH  22  23
ENDBRANCH   1  22
BRANCH   1  25
HETATM   25  C7  UNL     1      -0.140  -1.704  -1.224  1.00  0.00     0.097 C 
BRANCH  25  26
HETATM   26  C8  UNL     1       1.147  -1.575  -0.489  1.00  0.00     0.167 C 
HETATM   27  C9  UNL     1       1.159  -0.468   0.562  1.00  0.00     0.093 C 
HETATM   28  C10 UNL     1       2.582  -0.323   0.042  1.00  0.00     0.251 C 
HETATM   29  O3  UNL     1       2.110  -0.795  -1.166  1.00  0.00    -0.354 OA
BRANCH  28  30
HETATM   30  N5  UNL     1       3.106   1.007   0.004  1.00  0.00    -0.230 N 
HETATM   31  N6  UNL     1       2.461   2.151   0.058  1.00  0.00    -0.236 N 
HETATM   32  N7  UNL     1       3.319   3.175  -0.008  1.00  0.00    -0.279 N 
ATOM     33  H6  UNL     1       1.449   2.245   0.139  1.00  0.00     0.208 HD
HETATM   34  C11 UNL     1       4.558   2.664  -0.107  1.00  0.00     0.140 A 
ATOM     35  H7  UNL     1       3.077   4.166   0.013  1.00  0.00     0.189 HD
HETATM   36  C12 UNL     1       5.811   3.213  -0.205  1.00  0.00     0.147 A 
HETATM   37  C14 UNL     1       4.415   1.308  -0.099  1.00  0.00     0.173 A 
HETATM   38  N9  UNL     1       6.849   2.370  -0.290  1.00  0.00    -0.175 N 
HETATM   39  C13 UNL     1       6.713   1.037  -0.283  1.00  0.00     0.679 A 
ATOM     40  H9  UNL     1       7.788   2.762  -0.364  1.00  0.00     0.186 HD
HETATM   41  N11 UNL     1       5.486   0.502  -0.187  1.00  0.00    -0.173 N 
ATOM     42  H11 UNL     1       5.367  -0.511  -0.181  1.00  0.00     0.186 HD
BRANCH  36  43
HETATM   43  N8  UNL     1       6.002   4.492  -0.217  1.00  0.00    -0.383 N 
ATOM     44  H82 UNL     1       5.212   5.134  -0.152  1.00  0.00     0.157 HD
ATOM     45  H81 UNL     1       6.934   4.900  -0.290  1.00  0.00     0.157 HD
ENDBRANCH  36  43
BRANCH  39  46
HETATM   46  N10 UNL     1       7.751   0.257  -0.368  1.00  0.00    -0.234 N 
ATOM     47 2H10 UNL     1       8.684   0.664  -0.441  1.00  0.00     0.174 HD
ATOM     48 1H10 UNL     1       7.647  -0.758  -0.363  1.00  0.00     0.174 HD
ENDBRANCH  39  46
ENDBRANCH  28  30
ENDBRANCH  25  26
ENDBRANCH   1  25
TORSDOF 10
