REMARK  14 active torsions:
REMARK  status: ('A' for Active; 'I' for Inactive)
REMARK    1  A    between atoms: N1_1  and  C1_5 
REMARK    2  A    between atoms: C4_8  and  O1_9 
REMARK    3  A    between atoms: O1_9  and  C5_10 
REMARK    4  A    between atoms: C7_12  and  N2_13 
REMARK    5  A    between atoms: C8_17  and  O2_18 
REMARK    6  A    between atoms: C8_17  and  O3_20 
REMARK    7  A    between atoms: C9_22  and  O4_23 
REMARK    8  A    between atoms: C10_27  and  C11_28 
REMARK    9  A    between atoms: C11_28  and  O7_29 
REMARK   10  A    between atoms: O7_29  and  C12_30 
REMARK   11  A    between atoms: C13_32  and  C14_33 
REMARK   12  A    between atoms: C14_33  and  O9_34 
REMARK   13  A    between atoms: C15_36  and  O10_37 
REMARK   14  A    between atoms: C17_40  and  N3_41 
ROOT
HETATM    1  C1  UNL     1      -0.093  -1.253   1.743  1.00  0.00     0.214 C 
HETATM    2  C2  UNL     1       0.375  -0.132   2.655  1.00  0.00     0.040 C 
HETATM    3  C3  UNL     1       1.069   0.889   1.742  1.00  0.00     0.063 C 
HETATM    4  C4  UNL     1       1.665   0.136   0.602  1.00  0.00     0.263 C 
HETATM    5  O6  UNL     1       0.660  -0.345  -0.225  1.00  0.00    -0.352 OA
HETATM    6  C10 UNL     1      -0.565  -0.543   0.456  1.00  0.00     0.178 C 
ENDROOT
BRANCH   4   7
HETATM    7  O1  UNL     1       2.486   0.920  -0.205  1.00  0.00    -0.331 OA
BRANCH   7   8
HETATM    8  C5  UNL     1       3.786   0.508  -0.250  1.00  0.00     0.268 C 
HETATM    9  C6  UNL     1       4.298   0.297  -1.658  1.00  0.00     0.099 C 
HETATM   10  C7  UNL     1       5.793   0.149  -1.703  1.00  0.00     0.255 C 
HETATM   11  C8  UNL     1       6.435   0.137  -0.355  1.00  0.00     0.239 C 
HETATM   12  C9  UNL     1       5.782   0.999   0.668  1.00  0.00     0.324 C 
HETATM   13  O5  UNL     1       4.564   1.519   0.314  1.00  0.00    -0.326 OA
BRANCH  10  14
HETATM   14  N2  UNL     1       6.420   1.098  -2.615  1.00  0.00    -0.070 N 
ATOM     15  H23 UNL     1       6.016   1.031  -3.549  1.00  0.00     0.275 HD
ATOM     16  H22 UNL     1       6.152   2.056  -2.389  1.00  0.00     0.275 HD
ATOM     17  H21 UNL     1       7.435   0.998  -2.646  1.00  0.00     0.275 HD
ENDBRANCH  10  14
BRANCH  11  18
HETATM   18  O2  UNL     1       7.781   0.556  -0.461  1.00  0.00    -0.360 OA
ATOM     19  H2  UNL     1       8.189   0.548   0.397  1.00  0.00     0.213 HD
ENDBRANCH  11  18
BRANCH  11  20
HETATM   20  O3  UNL     1       6.497  -1.184   0.147  1.00  0.00    -0.360 OA
ATOM     21  H3  UNL     1       6.905  -1.192   1.005  1.00  0.00     0.213 HD
ENDBRANCH  11  20
BRANCH  12  22
HETATM   22  O4  UNL     1       6.600   2.092   1.037  1.00  0.00    -0.366 OA
ATOM     23  H4  UNL     1       6.183   2.642   1.690  1.00  0.00     0.212 HD
ENDBRANCH  12  22
ENDBRANCH   7   8
ENDBRANCH   4   7
BRANCH   6  24
HETATM   24  C11 UNL     1      -1.370  -1.412  -0.434  1.00  0.00     0.205 C 
BRANCH  24  25
HETATM   25  O7  UNL     1      -2.664  -1.677  -0.121  1.00  0.00    -0.357 OA
BRANCH  25  26
HETATM   26  C12 UNL     1      -3.513  -0.570  -0.138  1.00  0.00     0.290 C 
HETATM   27  O8  UNL     1      -4.296  -0.708  -1.263  1.00  0.00    -0.349 OA
HETATM   28  C13 UNL     1      -5.361   0.115  -1.392  1.00  0.00     0.177 C 
HETATM   29  C15 UNL     1      -5.993   0.581  -0.117  1.00  0.00     0.151 C 
HETATM   30  C16 UNL     1      -5.722  -0.466   0.939  1.00  0.00     0.072 C 
HETATM   31  C17 UNL     1      -4.205  -0.435   1.139  1.00  0.00     0.240 C 
BRANCH  28  32
HETATM   32  C14 UNL     1      -6.424  -0.589  -2.209  1.00  0.00     0.198 C 
BRANCH  32  33
HETATM   33  O9  UNL     1      -7.556   0.174  -2.398  1.00  0.00    -0.398 OA
ATOM     34  H9  UNL     1      -8.223  -0.268  -2.911  1.00  0.00     0.209 HD
ENDBRANCH  32  33
ENDBRANCH  28  32
BRANCH  29  35
HETATM   35  O10 UNL     1      -5.528   1.791   0.333  1.00  0.00    -0.393 OA
ATOM     36  H10 UNL     1      -5.929   2.087   1.142  1.00  0.00     0.210 HD
ENDBRANCH  29  35
BRANCH  31  37
HETATM   37  N3  UNL     1      -3.823   0.709   1.948  1.00  0.00    -0.070 N 
ATOM     38  H33 UNL     1      -2.814   0.706   2.098  1.00  0.00     0.274 HD
ATOM     39  H32 UNL     1      -3.924   1.567   1.406  1.00  0.00     0.274 HD
ATOM     40  H31 UNL     1      -4.307   0.803   2.841  1.00  0.00     0.274 HD
ENDBRANCH  31  37
ENDBRANCH  25  26
ENDBRANCH  24  25
ENDBRANCH   6  24
BRANCH   1  41
HETATM   41  N1  UNL     1      -1.123  -2.011   2.379  1.00  0.00    -0.072 N 
ATOM     42  H13 UNL     1      -0.830  -2.360   3.292  1.00  0.00     0.274 HD
ATOM     43  H12 UNL     1      -1.897  -1.421   2.684  1.00  0.00     0.274 HD
ATOM     44  H11 UNL     1      -1.437  -2.764   1.767  1.00  0.00     0.274 HD
ENDBRANCH   1  41
TORSDOF 14
