REMARK  10 active torsions:
REMARK  status: ('A' for Active; 'I' for Inactive)
REMARK    1  A    between atoms: N1_2  and  C2_3 
REMARK    2  A    between atoms: N1_2  and  C5_8 
REMARK    3  A    between atoms: C2_3  and  C3_4 
REMARK    4  A    between atoms: C3_4  and  C4_5 
REMARK    5  A    between atoms: C4_5  and  O1_6 
REMARK    6  A    between atoms: C6_11  and  N3_12 
REMARK    7  A    between atoms: C7_17  and  N5_18 
REMARK    8  A    between atoms: C12_28  and  N8_29 
REMARK    9  A    between atoms: C15_38  and  C16_39 
REMARK   10  A    between atoms: C17_42  and  O5_43 
ROOT
HETATM    1  C5  UNL     1       2.718   0.087   0.188  1.00  0.00     0.153 C 
HETATM    2  N2  UNL     1       2.498   1.158   0.960  1.00  0.00    -0.174 N 
ATOM      3  H2  UNL     1       3.156   1.929   0.849  1.00  0.00     0.186 HD
HETATM    4  C6  UNL     1       1.508   1.350   1.875  1.00  0.00     0.679 C 
HETATM    5  N4  UNL     1       0.277   0.859   1.800  1.00  0.00    -0.176 N 
ATOM      6  H4  UNL     1      -0.428   1.387   2.314  1.00  0.00     0.186 HD
HETATM    7  C7  UNL     1      -0.204  -0.261   1.132  1.00  0.00     0.141 C 
HETATM    8  C15 UNL     1       0.561  -1.171   0.473  1.00  0.00     0.122 C 
HETATM    9  C17 UNL     1       1.782  -0.906  -0.119  1.00  0.00     0.131 C 
ENDROOT
BRANCH   7  10
HETATM   10  N5  UNL     1      -1.601  -0.384   1.197  1.00  0.00    -0.327 N 
HETATM   11  C8  UNL     1      -2.905  -0.921   1.516  1.00  0.00     0.314 A 
HETATM   12  N6  UNL     1      -3.638  -1.832   0.715  1.00  0.00    -0.030 N 
HETATM   13  C14 UNL     1      -2.783   0.359   0.779  1.00  0.00     0.153 A 
HETATM   14  C9  UNL     1      -4.007  -1.235  -0.524  1.00  0.00     0.311 A 
ATOM     15  H62 UNL     1      -3.130  -2.705   0.576  1.00  0.00     0.282 HD
ATOM     16  H61 UNL     1      -4.449  -2.203   1.211  1.00  0.00     0.282 HD
HETATM   17  C10 UNL     1      -3.436   0.114  -0.527  1.00  0.00     0.132 A 
HETATM   18  N10 UNL     1      -5.336  -0.678  -0.549  1.00  0.00    -0.256 N 
HETATM   19  C11 UNL     1      -4.844   0.541  -0.552  1.00  0.00     0.115 A 
HETATM   20  N7  UNL     1      -5.709   1.609  -0.575  1.00  0.00    -0.180 N 
HETATM   21  C12 UNL     1      -7.037   1.437  -0.593  1.00  0.00     0.681 A 
ATOM     22  H7  UNL     1      -5.330   2.556  -0.578  1.00  0.00     0.185 HD
HETATM   23  N9  UNL     1      -7.509   0.181  -0.589  1.00  0.00    -0.141 N 
HETATM   24  C13 UNL     1      -6.678  -0.865  -0.567  1.00  0.00     0.344 A 
ATOM     25  H9  UNL     1      -8.517   0.022  -0.603  1.00  0.00     0.189 HD
HETATM   26  O2  UNL     1      -7.116  -2.045  -0.564  1.00  0.00    -0.246 OA
BRANCH  21  27
HETATM   27  N8  UNL     1      -7.792   2.478  -0.613  1.00  0.00    -0.234 N 
ATOM     28  H82 UNL     1      -7.433   3.433  -0.616  1.00  0.00     0.174 HD
ATOM     29  H81 UNL     1      -8.803   2.347  -0.627  1.00  0.00     0.174 HD
ENDBRANCH  21  27
ENDBRANCH   7  10
BRANCH   8  30
HETATM   30  C16 UNL     1       0.016  -2.534   0.409  1.00  0.00     0.216 C 
HETATM   31  O3  UNL     1      -0.520  -2.983   1.621  1.00  0.00    -0.644 OA
HETATM   32  O4  UNL     1      -0.721  -2.837  -0.704  1.00  0.00    -0.644 OA
ENDBRANCH   8  30
BRANCH   4  33
HETATM   33  N3  UNL     1       1.786   2.067   2.902  1.00  0.00    -0.234 N 
ATOM     34  H32 UNL     1       2.732   2.444   2.960  1.00  0.00     0.174 HD
ATOM     35  H31 UNL     1       1.044   2.211   3.587  1.00  0.00     0.174 HD
ENDBRANCH   4  33
BRANCH   9  36
HETATM   36  O5  UNL     1       2.156  -1.719  -1.161  1.00  0.00    -0.356 OA
ATOM     37  H5  UNL     1       1.520  -2.393  -1.370  1.00  0.00     0.218 HD
ENDBRANCH   9  36
BRANCH   1  38
HETATM   38  N1  UNL     1       4.024  -0.021  -0.347  1.00  0.00    -0.369 N 
HETATM   39  C1  UNL     1       4.807  -1.204   0.008  1.00  0.00     0.151 C 
BRANCH  38  40
HETATM   40  C2  UNL     1       4.625   0.967  -1.219  1.00  0.00     0.126 C 
BRANCH  40  41
HETATM   41  C3  UNL     1       5.774   1.682  -0.515  1.00  0.00     0.046 C 
BRANCH  41  42
HETATM   42  C4  UNL     1       6.382   2.701  -1.442  1.00  0.00     0.165 C 
BRANCH  42  43
HETATM   43  O1  UNL     1       7.428   3.364  -0.824  1.00  0.00    -0.401 OA
ATOM     44  H1  UNL     1       7.812   4.007  -1.409  1.00  0.00     0.209 HD
ENDBRANCH  42  43
ENDBRANCH  41  42
ENDBRANCH  40  41
ENDBRANCH  38  40
ENDBRANCH   1  38
TORSDOF 10
