REMARK  3 active torsions:
REMARK  status: ('A' for Active; 'I' for Inactive)
REMARK    1  A    between atoms: S1_2  and  C2_3 
REMARK    2  A    between atoms: C5_8  and  C6_9 
REMARK    3  A    between atoms: C7_10  and  C8_11 
ROOT
HETATM    1  C2  UNL     1      -2.448   0.167   0.764  1.00  0.00     0.222 C 
HETATM    2  C3  UNL     1      -2.883  -0.941  -0.106  1.00  0.00     0.102 C 
HETATM    3  N1  UNL     1      -1.945  -1.917  -0.479  1.00  0.00    -0.376 N 
ATOM      4  H1  UNL     1      -2.223  -2.692  -1.081  1.00  0.00     0.164 HD
HETATM    5  C4  UNL     1      -0.620  -1.820  -0.017  1.00  0.00     0.096 C 
HETATM    6  C5  UNL     1      -0.288  -0.391   0.340  1.00  0.00     0.184 C 
HETATM    7  O1  UNL     1      -1.188  -0.058   1.368  1.00  0.00    -0.356 OA
ENDROOT
BRANCH   6   8
HETATM    8  C6  UNL     1       1.108  -0.206   0.789  1.00  0.00     0.006 C 
HETATM    9  C7  UNL     1       2.150  -0.232  -0.011  1.00  0.00    -0.023 C 
BRANCH   9  10
HETATM   10  C8  UNL     1       3.535  -0.042   0.478  1.00  0.00     0.008 A 
HETATM   11  C9  UNL     1       4.691  -0.283  -0.430  1.00  0.00     0.009 A 
HETATM   12  C10 UNL     1       4.235   1.145  -0.143  1.00  0.00     0.009 A 
ENDBRANCH   9  10
ENDBRANCH   6   8
BRANCH   1  13
HETATM   13  S1  UNL     1      -2.307   1.759  -0.078  1.00  0.00    -0.137 SA
HETATM   14  C1  UNL     1      -3.848   2.427  -0.651  1.00  0.00     0.093 C 
ENDBRANCH   1  13
TORSDOF 3
