REMARK  3 active torsions:
REMARK  status: ('A' for Active; 'I' for Inactive)
REMARK    1  A    between atoms: C4_4  and  S1_5 
REMARK    2  A    between atoms: S1_5  and  C5_6 
REMARK    3  A    between atoms: C5_6  and  C6_7 
ROOT
HETATM    1  C6  UNL     1      -1.536   0.190   0.752  1.00  0.00     0.004 C 
HETATM    2  C7  UNL     1      -2.124  -1.058   0.226  1.00  0.00     0.050 C 
HETATM    3  C8  UNL     1      -3.599  -1.134   0.136  1.00  0.00     0.060 C 
HETATM    4  N1  UNL     1      -4.319   0.067   0.155  1.00  0.00    -0.382 N 
ATOM      5  H1  UNL     1      -5.328   0.057   0.305  1.00  0.00     0.163 HD
HETATM    6  C9  UNL     1      -3.648   1.281  -0.033  1.00  0.00     0.060 C 
HETATM    7  C10 UNL     1      -2.440   1.365   0.837  1.00  0.00     0.050 C 
ENDROOT
BRANCH   1   8
HETATM    8  C5  UNL     1      -0.346   0.590  -0.132  1.00  0.00     0.079 C 
BRANCH   8   9
HETATM    9  S1  UNL     1       0.863  -0.740  -0.083  1.00  0.00    -0.164 SA
BRANCH   9  10
HETATM   10  C4  UNL     1       2.260  -0.264  -1.125  1.00  0.00     0.047 C 
HETATM   11  C3  UNL     1       3.268  -1.365  -1.089  1.00  0.00     0.015 C 
HETATM   12  C2  UNL     1       4.179  -1.030   0.055  1.00  0.00     0.001 C 
HETATM   13  C1  UNL     1       3.787   0.316   0.573  1.00  0.00     0.001 C 
HETATM   14  C11 UNL     1       2.925   0.937  -0.493  1.00  0.00     0.015 C 
ENDBRANCH   9  10
ENDBRANCH   8   9
ENDBRANCH   1   8
TORSDOF 3
