REMARK  1 active torsions:
REMARK  status: ('A' for Active; 'I' for Inactive)
REMARK    1  A    between atoms: N3_8  and  C5_9 
ROOT
HETATM    1  N1  UNL     1      -0.003   2.223   0.267  1.00  0.00    -0.064 NA
HETATM    2  C1  UNL     1       0.989   1.196   0.226  1.00  0.00     0.186 C 
HETATM    3  N2  UNL     1       2.159   1.379   0.725  1.00  0.00    -0.364 N 
ATOM      4  H2  UNL     1       2.373   2.279   1.155  1.00  0.00     0.162 HD
HETATM    5  C2  UNL     1       3.168   0.375   0.701  1.00  0.00     0.124 C 
HETATM    6  C3  UNL     1       2.784  -0.949   0.143  1.00  0.00     0.039 C 
HETATM    7  C4  UNL     1       1.794  -0.775  -0.989  1.00  0.00     0.127 C 
HETATM    8  N3  UNL     1       0.668  -0.037  -0.370  1.00  0.00    -0.351 N 
ENDROOT
BRANCH   8   9
HETATM    9  C5  UNL     1      -0.659  -0.551  -0.392  1.00  0.00     0.087 C 
HETATM   10  C6  UNL     1      -1.649   0.138  -1.251  1.00  0.00     0.025 C 
HETATM   11  C7  UNL     1      -2.977  -0.163  -0.585  1.00  0.00     0.002 C 
HETATM   12  C8  UNL     1      -2.654  -0.121   0.892  1.00  0.00     0.002 C 
HETATM   13  C9  UNL     1      -1.261  -0.669   0.997  1.00  0.00     0.025 C 
ENDBRANCH   8   9
TORSDOF 1
