REMARK  2 active torsions:
REMARK  status: ('A' for Active; 'I' for Inactive)
REMARK    1  A    between atoms: C2_2  and  C3_3 
REMARK    2  A    between atoms: C7_9  and  N2_10 
ROOT
HETATM    1  C3  UNL     1      -0.980   0.036  -0.293  1.00  0.00     0.066 A 
HETATM    2  C4  UNL     1      -1.863  -0.508  -1.382  1.00  0.00     0.041 C 
HETATM    3  C5  UNL     1      -0.840  -0.855   0.882  1.00  0.00     0.123 A 
HETATM    4  C6  UNL     1      -1.548  -2.180   0.736  1.00  0.00     0.035 C 
HETATM    5  N1  UNL     1       0.564  -1.117   0.992  1.00  0.00    -0.220 N 
ATOM      6  H1  UNL     1       0.977  -1.692   1.727  1.00  0.00     0.178 HD
HETATM    7  C7  UNL     1       1.242  -0.552   0.069  1.00  0.00     0.672 A 
HETATM    8  N3  UNL     1       0.359   0.164  -0.776  1.00  0.00    -0.211 N 
HETATM    9  C9  UNL     1       0.780   0.901  -1.943  1.00  0.00     0.169 C 
ENDROOT
BRANCH   1  10
HETATM   10  C2  UNL     1      -1.571   1.363   0.145  1.00  0.00     0.029 C 
HETATM   11  C1  UNL     1      -0.795   2.026   1.230  1.00  0.00     0.007 C 
ENDBRANCH   1  10
BRANCH   7  12
HETATM   12  N2  UNL     1       2.683  -0.623  -0.097  1.00  0.00    -0.231 N 
HETATM   13  C8  UNL     1       3.527  -0.363   1.040  1.00  0.00     0.165 C 
ATOM     14  H2  UNL     1       3.090  -0.853  -1.003  1.00  0.00     0.177 HD
ENDBRANCH   7  12
TORSDOF 2
