REMARK  2 active torsions:
REMARK  status: ('A' for Active; 'I' for Inactive)
REMARK    1  A    between atoms: C6_8  and  C8_10 
REMARK    2  A    between atoms: N1_11  and  O3_13 
ROOT
HETATM    1  C1  UNL     1      -0.270   0.344  -1.732  1.00  0.00     0.019 C 
HETATM    2  C2  UNL     1      -0.676   0.146  -0.305  1.00  0.00    -0.002 A 
HETATM    3  C3  UNL     1      -1.835  -0.862  -0.314  1.00  0.00     0.019 C 
HETATM    4  C4  UNL     1      -1.253   1.437   0.207  1.00  0.00     0.123 A 
HETATM    5  C5  UNL     1      -0.444   1.713   1.420  1.00  0.00     0.260 A 
HETATM    6  O1  UNL     1      -0.660   2.693   2.175  1.00  0.00    -0.265 OA
HETATM    7  O2  UNL     1       0.531   0.771   1.578  1.00  0.00    -0.304 OA
HETATM    8  C6  UNL     1       0.420  -0.267   0.606  1.00  0.00     0.108 A 
HETATM    9  C7  UNL     1       0.092  -1.535   1.385  1.00  0.00     0.053 C 
ENDROOT
BRANCH   8  10
HETATM   10  C8  UNL     1       1.746  -0.372  -0.049  1.00  0.00     0.125 C 
HETATM   11  N1  UNL     1       2.506   0.650  -0.215  1.00  0.00    -0.281 N 
ATOM     12  H1  UNL     1       2.172   1.554   0.119  1.00  0.00     0.193 HD
BRANCH  11  13
HETATM   13  O3  UNL     1       3.731   0.602  -0.810  1.00  0.00    -0.290 OA
ATOM     14  H3  UNL     1       4.293   1.358  -0.933  1.00  0.00     0.244 HD
ENDBRANCH  11  13
ENDBRANCH   8  10
TORSDOF 2
