REMARK  2 active torsions:
REMARK  status: ('A' for Active; 'I' for Inactive)
REMARK    1  A    between atoms: C2_2  and  C3_3 
REMARK    2  A    between atoms: N3_8  and  O1_9 
ROOT
HETATM    1  C3  UNL     1       1.354   0.025   0.429  1.00  0.00     0.148 C 
HETATM    2  N1  UNL     1       0.847  -1.194   0.957  1.00  0.00    -0.349 N 
ATOM      3  H1  UNL     1       1.510  -1.911   1.251  1.00  0.00     0.163 HD
HETATM    4  C4  UNL     1      -0.404  -1.430   1.079  1.00  0.00     0.212 C 
HETATM    5  N2  UNL     1      -0.857  -2.694   1.625  1.00  0.00    -0.062 NA
HETATM    6  N3  UNL     1      -1.404  -0.531   0.712  1.00  0.00    -0.213 N 
HETATM    7  C5  UNL     1      -1.357   0.404  -0.397  1.00  0.00     0.104 C 
HETATM    8  C6  UNL     1      -2.061  -0.253  -1.565  1.00  0.00     0.053 C 
HETATM    9  C7  UNL     1      -2.074   1.667  -0.000  1.00  0.00     0.053 C 
HETATM   10  S1  UNL     1       0.353   0.730  -0.903  1.00  0.00    -0.111 SA
ENDROOT
BRANCH   1  11
HETATM   11  C2  UNL     1       2.774  -0.148  -0.109  1.00  0.00     0.032 C 
HETATM   12  C1  UNL     1       3.205   1.193  -0.638  1.00  0.00     0.008 C 
ENDBRANCH   1  11
BRANCH   6  13
HETATM   13  O1  UNL     1      -2.540  -0.499   1.431  1.00  0.00    -0.283 OA
ATOM     14  H1  UNL     1      -3.222   0.114   1.181  1.00  0.00     0.245 HD
ENDBRANCH   6  13
TORSDOF 2
