REMARK  2 active torsions:
REMARK  status: ('A' for Active; 'I' for Inactive)
REMARK    1  A    between atoms: C5_5  and  O1_6 
REMARK    2  A    between atoms: O1_6  and  O2_7 
ROOT
HETATM    1  C1  UNL     1      -2.013  -0.353   0.716  1.00  0.00     0.018 C 
HETATM    2  C2  UNL     1      -0.887   0.145  -0.204  1.00  0.00    -0.010 C 
HETATM    3  C3  UNL     1      -1.373   1.436  -0.803  1.00  0.00     0.018 C 
HETATM    4  C4  UNL     1       0.315   0.386   0.647  1.00  0.00     0.050 C 
HETATM    5  C5  UNL     1       1.531  -0.378   0.236  1.00  0.00     0.200 C 
HETATM    6  C6  UNL     1       1.190  -1.543  -0.692  1.00  0.00     0.218 C 
HETATM    7  O3  UNL     1      -0.088  -2.004  -0.523  1.00  0.00    -0.356 OA
HETATM    8  C7  UNL     1      -0.700  -0.946  -1.227  1.00  0.00     0.195 C 
HETATM    9  S1  UNL     1       0.721  -0.772  -2.269  1.00  0.00    -0.102 SA
ENDROOT
BRANCH   5  10
HETATM   10  O1  UNL     1       2.364   0.449  -0.521  1.00  0.00    -0.234 OA
BRANCH  10  11
HETATM   11  O2  UNL     1       3.539   0.576   0.043  1.00  0.00    -0.250 OA
ATOM     12  H2  UNL     1       4.106   1.138  -0.472  1.00  0.00     0.253 HD
ENDBRANCH  10  11
ENDBRANCH   5  10
TORSDOF 2
