REMARK  2 active torsions:
REMARK  status: ('A' for Active; 'I' for Inactive)
REMARK    1  A    between atoms: O1_2  and  N1_3 
REMARK    2  A    between atoms: N2_9  and  O2_11 
ROOT
HETATM    1  N1  UNL     1      -0.024   0.724  -0.054  1.00  0.00    -0.174 NA
HETATM    2  C2  UNL     1      -1.144  -0.074   0.262  1.00  0.00     0.037 C 
HETATM    3  C3  UNL     1      -2.111  -0.280  -0.872  1.00  0.00     0.034 C 
HETATM    4  C4  UNL     1      -1.954   0.442   1.447  1.00  0.00     0.034 C 
HETATM    5  C5  UNL     1      -0.548  -1.423   0.640  1.00  0.00     0.083 C 
HETATM    6  C6  UNL     1       0.923  -1.298   0.353  1.00  0.00     0.036 C 
HETATM    7  N2  UNL     1       1.857  -2.036   0.791  1.00  0.00    -0.275 N 
ATOM      8  H2  UNL     1       2.824  -1.852   0.524  1.00  0.00     0.193 HD
HETATM    9  C7  UNL     1       1.018  -0.106  -0.565  1.00  0.00     0.072 C 
HETATM   10  C8  UNL     1       2.391   0.489  -0.453  1.00  0.00     0.041 C 
HETATM   11  C9  UNL     1       0.799  -0.614  -1.951  1.00  0.00     0.041 C 
ENDROOT
BRANCH   7  12
HETATM   12  O2  UNL     1       1.563  -3.072   1.617  1.00  0.00    -0.290 OA
ATOM     13  H2  UNL     1       2.263  -3.625   1.945  1.00  0.00     0.244 HD
ENDBRANCH   7  12
BRANCH   1  14
HETATM   14  O1  UNL     1      -0.236   1.862  -0.666  1.00  0.00    -0.307 OA
HETATM   15  C1  UNL     1      -0.038   2.907   0.263  1.00  0.00     0.229 C 
ENDBRANCH   1  14
TORSDOF 2
