REMARK  1 active torsions:
REMARK  status: ('A' for Active; 'I' for Inactive)
REMARK    1  A    between atoms: C2_2  and  C3_3 
ROOT
HETATM    1  C3  UNL     1       2.132   0.361   0.848  1.00  0.00     0.117 A 
HETATM    2  N1  UNL     1       1.210   0.028   0.046  1.00  0.00    -0.348 N 
ATOM      3  H1  UNL     1       1.488  -0.365  -0.853  1.00  0.00     0.163 HD
HETATM    4  C4  UNL     1      -0.180   0.159   0.302  1.00  0.00     0.120 A 
HETATM    5  C5  UNL     1      -0.748  -1.247   0.361  1.00  0.00     0.055 C 
HETATM    6  C6  UNL     1      -2.254  -1.154   0.493  1.00  0.00     0.004 C 
HETATM    7  C7  UNL     1      -2.719  -0.665  -0.866  1.00  0.00     0.000 C 
HETATM    8  C8  UNL     1      -2.298   0.783  -0.937  1.00  0.00     0.004 C 
HETATM    9  C9  UNL     1      -0.852   1.018  -0.731  1.00  0.00     0.055 C 
HETATM   10  N2  UNL     1      -0.413   0.720   1.593  1.00  0.00    -0.293 N 
ATOM     11  H2  UNL     1      -1.391   0.847   1.855  1.00  0.00     0.184 HD
HETATM   12  N3  UNL     1       0.429   1.074   2.441  1.00  0.00    -0.243 N 
ATOM     13  H3  UNL     1       0.146   1.466   3.339  1.00  0.00     0.208 HD
HETATM   14  N4  UNL     1       1.779   0.911   2.110  1.00  0.00    -0.271 N 
ATOM     15  H4  UNL     1       2.506   1.185   2.771  1.00  0.00     0.190 HD
ENDROOT
BRANCH   1  16
HETATM   16  C2  UNL     1       3.551   0.211   0.550  1.00  0.00     0.039 C 
HETATM   17  C1  UNL     1       3.936  -0.294  -0.606  1.00  0.00     0.015 C 
ENDBRANCH   1  16
TORSDOF 1
