REMARK  6 active torsions:
REMARK  status: ('A' for Active; 'I' for Inactive)
REMARK    1  A    between atoms: C7_8  and  C8_9 
REMARK    2  A    between atoms: C9_10  and  C10_11 
REMARK    3  A    between atoms: C14_15  and  C15_16 
REMARK    4  A    between atoms: C15_16  and  O2_17 
REMARK    5  A    between atoms: C16_19  and  O3_20 
REMARK    6  A    between atoms: C17_22  and  O4_23 
ROOT
HETATM    1  C1  UNL     1      -0.670   3.948  -0.567  1.00  0.00     0.050 C 
HETATM    2  C2  UNL     1      -1.120   2.913   0.432  1.00  0.00    -0.028 A 
HETATM    3  C3  UNL     1      -1.765   3.138   1.621  1.00  0.00     0.152 A 
HETATM    4  O1  UNL     1      -1.963   1.990   2.158  1.00  0.00    -0.299 OA
HETATM    5  C4  UNL     1      -1.497   0.978   1.420  1.00  0.00     0.194 A 
HETATM    6  C5  UNL     1      -0.946   1.551   0.296  1.00  0.00     0.012 A 
HETATM    7  C6  UNL     1      -0.301   0.788  -0.807  1.00  0.00     0.082 C 
HETATM    8  C7  UNL     1       0.432  -0.416  -0.352  1.00  0.00    -0.057 C 
HETATM    9  C13 UNL     1      -0.083  -1.633  -0.472  1.00  0.00    -0.010 C 
HETATM   10  C14 UNL     1      -1.404  -1.941  -1.050  1.00  0.00     0.066 C 
HETATM   11  C16 UNL     1      -2.562  -1.597  -0.204  1.00  0.00     0.183 C 
HETATM   12  C17 UNL     1      -2.338  -1.385   1.241  1.00  0.00     0.294 C 
HETATM   13  O5  UNL     1      -1.519  -0.369   1.653  1.00  0.00    -0.296 OA
ENDROOT
BRANCH   8  14
HETATM   14  C8  UNL     1       1.768  -0.199   0.240  1.00  0.00     0.003 C 
HETATM   15  C9  UNL     1       2.312   0.966   0.376  1.00  0.00    -0.022 C 
BRANCH  15  16
HETATM   16  C10 UNL     1       3.656   1.093   0.982  1.00  0.00     0.008 A 
HETATM   17  C11 UNL     1       4.760   0.204   0.544  1.00  0.00     0.009 A 
HETATM   18  C12 UNL     1       4.783   1.686   0.238  1.00  0.00     0.009 A 
ENDBRANCH  15  16
ENDBRANCH   8  14
BRANCH  10  19
HETATM   19  C15 UNL     1      -1.416  -3.398  -1.465  1.00  0.00     0.175 C 
BRANCH  19  20
HETATM   20  O2  UNL     1      -1.196  -4.288  -0.453  1.00  0.00    -0.400 OA
ATOM     21  H2  UNL     1      -1.204  -5.202  -0.713  1.00  0.00     0.209 HD
ENDBRANCH  19  20
ENDBRANCH  10  19
BRANCH  11  22
HETATM   22  O3  UNL     1      -3.505  -2.648  -0.327  1.00  0.00    -0.390 OA
ATOM     23  H3  UNL     1      -4.251  -2.426   0.218  1.00  0.00     0.210 HD
ENDBRANCH  11  22
BRANCH  12  24
HETATM   24  O4  UNL     1      -1.837  -2.606   1.771  1.00  0.00    -0.368 OA
ATOM     25  H4  UNL     1      -1.693  -2.470   2.700  1.00  0.00     0.212 HD
ENDBRANCH  12  24
TORSDOF 6
