REMARK  6 active torsions:
REMARK  status: ('A' for Active; 'I' for Inactive)
REMARK    1  A    between atoms: C3_5  and  O1_6 
REMARK    2  A    between atoms: C4_8  and  C5_9 
REMARK    3  A    between atoms: N2_10  and  N3_12 
REMARK    4  A    between atoms: N3_12  and  C6_14 
REMARK    5  A    between atoms: C6_14  and  N4_16 
REMARK    6  A    between atoms: N4_16  and  C7_18 
ROOT
HETATM    1  C5  UNL     1       2.364  -1.667  -1.496  1.00  0.00     0.130 C 
HETATM    2  N2  UNL     1       1.381  -1.167  -2.098  1.00  0.00    -0.308 N 
ATOM      3  H2  UNL     1       0.783  -1.777  -2.655  1.00  0.00     0.186 HD
ENDROOT
BRANCH   2   4
HETATM    4  N3  UNL     1       1.082   0.182  -2.031  1.00  0.00    -0.277 N 
ATOM      5  H3  UNL     1       1.656   0.865  -2.526  1.00  0.00     0.189 HD
BRANCH   4   6
HETATM    6  C6  UNL     1      -0.036   0.602  -1.262  1.00  0.00     0.186 C 
HETATM    7  S1  UNL     1      -0.417   2.177  -1.168  1.00  0.00    -0.040 SA
BRANCH   6   8
HETATM    8  N4  UNL     1      -0.821  -0.343  -0.580  1.00  0.00    -0.361 N 
ATOM      9  H4  UNL     1      -0.588  -1.334  -0.635  1.00  0.00     0.162 HD
BRANCH   8  10
HETATM   10  C7  UNL     1      -1.959   0.089   0.199  1.00  0.00     0.083 C 
HETATM   11  C8  UNL     1      -2.632  -1.085   0.882  1.00  0.00     0.025 C 
HETATM   12  C9  UNL     1      -3.692  -0.538   1.795  1.00  0.00     0.002 C 
HETATM   13  C10 UNL     1      -4.584   0.386   1.015  1.00  0.00     0.000 C 
HETATM   14  C11 UNL     1      -4.310   0.268  -0.467  1.00  0.00     0.002 C 
HETATM   15  C12 UNL     1      -2.901   0.828  -0.701  1.00  0.00     0.025 C 
ENDBRANCH   8  10
ENDBRANCH   6   8
ENDBRANCH   4   6
ENDBRANCH   2   4
BRANCH   1  16
HETATM   16  C4  UNL     1       3.261  -0.835  -0.679  1.00  0.00     0.074 A 
HETATM   17  C3  UNL     1       4.369  -1.241   0.032  1.00  0.00     0.159 A 
HETATM   18  N1  UNL     1       5.021  -0.335   0.689  1.00  0.00    -0.334 N 
HETATM   19  C2  UNL     1       4.615   0.924   0.661  1.00  0.00     0.049 A 
ATOM     20  H1  UNL     1       5.848  -0.592   1.228  1.00  0.00     0.168 HD
HETATM   21  C1  UNL     1       5.231   2.120   1.353  1.00  0.00     0.076 C 
HETATM   22  S2  UNL     1       3.238   0.839  -0.346  1.00  0.00    -0.071 SA
BRANCH  17  23
HETATM   23  O1  UNL     1       4.743  -2.615   0.013  1.00  0.00    -0.345 OA
ATOM     24  H1  UNL     1       4.265  -3.280  -0.469  1.00  0.00     0.219 HD
ENDBRANCH  17  23
ENDBRANCH   1  16
TORSDOF 6
