REMARK  5 active torsions:
REMARK  status: ('A' for Active; 'I' for Inactive)
REMARK    1  A    between atoms: C3_3  and  C4_4 
REMARK    2  A    between atoms: C4_4  and  N1_5 
REMARK    3  A    between atoms: C10_14  and  N3_15 
REMARK    4  A    between atoms: N4_18  and  N5_19 
REMARK    5  A    between atoms: N5_19  and  C11_21 
ROOT
HETATM    1  C1  UNL     1      -0.261   1.265   1.174  1.00  0.00     0.073 C 
HETATM    2  C2  UNL     1      -0.177   0.686  -0.191  1.00  0.00     0.073 A 
HETATM    3  C3  UNL     1       1.047   0.438  -0.828  1.00  0.00     0.079 A 
HETATM    4  N2  UNL     1       0.718  -0.027  -2.030  1.00  0.00    -0.190 N 
ATOM      5  H2  UNL     1       1.384  -0.306  -2.751  1.00  0.00     0.184 HD
HETATM    6  C10 UNL     1      -0.613  -0.076  -2.157  1.00  0.00     0.697 A 
HETATM    7  N4  UNL     1      -1.210   0.375  -0.992  1.00  0.00    -0.093 N 
ENDROOT
BRANCH   3   8
HETATM    8  C4  UNL     1       2.380   0.683  -0.225  1.00  0.00     0.332 C 
BRANCH   8   9
HETATM    9  N1  UNL     1       3.473   0.324  -1.088  1.00  0.00     0.098 N 
HETATM   10  C5  UNL     1       3.455  -1.068  -1.338  1.00  0.00     0.299 C 
HETATM   11  C6  UNL     1       4.601  -1.823  -0.709  1.00  0.00     0.198 C 
HETATM   12  O1  UNL     1       4.716  -1.312   0.603  1.00  0.00    -0.383 OA
HETATM   13  C7  UNL     1       5.352  -0.077   0.459  1.00  0.00     0.145 C 
HETATM   14  C8  UNL     1       5.393   0.550   1.838  1.00  0.00     0.041 C 
HETATM   15  C9  UNL     1       4.684   0.831  -0.497  1.00  0.00     0.304 C 
ENDBRANCH   8   9
ENDBRANCH   3   8
BRANCH   7  16
HETATM   16  N5  UNL     1      -2.582   0.396  -0.800  1.00  0.00    -0.310 N 
ATOM     17  H5  UNL     1      -3.125   0.219  -1.645  1.00  0.00     0.181 HD
BRANCH  16  18
HETATM   18  C11 UNL     1      -3.370   0.620   0.361  1.00  0.00     0.100 C 
HETATM   19  C12 UNL     1      -3.349  -0.626   1.213  1.00  0.00     0.026 C 
HETATM   20  C13 UNL     1      -4.394  -1.563   0.639  1.00  0.00     0.002 C 
HETATM   21  C14 UNL     1      -5.723  -0.991   1.074  1.00  0.00     0.000 C 
HETATM   22  C15 UNL     1      -5.845   0.468   0.847  1.00  0.00     0.002 C 
HETATM   23  C16 UNL     1      -4.759   1.093   0.039  1.00  0.00     0.026 C 
ENDBRANCH  16  18
ENDBRANCH   7  16
BRANCH   6  24
HETATM   24  N3  UNL     1      -1.287  -0.477  -3.192  1.00  0.00    -0.233 N 
ATOM     25  H32 UNL     1      -0.847  -0.809  -4.050  1.00  0.00     0.174 HD
ATOM     26  H31 UNL     1      -2.302  -0.514  -3.289  1.00  0.00     0.174 HD
ENDBRANCH   6  24
TORSDOF 5
