REMARK  6 active torsions:
REMARK  status: ('A' for Active; 'I' for Inactive)
REMARK    1  A    between atoms: C2_2  and  C3_3 
REMARK    2  A    between atoms: C3_3  and  C4_4 
REMARK    3  A    between atoms: C4_4  and  C5_5 
REMARK    4  A    between atoms: C5_5  and  O1_6 
REMARK    5  A    between atoms: C13_15  and  O2_16 
REMARK    6  A    between atoms: C17_23  and  O5_24 
ROOT
HETATM    1  C5  UNL     1       0.748   0.068   0.258  1.00  0.00     0.088 C 
HETATM    2  C6  UNL     1       0.160   1.003  -0.749  1.00  0.00     0.044 C 
HETATM    3  C7  UNL     1      -1.088   1.665  -0.092  1.00  0.00     0.025 C 
HETATM    4  C8  UNL     1      -2.163   0.671  -0.018  1.00  0.00     0.069 C 
HETATM    5  C9  UNL     1      -1.603  -0.506   0.688  1.00  0.00     0.004 A 
HETATM    6  C10 UNL     1      -2.668  -1.200   1.176  1.00  0.00     0.077 A 
HETATM    7  C11 UNL     1      -2.367  -2.390   1.817  1.00  0.00     0.040 A 
HETATM    8  C12 UNL     1      -1.050  -2.797   1.927  1.00  0.00     0.040 A 
HETATM    9  C13 UNL     1      -0.006  -2.050   1.417  1.00  0.00     0.075 A 
HETATM   10  C14 UNL     1      -0.285  -0.842   0.765  1.00  0.00     0.019 A 
HETATM   11  O3  UNL     1      -3.876  -0.499   0.901  1.00  0.00    -0.342 OA
HETATM   12  C15 UNL     1      -3.397   0.890   0.757  1.00  0.00     0.170 C 
HETATM   13  C16 UNL     1      -4.273   1.572  -0.275  1.00  0.00     0.204 C 
HETATM   14  O4  UNL     1      -3.930   1.021  -1.499  1.00  0.00    -0.358 OA
HETATM   15  C17 UNL     1      -2.753   0.296  -1.363  1.00  0.00     0.272 C 
ENDROOT
BRANCH   1  16
HETATM   16  C4  UNL     1       2.054  -0.506  -0.133  1.00  0.00     0.043 C 
BRANCH  16  17
HETATM   17  C3  UNL     1       2.971   0.642  -0.612  1.00  0.00     0.003 C 
BRANCH  17  18
HETATM   18  C2  UNL     1       4.294  -0.025  -0.964  1.00  0.00    -0.004 C 
HETATM   19  C1  UNL     1       5.310   0.965  -1.454  1.00  0.00     0.005 C 
ENDBRANCH  17  18
ENDBRANCH  16  17
ENDBRANCH   1  16
BRANCH   1  20
HETATM   20  O1  UNL     1       1.067   0.955   1.344  1.00  0.00    -0.385 OA
ATOM     21  H1  UNL     1       0.228   1.324   1.595  1.00  0.00     0.211 HD
ENDBRANCH   1  20
BRANCH   9  22
HETATM   22  O2  UNL     1       1.297  -2.442   1.520  1.00  0.00    -0.360 OA
ATOM     23  H2  UNL     1       2.015  -1.928   1.169  1.00  0.00     0.217 HD
ENDBRANCH   9  22
BRANCH  15  24
HETATM   24  O5  UNL     1      -3.092  -1.053  -1.315  1.00  0.00    -0.370 OA
ATOM     25  H5  UNL     1      -3.462  -1.288  -2.158  1.00  0.00     0.212 HD
ENDBRANCH  15  24
TORSDOF 6
