REMARK  5 active torsions:
REMARK  status: ('A' for Active; 'I' for Inactive)
REMARK    1  A    between atoms: C2_2  and  C3_3 
REMARK    2  A    between atoms: C3_3  and  O1_4 
REMARK    3  A    between atoms: N1_12  and  C10_13 
REMARK    4  A    between atoms: C11_16  and  N3_17 
REMARK    5  A    between atoms: C12_22  and  C13_23 
ROOT
HETATM    1  C10 UNL     1       1.427  -0.499  -0.941  1.00  0.00     0.696 A 
HETATM    2  N2  UNL     1       1.870  -0.597  -2.188  1.00  0.00    -0.022 N 
ATOM      3  H2  UNL     1       1.227  -0.957  -2.893  1.00  0.00     0.203 HD
HETATM    4  C11 UNL     1       3.108  -0.254  -2.587  1.00  0.00     0.691 A 
HETATM    5  N4  UNL     1       3.944   0.218  -1.661  1.00  0.00    -0.179 N 
ATOM      6  H4  UNL     1       4.890   0.488  -1.929  1.00  0.00     0.185 HD
HETATM    7  C12 UNL     1       3.553   0.345  -0.364  1.00  0.00     0.117 A 
HETATM    8  N5  UNL     1       2.312  -0.011  -0.023  1.00  0.00    -0.179 N 
ATOM      9  H5  UNL     1       2.017   0.084   0.949  1.00  0.00     0.185 HD
ENDROOT
BRANCH   1  10
HETATM   10  N1  UNL     1       0.109  -0.873  -0.556  1.00  0.00    -0.212 N 
HETATM   11  C6  UNL     1      -0.483  -0.814   0.747  1.00  0.00     0.102 C 
HETATM   12  C5  UNL     1      -1.059   0.509   1.102  1.00  0.00     0.029 C 
HETATM   13  C7  UNL     1      -1.483  -1.937   0.711  1.00  0.00     0.032 C 
HETATM   14  C4  UNL     1      -2.567   0.560   1.038  1.00  0.00     0.040 C 
HETATM   15  C3  UNL     1      -3.113   0.397  -0.341  1.00  0.00     0.058 C 
HETATM   16  C16 UNL     1      -3.258  -1.000  -0.801  1.00  0.00     0.044 C 
HETATM   17  C8  UNL     1      -2.042  -1.854  -0.663  1.00  0.00     0.009 C 
HETATM   18  C9  UNL     1      -0.873  -1.397  -1.488  1.00  0.00     0.146 C 
BRANCH  15  19
HETATM   19  C2  UNL     1      -4.503   1.047  -0.422  1.00  0.00     0.033 C 
HETATM   20  C1  UNL     1      -5.504   0.348   0.433  1.00  0.00     0.008 C 
ENDBRANCH  15  19
BRANCH  15  21
HETATM   21  O1  UNL     1      -2.310   1.178  -1.199  1.00  0.00    -0.390 OA
ATOM     22  H1  UNL     1      -1.451   0.776  -1.149  1.00  0.00     0.210 HD
ENDBRANCH  15  21
ENDBRANCH   1  10
BRANCH   4  23
HETATM   23  N3  UNL     1       3.519  -0.358  -3.806  1.00  0.00    -0.234 N 
ATOM     24  H32 UNL     1       2.880  -0.719  -4.514  1.00  0.00     0.174 HD
ATOM     25  H31 UNL     1       4.458  -0.098  -4.109  1.00  0.00     0.174 HD
ENDBRANCH   4  23
BRANCH   7  26
HETATM   26  C13 UNL     1       4.553   0.878   0.584  1.00  0.00     0.046 C 
HETATM   27  C14 UNL     1       5.739  -0.086   0.649  1.00  0.00     0.017 C 
HETATM   28  C15 UNL     1       5.083   2.203   0.089  1.00  0.00     0.017 C 
ENDBRANCH   7  26
TORSDOF 5
