REMARK  5 active torsions:
REMARK  status: ('A' for Active; 'I' for Inactive)
REMARK    1  A    between atoms: C3_3  and  O1_4 
REMARK    2  A    between atoms: C7_9  and  O2_10 
REMARK    3  A    between atoms: O2_10  and  S1_11 
REMARK    4  A    between atoms: S1_11  and  C8_12 
REMARK    5  A    between atoms: C14_19  and  O4_20 
ROOT
HETATM    1  C1  UNL     1      -3.993   0.264  -0.478  1.00  0.00     0.017 C 
HETATM    2  C2  UNL     1      -2.859   0.546   0.116  1.00  0.00    -0.054 C 
HETATM    3  C3  UNL     1      -2.747   1.954   0.669  1.00  0.00     0.146 C 
HETATM    4  C4  UNL     1      -1.598   2.523  -0.182  1.00  0.00     0.037 C 
HETATM    5  C5  UNL     1      -0.400   1.731   0.171  1.00  0.00     0.011 C 
HETATM    6  C6  UNL     1      -0.434   0.267  -0.221  1.00  0.00     0.027 C 
HETATM    7  C7  UNL     1       0.834  -0.262   0.342  1.00  0.00     0.153 C 
HETATM    8  C10 UNL     1       1.135  -1.703   0.159  1.00  0.00     0.082 C 
HETATM    9  C11 UNL     1       1.444  -2.150  -1.218  1.00  0.00     0.020 C 
HETATM   10  C12 UNL     1       0.056  -2.470   0.842  1.00  0.00     0.135 C 
HETATM   11  O3  UNL     1       0.248  -2.818   2.017  1.00  0.00    -0.297 OA
HETATM   12  C13 UNL     1      -1.214  -2.835   0.207  1.00  0.00     0.111 C 
HETATM   13  C14 UNL     1      -2.048  -1.674  -0.262  1.00  0.00     0.133 C 
HETATM   14  C15 UNL     1      -1.693  -0.347   0.300  1.00  0.00     0.052 C 
ENDROOT
BRANCH   7  15
HETATM   15  O2  UNL     1       1.892   0.529  -0.106  1.00  0.00    -0.314 OA
BRANCH  15  16
HETATM   16  S1  UNL     1       2.725   1.310   1.168  1.00  0.00    -0.012 SA
BRANCH  16  17
HETATM   17  C8  UNL     1       4.500   0.940   1.124  1.00  0.00     0.100 C 
HETATM   18  C9  UNL     1       5.156   1.526  -0.104  1.00  0.00     0.018 C 
ENDBRANCH  16  17
ENDBRANCH  15  16
ENDBRANCH   7  15
BRANCH  13  19
HETATM   19  O4  UNL     1      -2.150  -1.717  -1.636  1.00  0.00    -0.394 OA
ATOM     20  H4  UNL     1      -2.677  -0.984  -1.932  1.00  0.00     0.210 HD
ENDBRANCH  13  19
BRANCH   3  21
HETATM   21  O1  UNL     1      -3.904   2.664   0.496  1.00  0.00    -0.391 OA
ATOM     22  H1  UNL     1      -3.834   3.546   0.842  1.00  0.00     0.210 HD
ENDBRANCH   3  21
TORSDOF 5
