REMARK  6 active torsions:
REMARK  status: ('A' for Active; 'I' for Inactive)
REMARK    1  A    between atoms: C3_4  and  N1_5 
REMARK    2  A    between atoms: N1_5  and  C4_7 
REMARK    3  A    between atoms: C7_12  and  C8_13 
REMARK    4  A    between atoms: C12_17  and  O1_18 
REMARK    5  A    between atoms: C13_20  and  O2_21 
REMARK    6  A    between atoms: O2_21  and  C14_22 
ROOT
HETATM    1  C1  UNL     1      -0.914   0.068   3.090  1.00  0.00     0.059 C 
HETATM    2  C2  UNL     1       0.204   0.386   2.120  1.00  0.00     0.009 A 
HETATM    3  S1  UNL     1       1.628   1.254   2.453  1.00  0.00    -0.057 SA
HETATM    4  C3  UNL     1       2.452   0.961   0.991  1.00  0.00     0.145 A 
HETATM    5  N2  UNL     1       1.592   0.221   0.316  1.00  0.00    -0.336 N 
ATOM      6  H2  UNL     1       1.826  -0.107  -0.621  1.00  0.00     0.168 HD
HETATM    7  C7  UNL     1       0.419  -0.096   0.859  1.00  0.00     0.052 A 
ENDROOT
BRANCH   7   8
HETATM    8  C8  UNL     1      -0.676  -0.729   0.020  1.00  0.00    -0.020 C 
HETATM    9  C9  UNL     1      -0.298  -2.026  -0.544  1.00  0.00     0.039 C 
HETATM   10  C10 UNL     1      -1.032  -2.321  -1.813  1.00  0.00     0.007 C 
HETATM   11  C11 UNL     1      -2.031  -1.279  -2.180  1.00  0.00     0.035 C 
HETATM   12  C12 UNL     1      -2.859  -0.780  -1.069  1.00  0.00     0.152 C 
HETATM   13  C13 UNL     1      -2.041  -0.397   0.221  1.00  0.00     0.193 C 
BRANCH  12  14
HETATM   14  O1  UNL     1      -3.887  -1.660  -0.772  1.00  0.00    -0.393 OA
ATOM     15  H1  UNL     1      -4.421  -1.338  -0.055  1.00  0.00     0.210 HD
ENDBRANCH  12  14
BRANCH  13  16
HETATM   16  O2  UNL     1      -2.259   1.068   0.176  1.00  0.00    -0.294 OA
BRANCH  16  17
HETATM   17  C14 UNL     1      -3.376   1.543   0.836  1.00  0.00     0.373 C 
HETATM   18  N3  UNL     1      -3.733   2.908   0.901  1.00  0.00    -0.032 NA
HETATM   19  O3  UNL     1      -4.179   0.752   1.446  1.00  0.00    -0.242 OA
ENDBRANCH  16  17
ENDBRANCH  13  16
ENDBRANCH   7   8
BRANCH   4  20
HETATM   20  N1  UNL     1       3.647   1.417   0.655  1.00  0.00    -0.366 N 
ATOM     21  H1  UNL     1       4.151   2.009   1.315  1.00  0.00     0.162 HD
BRANCH  20  22
HETATM   22  C4  UNL     1       4.253   1.111  -0.594  1.00  0.00     0.083 A 
HETATM   23  C5  UNL     1       5.632   0.448  -0.425  1.00  0.00     0.027 A 
HETATM   24  C6  UNL     1       5.529   1.775  -1.030  1.00  0.00     0.027 A 
ENDBRANCH  20  22
ENDBRANCH   4  20
TORSDOF 6
