REMARK  3 active torsions:
REMARK  status: ('A' for Active; 'I' for Inactive)
REMARK       I    between atoms: C1_4  and  N3_6 
REMARK    1  A    between atoms: N3_6  and  N4_8 
REMARK    2  A    between atoms: C2_10  and  C3_11 
REMARK    3  A    between atoms: C5_16  and  C6_17 
ROOT
HETATM    1  C3  UNL     1       1.613   0.835   0.553  1.00  0.00     0.012 A 
HETATM    2  C4  UNL     1       2.524   1.533   1.275  1.00  0.00     0.109 A 
HETATM    3  N5  UNL     1       2.069   2.304   2.263  1.00  0.00    -0.336 N 
ATOM      4  H5  UNL     1       2.612   2.889   2.898  1.00  0.00     0.173 HD
HETATM    5  S1  UNL     1       0.411   2.097   2.229  1.00  0.00    -0.018 SA
HETATM    6  C5  UNL     1       0.298   1.001   0.924  1.00  0.00     0.021 A 
ENDROOT
BRANCH   1   7
HETATM    7  C2  UNL     1       1.992  -0.059  -0.570  1.00  0.00     0.121 C 
HETATM    8  N4  UNL     1       3.144  -0.295  -1.005  1.00  0.00    -0.309 N 
ATOM      9  H4  UNL     1       3.119  -0.949  -1.787  1.00  0.00     0.186 HD
BRANCH   8  10
HETATM   10  N3  UNL     1       4.400   0.079  -0.721  1.00  0.00    -0.274 N 
HETATM   11  C1  UNL     1       5.274  -0.897  -0.111  1.00  0.00     0.200 C 
HETATM   12  N1  UNL     1       4.821  -1.900   0.558  1.00  0.00    -0.372 N 
HETATM   13  N2  UNL     1       6.677  -0.763  -0.243  1.00  0.00    -0.062 NA
ATOM     14  H12 UNL     1       5.438  -2.589   0.989  1.00  0.00     0.158 HD
ATOM     15  H11 UNL     1       3.810  -1.997   0.653  1.00  0.00     0.158 HD
ATOM     16  H3  UNL     1       4.728   1.022  -0.929  1.00  0.00     0.189 HD
ENDBRANCH   8  10
ENDBRANCH   1   7
BRANCH   6  17
HETATM   17  C6  UNL     1      -0.951   0.387   0.345  1.00  0.00    -0.003 C 
HETATM   18  C7  UNL     1      -2.092   0.987   1.219  1.00  0.00     0.019 C 
HETATM   19  C8  UNL     1      -3.424   0.481   0.789  1.00  0.00    -0.013 C 
HETATM   20  C9  UNL     1      -3.502  -1.023   0.854  1.00  0.00     0.009 C 
HETATM   21  C13 UNL     1      -3.674   0.942  -0.642  1.00  0.00     0.009 C 
HETATM   22  C10 UNL     1      -2.371  -1.564   0.007  1.00  0.00    -0.013 C 
HETATM   23  C11 UNL     1      -2.553  -1.159  -1.419  1.00  0.00     0.009 C 
HETATM   24  C15 UNL     1      -1.064  -1.074   0.583  1.00  0.00     0.019 C 
HETATM   25  C12 UNL     1      -2.593   0.331  -1.484  1.00  0.00    -0.013 C 
HETATM   26  C14 UNL     1      -1.268   0.878  -1.022  1.00  0.00     0.019 C 
ENDBRANCH   6  17
TORSDOF 3
