REMARK  8 active torsions:
REMARK  status: ('A' for Active; 'I' for Inactive)
REMARK    1  A    between atoms: C2_2  and  C5_5 
REMARK    2  A    between atoms: C5_5  and  N1_6 
REMARK    3  A    between atoms: C10_11  and  C11_12 
REMARK    4  A    between atoms: C10_11  and  C12_19 
REMARK    5  A    between atoms: C11_12  and  S1_13 
REMARK    6  A    between atoms: S1_13  and  N2_14 
REMARK    7  A    between atoms: C12_19  and  O3_20 
REMARK    8  A    between atoms: N3_22  and  O4_24 
ROOT
HETATM    1  N1  UNL     1       0.556   0.160   0.245  1.00  0.00    -0.065 N 
HETATM    2  C6  UNL     1       0.713  -0.448   1.510  1.00  0.00     0.238 C 
HETATM    3  C7  UNL     1      -0.445   0.134   2.339  1.00  0.00     0.035 C 
HETATM    4  C8  UNL     1      -1.131   1.056   1.398  1.00  0.00     0.032 C 
HETATM    5  C9  UNL     1       0.069   1.520   0.551  1.00  0.00     0.243 C 
HETATM    6  C10 UNL     1      -1.834   0.258   0.327  1.00  0.00     0.070 C 
HETATM    7  C13 UNL     1      -0.671  -0.428  -0.310  1.00  0.00     0.256 C 
ENDROOT
BRANCH   6   8
HETATM    8  C11 UNL     1      -2.891  -0.641   0.853  1.00  0.00     0.183 C 
BRANCH   8   9
HETATM    9  S1  UNL     1      -3.700  -1.552  -0.420  1.00  0.00     0.225 S 
HETATM   10  O1  UNL     1      -4.395  -0.616  -1.371  1.00  0.00    -0.206 OA
HETATM   11  O2  UNL     1      -4.775  -2.396   0.235  1.00  0.00    -0.206 OA
BRANCH   9  12
HETATM   12  N2  UNL     1      -2.629  -2.553  -1.324  1.00  0.00    -0.328 N 
ATOM     13  H22 UNL     1      -1.629  -2.602  -1.130  1.00  0.00     0.168 HD
ATOM     14  H21 UNL     1      -3.097  -3.080  -2.061  1.00  0.00     0.168 HD
ENDBRANCH   9  12
ENDBRANCH   8   9
ENDBRANCH   6   8
BRANCH   6  15
HETATM   15  C12 UNL     1      -2.406   1.180  -0.671  1.00  0.00     0.147 C 
HETATM   16  N3  UNL     1      -2.050   1.162  -1.926  1.00  0.00    -0.250 N 
ATOM     17  H3  UNL     1      -1.351   0.487  -2.237  1.00  0.00     0.196 HD
BRANCH  15  18
HETATM   18  O3  UNL     1      -3.350   2.099  -0.274  1.00  0.00    -0.347 OA
ATOM     19  H3  UNL     1      -3.719   2.693  -0.917  1.00  0.00     0.219 HD
ENDBRANCH  15  18
BRANCH  16  20
HETATM   20  O4  UNL     1      -2.596   2.031  -2.835  1.00  0.00    -0.288 OA
ATOM     21  H4  UNL     1      -2.337   2.018  -3.749  1.00  0.00     0.244 HD
ENDBRANCH  16  20
ENDBRANCH   6  15
BRANCH   1  22
HETATM   22  C5  UNL     1       1.529   0.108  -0.733  1.00  0.00     0.245 C 
BRANCH  22  23
HETATM   23  C2  UNL     1       2.964  -0.027  -0.439  1.00  0.00    -0.027 C 
HETATM   24  C1  UNL     1       3.353  -1.280   0.315  1.00  0.00     0.016 C 
HETATM   25  C3  UNL     1       3.633  -0.178  -1.827  1.00  0.00     0.016 C 
HETATM   26  C4  UNL     1       3.638   1.197   0.114  1.00  0.00     0.016 C 
ENDBRANCH  22  23
ENDBRANCH   1  22
TORSDOF 8
