REMARK  7 active torsions:
REMARK  status: ('A' for Active; 'I' for Inactive)
REMARK    1  A    between atoms: C1_2  and  C2_3 
REMARK       I    between atoms: C1_2  and  N3_13 
REMARK    2  A    between atoms: C2_3  and  N1_4 
REMARK    3  A    between atoms: N2_7  and  C5_8 
REMARK    4  A    between atoms: C5_8  and  C6_9 
REMARK    5  A    between atoms: N3_13  and  C9_15 
REMARK    6  A    between atoms: C9_15  and  N4_17 
REMARK    7  A    between atoms: N4_17  and  C10_19 
ROOT
HETATM    1  O1  UNL     1      -0.585   0.347  -0.166  1.00  0.00    -0.271 OA
HETATM    2  C1  UNL     1      -0.445  -0.548   0.666  1.00  0.00     0.241 C 
HETATM    3  N3  UNL     1      -1.513  -1.322   1.142  1.00  0.00    -0.303 N 
ATOM      4  H3  UNL     1      -1.293  -2.039   1.833  1.00  0.00     0.171 HD
ENDROOT
BRANCH   2   5
HETATM    5  C2  UNL     1       0.935  -0.811   1.186  1.00  0.00     0.220 C 
BRANCH   5   6
HETATM    6  N1  UNL     1       1.863   0.059   0.567  1.00  0.00    -0.401 N 
HETATM    7  C3  UNL     1       2.139  -0.151  -0.812  1.00  0.00     0.147 C 
HETATM    8  C4  UNL     1       3.373  -1.056  -0.951  1.00  0.00     0.291 C 
HETATM    9  N2  UNL     1       4.500  -0.409  -0.337  1.00  0.00     0.092 N 
HETATM   10  C7  UNL     1       4.167   0.712   0.485  1.00  0.00     0.291 C 
HETATM   11  C8  UNL     1       2.964   0.504   1.356  1.00  0.00     0.147 C 
BRANCH   9  12
HETATM   12  C5  UNL     1       5.461  -0.031  -1.350  1.00  0.00     0.283 C 
BRANCH  12  13
HETATM   13  C6  UNL     1       6.650   0.637  -0.714  1.00  0.00     0.116 C 
HETATM   14  S1  UNL     1       7.410  -0.515   0.438  1.00  0.00    -0.096 SA
ENDBRANCH  12  13
ENDBRANCH   9  12
ENDBRANCH   5   6
ENDBRANCH   2   5
BRANCH   3  15
HETATM   15  C9  UNL     1      -2.846  -1.201   0.758  1.00  0.00     0.174 C 
HETATM   16  S2  UNL     1      -3.908  -2.263   1.491  1.00  0.00    -0.041 SA
BRANCH  15  17
HETATM   17  N4  UNL     1      -3.351  -0.285  -0.165  1.00  0.00    -0.362 N 
ATOM     18  H4  UNL     1      -2.731   0.378  -0.630  1.00  0.00     0.162 HD
BRANCH  17  19
HETATM   19  C10 UNL     1      -4.804  -0.293  -0.457  1.00  0.00     0.083 C 
HETATM   20  C11 UNL     1      -5.552  -0.003   0.810  1.00  0.00     0.025 C 
HETATM   21  C12 UNL     1      -6.379   1.236   0.543  1.00  0.00     0.002 C 
HETATM   22  C13 UNL     1      -6.557   1.192  -0.956  1.00  0.00     0.002 C 
HETATM   23  C14 UNL     1      -5.129   0.844  -1.405  1.00  0.00     0.025 C 
ENDBRANCH  17  19
ENDBRANCH  15  17
ENDBRANCH   3  15
TORSDOF 7
