REMARK  6 active torsions:
REMARK  status: ('A' for Active; 'I' for Inactive)
REMARK    1  A    between atoms: N1_1  and  C1_5 
REMARK    2  A    between atoms: C4_8  and  N2_9 
REMARK    3  A    between atoms: N2_9  and  C5_12 
REMARK    4  A    between atoms: C5_12  and  C6_13 
REMARK       I    between atoms: C6_13  and  N3_15 
REMARK    5  A    between atoms: N3_15  and  C7_17 
REMARK    6  A    between atoms: C11_21  and  N4_22 
ROOT
HETATM    1  C6  UNL     1       0.578   0.719  -0.390  1.00  0.00     0.243 C 
HETATM    2  O1  UNL     1       0.961   0.024  -1.396  1.00  0.00    -0.272 OA
HETATM    3  N3  UNL     1      -0.655   0.340   0.201  1.00  0.00    -0.353 N 
ATOM      4  H3  UNL     1      -0.976   0.861   1.017  1.00  0.00     0.163 HD
ENDROOT
BRANCH   1   5
HETATM    5  C5  UNL     1       1.400   1.819   0.078  1.00  0.00     0.335 C 
BRANCH   5   6
HETATM    6  N2  UNL     1       2.623   1.941  -0.641  1.00  0.00    -0.063 N 
ATOM      7  H22 UNL     1       3.030   2.868  -0.516  1.00  0.00     0.278 HD
ATOM      8  H21 UNL     1       2.455   1.969  -1.647  1.00  0.00     0.278 HD
BRANCH   6   9
HETATM    9  C4  UNL     1       3.583   0.896  -0.298  1.00  0.00     0.186 C 
HETATM   10  C3  UNL     1       4.362   0.395  -1.476  1.00  0.00     0.035 C 
HETATM   11  C2  UNL     1       5.855   0.655  -1.352  1.00  0.00     0.034 C 
HETATM   12  C1  UNL     1       6.437   0.017  -0.129  1.00  0.00     0.183 C 
HETATM   13  C18 UNL     1       5.635   0.472   1.061  1.00  0.00     0.034 C 
HETATM   14  C17 UNL     1       4.532   1.410   0.757  1.00  0.00     0.035 C 
BRANCH  12  15
HETATM   15  N1  UNL     1       6.549  -1.403  -0.202  1.00  0.00    -0.075 N 
ATOM     16  H13 UNL     1       5.645  -1.820  -0.425  1.00  0.00     0.274 HD
ATOM     17  H12 UNL     1       7.077  -1.676  -1.031  1.00  0.00     0.274 HD
ATOM     18  H11 UNL     1       6.946  -1.838   0.631  1.00  0.00     0.274 HD
ENDBRANCH  12  15
ENDBRANCH   6   9
ENDBRANCH   5   6
ENDBRANCH   1   5
BRANCH   3  19
HETATM   19  C7  UNL     1      -1.479  -0.735  -0.281  1.00  0.00     0.107 C 
HETATM   20  C8  UNL     1      -0.727  -2.056   0.038  1.00  0.00     0.027 C 
HETATM   21  C9  UNL     1      -1.675  -2.915   0.790  1.00  0.00     0.004 C 
HETATM   22  C10 UNL     1      -3.019  -2.417   0.308  1.00  0.00     0.027 C 
HETATM   23  C11 UNL     1      -2.782  -0.893   0.413  1.00  0.00     0.101 C 
BRANCH  23  24
HETATM   24  N4  UNL     1      -3.873  -0.154   0.030  1.00  0.00    -0.406 N 
HETATM   25  C12 UNL     1      -3.945   1.223   0.179  1.00  0.00     0.117 C 
HETATM   26  C13 UNL     1      -5.369   1.758  -0.079  1.00  0.00     0.019 C 
HETATM   27  C14 UNL     1      -6.413   1.020   0.683  1.00  0.00     0.003 C 
HETATM   28  C15 UNL     1      -6.171  -0.455   0.656  1.00  0.00     0.019 C 
HETATM   29  C16 UNL     1      -5.090  -0.754  -0.362  1.00  0.00     0.117 C 
ENDBRANCH  23  24
ENDBRANCH   3  19
TORSDOF 6
