REMARK  1 active torsions:
REMARK  status: ('A' for Active; 'I' for Inactive)
REMARK    1  A    between atoms: C2_2  and  C3_3 
ROOT
HETATM    1  C3  UNL     1       0.909  -0.479  -0.405  1.00  0.00     0.044 C 
HETATM    2  C4  UNL     1       0.424  -1.063   0.857  1.00  0.00     0.281 C 
HETATM    3  N1  UNL     1      -0.929  -0.920   1.184  1.00  0.00     0.119 N 
HETATM    4  C5  UNL     1      -1.263   0.259   1.955  1.00  0.00     0.310 C 
HETATM    5  C6  UNL     1      -1.590   1.250   0.829  1.00  0.00     0.257 C 
HETATM    6  C7  UNL     1      -0.304   1.639   0.194  1.00  0.00     0.071 C 
HETATM    7  C8  UNL     1       0.169   0.728  -0.890  1.00  0.00     0.195 C 
HETATM    8  N2  UNL     1      -0.850   0.312  -1.805  1.00  0.00    -0.044 N 
ATOM      9  H21 UNL     1      -0.817  -0.699  -1.939  1.00  0.00     0.279 HD
ATOM     10  H22 UNL     1      -0.627   0.621  -2.751  1.00  0.00     0.279 HD
HETATM   11  C9  UNL     1      -2.177   0.727  -1.442  1.00  0.00     0.506 C 
HETATM   12  N3  UNL     1      -2.383   0.418  -0.046  1.00  0.00     0.148 N 
HETATM   13  C10 UNL     1      -1.881  -0.951   0.148  1.00  0.00     0.545 C 
ENDROOT
BRANCH   1  14
HETATM   14  C2  UNL     1       2.405  -0.154  -0.295  1.00  0.00     0.004 C 
HETATM   15  C1  UNL     1       3.222  -1.366  -0.009  1.00  0.00     0.005 C 
ENDBRANCH   1  14
TORSDOF 1
