REMARK  3 active torsions:
REMARK  status: ('A' for Active; 'I' for Inactive)
REMARK    1  A    between atoms: C2_2  and  N1_3 
REMARK    2  A    between atoms: N1_3  and  C3_5 
REMARK    3  A    between atoms: C4_10  and  C5_11 
ROOT
HETATM    1  C3  UNL     1       1.251   0.566  -0.002  1.00  0.00     0.696 A 
HETATM    2  N2  UNL     1       0.767   1.682  -0.532  1.00  0.00    -0.131 N 
ATOM      3  H2  UNL     1       1.293   2.521  -0.776  1.00  0.00     0.205 HD
HETATM    4  N3  UNL     1      -0.535   1.489  -0.681  1.00  0.00    -0.273 N 
ATOM      5  H3  UNL     1      -1.190   2.171  -1.064  1.00  0.00     0.189 HD
HETATM    6  C4  UNL     1      -0.864   0.249  -0.247  1.00  0.00     0.122 A 
HETATM    7  N4  UNL     1       0.240  -0.342   0.176  1.00  0.00    -0.173 N 
HETATM    8  C9  UNL     1       0.367  -1.667   0.730  1.00  0.00     0.177 C 
ENDROOT
BRANCH   1   9
HETATM    9  N1  UNL     1       2.419   0.355   0.390  1.00  0.00    -0.225 N 
ATOM     10  H1  UNL     1       2.572  -0.586   0.752  1.00  0.00     0.177 HD
BRANCH   9  11
HETATM   11  C2  UNL     1       3.581   1.190   0.425  1.00  0.00     0.134 C 
HETATM   12  C1  UNL     1       4.648   0.587  -0.454  1.00  0.00     0.027 C 
ENDBRANCH   9  11
ENDBRANCH   1   9
BRANCH   6  13
HETATM   13  C5  UNL     1      -2.239  -0.288  -0.157  1.00  0.00     0.009 C 
HETATM   14  C6  UNL     1      -2.489  -0.896   1.207  1.00  0.00     0.023 C 
HETATM   15  C7  UNL     1      -3.189   0.924  -0.227  1.00  0.00     0.023 C 
HETATM   16  C8  UNL     1      -2.605  -1.197  -1.261  1.00  0.00     0.023 C 
ENDBRANCH   6  13
TORSDOF 3
