REMARK  1 active torsions:
REMARK  status: ('A' for Active; 'I' for Inactive)
REMARK    1  A    between atoms: N1_4  and  N2_5 
ROOT
HETATM    1  N2  UNL     1       0.389   0.566  -1.026  1.00  0.00    -0.282 N 
ATOM      2  H2  UNL     1       0.137   0.919  -1.949  1.00  0.00     0.189 HD
HETATM    3  C4  UNL     1       1.642   0.401  -0.766  1.00  0.00     0.154 C 
HETATM    4  N3  UNL     1       2.258  -0.068   0.423  1.00  0.00    -0.369 N 
ATOM      5  H3  UNL     1       1.841   0.053   1.346  1.00  0.00     0.161 HD
HETATM    6  C5  UNL     1       3.499  -0.718   0.223  1.00  0.00     0.132 C 
HETATM    7  C6  UNL     1       4.343   0.069  -0.754  1.00  0.00     0.102 C 
HETATM    8  S1  UNL     1       3.030   0.726  -1.862  1.00  0.00    -0.091 SA
ENDROOT
BRANCH   1   9
HETATM    9  N1  UNL     1      -0.630   0.298  -0.143  1.00  0.00    -0.326 N 
HETATM   10  C3  UNL     1      -1.149  -1.041   0.119  1.00  0.00     0.142 C 
HETATM   11  C2  UNL     1      -2.637  -1.107  -0.101  1.00  0.00     0.021 C 
HETATM   12  C1  UNL     1      -3.325   0.213   0.155  1.00  0.00     0.003 C 
HETATM   13  C8  UNL     1      -2.549   0.946   1.218  1.00  0.00     0.021 C 
HETATM   14  C7  UNL     1      -1.240   1.406   0.585  1.00  0.00     0.142 C 
ENDBRANCH   1   9
TORSDOF 1
