REMARK  2 active torsions:
REMARK  status: ('A' for Active; 'I' for Inactive)
REMARK    1  A    between atoms: N1_1  and  N2_4 
REMARK    2  A    between atoms: C1_6  and  N3_7 
ROOT
HETATM    1  N3  UNL     1       1.638  -0.764   0.276  1.00  0.00    -0.376 N 
HETATM    2  C2  UNL     1       0.529  -1.398  -0.415  1.00  0.00     0.126 C 
HETATM    3  C3  UNL     1      -0.359  -0.263  -0.919  1.00  0.00     0.058 C 
HETATM    4  C4  UNL     1      -0.962   0.492   0.250  1.00  0.00     0.064 C 
HETATM    5  C5  UNL     1      -2.130  -0.326   0.758  1.00  0.00     0.040 C 
HETATM    6  C6  UNL     1      -3.167  -0.056  -0.329  1.00  0.00     0.029 C 
HETATM    7  C7  UNL     1      -2.754   1.306  -0.812  1.00  0.00     0.168 C 
HETATM    8  O1  UNL     1      -1.573   1.640  -0.195  1.00  0.00    -0.380 OA
HETATM    9  C8  UNL     1       0.046   0.781   1.314  1.00  0.00     0.058 C 
HETATM   10  C9  UNL     1       1.431   0.599   0.726  1.00  0.00     0.126 C 
ENDROOT
BRANCH   1  11
HETATM   11  C1  UNL     1       2.838  -1.454   0.486  1.00  0.00     0.194 C 
HETATM   12  N2  UNL     1       3.970  -0.966   0.129  1.00  0.00    -0.303 N 
ATOM     13  H2  UNL     1       4.831  -1.488   0.292  1.00  0.00     0.187 HD
BRANCH  12  14
HETATM   14  N1  UNL     1       4.010   0.292  -0.488  1.00  0.00    -0.344 N 
ATOM     15  H12 UNL     1       3.140   0.801  -0.644  1.00  0.00     0.176 HD
ATOM     16  H11 UNL     1       4.910   0.680  -0.772  1.00  0.00     0.176 HD
ENDBRANCH  12  14
ENDBRANCH   1  11
TORSDOF 2
