REMARK  2 active torsions:
REMARK  status: ('A' for Active; 'I' for Inactive)
REMARK    1  A    between atoms: N1_2  and  C2_4 
REMARK    2  A    between atoms: C3_5  and  N2_6 
ROOT
HETATM    1  C2  UNL     1      -0.000   0.315  -0.099  1.00  0.00     0.081 A 
HETATM    2  C3  UNL     1      -0.899  -0.723   0.232  1.00  0.00     0.144 A 
HETATM    3  N3  UNL     1      -0.370  -1.905   0.589  1.00  0.00    -0.284 N 
ATOM      4  H3  UNL     1      -1.003  -2.667   0.832  1.00  0.00     0.188 HD
HETATM    5  N4  UNL     1       0.930  -2.128   0.641  1.00  0.00    -0.303 N 
ATOM      6  H4  UNL     1       1.270  -3.048   0.920  1.00  0.00     0.186 HD
HETATM    7  C6  UNL     1       1.800  -1.178   0.338  1.00  0.00     0.030 A 
HETATM    8  C7  UNL     1       3.241  -1.421   0.395  1.00  0.00     0.070 C 
HETATM    9  C8  UNL     1       1.358   0.099  -0.050  1.00  0.00    -0.008 A 
HETATM   10  C9  UNL     1       2.369   1.126  -0.377  1.00  0.00     0.052 C 
ENDROOT
BRANCH   1  11
HETATM   11  N1  UNL     1      -0.480   1.407  -0.428  1.00  0.00    -0.391 N 
HETATM   12  C1  UNL     1      -0.086   2.684  -0.826  1.00  0.00     0.146 C 
ATOM     13  H1  UNL     1      -1.498   1.356  -0.398  1.00  0.00     0.159 HD
ENDBRANCH   1  11
BRANCH   2  14
HETATM   14  N2  UNL     1      -2.287  -0.500   0.181  1.00  0.00    -0.373 N 
HETATM   15  C4  UNL     1      -3.130  -1.655   0.548  1.00  0.00     0.150 C 
HETATM   16  C5  UNL     1      -2.970   0.699  -0.181  1.00  0.00     0.150 C 
ENDBRANCH   2  14
TORSDOF 2
