REMARK  2 active torsions:
REMARK  status: ('A' for Active; 'I' for Inactive)
REMARK    1  A    between atoms: C8_10  and  C9_11 
REMARK    2  A    between atoms: C9_11  and  N3_12 
ROOT
HETATM    1  N1  UNL     1      -1.246   3.563  -0.949  1.00  0.00    -0.197 NA
HETATM    2  C1  UNL     1      -1.008   2.637  -0.302  1.00  0.00     0.066 C 
HETATM    3  C2  UNL     1      -0.708   1.471   0.502  1.00  0.00     0.128 C 
HETATM    4  C3  UNL     1      -2.038   1.011   1.118  1.00  0.00     0.051 C 
HETATM    5  C4  UNL     1      -1.919  -0.487   1.130  1.00  0.00     0.274 C 
HETATM    6  N2  UNL     1      -0.574  -0.812   0.694  1.00  0.00     0.095 N 
HETATM    7  C5  UNL     1      -0.641  -2.041  -0.076  1.00  0.00     0.273 C 
HETATM    8  C6  UNL     1       0.263  -2.040  -1.266  1.00  0.00     0.031 C 
HETATM    9  C7  UNL     1       1.488  -1.193  -0.929  1.00  0.00     0.010 C 
HETATM   10  C8  UNL     1       1.001   0.240  -0.879  1.00  0.00     0.046 C 
HETATM   11  C10 UNL     1      -0.331   0.267  -0.270  1.00  0.00     0.246 C 
ENDROOT
BRANCH  10  12
HETATM   12  C9  UNL     1       2.039   1.111  -0.252  1.00  0.00     0.236 C 
BRANCH  12  13
HETATM   13  N3  UNL     1       2.378   0.741   1.090  1.00  0.00    -0.079 N 
ATOM     14  H33 UNL     1       1.542   0.704   1.673  1.00  0.00     0.274 HD
ATOM     15  H32 UNL     1       2.660  -0.238   1.131  1.00  0.00     0.274 HD
ATOM     16  H31 UNL     1       3.087   1.336   1.518  1.00  0.00     0.274 HD
ENDBRANCH  12  13
ENDBRANCH  10  12
TORSDOF 2
