REMARK  4 active torsions:
REMARK  status: ('A' for Active; 'I' for Inactive)
REMARK    1  A    between atoms: N1_1  and  C1_4 
REMARK    2  A    between atoms: C2_9  and  N4_10 
REMARK    3  A    between atoms: N4_10  and  C3_11 
REMARK    4  A    between atoms: N4_10  and  C4_13 
ROOT
HETATM    1  C1  UNL     1      -2.634  -0.145  -0.423  1.00  0.00     0.705 A 
HETATM    2  N2  UNL     1      -2.599  -1.014   0.603  1.00  0.00    -0.118 N 
ATOM      3  H2  UNL     1      -3.383  -1.544   0.984  1.00  0.00     0.206 HD
HETATM    4  N3  UNL     1      -1.347  -1.043   1.017  1.00  0.00    -0.117 N 
ATOM      5  H3  UNL     1      -1.013  -1.617   1.791  1.00  0.00     0.206 HD
HETATM    6  C2  UNL     1      -0.563  -0.220   0.291  1.00  0.00     0.719 A 
HETATM    7  N7  UNL     1      -1.399   0.345  -0.622  1.00  0.00    -0.020 N 
ATOM      8  H7  UNL     1      -1.134   1.024  -1.335  1.00  0.00     0.203 HD
ENDROOT
BRANCH   6   9
HETATM    9  N4  UNL     1       0.823   0.035   0.413  1.00  0.00    -0.118 N 
BRANCH   9  10
HETATM   10  C3  UNL     1       1.274   0.826   1.487  1.00  0.00     0.374 C 
HETATM   11  O1  UNL     1       2.479   1.114   1.725  1.00  0.00    -0.283 OA
ENDBRANCH   9  10
BRANCH   9  12
HETATM   12  C4  UNL     1       1.732  -0.504  -0.553  1.00  0.00     0.338 A 
HETATM   13  N5  UNL     1       2.790   0.322  -1.063  1.00  0.00    -0.093 NA
HETATM   14  N6  UNL     1       3.058  -0.790  -0.309  1.00  0.00    -0.297 N 
ATOM     15  H6  UNL     1       3.750  -1.400   0.126  1.00  0.00     0.179 HD
ENDBRANCH   9  12
ENDBRANCH   6   9
BRANCH   1  16
HETATM   16  N1  UNL     1      -3.677   0.168  -1.105  1.00  0.00    -0.233 N 
ATOM     17  H12 UNL     1      -4.615  -0.204  -0.954  1.00  0.00     0.174 HD
ATOM     18  H11 UNL     1      -3.704   0.827  -1.883  1.00  0.00     0.174 HD
ENDBRANCH   1  16
TORSDOF 4
