REMARK  2 active torsions:
REMARK  status: ('A' for Active; 'I' for Inactive)
REMARK    1  A    between atoms: C3_8  and  C4_9 
REMARK    2  A    between atoms: N4_10  and  N5_12 
REMARK       I    between atoms: N5_12  and  C5_14 
REMARK       I    between atoms: C5_14  and  N6_15 
REMARK       I    between atoms: C5_14  and  N7_19 
ROOT
HETATM    1  C4  UNL     1      -0.358  -0.467   0.251  1.00  0.00     0.139 C 
HETATM    2  N4  UNL     1       0.616   0.350   0.327  1.00  0.00    -0.311 N 
ATOM      3  H4  UNL     1       0.397   1.333   0.165  1.00  0.00     0.185 HD
ENDROOT
BRANCH   2   4
HETATM    4  N5  UNL     1       1.926   0.054   0.603  1.00  0.00    -0.284 N 
HETATM    5  C5  UNL     1       2.906   0.107  -0.450  1.00  0.00     0.494 C 
HETATM    6  N6  UNL     1       2.916   1.464  -0.962  1.00  0.00    -0.032 N 
HETATM    7  N7  UNL     1       4.176  -0.313   0.048  1.00  0.00    -0.032 N 
ATOM      8  H63 UNL     1       1.994   1.785  -1.258  1.00  0.00     0.279 HD
ATOM      9  H62 UNL     1       3.072   2.163  -0.236  1.00  0.00     0.279 HD
ATOM     10  H61 UNL     1       3.610   1.502  -1.708  1.00  0.00     0.279 HD
ATOM     11  H73 UNL     1       4.463   0.224   0.866  1.00  0.00     0.279 HD
ATOM     12  H72 UNL     1       4.131  -1.234   0.484  1.00  0.00     0.279 HD
ATOM     13  H71 UNL     1       4.870  -0.275  -0.698  1.00  0.00     0.279 HD
ATOM     14  H5  UNL     1       2.205  -0.203   1.550  1.00  0.00     0.184 HD
ENDBRANCH   2   4
BRANCH   1  15
HETATM   15  C3  UNL     1      -1.686   0.051  -0.056  1.00  0.00     0.091 A 
HETATM   16  C1  UNL     1      -2.874  -0.670  -0.184  1.00  0.00     0.145 A 
HETATM   17  N1  UNL     1      -2.962  -2.060  -0.028  1.00  0.00    -0.080 NA
HETATM   18  N2  UNL     1      -3.866   0.198  -0.472  1.00  0.00    -0.339 N 
HETATM   19  C2  UNL     1      -3.343   1.442  -0.530  1.00  0.00     0.182 A 
ATOM     20  H2  UNL     1      -4.846  -0.044  -0.621  1.00  0.00     0.167 HD
HETATM   21  N3  UNL     1      -2.045   1.330  -0.279  1.00  0.00    -0.348 N 
ATOM     22  H3  UNL     1      -1.397   2.117  -0.257  1.00  0.00     0.167 HD
ENDBRANCH   1  15
TORSDOF 2
