REMARK  4 active torsions:
REMARK  status: ('A' for Active; 'I' for Inactive)
REMARK    1  A    between atoms: C2_3  and  N2_4 
REMARK    2  A    between atoms: C2_3  and  N3_8 
REMARK    3  A    between atoms: N3_8  and  N4_10 
REMARK    4  A    between atoms: N4_10  and  C3_11 
ROOT
HETATM    1  N1  UNL     1       4.397   1.255   0.512  1.00  0.00    -0.193 NA
HETATM    2  C1  UNL     1       3.613   0.488   0.143  1.00  0.00     0.115 C 
HETATM    3  C2  UNL     1       2.597  -0.494  -0.310  1.00  0.00     0.400 C 
ENDROOT
BRANCH   3   4
HETATM    4  N2  UNL     1       2.252  -0.141  -1.668  1.00  0.00    -0.044 N 
ATOM      5  H23 UNL     1       1.947   0.827  -1.767  1.00  0.00     0.278 HD
ATOM      6  H22 UNL     1       3.061  -0.085  -2.287  1.00  0.00     0.278 HD
ATOM      7  H21 UNL     1       1.554  -0.816  -1.979  1.00  0.00     0.278 HD
ENDBRANCH   3   4
BRANCH   3   8
HETATM    8  N3  UNL     1       1.503  -0.412   0.600  1.00  0.00    -0.296 N 
ATOM      9  H3  UNL     1       1.504   0.233   1.391  1.00  0.00     0.179 HD
BRANCH   8  10
HETATM   10  N4  UNL     1       0.452  -1.251   0.348  1.00  0.00    -0.116 NA
BRANCH  10  11
HETATM   11  C3  UNL     1      -0.782  -0.588   0.662  1.00  0.00     0.216 C 
HETATM   12  C4  UNL     1      -2.000  -1.428   0.417  1.00  0.00     0.166 C 
HETATM   13  N5  UNL     1      -3.013  -0.411   0.209  1.00  0.00    -0.361 N 
HETATM   14  C5  UNL     1      -2.470   0.711  -0.142  1.00  0.00     0.185 C 
ATOM     15  H5  UNL     1      -4.016  -0.559   0.324  1.00  0.00     0.162 HD
HETATM   16  N6  UNL     1      -3.149   1.950  -0.436  1.00  0.00    -0.064 NA
HETATM   17  N7  UNL     1      -1.048   0.553  -0.203  1.00  0.00    -0.343 N 
ATOM     18  H7  UNL     1      -0.376   1.111  -0.731  1.00  0.00     0.164 HD
ENDBRANCH  10  11
ENDBRANCH   8  10
ENDBRANCH   3   8
TORSDOF 4
