REMARK  4 active torsions:
REMARK  status: ('A' for Active; 'I' for Inactive)
REMARK    1  A    between atoms: C2_2  and  N1_3 
REMARK    2  A    between atoms: C2_2  and  N2_7 
REMARK    3  A    between atoms: C3_12  and  N5_13 
REMARK    4  A    between atoms: N5_13  and  C4_15 
ROOT
HETATM    1  N2  UNL     1      -1.319  -0.410   0.151  1.00  0.00    -0.076 N 
HETATM    2  N3  UNL     1      -1.511  -1.713   0.258  1.00  0.00    -0.210 N 
ATOM      3  H3  UNL     1      -2.308  -2.320   0.447  1.00  0.00     0.209 HD
HETATM    4  N4  UNL     1      -0.247  -1.887   0.018  1.00  0.00    -0.116 N 
ATOM      5  H4  UNL     1       0.345  -2.714  -0.055  1.00  0.00     0.207 HD
HETATM    6  C3  UNL     1      -0.010  -0.564  -0.099  1.00  0.00     0.715 A 
ENDROOT
BRANCH   1   7
HETATM    7  C2  UNL     1      -2.235   0.714   0.272  1.00  0.00     0.320 C 
HETATM    8  C1  UNL     1      -3.497   0.317   0.988  1.00  0.00     0.066 C 
BRANCH   7   9
HETATM    9  N1  UNL     1      -2.617   1.239  -1.024  1.00  0.00    -0.056 N 
ATOM     10  H13 UNL     1      -3.193   0.591  -1.562  1.00  0.00     0.276 HD
ATOM     11  H12 UNL     1      -3.295   1.999  -0.961  1.00  0.00     0.276 HD
ATOM     12  H11 UNL     1      -1.761   1.508  -1.509  1.00  0.00     0.276 HD
ENDBRANCH   7   9
ENDBRANCH   1   7
BRANCH   6  13
HETATM   13  N5  UNL     1       1.101   0.291  -0.364  1.00  0.00    -0.203 N 
ATOM     14  H5  UNL     1       0.994   1.305  -0.397  1.00  0.00     0.179 HD
BRANCH  13  15
HETATM   15  C4  UNL     1       2.384  -0.337  -0.584  1.00  0.00     0.225 A 
HETATM   16  C5  UNL     1       3.530   0.565  -0.858  1.00  0.00     0.174 A 
HETATM   17  N6  UNL     1       4.064   0.059   0.397  1.00  0.00    -0.143 NA
HETATM   18  N7  UNL     1       3.001  -0.813   0.641  1.00  0.00    -0.121 NA
ENDBRANCH  13  15
ENDBRANCH   6  13
TORSDOF 4
