REMARK  2 active torsions:
REMARK  status: ('A' for Active; 'I' for Inactive)
REMARK    1  A    between atoms: C6_6  and  O1_7 
REMARK    2  A    between atoms: C7_10  and  C8_11 
ROOT
HETATM    1  C1  UNL     1      -3.984  -1.534   0.165  1.00  0.00     0.038 C 
HETATM    2  C2  UNL     1      -3.115  -0.253   0.098  1.00  0.00     0.028 C 
HETATM    3  C3  UNL     1      -4.155   0.869   0.357  1.00  0.00     0.038 C 
HETATM    4  C4  UNL     1      -2.596  -0.142  -1.281  1.00  0.00     0.073 C 
HETATM    5  C5  UNL     1      -1.114   0.169  -1.397  1.00  0.00    -0.001 A 
HETATM    6  C6  UNL     1      -0.532   0.451  -2.628  1.00  0.00     0.115 A 
HETATM    7  S1  UNL     1       1.100   0.671  -2.255  1.00  0.00    -0.068 SA
HETATM    8  C7  UNL     1       1.043   0.412  -0.574  1.00  0.00     0.004 A 
HETATM    9  C13 UNL     1      -0.283   0.154  -0.332  1.00  0.00     0.028 A 
HETATM   10  C14 UNL     1      -0.921  -0.085   0.995  1.00  0.00     0.124 C 
HETATM   11  N1  UNL     1      -0.053  -0.099   2.161  1.00  0.00    -0.082 NA
HETATM   12  N2  UNL     1      -2.170  -0.262   1.144  1.00  0.00    -0.369 N 
ATOM     13  H2  UNL     1      -2.515  -0.423   2.090  1.00  0.00     0.161 HD
ENDROOT
BRANCH   8  14
HETATM   14  C8  UNL     1       2.220   0.438   0.362  1.00  0.00     0.027 C 
HETATM   15  C9  UNL     1       3.346   1.135  -0.421  1.00  0.00     0.010 C 
HETATM   16  C10 UNL     1       4.628   0.476  -0.054  1.00  0.00     0.001 C 
HETATM   17  C11 UNL     1       4.305  -0.794   0.661  1.00  0.00     0.001 C 
HETATM   18  C12 UNL     1       2.795  -0.938   0.539  1.00  0.00     0.010 C 
ENDBRANCH   8  14
BRANCH   6  19
HETATM   19  O1  UNL     1      -1.169   0.530  -3.888  1.00  0.00    -0.353 OA
ATOM     20  H1  UNL     1      -0.771   0.723  -4.729  1.00  0.00     0.218 HD
ENDBRANCH   6  19
TORSDOF 2
