REMARK  3 active torsions:
REMARK  status: ('A' for Active; 'I' for Inactive)
REMARK    1  A    between atoms: N1_1  and  C1_4 
REMARK    2  A    between atoms: N2_10  and  N3_12 
REMARK    3  A    between atoms: N3_12  and  C5_14 
ROOT
HETATM    1  C1  UNL     1      -2.197   2.189   1.055  1.00  0.00     0.111 A 
HETATM    2  S1  UNL     1      -2.925   0.668   1.030  1.00  0.00    -0.069 SA
HETATM    3  C2  UNL     1      -1.779  -0.452   0.420  1.00  0.00     0.004 A 
HETATM    4  C3  UNL     1      -0.579   0.146   0.109  1.00  0.00     0.044 A 
HETATM    5  S2  UNL     1      -0.656   1.810   0.443  1.00  0.00    -0.063 SA
HETATM    6  C4  UNL     1       0.488  -0.692  -0.421  1.00  0.00     0.044 C 
HETATM    7  N2  UNL     1       1.731  -0.353  -0.313  1.00  0.00    -0.302 N 
ATOM      8  H2  UNL     1       2.424  -0.988  -0.708  1.00  0.00     0.186 HD
HETATM    9  C6  UNL     1       0.207  -1.967  -1.108  1.00  0.00     0.060 C 
HETATM   10  C7  UNL     1      -1.183  -2.476  -0.921  1.00  0.00     0.011 C 
HETATM   11  C8  UNL     1      -1.944  -1.883   0.214  1.00  0.00     0.048 C 
ENDROOT
BRANCH   7  12
HETATM   12  N3  UNL     1       2.196   0.790   0.289  1.00  0.00    -0.284 N 
ATOM     13  H3  UNL     1       1.850   1.061   1.209  1.00  0.00     0.188 HD
BRANCH  12  14
HETATM   14  C5  UNL     1       3.154   1.587  -0.371  1.00  0.00     0.164 C 
HETATM   15  S3  UNL     1       3.747   1.209  -1.841  1.00  0.00    -0.050 SA
HETATM   16  S4  UNL     1       3.751   3.064   0.413  1.00  0.00    -0.019 SA
ENDBRANCH  12  14
ENDBRANCH   7  12
BRANCH   1  17
HETATM   17  N1  UNL     1      -2.595   3.361   1.412  1.00  0.00    -0.388 N 
ATOM     18  H12 UNL     1      -3.519   3.588   1.779  1.00  0.00     0.157 HD
ATOM     19  H11 UNL     1      -2.155   4.281   1.427  1.00  0.00     0.157 HD
ENDBRANCH   1  17
TORSDOF 3
