REMARK  2 active torsions:
REMARK  status: ('A' for Active; 'I' for Inactive)
REMARK    1  A    between atoms: C13_16  and  O1_17 
REMARK    2  A    between atoms: O1_17  and  O2_18 
ROOT
HETATM    1  N1  UNL     1       1.990  -1.160  -3.645  1.00  0.00    -0.195 NA
HETATM    2  C1  UNL     1       2.092  -0.776  -2.558  1.00  0.00     0.084 C 
HETATM    3  C2  UNL     1       2.241  -0.267  -1.171  1.00  0.00     0.193 C 
HETATM    4  N2  UNL     1       1.426   0.874  -1.055  1.00  0.00    -0.401 N 
ATOM      5  H2  UNL     1       1.044   1.346  -1.874  1.00  0.00     0.154 HD
HETATM    6  C3  UNL     1       1.158   1.342   0.287  1.00  0.00     0.080 C 
HETATM    7  C4  UNL     1       0.184   2.447   0.231  1.00  0.00     0.025 C 
HETATM    8  C5  UNL     1      -1.233   2.206   0.571  1.00  0.00     0.002 C 
HETATM    9  C6  UNL     1      -2.064   1.546  -0.509  1.00  0.00     0.000 C 
HETATM   10  C7  UNL     1      -2.916   0.413   0.019  1.00  0.00     0.000 C 
HETATM   11  C8  UNL     1      -2.718  -0.894  -0.661  1.00  0.00     0.000 C 
HETATM   12  C9  UNL     1      -1.727  -1.824   0.055  1.00  0.00     0.001 C 
HETATM   13  C10 UNL     1      -0.380  -1.775  -0.629  1.00  0.00     0.008 C 
HETATM   14  C11 UNL     1       0.811  -2.004   0.185  1.00  0.00     0.034 A 
HETATM   15  C12 UNL     1       2.096  -1.365  -0.203  1.00  0.00     0.067 A 
HETATM   16  C13 UNL     1       1.427  -1.066   1.060  1.00  0.00     0.109 A 
HETATM   17  C14 UNL     1       0.898   0.276   1.288  1.00  0.00     0.067 C 
ENDROOT
BRANCH  16  18
HETATM   18  O1  UNL     1       2.105  -1.615   2.193  1.00  0.00    -0.231 OA
BRANCH  18  19
HETATM   19  O2  UNL     1       2.625  -0.680   2.917  1.00  0.00    -0.250 OA
ATOM     20  H2  UNL     1       3.075  -1.045   3.670  1.00  0.00     0.253 HD
ENDBRANCH  18  19
ENDBRANCH  16  18
TORSDOF 2
