REMARK  2 active torsions:
REMARK  status: ('A' for Active; 'I' for Inactive)
REMARK    1  A    between atoms: C2_2  and  C5_5 
REMARK    2  A    between atoms: C7_8  and  C8_9 
ROOT
HETATM    1  C5  UNL     1      -1.502   0.551   0.081  1.00  0.00     0.024 A 
HETATM    2  C6  UNL     1      -1.439   1.859   0.501  1.00  0.00     0.077 A 
HETATM    3  S1  UNL     1       0.238   2.173   0.366  1.00  0.00    -0.085 SA
HETATM    4  C7  UNL     1       0.734   0.650  -0.203  1.00  0.00     0.074 A 
HETATM    5  N3  UNL     1      -0.394  -0.028  -0.267  1.00  0.00    -0.354 N 
ATOM      6  H3  UNL     1      -0.396  -0.997  -0.586  1.00  0.00     0.166 HD
ENDROOT
BRANCH   4   7
HETATM    7  C8  UNL     1       2.127   0.165  -0.537  1.00  0.00     0.141 C 
HETATM    8  C9  UNL     1       3.051   1.201  -0.007  1.00  0.00     0.042 C 
HETATM    9  C10 UNL     1       4.510   0.966  -0.133  1.00  0.00     0.084 C 
HETATM   10  S2  UNL     1       4.871  -0.716  -0.773  1.00  0.00    -0.095 SA
HETATM   11  C11 UNL     1       3.591  -1.727  -0.045  1.00  0.00     0.134 C 
HETATM   12  N1  UNL     1       3.859  -2.877   0.427  1.00  0.00    -0.380 N 
HETATM   13  N2  UNL     1       2.302  -1.174  -0.032  1.00  0.00    -0.360 N 
ATOM     14  H12 UNL     1       4.796  -3.279   0.418  1.00  0.00     0.158 HD
ATOM     15  H11 UNL     1       3.128  -3.454   0.843  1.00  0.00     0.158 HD
ATOM     16  H2  UNL     1       1.508  -1.706   0.326  1.00  0.00     0.162 HD
ENDBRANCH   4   7
BRANCH   1  17
HETATM   17  C2  UNL     1      -2.839  -0.169   0.045  1.00  0.00    -0.008 C 
HETATM   18  C1  UNL     1      -2.748  -1.447  -0.725  1.00  0.00     0.021 C 
HETATM   19  C3  UNL     1      -3.353  -0.402   1.445  1.00  0.00     0.021 C 
HETATM   20  C4  UNL     1      -3.835   0.733  -0.650  1.00  0.00     0.021 C 
ENDBRANCH   1  17
TORSDOF 2
