REMARK  3 active torsions:
REMARK  status: ('A' for Active; 'I' for Inactive)
REMARK    1  A    between atoms: O1_1  and  C1_3 
REMARK    2  A    between atoms: C1_3  and  C2_4 
REMARK    3  A    between atoms: C2_4  and  O2_5 
ROOT
HETATM    1  C2  UNL     1      -3.324   0.613   0.178  1.00  0.00     0.216 C 
HETATM    2  C3  UNL     1      -3.016  -0.685   0.911  1.00  0.00     0.077 C 
HETATM    3  C4  UNL     1      -1.588  -0.488   1.439  1.00  0.00     0.047 C 
HETATM    4  C5  UNL     1      -0.709  -0.358   0.209  1.00  0.00     0.096 C 
HETATM    5  C6  UNL     1       0.258   0.667   0.392  1.00  0.00     0.041 C 
HETATM    6  C7  UNL     1       0.542   2.058   0.263  1.00  0.00     0.003 C 
HETATM    7  C8  UNL     1       2.098   2.141   0.408  1.00  0.00     0.000 C 
HETATM    8  C9  UNL     1       2.898   1.267  -0.471  1.00  0.00     0.000 C 
HETATM    9  C10 UNL     1       3.562   0.048   0.117  1.00  0.00     0.000 C 
HETATM   10  C11 UNL     1       3.625  -1.185  -0.713  1.00  0.00     0.000 C 
HETATM   11  C12 UNL     1       2.598  -2.309  -0.356  1.00  0.00     0.000 C 
HETATM   12  C13 UNL     1       1.331  -1.646  -0.402  1.00  0.00     0.003 C 
HETATM   13  C14 UNL     1      -0.027  -1.762   0.016  1.00  0.00     0.041 C 
HETATM   14  O3  UNL     1      -1.513  -0.167  -0.915  1.00  0.00    -0.227 OA
HETATM   15  O4  UNL     1      -2.370   0.785  -0.790  1.00  0.00    -0.198 OA
ENDROOT
BRANCH   1  16
HETATM   16  C1  UNL     1      -4.729   0.511  -0.360  1.00  0.00     0.235 C 
BRANCH  16  17
HETATM   17  O1  UNL     1      -4.817  -0.530  -1.277  1.00  0.00    -0.395 OA
ATOM     18  H1  UNL     1      -5.702  -0.594  -1.616  1.00  0.00     0.209 HD
ENDBRANCH  16  17
ENDBRANCH   1  16
BRANCH   1  19
HETATM   19  O2  UNL     1      -3.205   1.649   1.101  1.00  0.00    -0.362 OA
ATOM     20  H2  UNL     1      -2.320   1.713   1.440  1.00  0.00     0.213 HD
ENDBRANCH   1  19
TORSDOF 3
