REMARK  5 active torsions:
REMARK  status: ('A' for Active; 'I' for Inactive)
REMARK    1  A    between atoms: C2_2  and  C5_5 
REMARK    2  A    between atoms: C5_5  and  N1_7 
REMARK    3  A    between atoms: N1_7  and  C6_9 
REMARK    4  A    between atoms: C6_9  and  C7_13 
REMARK    5  A    between atoms: N4_17  and  C9_18 
ROOT
HETATM    1  C6  UNL     1       0.687   0.980   0.967  1.00  0.00     0.112 C 
HETATM    2  N2  UNL     1       0.632   1.525   2.133  1.00  0.00    -0.385 N 
ATOM      3  H21 UNL     1      -0.286   1.644   2.561  1.00  0.00     0.157 HD
ATOM      4  H22 UNL     1       1.480   1.828   2.613  1.00  0.00     0.157 HD
ENDROOT
BRANCH   1   5
HETATM    5  N1  UNL     1       1.954   0.816   0.377  1.00  0.00    -0.336 N 
ATOM      6  H1  UNL     1       2.295   1.513  -0.285  1.00  0.00     0.168 HD
BRANCH   5   7
HETATM    7  C5  UNL     1       2.764  -0.306   0.690  1.00  0.00     0.086 C 
HETATM    8  S1  UNL     1       2.245  -1.448   1.752  1.00  0.00    -0.065 SA
BRANCH   7   9
HETATM    9  C2  UNL     1       4.101  -0.511   0.089  1.00  0.00     0.002 C 
HETATM   10  C1  UNL     1       4.939   0.702   0.483  1.00  0.00     0.022 C 
HETATM   11  C3  UNL     1       4.710  -1.760   0.663  1.00  0.00     0.022 C 
HETATM   12  C4  UNL     1       4.037  -0.658  -1.413  1.00  0.00     0.022 C 
ENDBRANCH   7   9
ENDBRANCH   5   7
ENDBRANCH   1   5
BRANCH   1  13
HETATM   13  C7  UNL     1      -0.536   0.543   0.275  1.00  0.00     0.041 A 
HETATM   14  C8  UNL     1      -0.641  -0.050  -0.962  1.00  0.00     0.124 A 
HETATM   15  N3  UNL     1      -1.932  -0.264  -1.171  1.00  0.00    -0.308 N 
HETATM   16  N4  UNL     1      -2.683   0.134  -0.181  1.00  0.00    -0.294 N 
ATOM     17  H3  UNL     1      -2.301  -0.695  -2.019  1.00  0.00     0.186 HD
HETATM   18  C13 UNL     1      -1.828   0.649   0.747  1.00  0.00     0.127 A 
BRANCH  16  19
HETATM   19  C9  UNL     1      -4.135   0.069  -0.041  1.00  0.00     0.042 C 
HETATM   20  C10 UNL     1      -4.605  -1.027  -0.973  1.00  0.00     0.039 C 
HETATM   21  C11 UNL     1      -4.560  -0.164   1.375  1.00  0.00     0.039 C 
HETATM   22  C12 UNL     1      -4.715   1.409  -0.484  1.00  0.00     0.039 C 
ENDBRANCH  16  19
ENDBRANCH   1  13
TORSDOF 5
