REMARK  2 active torsions:
REMARK  status: ('A' for Active; 'I' for Inactive)
REMARK    1  A    between atoms: N1_1  and  C1_4 
REMARK    2  A    between atoms: N4_14  and  C6_15 
ROOT
HETATM    1  C1  UNL     1      -2.246   2.838  -0.613  1.00  0.00     0.145 A 
HETATM    2  N2  UNL     1      -3.185   1.910  -0.611  1.00  0.00    -0.323 N 
ATOM      3  H2  UNL     1      -4.136   2.243  -0.770  1.00  0.00     0.169 HD
HETATM    4  C2  UNL     1      -3.055   0.573  -0.426  1.00  0.00     0.116 A 
HETATM    5  N3  UNL     1      -4.118  -0.082  -0.474  1.00  0.00    -0.385 N 
ATOM      6  H31 UNL     1      -4.020  -1.088  -0.335  1.00  0.00     0.157 HD
ATOM      7  H32 UNL     1      -5.003   0.395  -0.644  1.00  0.00     0.157 HD
HETATM    8  C3  UNL     1      -1.859  -0.071  -0.196  1.00  0.00     0.070 A 
HETATM    9  C4  UNL     1      -1.550  -1.434   0.015  1.00  0.00     0.074 A 
HETATM   10  C5  UNL     1      -0.209  -1.574   0.199  1.00  0.00     0.058 A 
HETATM   11  N4  UNL     1       0.355  -0.333   0.111  1.00  0.00    -0.336 N 
HETATM   12  C11 UNL     1      -0.634   0.547  -0.123  1.00  0.00     0.096 A 
HETATM   13  S1  UNL     1      -0.666   2.233  -0.340  1.00  0.00    -0.035 SA
HETATM   14  C12 UNL     1       0.426  -2.873   0.442  1.00  0.00     0.179 A 
HETATM   15  N5  UNL     1      -0.485  -3.979   0.469  1.00  0.00    -0.380 N 
ATOM     16  H5  UNL     1      -0.098  -4.908   0.635  1.00  0.00     0.160 HD
HETATM   17  C13 UNL     1      -1.741  -3.883   0.301  1.00  0.00     0.176 A 
HETATM   18  N6  UNL     1      -2.360  -2.601   0.062  1.00  0.00    -0.350 N 
ATOM     19  H6  UNL     1      -3.369  -2.533  -0.072  1.00  0.00     0.166 HD
ENDROOT
BRANCH  11  20
HETATM   20  C6  UNL     1       1.724  -0.044   0.244  1.00  0.00     0.091 C 
HETATM   21  C7  UNL     1       2.383   0.494  -1.006  1.00  0.00     0.026 C 
HETATM   22  C8  UNL     1       3.568   1.303  -0.511  1.00  0.00     0.002 C 
HETATM   23  C9  UNL     1       3.586   1.127   1.002  1.00  0.00     0.002 C 
HETATM   24  C10 UNL     1       2.073   1.010   1.260  1.00  0.00     0.026 C 
ENDBRANCH  11  20
BRANCH   1  25
HETATM   25  N1  UNL     1      -2.500   4.088  -0.802  1.00  0.00    -0.380 N 
ATOM     26  H12 UNL     1      -3.440   4.448  -0.964  1.00  0.00     0.158 HD
ATOM     27  H11 UNL     1      -1.775   4.805  -0.804  1.00  0.00     0.158 HD
ENDBRANCH   1  25
TORSDOF 2
