REMARK  2 active torsions:
REMARK  status: ('A' for Active; 'I' for Inactive)
REMARK    1  A    between atoms: O1_1  and  C1_3 
REMARK    2  A    between atoms: C5_8  and  C6_9 
ROOT
HETATM    1  C1  UNL     1      -1.419   0.660   1.459  1.00  0.00     0.194 A 
HETATM    2  O2  UNL     1      -2.526   0.049   1.781  1.00  0.00    -0.298 OA
HETATM    3  C2  UNL     1      -2.947  -0.713   0.816  1.00  0.00     0.175 A 
HETATM    4  C3  UNL     1      -2.066  -0.606  -0.218  1.00  0.00     0.070 A 
HETATM    5  C4  UNL     1      -1.078   0.271   0.178  1.00  0.00     0.058 A 
HETATM    6  C5  UNL     1       0.054   0.637  -0.672  1.00  0.00     0.183 A 
HETATM    7  N3  UNL     1       0.023   0.010  -1.961  1.00  0.00    -0.352 N 
ATOM      8  H3  UNL     1       0.771   0.227  -2.619  1.00  0.00     0.163 HD
HETATM    9  C8  UNL     1      -0.981  -0.887  -2.369  1.00  0.00     0.173 A 
HETATM   10  S3  UNL     1      -0.916  -1.558  -3.857  1.00  0.00    -0.041 SA
HETATM   11  N4  UNL     1      -2.045  -1.217  -1.517  1.00  0.00    -0.331 N 
ATOM     12  H4  UNL     1      -2.776  -1.866  -1.809  1.00  0.00     0.168 HD
ENDROOT
BRANCH   6  13
HETATM   13  C6  UNL     1       1.362   0.391   0.015  1.00  0.00     0.096 A 
HETATM   14  N1  UNL     1       1.668   0.035   1.249  1.00  0.00    -0.294 N 
HETATM   15  N2  UNL     1       2.881  -0.111   1.593  1.00  0.00    -0.284 N 
ATOM     16  H1  UNL     1       0.925  -0.124   1.930  1.00  0.00     0.187 HD
HETATM   17  C7  UNL     1       3.840   0.101   0.690  1.00  0.00     0.159 A 
ATOM     18  H2  UNL     1       3.119  -0.386   2.546  1.00  0.00     0.188 HD
HETATM   19  S1  UNL     1       5.474  -0.020   0.882  1.00  0.00    -0.051 SA
HETATM   20  S2  UNL     1       2.904   0.526  -0.696  1.00  0.00    -0.042 SA
ENDBRANCH   6  13
BRANCH   1  21
HETATM   21  O1  UNL     1      -0.722   1.543   2.279  1.00  0.00    -0.340 OA
ATOM     22  H1  UNL     1       0.084   1.988   2.045  1.00  0.00     0.220 HD
ENDBRANCH   1  21
TORSDOF 2
