REMARK  2 active torsions:
REMARK  status: ('A' for Active; 'I' for Inactive)
REMARK    1  A    between atoms: N1_3  and  C3_5 
REMARK    2  A    between atoms: C8_15  and  N4_16 
ROOT
HETATM    1  C1  UNL     1       5.805  -0.372   0.471  1.00  0.00     0.037 C 
HETATM    2  C2  UNL     1       4.924  -1.201   0.386  1.00  0.00     0.001 C 
HETATM    3  N1  UNL     1       3.922  -2.150   0.286  1.00  0.00    -0.296 N 
ATOM      4  H1  UNL     1       4.175  -3.138   0.283  1.00  0.00     0.178 HD
ENDROOT
BRANCH   3   5
HETATM    5  C3  UNL     1       2.542  -1.788   0.187  1.00  0.00     0.157 A 
HETATM    6  N2  UNL     1       1.994  -0.579   0.172  1.00  0.00    -0.334 N 
HETATM    7  C4  UNL     1       0.710  -0.442   0.075  1.00  0.00     0.066 A 
ATOM      8  H2  UNL     1       2.588   0.247   0.237  1.00  0.00     0.168 HD
HETATM    9  C5  UNL     1      -0.046  -1.583  -0.010  1.00  0.00     0.058 A 
HETATM   10  C14 UNL     1       0.235   0.972   0.070  1.00  0.00     0.018 A 
HETATM   11  S1  UNL     1       1.158  -2.806   0.055  1.00  0.00    -0.049 SA
HETATM   12  C6  UNL     1      -1.461  -1.939  -0.130  1.00  0.00     0.023 C 
HETATM   13  C7  UNL     1      -1.581  -3.356  -0.561  1.00  0.00     0.069 C 
HETATM   14  N3  UNL     1      -2.541  -1.307   0.054  1.00  0.00    -0.349 N 
HETATM   15  C8  UNL     1      -3.075  -0.059   0.430  1.00  0.00     0.387 C 
ATOM     16  H3  UNL     1      -3.317  -1.938  -0.145  1.00  0.00     0.163 HD
HETATM   17  N5  UNL     1      -2.305   1.112   0.248  1.00  0.00    -0.346 N 
HETATM   18  C9  UNL     1      -0.966   1.608   0.138  1.00  0.00     0.043 A 
ATOM     19  H5  UNL     1      -2.944   1.902   0.163  1.00  0.00     0.163 HD
HETATM   20  C10 UNL     1      -1.039   2.982   0.103  1.00  0.00     0.030 A 
HETATM   21  C11 UNL     1       0.111   3.752  -0.001  1.00  0.00     0.002 A 
HETATM   22  C12 UNL     1       1.329   3.122  -0.070  1.00  0.00     0.001 A 
HETATM   23  C13 UNL     1       1.379   1.748  -0.034  1.00  0.00     0.016 A 
BRANCH  15  24
HETATM   24  N4  UNL     1      -4.313   0.112  -0.358  1.00  0.00    -0.041 N 
ATOM     25  H43 UNL     1      -4.171   0.018  -1.364  1.00  0.00     0.279 HD
ATOM     26  H42 UNL     1      -4.971  -0.660  -0.253  1.00  0.00     0.279 HD
ATOM     27  H41 UNL     1      -4.700   1.016  -0.086  1.00  0.00     0.279 HD
ENDBRANCH  15  24
ENDBRANCH   3   5
TORSDOF 2
