REMARK  4 active torsions:
REMARK  status: ('A' for Active; 'I' for Inactive)
REMARK    1  A    between atoms: C4_4  and  N1_5 
REMARK       I    between atoms: N1_5  and  C5_7 
REMARK       I    between atoms: C5_7  and  N3_12 
REMARK    2  A    between atoms: N2_8  and  O1_10 
REMARK       I    between atoms: N3_12  and  C6_14 
REMARK    3  A    between atoms: C6_14  and  O3_16 
REMARK    4  A    between atoms: O3_16  and  C7_17 
ROOT
HETATM    1  N1  UNL     1       1.398  -0.256  -1.589  1.00  0.00    -0.190 N 
ATOM      2  H1  UNL     1       1.279   0.675  -1.989  1.00  0.00     0.184 HD
HETATM    3  C5  UNL     1       0.597  -1.328  -2.065  1.00  0.00     0.706 C 
HETATM    4  N2  UNL     1       1.102  -2.250  -2.806  1.00  0.00    -0.098 N 
ATOM      5  H2  UNL     1       2.092  -2.190  -3.042  1.00  0.00     0.213 HD
HETATM    6  N3  UNL     1      -0.769  -1.388  -1.724  1.00  0.00    -0.133 N 
ATOM      7  H3  UNL     1      -1.350  -2.155  -2.063  1.00  0.00     0.189 HD
HETATM    8  C6  UNL     1      -1.338  -0.362  -0.895  1.00  0.00     0.379 C 
HETATM    9  O2  UNL     1      -0.645   0.592  -0.466  1.00  0.00    -0.238 OA
ENDROOT
BRANCH   1  10
HETATM   10  C4  UNL     1       2.363  -0.457  -0.565  1.00  0.00     0.052 A 
HETATM   11  C3  UNL     1       3.131   0.586  -0.115  1.00  0.00     0.054 A 
HETATM   12  C2  UNL     1       4.054   0.378   0.870  1.00  0.00     0.007 A 
HETATM   13  C1  UNL     1       4.867   1.525   1.333  1.00  0.00     0.068 C 
HETATM   14  N4  UNL     1       4.227  -0.858   1.418  1.00  0.00    -0.369 N 
HETATM   15  C12 UNL     1       3.473  -1.887   0.978  1.00  0.00     0.090 A 
ATOM     16  H4  UNL     1       4.919  -1.004   2.153  1.00  0.00     0.165 HD
HETATM   17  C11 UNL     1       2.541  -1.714  -0.005  1.00  0.00     0.047 A 
ENDBRANCH   1  10
BRANCH   4  18
HETATM   18  O1  UNL     1       0.384  -3.307  -3.295  1.00  0.00    -0.276 OA
ATOM     19  H1  UNL     1       0.757  -3.988  -3.842  1.00  0.00     0.245 HD
ENDBRANCH   4  18
BRANCH   8  20
HETATM   20  O3  UNL     1      -2.668  -0.357  -0.523  1.00  0.00    -0.293 OA
BRANCH  20  21
HETATM   21  C7  UNL     1      -3.195   0.641   0.276  1.00  0.00     0.061 C 
HETATM   22  C8  UNL     1      -4.683   0.311   0.478  1.00  0.00     0.046 C 
HETATM   23  C9  UNL     1      -3.193   2.014  -0.405  1.00  0.00     0.046 C 
HETATM   24  C10 UNL     1      -2.581   0.797   1.620  1.00  0.00     0.046 C 
ENDBRANCH  20  21
ENDBRANCH   8  20
TORSDOF 4
