REMARK  2 active torsions:
REMARK  status: ('A' for Active; 'I' for Inactive)
REMARK    1  A    between atoms: O1_1  and  C1_3 
REMARK    2  A    between atoms: C2_4  and  N1_5 
ROOT
HETATM    1  C1  UNL     1       0.317   0.785  -0.111  1.00  0.00     0.127 A 
HETATM    2  C2  UNL     1      -0.511  -0.236   0.244  1.00  0.00     0.108 A 
HETATM    3  S1  UNL     1       0.536  -1.500   0.622  1.00  0.00    -0.071 SA
HETATM    4  C8  UNL     1       2.046  -0.699   0.318  1.00  0.00     0.019 A 
HETATM    5  C9  UNL     1       1.651   0.544  -0.073  1.00  0.00     0.083 A 
HETATM    6  N2  UNL     1       2.710   1.481  -0.408  1.00  0.00    -0.338 N 
ATOM      7  H2  UNL     1       2.476   2.428  -0.707  1.00  0.00     0.167 HD
HETATM    8  C10 UNL     1       4.056   1.085  -0.320  1.00  0.00     0.128 A 
HETATM    9  N3  UNL     1       5.202   1.792  -0.583  1.00  0.00    -0.285 N 
ATOM     10  H3  UNL     1       5.247   2.761  -0.898  1.00  0.00     0.188 HD
HETATM   11  N4  UNL     1       6.224   1.014  -0.362  1.00  0.00    -0.310 N 
ATOM     12  H4  UNL     1       7.196   1.298  -0.483  1.00  0.00     0.186 HD
HETATM   13  C11 UNL     1       5.842  -0.201   0.043  1.00  0.00     0.118 A 
HETATM   14  C12 UNL     1       4.444  -0.160   0.072  1.00  0.00     0.009 A 
HETATM   15  C13 UNL     1       3.464  -1.178   0.431  1.00  0.00     0.092 A 
ENDROOT
BRANCH   2  16
HETATM   16  N1  UNL     1      -1.943  -0.267   0.296  1.00  0.00    -0.373 N 
HETATM   17  C3  UNL     1      -2.768   0.851  -0.038  1.00  0.00     0.123 C 
HETATM   18  C4  UNL     1      -4.187   0.531   0.375  1.00  0.00     0.020 C 
HETATM   19  C5  UNL     1      -4.708  -0.724  -0.303  1.00  0.00     0.003 C 
HETATM   20  C6  UNL     1      -3.690  -1.837  -0.309  1.00  0.00     0.020 C 
HETATM   21  C7  UNL     1      -2.614  -1.505   0.713  1.00  0.00     0.123 C 
ENDBRANCH   2  16
BRANCH   1  22
HETATM   22  O1  UNL     1      -0.260   2.035  -0.500  1.00  0.00    -0.356 OA
ATOM     23  H1  UNL     1       0.318   2.747  -0.748  1.00  0.00     0.218 HD
ENDBRANCH   1  22
TORSDOF 2
