REMARK  3 active torsions:
REMARK  status: ('A' for Active; 'I' for Inactive)
REMARK       I    between atoms: N2_3  and  C2_5 
REMARK       I    between atoms: C2_5  and  N4_9 
REMARK    1  A    between atoms: N4_9  and  O1_10 
REMARK    2  A    between atoms: N4_9  and  C3_12 
REMARK    3  A    between atoms: C5_14  and  C6_15 
ROOT
HETATM    1  N1  UNL     1       4.561   3.097   1.336  1.00  0.00    -0.171 NA
HETATM    2  C1  UNL     1       3.972   2.113   1.351  1.00  0.00     0.196 C 
HETATM    3  N2  UNL     1       3.245   0.919   1.358  1.00  0.00    -0.124 N 
ATOM      4  H2  UNL     1       2.453   0.841   1.996  1.00  0.00     0.197 HD
HETATM    5  C2  UNL     1       3.547  -0.190   0.527  1.00  0.00     0.708 C 
HETATM    6  N3  UNL     1       3.939  -1.283   1.077  1.00  0.00    -0.232 N 
ATOM      7  H31 UNL     1       4.156  -2.081   0.479  1.00  0.00     0.174 HD
ATOM      8  H32 UNL     1       4.032  -1.357   2.090  1.00  0.00     0.174 HD
HETATM    9  N4  UNL     1       3.415  -0.085  -0.906  1.00  0.00    -0.071 N 
ENDROOT
BRANCH   9  10
HETATM   10  O1  UNL     1       4.443   0.373  -1.638  1.00  0.00    -0.273 OA
ATOM     11  H1  UNL     1       4.356   0.442  -2.581  1.00  0.00     0.245 HD
ENDBRANCH   9  10
BRANCH   9  12
HETATM   12  C3  UNL     1       2.156  -0.488  -1.483  1.00  0.00     0.228 C 
HETATM   13  C4  UNL     1       1.052   0.333  -0.937  1.00  0.00     0.045 C 
HETATM   14  C5  UNL     1      -0.133  -0.052  -0.547  1.00  0.00     0.059 C 
HETATM   15  O2  UNL     1      -0.615  -1.348  -0.565  1.00  0.00    -0.292 OA
HETATM   16  C12 UNL     1       0.105  -2.426  -1.005  1.00  0.00     0.183 C 
HETATM   17  N5  UNL     1      -0.453  -3.527  -1.281  1.00  0.00    -0.374 N 
HETATM   18  S1  UNL     1       1.867  -2.248  -1.184  1.00  0.00    -0.054 SA
ATOM     19  H52 UNL     1      -1.463  -3.629  -1.178  1.00  0.00     0.158 HD
ATOM     20  H51 UNL     1       0.083  -4.330  -1.609  1.00  0.00     0.158 HD
BRANCH  14  21
HETATM   21  C6  UNL     1      -1.139   0.956  -0.009  1.00  0.00     0.043 C 
HETATM   22  C7  UNL     1      -2.289   1.037  -0.955  1.00  0.00     0.011 C 
HETATM   23  C8  UNL     1      -3.451   0.186  -0.635  1.00  0.00     0.001 C 
HETATM   24  C9  UNL     1      -3.784   0.101   0.829  1.00  0.00     0.000 C 
HETATM   25  C10 UNL     1      -2.554  -0.445   1.532  1.00  0.00     0.001 C 
HETATM   26  C11 UNL     1      -1.462   0.547   1.372  1.00  0.00     0.011 C 
ENDBRANCH  14  21
ENDBRANCH   9  12
TORSDOF 3
