REMARK  4 active torsions:
REMARK  status: ('A' for Active; 'I' for Inactive)
REMARK    1  A    between atoms: C5_8  and  O2_9 
REMARK    2  A    between atoms: C10_15  and  O3_16 
REMARK    3  A    between atoms: C11_18  and  O4_19 
REMARK    4  A    between atoms: O4_19  and  O5_20 
ROOT
HETATM    1  C1  UNL     1      -1.784   2.798   0.231  1.00  0.00     0.033 C 
HETATM    2  C2  UNL     1      -1.329   1.395   0.493  1.00  0.00     0.087 C 
HETATM    3  N1  UNL     1      -2.488   0.576   0.787  1.00  0.00    -0.383 N 
ATOM      4  H1  UNL     1      -3.429   0.967   0.837  1.00  0.00     0.160 HD
HETATM    5  C3  UNL     1      -2.232  -0.806   1.001  1.00  0.00     0.063 A 
HETATM    6  C4  UNL     1      -2.828  -1.781   1.807  1.00  0.00     0.174 A 
HETATM    7  O1  UNL     1      -2.170  -2.890   1.594  1.00  0.00    -0.298 OA
HETATM    8  C5  UNL     1      -1.202  -2.695   0.715  1.00  0.00     0.192 A 
HETATM    9  C6  UNL     1      -1.202  -1.387   0.310  1.00  0.00     0.038 A 
HETATM   10  C7  UNL     1      -0.356  -0.652  -0.646  1.00  0.00     0.002 C 
HETATM   11  C8  UNL     1      -0.903  -1.104  -2.029  1.00  0.00     0.021 C 
HETATM   12  C9  UNL     1       1.057  -1.184  -0.688  1.00  0.00     0.049 C 
HETATM   13  C10 UNL     1       1.874  -1.075   0.516  1.00  0.00     0.151 C 
HETATM   14  C11 UNL     1       2.705   0.218   0.465  1.00  0.00     0.188 C 
HETATM   15  C12 UNL     1       1.655   1.294   0.792  1.00  0.00     0.038 C 
HETATM   16  C13 UNL     1       0.890   1.540  -0.437  1.00  0.00     0.015 C 
HETATM   17  C14 UNL     1      -0.448   0.827  -0.566  1.00  0.00    -0.012 C 
HETATM   18  C15 UNL     1      -0.976   1.394  -1.905  1.00  0.00     0.018 C 
ENDROOT
BRANCH  14  19
HETATM   19  O4  UNL     1       3.734   0.210   1.369  1.00  0.00    -0.235 OA
BRANCH  19  20
HETATM   20  O5  UNL     1       4.910   0.416   0.830  1.00  0.00    -0.250 OA
ATOM     21  H5  UNL     1       5.624   0.410   1.457  1.00  0.00     0.253 HD
ENDBRANCH  19  20
ENDBRANCH  14  19
BRANCH  13  22
HETATM   22  O3  UNL     1       1.247  -1.088   1.730  1.00  0.00    -0.393 OA
ATOM     23  H3  UNL     1       1.779  -1.017   2.514  1.00  0.00     0.210 HD
ENDBRANCH  13  22
BRANCH   8  24
HETATM   24  O2  UNL     1      -0.328  -3.726   0.295  1.00  0.00    -0.340 OA
ATOM     25  H2  UNL     1       0.368  -3.586  -0.337  1.00  0.00     0.220 HD
ENDBRANCH   8  24
TORSDOF 4
