REMARK  3 active torsions:
REMARK  status: ('A' for Active; 'I' for Inactive)
REMARK    1  A    between atoms: C3_5  and  C4_6 
REMARK    2  A    between atoms: C11_13  and  N2_14 
REMARK    3  A    between atoms: C15_18  and  C16_19 
ROOT
HETATM    1  C4  UNL     1       1.090   0.058  -0.005  1.00  0.00     0.023 C 
HETATM    2  C5  UNL     1       1.157  -0.638   1.345  1.00  0.00     0.022 C 
HETATM    3  C6  UNL     1       0.094  -1.686   1.453  1.00  0.00    -0.011 C 
HETATM    4  C7  UNL     1       0.337  -2.704   0.385  1.00  0.00     0.009 C 
HETATM    5  C8  UNL     1       0.233  -2.009  -0.949  1.00  0.00    -0.011 C 
HETATM    6  C9  UNL     1       1.284  -0.965  -1.134  1.00  0.00     0.022 C 
HETATM    7  C10 UNL     1      -1.100  -1.365  -1.047  1.00  0.00     0.036 C 
HETATM    8  C11 UNL     1      -1.318  -0.275   0.030  1.00  0.00     0.039 C 
HETATM    9  C17 UNL     1      -1.254  -1.012   1.336  1.00  0.00     0.036 C 
HETATM   10  C18 UNL     1      -0.241   0.731  -0.180  1.00  0.00     0.049 C 
ENDROOT
BRANCH   1  11
HETATM   11  C3  UNL     1       2.249   0.973  -0.116  1.00  0.00     0.112 A 
HETATM   12  N1  UNL     1       3.535   0.622  -0.280  1.00  0.00    -0.327 N 
HETATM   13  C2  UNL     1       4.285   1.720  -0.337  1.00  0.00     0.144 A 
ATOM     14  H1  UNL     1       3.882  -0.335  -0.350  1.00  0.00     0.169 HD
HETATM   15  C1  UNL     1       5.786   1.776  -0.514  1.00  0.00     0.100 C 
HETATM   16  O2  UNL     1       3.487   2.734  -0.212  1.00  0.00    -0.223 OA
HETATM   17  N3  UNL     1       2.256   2.308  -0.077  1.00  0.00    -0.246 N 
ATOM     18  H3  UNL     1       1.434   2.901   0.039  1.00  0.00     0.196 HD
ENDBRANCH   1  11
BRANCH   8  19
HETATM   19  N2  UNL     1      -2.669   0.240  -0.233  1.00  0.00    -0.344 N 
HETATM   20  C12 UNL     1      -3.508  -0.192  -1.224  1.00  0.00     0.092 A 
HETATM   21  C13 UNL     1      -4.701   0.487  -1.195  1.00  0.00     0.020 A 
HETATM   22  C14 UNL     1      -4.580   1.364  -0.146  1.00  0.00     0.034 A 
HETATM   23  C15 UNL     1      -3.313   1.202   0.446  1.00  0.00     0.073 A 
BRANCH  23  24
HETATM   24  C16 UNL     1      -2.835   1.960   1.595  1.00  0.00     0.288 C 
HETATM   25  O1  UNL     1      -3.584   2.840   2.106  1.00  0.00    -0.300 OA
ENDBRANCH  23  24
ENDBRANCH   8  19
TORSDOF 3
