REMARK  3 active torsions:
REMARK  status: ('A' for Active; 'I' for Inactive)
REMARK    1  A    between atoms: C2_2  and  C3_3 
REMARK    2  A    between atoms: C3_3  and  C4_4 
REMARK    3  A    between atoms: C5_10  and  C6_11 
ROOT
HETATM    1  C6  UNL     1       0.965  -1.409  -0.427  1.00  0.00     0.046 C 
HETATM    2  N3  UNL     1       0.001  -2.236  -0.242  1.00  0.00    -0.364 N 
ATOM      3  H3  UNL     1       0.374  -3.183  -0.174  1.00  0.00     0.162 HD
HETATM    4  C7  UNL     1      -1.396  -2.271  -0.102  1.00  0.00     0.223 C 
HETATM    5  C8  UNL     1      -1.840  -2.121   1.361  1.00  0.00     0.080 C 
HETATM    6  C9  UNL     1      -2.294  -0.694   1.631  1.00  0.00     0.172 C 
HETATM    7  O2  UNL     1      -1.357   0.241   1.475  1.00  0.00    -0.385 OA
HETATM    8  C10 UNL     1      -1.267   1.053   0.414  1.00  0.00     0.132 C 
HETATM    9  C11 UNL     1      -2.476   1.857   0.018  1.00  0.00     0.011 C 
HETATM   10  C12 UNL     1      -3.266   2.355   1.183  1.00  0.00     0.012 C 
HETATM   11  C13 UNL     1      -3.357   1.232  -1.004  1.00  0.00     0.009 C 
HETATM   12  C14 UNL     1      -2.701   0.439  -2.077  1.00  0.00     0.033 C 
HETATM   13  C15 UNL     1      -1.553  -0.454  -1.563  1.00  0.00     0.131 C 
HETATM   14  O3  UNL     1      -2.159  -1.427  -0.844  1.00  0.00    -0.361 OA
HETATM   15  C16 UNL     1      -0.653   0.457  -0.845  1.00  0.00     0.050 C 
HETATM   16  C17 UNL     1       0.778   0.023  -0.637  1.00  0.00     0.069 C 
ENDROOT
BRANCH   1  17
HETATM   17  C5  UNL     1       2.266  -2.024  -0.484  1.00  0.00     0.146 A 
HETATM   18  C4  UNL     1       3.519  -1.495  -0.596  1.00  0.00     0.065 A 
HETATM   19  N1  UNL     1       4.393  -2.557  -0.618  1.00  0.00    -0.282 N 
HETATM   20  N2  UNL     1       3.694  -3.656  -0.520  1.00  0.00    -0.201 N 
ATOM     21  H1  UNL     1       5.408  -2.497  -0.697  1.00  0.00     0.188 HD
HETATM   22  O1  UNL     1       2.471  -3.365  -0.441  1.00  0.00    -0.218 OA
ATOM     23  H2  UNL     1       4.078  -4.601  -0.509  1.00  0.00     0.216 HD
BRANCH  18  24
HETATM   24  C3  UNL     1       3.995  -0.117  -0.597  1.00  0.00     0.061 C 
BRANCH  24  25
HETATM   25  C2  UNL     1       4.137   0.344   0.863  1.00  0.00     0.002 C 
HETATM   26  C1  UNL     1       4.612   1.753   0.954  1.00  0.00     0.005 C 
ENDBRANCH  24  25
ENDBRANCH  18  24
ENDBRANCH   1  17
TORSDOF 3
