REMARK  13 active torsions:
REMARK  status: ('A' for Active; 'I' for Inactive)
REMARK    1  A    between atoms: C4_6  and  N2_7 
REMARK    2  A    between atoms: C9_13  and  C10_14 
REMARK    3  A    between atoms: C10_14  and  N3_15 
REMARK    4  A    between atoms: N3_15  and  C11_17 
REMARK    5  A    between atoms: C11_17  and  C12_18 
REMARK    6  A    between atoms: C11_17  and  C22_33 
REMARK    7  A    between atoms: C12_18  and  C13_19 
REMARK    8  A    between atoms: C13_19  and  C14_20 
REMARK    9  A    between atoms: C14_20  and  C15_21 
REMARK   10  A    between atoms: C15_21  and  C16_22 
REMARK       I    between atoms: C22_33  and  N6_35 
REMARK   11  A    between atoms: N6_35  and  C23_37 
REMARK   12  A    between atoms: N7_40  and  C26_41 
REMARK   13  A    between atoms: C26_41  and  C27_42 
ROOT
HETATM    1  C11 UNL     1      -0.414   0.279   1.069  1.00  0.00     0.173 C 
ENDROOT
BRANCH   1   2
HETATM    2  N3  UNL     1      -1.207  -0.872   1.110  1.00  0.00    -0.385 N 
ATOM      3  H3  UNL     1      -1.474  -1.257   2.016  1.00  0.00     0.159 HD
BRANCH   2   4
HETATM    4  C10 UNL     1      -1.648  -1.515  -0.060  1.00  0.00     0.099 C 
BRANCH   4   5
HETATM    5  C9  UNL     1      -2.558  -2.654   0.344  1.00  0.00     0.023 A 
HETATM    6  C4  UNL     1      -3.083  -3.463  -0.643  1.00  0.00     0.115 A 
HETATM    7  N1  UNL     1      -3.906  -4.467  -0.213  1.00  0.00    -0.351 N 
HETATM    8  C3  UNL     1      -4.198  -4.672   1.079  1.00  0.00     0.096 A 
ATOM      9  H1  UNL     1      -4.317  -5.089  -0.909  1.00  0.00     0.166 HD
HETATM   10  C2  UNL     1      -3.674  -3.864   2.070  1.00  0.00    -0.046 A 
HETATM   11  C1  UNL     1      -4.000  -4.093   3.518  1.00  0.00     0.049 C 
HETATM   12  C34 UNL     1      -2.840  -2.840   1.676  1.00  0.00     0.024 A 
BRANCH   6  13
HETATM   13  N2  UNL     1      -2.792  -3.283  -1.998  1.00  0.00    -0.362 N 
HETATM   14  C5  UNL     1      -3.230  -2.142  -2.757  1.00  0.00     0.150 C 
HETATM   15  C6  UNL     1      -3.814  -2.580  -4.098  1.00  0.00     0.187 C 
HETATM   16  O1  UNL     1      -2.947  -3.508  -4.710  1.00  0.00    -0.388 OA
HETATM   17  C7  UNL     1      -2.824  -4.640  -3.943  1.00  0.00     0.187 C 
HETATM   18  C8  UNL     1      -2.013  -4.280  -2.699  1.00  0.00     0.150 C 
ENDBRANCH   6  13
ENDBRANCH   4   5
ENDBRANCH   2   4
ENDBRANCH   1   2
BRANCH   1  19
HETATM   19  C12 UNL     1      -1.130   1.452   0.454  1.00  0.00     0.035 C 
BRANCH  19  20
HETATM   20  C13 UNL     1      -2.323   1.982   1.123  1.00  0.00     0.002 C 
BRANCH  20  21
HETATM   21  C14 UNL     1      -3.495   1.082   1.302  1.00  0.00     0.001 C 
BRANCH  21  22
HETATM   22  C15 UNL     1      -4.622   1.842   2.022  1.00  0.00     0.007 C 
BRANCH  22  23
HETATM   23  C16 UNL     1      -5.100   3.029   1.293  1.00  0.00     0.011 C 
HETATM   24  C17 UNL     1      -6.204   3.773   2.059  1.00  0.00     0.026 C 
HETATM   25  C18 UNL     1      -6.564   4.792   0.985  1.00  0.00     0.126 C 
HETATM   26  N4  UNL     1      -6.631   3.954  -0.209  1.00  0.00    -0.356 N 
HETATM   27  C19 UNL     1      -7.276   3.850  -1.473  1.00  0.00     0.136 C 
HETATM   28  C21 UNL     1      -5.710   2.807  -0.052  1.00  0.00     0.100 C 
HETATM   29  N5  UNL     1      -7.623   4.768  -2.295  1.00  0.00    -0.380 N 
HETATM   30  S1  UNL     1      -7.514   2.060  -1.677  1.00  0.00    -0.092 SA
ATOM     31  H52 UNL     1      -7.489   5.773  -2.180  1.00  0.00     0.158 HD
ATOM     32  H51 UNL     1      -8.085   4.693  -3.201  1.00  0.00     0.158 HD
HETATM   33  C20 UNL     1      -6.650   1.593  -0.105  1.00  0.00     0.108 C 
ENDBRANCH  22  23
ENDBRANCH  21  22
ENDBRANCH  20  21
ENDBRANCH  19  20
ENDBRANCH   1  19
BRANCH   1  34
HETATM   34  C22 UNL     1       0.877   0.059   0.358  1.00  0.00     0.240 C 
HETATM   35  O2  UNL     1       0.936  -0.644  -0.665  1.00  0.00    -0.271 OA
HETATM   36  N6  UNL     1       2.080   0.673   0.866  1.00  0.00    -0.355 N 
ATOM     37  H6  UNL     1       2.058   1.251   1.706  1.00  0.00     0.162 HD
BRANCH  36  38
HETATM   38  C23 UNL     1       3.306   0.450   0.160  1.00  0.00     0.087 C 
HETATM   39  C24 UNL     1       4.157  -0.619   0.900  1.00  0.00     0.055 C 
HETATM   40  C25 UNL     1       5.213  -1.011  -0.102  1.00  0.00     0.274 C 
HETATM   41  N7  UNL     1       6.101   0.120  -0.301  1.00  0.00     0.088 N 
HETATM   42  C32 UNL     1       5.640   1.345   0.268  1.00  0.00     0.274 C 
HETATM   43  C33 UNL     1       4.179   1.654   0.021  1.00  0.00     0.055 C 
BRANCH  41  44
HETATM   44  C26 UNL     1       7.355  -0.250   0.343  1.00  0.00     0.277 C 
BRANCH  44  45
HETATM   45  C27 UNL     1       8.393   0.822   0.162  1.00  0.00     0.018 C 
HETATM   46  C28 UNL     1       9.672   0.366   0.874  1.00  0.00     0.032 C 
HETATM   47  C29 UNL     1      10.639  -0.071  -0.204  1.00  0.00     0.168 C 
HETATM   48  O3  UNL     1      11.065   1.066  -0.890  1.00  0.00    -0.391 OA
HETATM   49  C30 UNL     1       9.998   1.717  -1.464  1.00  0.00     0.168 C 
HETATM   50  C31 UNL     1       8.685   0.972  -1.320  1.00  0.00     0.032 C 
ENDBRANCH  44  45
ENDBRANCH  41  44
ENDBRANCH  36  38
ENDBRANCH   1  34
TORSDOF 13
