REMARK  11 active torsions:
REMARK  status: ('A' for Active; 'I' for Inactive)
REMARK    1  A    between atoms: C4_11  and  O1_12 
REMARK    2  A    between atoms: C4_11  and  N4_14 
REMARK    3  A    between atoms: N4_14  and  C5_16 
REMARK    4  A    between atoms: C6_17  and  O2_18 
REMARK    5  A    between atoms: O2_18  and  C7_19 
REMARK    6  A    between atoms: C9_25  and  C10_26 
REMARK    7  A    between atoms: C11_29  and  N7_30 
REMARK    8  A    between atoms: C12_35  and  C13_36 
REMARK    9  A    between atoms: C13_36  and  N8_37 
REMARK   10  A    between atoms: C14_41  and  O6_42 
REMARK   11  A    between atoms: C15_44  and  O7_45 
ROOT
HETATM    1  C5  UNL     1      -0.295  -0.939  -0.985  1.00  0.00     0.170 C 
HETATM    2  C6  UNL     1      -1.413  -1.463  -0.129  1.00  0.00     0.293 C 
HETATM    3  O5  UNL     1      -1.025  -2.566   0.643  1.00  0.00    -0.349 OA
HETATM    4  C12 UNL     1      -0.975  -3.651  -0.230  1.00  0.00     0.181 C 
HETATM    5  C14 UNL     1      -0.237  -3.324  -1.499  1.00  0.00     0.179 C 
HETATM    6  C15 UNL     1       0.643  -2.122  -1.234  1.00  0.00     0.177 C 
ENDROOT
BRANCH   1   7
HETATM    7  N4  UNL     1       0.434   0.154  -0.354  1.00  0.00    -0.357 N 
ATOM      8  H4  UNL     1       0.181   0.498   0.572  1.00  0.00     0.162 HD
BRANCH   7   9
HETATM    9  C4  UNL     1       1.506   0.715  -1.083  1.00  0.00     0.170 C 
HETATM   10  C3  UNL     1       2.607   1.044  -0.452  1.00  0.00     0.170 A 
HETATM   11  N3  UNL     1       2.867   0.900   0.948  1.00  0.00    -0.180 N 
HETATM   12  C16 UNL     1       3.837   1.635  -0.997  1.00  0.00     0.314 A 
HETATM   13  C2  UNL     1       4.049   1.323   1.236  1.00  0.00     0.710 A 
ATOM     14  H3  UNL     1       2.207   0.515   1.624  1.00  0.00     0.184 HD
HETATM   15  N2  UNL     1       4.922   1.472   2.362  1.00  0.00    -0.158 N 
HETATM   16  N9  UNL     1       4.723   1.795   0.101  1.00  0.00    -0.043 N 
HETATM   17  C1  UNL     1       6.131   2.041   1.890  1.00  0.00     0.207 A 
ATOM     18  H2  UNL     1       4.712   1.216   3.327  1.00  0.00     0.187 HD
HETATM   19  N1  UNL     1       7.199   2.348   2.574  1.00  0.00    -0.369 N 
HETATM   20  N10 UNL     1       6.011   2.242   0.491  1.00  0.00    -0.246 N 
ATOM     21  H12 UNL     1       7.285   2.203   3.580  1.00  0.00     0.159 HD
ATOM     22  H11 UNL     1       8.069   2.758   2.234  1.00  0.00     0.159 HD
ATOM     23  H10 UNL     1       6.723   2.637  -0.124  1.00  0.00     0.191 HD
HETATM   24  O8  UNL     1       4.020   1.920  -2.187  1.00  0.00    -0.263 OA
BRANCH   9  25
HETATM   25  O1  UNL     1       1.398   0.915  -2.451  1.00  0.00    -0.344 OA
ATOM     26  H1  UNL     1       0.600   0.677  -2.908  1.00  0.00     0.219 HD
ENDBRANCH   9  25
ENDBRANCH   7   9
ENDBRANCH   1   7
BRANCH   2  27
HETATM   27  O2  UNL     1      -1.899  -0.420   0.679  1.00  0.00    -0.304 OA
BRANCH  27  28
HETATM   28  C7  UNL     1      -2.428   0.715   0.107  1.00  0.00     0.151 C 
HETATM   29  N5  UNL     1      -2.697   0.695  -1.151  1.00  0.00    -0.357 N 
HETATM   30  C8  UNL     1      -3.260   1.876  -1.799  1.00  0.00     0.240 C 
ATOM     31  H5  UNL     1      -2.517  -0.148  -1.697  1.00  0.00     0.163 HD
HETATM   32  N6  UNL     1      -4.307   2.415  -0.999  1.00  0.00    -0.391 N 
HETATM   33  C9  UNL     1      -4.101   2.406   0.411  1.00  0.00     0.218 C 
ATOM     34  H6  UNL     1      -5.161   2.788  -1.414  1.00  0.00     0.155 HD
HETATM   35  C11 UNL     1      -2.717   1.974   0.836  1.00  0.00     0.289 C 
BRANCH  33  36
HETATM   36  C10 UNL     1      -4.519   3.673   1.000  1.00  0.00     0.199 C 
HETATM   37  O3  UNL     1      -4.988   4.610   0.315  1.00  0.00    -0.646 OA
HETATM   38  O4  UNL     1      -4.398   3.861   2.365  1.00  0.00    -0.646 OA
ENDBRANCH  33  36
BRANCH  35  39
HETATM   39  N7  UNL     1      -1.730   2.987   0.638  1.00  0.00    -0.065 N 
ATOM     40  H73 UNL     1      -0.802   2.638   0.875  1.00  0.00     0.275 HD
ATOM     41  H72 UNL     1      -1.594   3.169  -0.356  1.00  0.00     0.275 HD
ATOM     42  H71 UNL     1      -1.929   3.853   1.139  1.00  0.00     0.275 HD
ENDBRANCH  35  39
ENDBRANCH  27  28
ENDBRANCH   2  27
BRANCH   6  43
HETATM   43  O7  UNL     1       1.370  -2.296  -0.042  1.00  0.00    -0.391 OA
ATOM     44  H7  UNL     1       1.952  -3.030  -0.197  1.00  0.00     0.210 HD
ENDBRANCH   6  43
BRANCH   5  45
HETATM   45  O6  UNL     1       0.498  -4.405  -1.982  1.00  0.00    -0.390 OA
ATOM     46  H6  UNL     1       0.964  -4.198  -2.784  1.00  0.00     0.210 HD
ENDBRANCH   5  45
BRANCH   4  47
HETATM   47  C13 UNL     1      -0.299  -4.818   0.430  1.00  0.00     0.264 C 
BRANCH  47  48
HETATM   48  N8  UNL     1      -1.017  -5.228   1.624  1.00  0.00    -0.077 N 
ATOM     49  H83 UNL     1      -1.144  -4.451   2.272  1.00  0.00     0.274 HD
ATOM     50  H82 UNL     1      -1.998  -5.425   1.424  1.00  0.00     0.274 HD
ATOM     51  H81 UNL     1      -0.558  -6.021   2.072  1.00  0.00     0.274 HD
ENDBRANCH  47  48
ENDBRANCH   4  47
TORSDOF 11
