REMARK  12 active torsions:
REMARK  status: ('A' for Active; 'I' for Inactive)
REMARK    1  A    between atoms: N1_1  and  C1_4 
REMARK    2  A    between atoms: N5_15  and  C5_16 
REMARK    3  A    between atoms: C6_18  and  C7_19 
REMARK    4  A    between atoms: C7_19  and  O2_20 
REMARK    5  A    between atoms: C8_22  and  O3_23 
REMARK    6  A    between atoms: O3_23  and  C9_24 
REMARK    7  A    between atoms: C9_24  and  C10_25 
REMARK    8  A    between atoms: C12_32  and  O7_33 
REMARK    9  A    between atoms: C13_35  and  C14_36 
REMARK   10  A    between atoms: C14_36  and  O8_37 
REMARK   11  A    between atoms: C14_36  and  O9_39 
REMARK   12  A    between atoms: C15_42  and  O11_43 
ROOT
HETATM    1  C5  UNL     1      -2.041  -0.219   0.353  1.00  0.00     0.262 C 
HETATM    2  O1  UNL     1      -1.530  -1.516   0.317  1.00  0.00    -0.353 OA
HETATM    3  C6  UNL     1      -0.247  -1.406   0.832  1.00  0.00     0.179 C 
HETATM    4  C8  UNL     1       0.331  -0.093   0.332  1.00  0.00     0.191 C 
HETATM    5  C15 UNL     1      -0.928   0.663  -0.128  1.00  0.00     0.199 C 
ENDROOT
BRANCH   4   6
HETATM    6  O3  UNL     1       1.146  -0.249  -0.750  1.00  0.00    -0.319 OA
BRANCH   6   7
HETATM    7  C9  UNL     1       2.409   0.268  -0.674  1.00  0.00     0.346 C 
HETATM    8  N6  UNL     1       3.045  -0.051  -1.966  1.00  0.00    -0.294 N 
HETATM    9  C11 UNL     1       4.224  -0.834  -2.049  1.00  0.00     0.253 C 
ATOM     10  H6  UNL     1       2.624   0.302  -2.825  1.00  0.00     0.168 HD
HETATM   11  O6  UNL     1       4.567  -1.426  -3.127  1.00  0.00    -0.270 OA
HETATM   12  C12 UNL     1       5.058  -0.944  -0.822  1.00  0.00     0.243 C 
HETATM   13  C13 UNL     1       4.490   0.057   0.174  1.00  0.00     0.220 C 
HETATM   14  O10 UNL     1       3.169  -0.265   0.366  1.00  0.00    -0.316 OA
BRANCH   7  15
HETATM   15  C10 UNL     1       2.421   1.742  -0.537  1.00  0.00     0.263 C 
HETATM   16  O4  UNL     1       2.920   2.470  -1.461  1.00  0.00    -0.642 OA
HETATM   17  O5  UNL     1       1.923   2.446   0.543  1.00  0.00    -0.642 OA
ENDBRANCH   7  15
BRANCH  12  18
HETATM   18  O7  UNL     1       6.399  -0.651  -1.096  1.00  0.00    -0.383 OA
ATOM     19  H7  UNL     1       6.932  -0.721  -0.312  1.00  0.00     0.210 HD
ENDBRANCH  12  18
BRANCH  13  20
HETATM   20  C14 UNL     1       5.288   0.065   1.458  1.00  0.00     0.285 C 
BRANCH  20  21
HETATM   21  O8  UNL     1       6.612   0.408   1.109  1.00  0.00    -0.369 OA
ATOM     22  H8  UNL     1       7.113   0.413   1.916  1.00  0.00     0.212 HD
ENDBRANCH  20  21
BRANCH  20  23
HETATM   23  O9  UNL     1       5.314  -1.158   2.083  1.00  0.00    -0.369 OA
ATOM     24  H9  UNL     1       5.815  -1.153   2.890  1.00  0.00     0.212 HD
ENDBRANCH  20  23
ENDBRANCH  13  20
ENDBRANCH   6   7
ENDBRANCH   4   6
BRANCH   3  25
HETATM   25  C7  UNL     1       0.584  -2.595   0.402  1.00  0.00     0.198 C 
BRANCH  25  26
HETATM   26  O2  UNL     1       0.702  -2.713  -0.964  1.00  0.00    -0.398 OA
ATOM     27  H2  UNL     1       1.224  -3.460  -1.234  1.00  0.00     0.209 HD
ENDBRANCH  25  26
ENDBRANCH   3  25
BRANCH   5  28
HETATM   28  O11 UNL     1      -0.915   0.839  -1.500  1.00  0.00    -0.388 OA
ATOM     29  H11 UNL     1      -0.210   1.398  -1.805  1.00  0.00     0.210 HD
ENDBRANCH   5  28
BRANCH   1  30
HETATM   30  N5  UNL     1      -3.223  -0.111  -0.478  1.00  0.00    -0.297 N 
HETATM   31  C4  UNL     1      -3.355  -0.371  -1.784  1.00  0.00     0.188 A 
HETATM   32  N4  UNL     1      -4.620  -0.145  -2.187  1.00  0.00    -0.346 N 
HETATM   33  C3  UNL     1      -5.321   0.270  -1.123  1.00  0.00     0.123 A 
ATOM     34  H4  UNL     1      -4.980  -0.268  -3.133  1.00  0.00     0.167 HD
HETATM   35  C2  UNL     1      -6.641   0.628  -0.998  1.00  0.00     0.145 A 
HETATM   36  C16 UNL     1      -4.439   0.287  -0.064  1.00  0.00     0.157 A 
HETATM   37  N2  UNL     1      -7.083   1.008   0.206  1.00  0.00    -0.175 N 
HETATM   38  N3  UNL     1      -7.466   0.613  -1.980  1.00  0.00    -0.383 N 
HETATM   39  C1  UNL     1      -6.222   1.031   1.264  1.00  0.00     0.679 A 
ATOM     40  H2  UNL     1      -8.058   1.279   0.332  1.00  0.00     0.186 HD
HETATM   41  N7  UNL     1      -4.932   0.678   1.131  1.00  0.00    -0.174 N 
ATOM     42  H7  UNL     1      -4.317   0.706   1.944  1.00  0.00     0.186 HD
ATOM     43  H32 UNL     1      -8.446   0.879  -1.887  1.00  0.00     0.157 HD
ATOM     44  H31 UNL     1      -7.129   0.323  -2.898  1.00  0.00     0.157 HD
BRANCH  39  45
HETATM   45  N1  UNL     1      -6.643   1.397   2.427  1.00  0.00    -0.234 N 
ATOM     46  H12 UNL     1      -7.622   1.665   2.528  1.00  0.00     0.174 HD
ATOM     47  H11 UNL     1      -5.999   1.414   3.218  1.00  0.00     0.174 HD
ENDBRANCH  39  45
ENDBRANCH   1  30
TORSDOF 12
