REMARK  13 active torsions:
REMARK  status: ('A' for Active; 'I' for Inactive)
REMARK    1  A    between atoms: N1_1  and  C1_4 
REMARK    2  A    between atoms: N3_8  and  C3_9 
REMARK    3  A    between atoms: C4_10  and  C5_11 
REMARK    4  A    between atoms: C5_11  and  N4_12 
REMARK    5  A    between atoms: N4_12  and  S1_14 
REMARK    6  A    between atoms: C6_19  and  C7_20 
REMARK    7  A    between atoms: C7_20  and  O5_21 
REMARK    8  A    between atoms: C8_23  and  O6_24 
REMARK    9  A    between atoms: C9_26  and  C10_27 
REMARK   10  A    between atoms: C11_31  and  O7_32 
REMARK   11  A    between atoms: C12_34  and  C13_35 
REMARK   12  A    between atoms: C13_35  and  O8_36 
REMARK   13  A    between atoms: C14_42  and  N8_43 
ROOT
HETATM    1  C1  UNL     1       0.110   3.765  -2.160  1.00  0.00     0.705 A 
HETATM    2  N2  UNL     1      -0.271   2.830  -1.277  1.00  0.00    -0.019 N 
ATOM      3  H2  UNL     1      -1.192   2.927  -0.849  1.00  0.00     0.203 HD
HETATM    4  C2  UNL     1       0.479   1.775  -0.919  1.00  0.00     0.737 A 
HETATM    5  N3  UNL     1       0.339   0.721  -0.073  1.00  0.00    -0.153 N 
HETATM    6  C9  UNL     1       1.472  -0.028  -0.138  1.00  0.00     0.173 A 
HETATM    7  N6  UNL     1       2.256   0.603  -1.024  1.00  0.00    -0.248 N 
ATOM      8  H6  UNL     1       3.185   0.279  -1.291  1.00  0.00     0.190 HD
HETATM    9  N7  UNL     1       1.689   1.692  -1.512  1.00  0.00     0.092 N 
HETATM   10  C14 UNL     1       2.097   2.626  -2.410  1.00  0.00     0.727 A 
HETATM   11  N9  UNL     1       1.318   3.666  -2.742  1.00  0.00    -0.020 N 
ATOM     12  H9  UNL     1       1.633   4.362  -3.417  1.00  0.00     0.203 HD
ENDROOT
BRANCH   5  13
HETATM   13  C3  UNL     1      -0.774   0.408   0.746  1.00  0.00     0.171 C 
HETATM   14  C4  UNL     1      -1.501  -0.876   0.403  1.00  0.00     0.167 C 
HETATM   15  O4  UNL     1      -2.749  -0.791   1.019  1.00  0.00    -0.372 OA
HETATM   16  C6  UNL     1      -3.044   0.507   1.316  1.00  0.00     0.176 C 
HETATM   17  C8  UNL     1      -1.950   1.358   0.658  1.00  0.00     0.175 C 
BRANCH  14  18
HETATM   18  C5  UNL     1      -1.755  -1.047  -1.071  1.00  0.00     0.168 C 
BRANCH  18  19
HETATM   19  N4  UNL     1      -2.531  -2.292  -1.196  1.00  0.00    -0.298 N 
ATOM     20  H4  UNL     1      -2.828  -2.901  -0.433  1.00  0.00     0.174 HD
BRANCH  19  21
HETATM   21  S1  UNL     1      -2.843  -2.525  -2.874  1.00  0.00     0.204 S 
HETATM   22  O1  UNL     1      -3.048  -3.984  -3.209  1.00  0.00    -0.578 OA
HETATM   23  O2  UNL     1      -1.782  -1.897  -3.702  1.00  0.00    -0.578 OA
HETATM   24  O3  UNL     1      -4.309  -1.751  -3.223  1.00  0.00    -0.578 OA
ENDBRANCH  19  21
ENDBRANCH  18  19
ENDBRANCH  14  18
BRANCH  16  25
HETATM   25  C7  UNL     1      -4.412   0.925   0.839  1.00  0.00     0.198 C 
BRANCH  25  26
HETATM   26  O5  UNL     1      -4.667   2.257   1.164  1.00  0.00    -0.398 OA
ATOM     27  H5  UNL     1      -5.529   2.520   0.863  1.00  0.00     0.209 HD
ENDBRANCH  25  26
ENDBRANCH  16  25
BRANCH  17  28
HETATM   28  O6  UNL     1      -1.820   2.491   1.437  1.00  0.00    -0.391 OA
ATOM     29  H6  UNL     1      -2.558   3.087   1.382  1.00  0.00     0.210 HD
ENDBRANCH  17  28
ENDBRANCH   5  13
BRANCH   6  30
HETATM   30  C10 UNL     1       1.824  -1.275   0.618  1.00  0.00     0.395 C 
HETATM   31  N5  UNL     1       1.633  -1.140   2.045  1.00  0.00    -0.013 N 
HETATM   32  C11 UNL     1       2.772  -1.890   2.607  1.00  0.00     0.353 C 
ATOM     33  H52 UNL     1       1.554  -0.178   2.374  1.00  0.00     0.283 HD
ATOM     34  H51 UNL     1       0.718  -1.441   2.382  1.00  0.00     0.283 HD
HETATM   35  C12 UNL     1       3.842  -1.481   1.602  1.00  0.00     0.204 C 
HETATM   36  O9  UNL     1       3.175  -1.550   0.413  1.00  0.00    -0.341 OA
BRANCH  32  37
HETATM   37  O7  UNL     1       2.445  -3.219   2.530  1.00  0.00    -0.368 OA
ATOM     38  H7  UNL     1       3.179  -3.702   2.892  1.00  0.00     0.212 HD
ENDBRANCH  32  37
BRANCH  35  39
HETATM   39  C13 UNL     1       4.972  -2.489   1.570  1.00  0.00     0.200 C 
BRANCH  39  40
HETATM   40  O8  UNL     1       5.719  -2.510   2.723  1.00  0.00    -0.398 OA
ATOM     41  H8  UNL     1       6.428  -3.142   2.703  1.00  0.00     0.209 HD
ENDBRANCH  39  40
ENDBRANCH  35  39
ENDBRANCH   6  30
BRANCH   1  42
HETATM   42  N1  UNL     1      -0.626   4.772  -2.491  1.00  0.00    -0.234 N 
ATOM     43  H12 UNL     1      -1.542   4.847  -2.049  1.00  0.00     0.174 HD
ATOM     44  H11 UNL     1      -0.336   5.483  -3.162  1.00  0.00     0.174 HD
ENDBRANCH   1  42
BRANCH  10  45
HETATM   45  N8  UNL     1       3.253   2.471  -2.923  1.00  0.00    -0.232 N 
ATOM     46  H82 UNL     1       3.845   1.680  -2.670  1.00  0.00     0.174 HD
ATOM     47  H81 UNL     1       3.559   3.172  -3.597  1.00  0.00     0.174 HD
ENDBRANCH  10  45
TORSDOF 13
