REMARK  16 active torsions:
REMARK  status: ('A' for Active; 'I' for Inactive)
REMARK    1  A    between atoms: C2_2  and  N1_3 
REMARK    2  A    between atoms: C2_2  and  C3_7 
REMARK    3  A    between atoms: C3_7  and  O1_8 
REMARK    4  A    between atoms: C3_7  and  N2_10 
REMARK    5  A    between atoms: N2_10  and  C4_11 
REMARK    6  A    between atoms: C4_11  and  C5_12 
REMARK    7  A    between atoms: C6_15  and  N4_16 
REMARK    8  A    between atoms: N6_23  and  N7_24 
REMARK    9  A    between atoms: N8_29  and  C10_30 
REMARK   10  A    between atoms: C11_31  and  O3_32 
REMARK   11  A    between atoms: C12_34  and  O4_35 
REMARK   12  A    between atoms: C13_37  and  C14_38 
REMARK   13  A    between atoms: C14_38  and  N9_39 
REMARK       I    between atoms: N9_39  and  C15_40 
REMARK   14  A    between atoms: C16_43  and  N11_44 
REMARK   15  A    between atoms: N11_44  and  N12_45 
REMARK   16  A    between atoms: C17_48  and  O6_49 
ROOT
HETATM    1  C5  UNL     1       3.359   0.435  -0.019  1.00  0.00     0.110 A 
HETATM    2  N3  UNL     1       3.361   0.990   1.202  1.00  0.00    -0.187 N 
ATOM      3  H3  UNL     1       4.226   1.399   1.556  1.00  0.00     0.184 HD
HETATM    4  C6  UNL     1       2.260   1.026   1.977  1.00  0.00     0.678 A 
HETATM    5  N5  UNL     1       1.109   0.495   1.534  1.00  0.00    -0.174 N 
ATOM      6  H5  UNL     1       0.278   0.526   2.125  1.00  0.00     0.186 HD
HETATM    7  C7  UNL     1       1.040  -0.075   0.325  1.00  0.00     0.163 A 
HETATM    8  C8  UNL     1       2.179  -0.105  -0.462  1.00  0.00     0.135 A 
HETATM    9  N6  UNL     1       1.864  -0.707  -1.594  1.00  0.00    -0.205 N 
HETATM   10  C9  UNL     1       0.547  -1.038  -1.496  1.00  0.00     0.354 A 
HETATM   11  O2  UNL     1      -0.003  -1.630  -2.460  1.00  0.00    -0.244 OA
HETATM   12  N8  UNL     1       0.023  -0.662  -0.333  1.00  0.00    -0.247 N 
ENDROOT
BRANCH  12  13
HETATM   13  C10 UNL     1      -1.342  -0.837   0.135  1.00  0.00     0.062 C 
HETATM   14  C11 UNL     1      -2.040  -2.031  -0.404  1.00  0.00     0.196 C 
HETATM   15  C12 UNL     1      -3.233  -2.248   0.562  1.00  0.00     0.164 C 
HETATM   16  C13 UNL     1      -4.137  -1.048   0.280  1.00  0.00     0.093 C 
HETATM   17  C16 UNL     1      -3.543   0.250   0.597  1.00  0.00     0.145 C 
HETATM   18  C17 UNL     1      -2.108   0.436   0.163  1.00  0.00     0.189 C 
BRANCH  14  19
HETATM   19  O3  UNL     1      -2.645  -1.896  -1.640  1.00  0.00    -0.387 OA
ATOM     20  H3  UNL     1      -3.092  -2.660  -1.985  1.00  0.00     0.210 HD
ENDBRANCH  14  19
BRANCH  15  21
HETATM   21  O4  UNL     1      -3.917  -3.400   0.301  1.00  0.00    -0.392 OA
ATOM     22  H4  UNL     1      -4.648  -3.533   0.893  1.00  0.00     0.210 HD
ENDBRANCH  15  21
BRANCH  16  23
HETATM   23  C14 UNL     1      -5.438  -1.336   0.972  1.00  0.00     0.169 C 
BRANCH  23  24
HETATM   24  N9  UNL     1      -6.454  -0.409   0.901  1.00  0.00    -0.371 NA
HETATM   25  C15 UNL     1      -7.435   0.488   0.833  1.00  0.00     0.405 C 
HETATM   26  N10 UNL     1      -8.707   0.186   0.153  1.00  0.00    -0.025 NA
HETATM   27  O5  UNL     1      -7.468   1.685   1.303  1.00  0.00    -0.234 OA
ENDBRANCH  23  24
ENDBRANCH  16  23
BRANCH  17  28
HETATM   28  N11 UNL     1      -4.272   1.296  -0.150  1.00  0.00    -0.140 NA
BRANCH  28  29
HETATM   29  N12 UNL     1      -3.743   2.563   0.127  1.00  0.00    -0.348 N 
ATOM     30 2H12 UNL     1      -2.960   2.725   0.761  1.00  0.00     0.172 HD
ATOM     31 1H12 UNL     1      -4.246   3.285  -0.389  1.00  0.00     0.172 HD
ENDBRANCH  28  29
ENDBRANCH  17  28
BRANCH  18  32
HETATM   32  O6  UNL     1      -1.994   1.177  -1.014  1.00  0.00    -0.388 OA
ATOM     33  H6  UNL     1      -2.484   1.991  -0.996  1.00  0.00     0.210 HD
ENDBRANCH  18  32
ENDBRANCH  12  13
BRANCH   9  34
HETATM   34  N7  UNL     1       2.674  -0.973  -2.703  1.00  0.00    -0.334 N 
ATOM     35  H72 UNL     1       3.661  -0.725  -2.776  1.00  0.00     0.177 HD
ATOM     36  H71 UNL     1       2.431  -1.438  -3.578  1.00  0.00     0.177 HD
ENDBRANCH   9  34
BRANCH   4  37
HETATM   37  N4  UNL     1       2.337   1.585   3.158  1.00  0.00    -0.234 N 
ATOM     38  H42 UNL     1       3.211   1.988   3.495  1.00  0.00     0.174 HD
ATOM     39  H41 UNL     1       1.503   1.612   3.745  1.00  0.00     0.174 HD
ENDBRANCH   4  37
BRANCH   1  40
HETATM   40  C4  UNL     1       4.614   0.428  -0.791  1.00  0.00     0.217 C 
BRANCH  40  41
HETATM   41  N2  UNL     1       5.641   0.909  -0.425  1.00  0.00    -0.393 NA
BRANCH  41  42
HETATM   42  C3  UNL     1       6.747   1.453   0.019  1.00  0.00     0.219 C 
BRANCH  42  43
HETATM   43  C2  UNL     1       8.134   0.882  -0.250  1.00  0.00     0.268 C 
HETATM   44  C1  UNL     1       8.267  -0.372   0.627  1.00  0.00     0.050 C 
BRANCH  43  45
HETATM   45  N1  UNL     1       9.170   1.773   0.153  1.00  0.00    -0.067 N 
ATOM     46  H13 UNL     1       9.160   1.977   1.152  1.00  0.00     0.275 HD
ATOM     47  H12 UNL     1      10.099   1.353   0.118  1.00  0.00     0.275 HD
ATOM     48  H11 UNL     1       9.082   2.606  -0.429  1.00  0.00     0.275 HD
ENDBRANCH  43  45
ENDBRANCH  42  43
BRANCH  42  49
HETATM   49  O1  UNL     1       6.810   2.538   0.736  1.00  0.00    -0.337 OA
ATOM     50  H1  UNL     1       5.945   2.894   0.904  1.00  0.00     0.220 HD
ENDBRANCH  42  49
ENDBRANCH  41  42
ENDBRANCH  40  41
ENDBRANCH   1  40
TORSDOF 16
