REMARK  3 active torsions:
REMARK  status: ('A' for Active; 'I' for Inactive)
REMARK    1  A    between atoms: C4_4  and  C5_5 
REMARK    2  A    between atoms: C5_5  and  C6_6 
REMARK    3  A    between atoms: C11_13  and  O3_15 
ROOT
HETATM    1  C6  UNL     1       0.491  -0.489  -0.495  1.00  0.00     0.119 C 
HETATM    2  C7  UNL     1       0.037  -0.970  -1.840  1.00  0.00     0.052 C 
HETATM    3  O1  UNL     1       0.551   0.874  -0.457  1.00  0.00    -0.339 OA
HETATM    4  C8  UNL     1       1.573   1.271   0.364  1.00  0.00     0.161 C 
HETATM    5  C9  UNL     1       1.134   1.654   1.754  1.00  0.00     0.078 C 
HETATM    6  C10 UNL     1       2.179   2.535  -0.263  1.00  0.00     0.078 C 
HETATM    7  O2  UNL     1       2.510   0.246   0.423  1.00  0.00    -0.317 OA
HETATM    8  C11 UNL     1       2.005  -0.798  -0.341  1.00  0.00     0.193 C 
HETATM    9  C12 UNL     1       2.241  -2.087   0.344  1.00  0.00     0.082 C 
ENDROOT
BRANCH   1  10
HETATM   10  C5  UNL     1      -0.275  -1.048   0.606  1.00  0.00     0.071 C 
BRANCH  10  11
HETATM   11  C4  UNL     1      -1.690  -0.816   0.706  1.00  0.00    -0.022 C 
HETATM   12  C2  UNL     1      -2.669  -0.207   0.162  1.00  0.00    -0.091 C 
HETATM   13  C1  UNL     1      -4.047  -0.401   0.831  1.00  0.00     0.042 C 
HETATM   14  C3  UNL     1      -2.719   0.665  -1.003  1.00  0.00     0.042 C 
ENDBRANCH  10  11
ENDBRANCH   1  10
BRANCH   8  15
HETATM   15  O3  UNL     1       2.566  -0.709  -1.603  1.00  0.00    -0.363 OA
ATOM     16  H3  UNL     1       3.492  -0.898  -1.509  1.00  0.00     0.213 HD
ENDBRANCH   8  15
TORSDOF 3
