REMARK  3 active torsions:
REMARK  status: ('A' for Active; 'I' for Inactive)
REMARK    1  A    between atoms: N1_1  and  N2_4 
REMARK    2  A    between atoms: N3_6  and  C1_8 
REMARK    3  A    between atoms: C1_8  and  C2_9 
ROOT
HETATM    1  C2  UNL     1       1.716  -0.511   0.439  1.00  0.00     0.206 C 
HETATM    2  C3  UNL     1       2.069  -1.110  -0.902  1.00  0.00     0.035 C 
HETATM    3  C4  UNL     1       0.924  -1.267  -1.821  1.00  0.00     0.004 C 
HETATM    4  C5  UNL     1      -0.428  -1.007  -1.293  1.00  0.00     0.039 C 
HETATM    5  C6  UNL     1      -0.530  -0.046  -0.154  1.00  0.00     0.126 C 
HETATM    6  C7  UNL     1      -1.329   1.163  -0.665  1.00  0.00     0.039 C 
HETATM    7  C8  UNL     1      -2.753   0.660  -0.798  1.00  0.00     0.002 C 
HETATM    8  C9  UNL     1      -3.271   0.656   0.639  1.00  0.00     0.000 C 
HETATM    9  C10 UNL     1      -2.378  -0.041   1.585  1.00  0.00     0.002 C 
HETATM   10  C11 UNL     1      -1.150  -0.654   1.058  1.00  0.00     0.039 C 
HETATM   11  N4  UNL     1       0.774   0.535   0.204  1.00  0.00    -0.060 N 
ATOM     12  H41 UNL     1       1.104   1.200  -0.496  1.00  0.00     0.278 HD
ATOM     13  H42 UNL     1       0.706   1.176   0.995  1.00  0.00     0.278 HD
ENDROOT
BRANCH   1  14
HETATM   14  C1  UNL     1       2.937   0.096   1.095  1.00  0.00     0.173 C 
BRANCH  14  15
HETATM   15  N3  UNL     1       3.511   1.154   0.267  1.00  0.00    -0.321 N 
HETATM   16  N2  UNL     1       4.181   2.017   0.807  1.00  0.00    -0.254 N 
ATOM     17  H2  UNL     1       4.939   1.445   1.181  1.00  0.00     0.207 HD
ATOM     18  H3  UNL     1       3.354   1.170  -0.741  1.00  0.00     0.181 HD
BRANCH  16  19
HETATM   19  N1  UNL     1       4.544   3.141   1.200  1.00  0.00    -0.331 N 
ATOM     20  H12 UNL     1       3.763   3.665   0.805  1.00  0.00     0.178 HD
ATOM     21  H11 UNL     1       5.105   3.863   1.652  1.00  0.00     0.178 HD
ENDBRANCH  16  19
ENDBRANCH  14  15
ENDBRANCH   1  14
TORSDOF 3
