REMARK  11 active torsions:
REMARK  status: ('A' for Active; 'I' for Inactive)
REMARK    1  A    between atoms: C5_5  and  N1_6 
REMARK    2  A    between atoms: C6_10  and  O1_11 
REMARK    3  A    between atoms: O1_11  and  C7_12 
REMARK    4  A    between atoms: C9_14  and  O2_15 
REMARK    5  A    between atoms: O2_15  and  C10_16 
REMARK    6  A    between atoms: C11_18  and  N2_19 
REMARK    7  A    between atoms: C12_24  and  S1_25 
REMARK    8  A    between atoms: S1_25  and  C13_26 
REMARK    9  A    between atoms: C15_29  and  O5_30 
REMARK   10  A    between atoms: C16_32  and  N4_33 
REMARK   11  A    between atoms: C18_38  and  N5_39 
ROOT
HETATM    1  C13 UNL     1       7.504  -1.091  -0.216  1.00  0.00     0.200 C 
HETATM    2  C14 UNL     1       8.301  -1.890   0.680  1.00  0.00     0.069 C 
HETATM    3  N3  UNL     1       8.944  -2.551   1.391  1.00  0.00    -0.197 NA
ENDROOT
BRANCH   1   4
HETATM    4  S1  UNL     1       5.712  -1.229   0.151  1.00  0.00    -0.120 SA
BRANCH   4   5
HETATM    5  C12 UNL     1       4.867  -0.163  -1.066  1.00  0.00     0.222 C 
HETATM    6  O4  UNL     1       5.220   1.154  -0.809  1.00  0.00    -0.320 OA
HETATM    7  C11 UNL     1       4.849   1.565   0.463  1.00  0.00     0.470 C 
HETATM    8  O3  UNL     1       4.045   0.611   1.100  1.00  0.00    -0.306 OA
HETATM    9  C10 UNL     1       2.936   0.415   0.306  1.00  0.00     0.297 C 
HETATM   10  C15 UNL     1       3.362  -0.306  -0.951  1.00  0.00     0.212 C 
BRANCH   7  11
HETATM   11  N2  UNL     1       5.982   1.901   1.282  1.00  0.00    -0.029 N 
ATOM     12  H23 UNL     1       5.699   2.206   2.213  1.00  0.00     0.280 HD
ATOM     13  H22 UNL     1       6.515   1.073   1.548  1.00  0.00     0.280 HD
ATOM     14  H21 UNL     1       6.567   2.596   0.818  1.00  0.00     0.280 HD
ENDBRANCH   7  11
BRANCH   9  15
HETATM   15  O2  UNL     1       1.880  -0.169   0.950  1.00  0.00    -0.351 OA
BRANCH  15  16
HETATM   16  C9  UNL     1       0.734   0.660   0.995  1.00  0.00     0.157 C 
HETATM   17  C8  UNL     1      -0.330  -0.082   0.217  1.00  0.00     0.068 C 
HETATM   18  C7  UNL     1      -1.681   0.527   0.294  1.00  0.00     0.157 C 
HETATM   19  C18 UNL     1      -1.850   1.410   1.541  1.00  0.00     0.214 C 
HETATM   20  C17 UNL     1      -1.093   0.748   2.657  1.00  0.00     0.070 C 
HETATM   21  C16 UNL     1       0.397   0.817   2.455  1.00  0.00     0.214 C 
BRANCH  18  22
HETATM   22  O1  UNL     1      -2.630  -0.453   0.405  1.00  0.00    -0.350 OA
BRANCH  22  23
HETATM   23  C6  UNL     1      -3.587  -0.499  -0.564  1.00  0.00     0.352 C 
HETATM   24  C5  UNL     1      -3.466  -1.830  -1.271  1.00  0.00     0.239 C 
HETATM   25  C4  UNL     1      -4.426  -1.787  -2.444  1.00  0.00     0.039 C 
HETATM   26  C3  UNL     1      -5.805  -1.620  -1.886  1.00  0.00     0.035 C 
HETATM   27  C2  UNL     1      -5.954  -0.413  -0.997  1.00  0.00     0.185 C 
HETATM   28  C1  UNL     1      -6.133   0.805  -1.871  1.00  0.00     0.040 C 
HETATM   29  N6  UNL     1      -4.905  -0.269  -0.038  1.00  0.00    -0.043 N 
ATOM     30  H62 UNL     1      -4.955   0.646   0.410  1.00  0.00     0.280 HD
ATOM     31  H61 UNL     1      -5.076  -0.868   0.770  1.00  0.00     0.280 HD
BRANCH  24  32
HETATM   32  N1  UNL     1      -2.113  -2.035  -1.689  1.00  0.00    -0.071 N 
ATOM     33  H13 UNL     1      -2.028  -2.871  -2.267  1.00  0.00     0.274 HD
ATOM     34  H12 UNL     1      -1.828  -1.335  -2.374  1.00  0.00     0.274 HD
ATOM     35  H11 UNL     1      -1.467  -2.064  -0.900  1.00  0.00     0.274 HD
ENDBRANCH  24  32
ENDBRANCH  22  23
ENDBRANCH  18  22
BRANCH  19  36
HETATM   36  N5  UNL     1      -1.472   2.765   1.290  1.00  0.00    -0.072 N 
ATOM     37  H53 UNL     1      -0.523   2.823   0.921  1.00  0.00     0.274 HD
ATOM     38  H52 UNL     1      -1.978   3.149   0.492  1.00  0.00     0.274 HD
ATOM     39  H51 UNL     1      -1.584   3.351   2.117  1.00  0.00     0.274 HD
ENDBRANCH  19  36
BRANCH  21  40
HETATM   40  N4  UNL     1       1.000  -0.235   3.252  1.00  0.00    -0.072 N 
ATOM     41  H43 UNL     1       0.744  -1.160   2.906  1.00  0.00     0.274 HD
ATOM     42  H42 UNL     1       2.008  -0.286   3.104  1.00  0.00     0.274 HD
ATOM     43  H41 UNL     1       0.772  -0.129   4.240  1.00  0.00     0.274 HD
ENDBRANCH  21  40
ENDBRANCH  15  16
ENDBRANCH   9  15
BRANCH  10  44
HETATM   44  O5  UNL     1       2.739   0.191  -2.081  1.00  0.00    -0.387 OA
ATOM     45  H5  UNL     1       3.007  -0.262  -2.872  1.00  0.00     0.210 HD
ENDBRANCH  10  44
ENDBRANCH   4   5
ENDBRANCH   1   4
TORSDOF 11
