REMARK  10 active torsions:
REMARK  status: ('A' for Active; 'I' for Inactive)
REMARK    1  A    between atoms: O1_2  and  C2_3 
REMARK    2  A    between atoms: C2_3  and  C3_4 
REMARK    3  A    between atoms: N1_9  and  C8_10 
REMARK    4  A    between atoms: C9_13  and  N3_14 
REMARK    5  A    between atoms: N3_14  and  N4_15 
REMARK       I    between atoms: N4_15  and  C10_16 
REMARK    6  A    between atoms: C10_16  and  C11_18 
REMARK    7  A    between atoms: C11_18  and  N5_19 
REMARK    8  A    between atoms: C13_26  and  N9_27 
REMARK    9  A    between atoms: C14_32  and  N11_33 
REMARK   10  A    between atoms: N13_39  and  O3_40 
ROOT
HETATM    1  C8  UNL     1       0.589  -0.975   0.512  1.00  0.00     0.711 A 
HETATM    2  N2  UNL     1      -0.378  -0.094   0.204  1.00  0.00    -0.158 N 
ATOM      3  H2  UNL     1      -0.210   0.898   0.371  1.00  0.00     0.187 HD
HETATM    4  C9  UNL     1      -1.607  -0.488  -0.337  1.00  0.00     0.251 A 
HETATM    5  C12 UNL     1      -1.771  -1.850  -0.535  1.00  0.00     0.117 A 
HETATM    6  C13 UNL     1      -2.959  -2.354  -1.047  1.00  0.00     0.134 A 
HETATM    7  N10 UNL     1      -3.078  -3.691  -1.207  1.00  0.00    -0.176 N 
ATOM      8  H10 UNL     1      -3.949  -4.066  -1.583  1.00  0.00     0.186 HD
HETATM    9  C14 UNL     1      -2.094  -4.538  -0.889  1.00  0.00     0.679 A 
HETATM   10  N12 UNL     1      -0.919  -4.087  -0.386  1.00  0.00    -0.173 N 
ATOM     11  H12 UNL     1      -0.167  -4.731  -0.142  1.00  0.00     0.186 HD
HETATM   12  C15 UNL     1      -0.781  -2.761  -0.221  1.00  0.00     0.185 A 
HETATM   13  N13 UNL     1       0.395  -2.267   0.306  1.00  0.00    -0.034 N 
ENDROOT
BRANCH   4  14
HETATM   14  N3  UNL     1      -2.399   0.360  -0.576  1.00  0.00    -0.225 NA
BRANCH  14  15
HETATM   15  N4  UNL     1      -3.276   1.215  -0.850  1.00  0.00    -0.206 NA
HETATM   16  C10 UNL     1      -4.230   2.146  -1.147  1.00  0.00     0.348 C 
HETATM   17  O2  UNL     1      -3.998   3.299  -1.635  1.00  0.00    -0.252 OA
BRANCH  16  18
HETATM   18  C11 UNL     1      -5.714   1.933  -0.938  1.00  0.00     0.291 C 
BRANCH  18  19
HETATM   19  N5  UNL     1      -6.078   2.664   0.272  1.00  0.00    -0.191 N 
HETATM   20  N6  UNL     1      -6.163   2.383   1.560  1.00  0.00     0.015 NA
HETATM   21  N7  UNL     1      -6.524   3.652   1.763  1.00  0.00    -0.209 N 
HETATM   22  N8  UNL     1      -6.441   3.939   0.478  1.00  0.00    -0.214 N 
ATOM     23  H7  UNL     1      -6.770   4.192   2.593  1.00  0.00     0.207 HD
ATOM     24  H8  UNL     1      -6.588   4.765  -0.102  1.00  0.00     0.211 HD
ENDBRANCH  18  19
ENDBRANCH  16  18
ENDBRANCH  14  15
ENDBRANCH   4  14
BRANCH   1  25
HETATM   25  N1  UNL     1       1.833  -0.453   1.053  1.00  0.00    -0.215 N 
HETATM   26  C7  UNL     1       2.767  -1.360   1.630  1.00  0.00     0.141 C 
HETATM   27  C6  UNL     1       3.751  -0.806   2.607  1.00  0.00     0.020 C 
HETATM   28  C5  UNL     1       3.887   0.664   2.689  1.00  0.00     0.002 C 
HETATM   29  C4  UNL     1       4.345   1.159   1.329  1.00  0.00     0.008 C 
HETATM   30  C3  UNL     1       3.156   1.601   0.512  1.00  0.00     0.028 C 
HETATM   31  C16 UNL     1       1.873   0.987   0.884  1.00  0.00     0.148 C 
BRANCH  30  32
HETATM   32  C2  UNL     1       3.517   1.615  -0.934  1.00  0.00     0.173 C 
BRANCH  32  33
HETATM   33  O1  UNL     1       4.587   2.538  -1.069  1.00  0.00    -0.396 OA
HETATM   34  C1  UNL     1       4.967   2.618  -2.402  1.00  0.00     0.201 C 
ENDBRANCH  32  33
ENDBRANCH  30  32
ENDBRANCH   1  25
BRANCH   6  35
HETATM   35  N9  UNL     1      -3.899  -1.565  -1.354  1.00  0.00    -0.384 N 
ATOM     36  H92 UNL     1      -3.809  -0.556  -1.233  1.00  0.00     0.157 HD
ATOM     37  H91 UNL     1      -4.772  -1.935  -1.730  1.00  0.00     0.157 HD
ENDBRANCH   6  35
BRANCH  13  38
HETATM   38  O3  UNL     1       1.335  -3.222   0.558  1.00  0.00    -0.268 OA
ATOM     39  H3  UNL     1       1.196  -4.150   0.410  1.00  0.00     0.246 HD
ENDBRANCH  13  38
BRANCH   9  40
HETATM   40  N11 UNL     1      -2.235  -5.802  -1.043  1.00  0.00    -0.234 N 
ATOM     41 2H11 UNL     1      -3.119  -6.141  -1.422  1.00  0.00     0.174 HD
ATOM     42 1H11 UNL     1      -1.484  -6.448  -0.800  1.00  0.00     0.174 HD
ENDBRANCH   9  40
TORSDOF 10
