REMARK  9 active torsions:
REMARK  status: ('A' for Active; 'I' for Inactive)
REMARK    1  A    between atoms: O1_2  and  C2_3 
REMARK    2  A    between atoms: C2_3  and  C3_5 
REMARK    3  A    between atoms: C6_8  and  C7_9 
REMARK    4  A    between atoms: C7_9  and  N1_10 
REMARK    5  A    between atoms: C13_25  and  N7_26 
REMARK    6  A    between atoms: N7_26  and  C14_28 
REMARK    7  A    between atoms: C14_28  and  N8_29 
REMARK    8  A    between atoms: C14_28  and  C15_33 
REMARK    9  A    between atoms: C15_33  and  N9_34 
REMARK       I    between atoms: N9_34  and  C16_37 
REMARK       I    between atoms: C16_37  and  N10_38 
REMARK       I    between atoms: C16_37  and  N11_42 
ROOT
HETATM    1  N1  UNL     1       1.785  -1.745  -0.334  1.00  0.00    -0.350 N 
ATOM      2  H1  UNL     1       2.790  -1.907  -0.389  1.00  0.00     0.166 HD
HETATM    3  C8  UNL     1       1.092  -2.789  -0.497  1.00  0.00     0.136 A 
HETATM    4  N2  UNL     1       1.747  -3.987  -0.721  1.00  0.00    -0.328 N 
ATOM      5  H2  UNL     1       2.767  -3.999  -0.749  1.00  0.00     0.168 HD
HETATM    6  C9  UNL     1       1.078  -5.125  -0.901  1.00  0.00     0.141 A 
HETATM    7  N3  UNL     1       1.755  -6.354  -1.132  1.00  0.00    -0.081 NA
HETATM    8  C10 UNL     1      -0.306  -5.141  -0.868  1.00  0.00     0.116 A 
HETATM    9  C11 UNL     1      -1.036  -6.377  -1.064  1.00  0.00     0.105 C 
HETATM   10  N4  UNL     1      -1.616  -7.367  -1.234  1.00  0.00    -0.191 NA
HETATM   11  C12 UNL     1      -0.986  -3.968  -0.647  1.00  0.00     0.103 A 
HETATM   12  N5  UNL     1      -2.326  -3.901  -0.601  1.00  0.00    -0.283 N 
ATOM     13  H5  UNL     1      -2.872  -4.752  -0.734  1.00  0.00     0.187 HD
HETATM   14  N6  UNL     1      -2.955  -2.758  -0.387  1.00  0.00    -0.132 N 
ATOM     15  H6  UNL     1      -3.975  -2.757  -0.361  1.00  0.00     0.205 HD
HETATM   16  C13 UNL     1      -2.302  -1.597  -0.202  1.00  0.00     0.695 A 
HETATM   17  N12 UNL     1      -0.964  -1.630  -0.243  1.00  0.00    -0.184 N 
ATOM     18  H12 UNL     1      -0.445  -0.763  -0.107  1.00  0.00     0.184 HD
HETATM   19  C17 UNL     1      -0.284  -2.766  -0.457  1.00  0.00     0.123 A 
ENDROOT
BRANCH   1  20
HETATM   20  C7  UNL     1       1.442  -0.405  -0.092  1.00  0.00     0.101 C 
BRANCH  20  21
HETATM   21  C6  UNL     1       2.681   0.465   0.026  1.00  0.00    -0.021 A 
HETATM   22  C5  UNL     1       2.564   1.815   0.264  1.00  0.00     0.014 A 
HETATM   23  C4  UNL     1       3.695   2.611   0.372  1.00  0.00     0.018 A 
HETATM   24  C3  UNL     1       4.959   2.093   0.247  1.00  0.00     0.039 A 
HETATM   25  C19 UNL     1       5.080   0.741   0.009  1.00  0.00     0.018 A 
HETATM   26  C18 UNL     1       3.949  -0.055  -0.099  1.00  0.00     0.014 A 
BRANCH  24  27
HETATM   27  C2  UNL     1       6.143   2.941   0.363  1.00  0.00     0.292 C 
HETATM   28  O2  UNL     1       7.297   2.460   0.248  1.00  0.00    -0.259 OA
BRANCH  27  29
HETATM   29  O1  UNL     1       6.020   4.290   0.601  1.00  0.00    -0.323 OA
HETATM   30  C1  UNL     1       7.175   5.118   0.714  1.00  0.00     0.213 C 
ENDBRANCH  27  29
ENDBRANCH  24  27
ENDBRANCH  20  21
ENDBRANCH   1  20
BRANCH  16  31
HETATM   31  N7  UNL     1      -2.946  -0.478   0.008  1.00  0.00    -0.194 N 
ATOM     32  H7  UNL     1      -2.390   0.367   0.141  1.00  0.00     0.180 HD
BRANCH  31  33
HETATM   33  C14 UNL     1      -4.364  -0.348   0.066  1.00  0.00     0.322 C 
BRANCH  33  34
HETATM   34  N8  UNL     1      -4.962  -0.921   1.256  1.00  0.00    -0.056 N 
ATOM     35  H83 UNL     1      -4.688  -1.898   1.359  1.00  0.00     0.276 HD
ATOM     36  H82 UNL     1      -4.532  -0.532   2.095  1.00  0.00     0.276 HD
ATOM     37  H81 UNL     1      -5.977  -0.828   1.298  1.00  0.00     0.276 HD
ENDBRANCH  33  34
BRANCH  33  38
HETATM   38  C15 UNL     1      -4.834   1.077  -0.098  1.00  0.00     0.291 C 
BRANCH  38  39
HETATM   39  N9  UNL     1      -4.317   1.953   0.918  1.00  0.00    -0.018 N 
HETATM   40  C16 UNL     1      -4.851   3.288   0.636  1.00  0.00     0.575 C 
HETATM   41  N10 UNL     1      -4.353   4.208   1.640  1.00  0.00    -0.026 N 
HETATM   42  N11 UNL     1      -4.536   3.720  -0.703  1.00  0.00    -0.026 N 
ATOM     43 3H10 UNL     1      -4.558   3.898   2.590  1.00  0.00     0.278 HD
ATOM     44 2H10 UNL     1      -3.335   4.200   1.706  1.00  0.00     0.278 HD
ATOM     45 1H10 UNL     1      -4.725   5.137   1.444  1.00  0.00     0.278 HD
ATOM     46 3H11 UNL     1      -3.532   3.677  -0.880  1.00  0.00     0.278 HD
ATOM     47 2H11 UNL     1      -4.851   3.041  -1.396  1.00  0.00     0.278 HD
ATOM     48 1H11 UNL     1      -4.908   4.649  -0.899  1.00  0.00     0.278 HD
ATOM     49  H92 UNL     1      -4.516   1.632   1.865  1.00  0.00     0.281 HD
ATOM     50  H91 UNL     1      -3.300   1.933   0.987  1.00  0.00     0.281 HD
ENDBRANCH  38  39
ENDBRANCH  33  38
ENDBRANCH  31  33
ENDBRANCH  16  31
TORSDOF 9
