REMARK  14 active torsions:
REMARK  status: ('A' for Active; 'I' for Inactive)
REMARK    1  A    between atoms: C3_4  and  O2_5 
REMARK    2  A    between atoms: O2_5  and  C4_6 
REMARK    3  A    between atoms: C6_8  and  O3_9 
REMARK    4  A    between atoms: O3_9  and  C7_10 
REMARK    5  A    between atoms: C8_12  and  C9_13 
REMARK    6  A    between atoms: C9_13  and  N1_14 
REMARK    7  A    between atoms: C10_18  and  O5_19 
REMARK    8  A    between atoms: C11_22  and  O7_23 
REMARK    9  A    between atoms: C12_25  and  N2_26 
REMARK   10  A    between atoms: C14_31  and  N3_32 
REMARK   11  A    between atoms: N3_32  and  N4_34 
REMARK   12  A    between atoms: N4_34  and  N5_35 
REMARK   13  A    between atoms: C15_38  and  N6_39 
REMARK   14  A    between atoms: C17_44  and  N7_45 
ROOT
HETATM    1  C4  UNL     1      -0.980  -1.240   0.034  1.00  0.00     0.152 C 
HETATM    2  C5  UNL     1       0.357  -0.668   0.314  1.00  0.00     0.068 C 
HETATM    3  C6  UNL     1       1.336  -0.781  -0.863  1.00  0.00     0.157 C 
HETATM    4  C12 UNL     1       1.422  -2.180  -1.375  1.00  0.00     0.214 C 
HETATM    5  C13 UNL     1       0.173  -2.990  -1.204  1.00  0.00     0.065 C 
HETATM    6  C14 UNL     1      -1.077  -2.163  -1.128  1.00  0.00     0.145 C 
ENDROOT
BRANCH   1   7
HETATM    7  O2  UNL     1      -1.927  -0.210  -0.184  1.00  0.00    -0.352 OA
BRANCH   7   8
HETATM    8  C3  UNL     1      -2.954  -0.237   0.749  1.00  0.00     0.291 C 
HETATM    9  O1  UNL     1      -2.845   0.933   1.496  1.00  0.00    -0.352 OA
HETATM   10  C2  UNL     1      -3.789   1.883   1.182  1.00  0.00     0.151 C 
HETATM   11  C1  UNL     1      -3.420   3.140   1.979  1.00  0.00     0.042 C 
HETATM   12  C17 UNL     1      -5.134   1.394   1.713  1.00  0.00     0.214 C 
HETATM   13  C16 UNL     1      -5.337  -0.005   1.234  1.00  0.00     0.073 C 
HETATM   14  C15 UNL     1      -4.318  -0.323   0.150  1.00  0.00     0.240 C 
BRANCH  12  15
HETATM   15  N7  UNL     1      -6.195   2.283   1.302  1.00  0.00    -0.072 N 
ATOM     16  H73 UNL     1      -6.008   3.248   1.575  1.00  0.00     0.274 HD
ATOM     17  H72 UNL     1      -6.211   2.411   0.290  1.00  0.00     0.274 HD
ATOM     18  H71 UNL     1      -7.094   1.956   1.657  1.00  0.00     0.274 HD
ENDBRANCH  12  15
BRANCH  14  19
HETATM   19  N6  UNL     1      -4.644  -1.656  -0.330  1.00  0.00    -0.070 N 
ATOM     20  H63 UNL     1      -3.937  -1.990  -0.985  1.00  0.00     0.274 HD
ATOM     21  H62 UNL     1      -4.527  -2.348   0.410  1.00  0.00     0.274 HD
ATOM     22  H61 UNL     1      -5.576  -1.715  -0.739  1.00  0.00     0.274 HD
ENDBRANCH  14  19
ENDBRANCH   7   8
ENDBRANCH   1   7
BRANCH   6  23
HETATM   23  N3  UNL     1      -1.362  -1.474  -2.370  1.00  0.00    -0.245 N 
ATOM     24  H3  UNL     1      -1.169  -0.477  -2.466  1.00  0.00     0.197 HD
BRANCH  23  25
HETATM   25  N4  UNL     1      -1.842  -2.112  -3.310  1.00  0.00    -0.248 NA
BRANCH  25  26
HETATM   26  N5  UNL     1      -2.072  -2.900  -4.253  1.00  0.00    -0.261 N 
ATOM     27  H52 UNL     1      -1.157  -3.341  -4.154  1.00  0.00     0.193 HD
ATOM     28  H51 UNL     1      -2.469  -3.428  -5.030  1.00  0.00     0.193 HD
ENDBRANCH  25  26
ENDBRANCH  23  25
ENDBRANCH   6  23
BRANCH   3  29
HETATM   29  O3  UNL     1       2.545  -0.412  -0.384  1.00  0.00    -0.349 OA
BRANCH  29  30
HETATM   30  C7  UNL     1       3.144   0.711  -0.871  1.00  0.00     0.315 C 
HETATM   31  O4  UNL     1       3.209   1.765   0.005  1.00  0.00    -0.344 OA
HETATM   32  C8  UNL     1       4.342   1.774   0.819  1.00  0.00     0.205 C 
HETATM   33  C10 UNL     1       5.595   1.708  -0.014  1.00  0.00     0.290 C 
HETATM   34  O6  UNL     1       5.313   1.515  -1.353  1.00  0.00    -0.324 OA
HETATM   35  C11 UNL     1       4.388   0.555  -1.623  1.00  0.00     0.315 C 
BRANCH  32  36
HETATM   36  C9  UNL     1       4.246   0.716   1.858  1.00  0.00     0.266 C 
BRANCH  36  37
HETATM   37  N1  UNL     1       5.389   0.669   2.747  1.00  0.00    -0.077 N 
ATOM     38  H13 UNL     1       6.255   0.575   2.216  1.00  0.00     0.274 HD
ATOM     39  H12 UNL     1       5.550   1.581   3.175  1.00  0.00     0.274 HD
ATOM     40  H11 UNL     1       5.323  -0.057   3.460  1.00  0.00     0.274 HD
ENDBRANCH  36  37
ENDBRANCH  32  36
BRANCH  33  41
HETATM   41  O5  UNL     1       6.395   2.830   0.125  1.00  0.00    -0.368 OA
ATOM     42  H5  UNL     1       7.185   2.788  -0.400  1.00  0.00     0.212 HD
ENDBRANCH  33  41
BRANCH  35  43
HETATM   43  O7  UNL     1       5.046  -0.669  -1.396  1.00  0.00    -0.367 OA
ATOM     44  H7  UNL     1       5.854  -0.770  -1.885  1.00  0.00     0.212 HD
ENDBRANCH  35  43
ENDBRANCH  29  30
ENDBRANCH   3  29
BRANCH   4  45
HETATM   45  N2  UNL     1       1.675  -2.120  -2.812  1.00  0.00    -0.072 N 
ATOM     46  H23 UNL     1       0.985  -1.559  -3.311  1.00  0.00     0.274 HD
ATOM     47  H22 UNL     1       2.497  -1.563  -3.045  1.00  0.00     0.274 HD
ATOM     48  H21 UNL     1       1.734  -3.076  -3.162  1.00  0.00     0.274 HD
ENDBRANCH   4  45
TORSDOF 14
