REMARK  11 active torsions:
REMARK  status: ('A' for Active; 'I' for Inactive)
REMARK    1  A    between atoms: N3_6  and  C3_7 
REMARK    2  A    between atoms: C3_7  and  C4_8 
REMARK    3  A    between atoms: C4_8  and  O1_9 
REMARK    4  A    between atoms: C4_8  and  C5_11 
REMARK    5  A    between atoms: C5_11  and  O2_12 
REMARK    6  A    between atoms: C8_19  and  N5_20 
REMARK    7  A    between atoms: N5_20  and  N6_22 
REMARK    8  A    between atoms: C9_24  and  C10_25 
REMARK    9  A    between atoms: C13_28  and  N7_29 
REMARK   10  A    between atoms: N7_29  and  N8_31 
REMARK   11  A    between atoms: C14_38  and  N11_39 
REMARK       I    between atoms: N11_39  and  C15_40 
REMARK       I    between atoms: C15_40  and  N12_41 
REMARK       I    between atoms: C15_40  and  N13_45 
ROOT
HETATM    1  N1  UNL     1       3.090   5.498   0.077  1.00  0.00    -0.190 NA
HETATM    2  C1  UNL     1       3.314   4.348  -0.019  1.00  0.00     0.121 C 
HETATM    3  C2  UNL     1       3.600   2.944  -0.120  1.00  0.00     0.158 A 
HETATM    4  N2  UNL     1       4.767   2.351  -0.401  1.00  0.00    -0.286 N 
ATOM      5  H2  UNL     1       5.635   2.854  -0.586  1.00  0.00     0.188 HD
HETATM    6  N3  UNL     1       4.656   1.025  -0.410  1.00  0.00    -0.281 N 
HETATM    7  C6  UNL     1       3.368   0.764  -0.122  1.00  0.00     0.150 A 
HETATM    8  C7  UNL     1       2.666  -0.408   0.009  1.00  0.00     0.290 A 
HETATM    9  O3  UNL     1       3.275  -1.499  -0.158  1.00  0.00    -0.265 OA
HETATM   10  N4  UNL     1       1.346  -0.367   0.311  1.00  0.00    -0.153 N 
ATOM     11  H4  UNL     1       0.844  -1.250   0.403  1.00  0.00     0.187 HD
HETATM   12  C8  UNL     1       0.664   0.776   0.496  1.00  0.00     0.700 A 
HETATM   13  N14 UNL     1       1.348   1.927   0.369  1.00  0.00    -0.185 N 
ATOM     14  H14 UNL     1       0.861   2.813   0.503  1.00  0.00     0.184 HD
HETATM   15  C16 UNL     1       2.660   1.937   0.069  1.00  0.00     0.122 A 
ENDROOT
BRANCH   6  16
HETATM   16  C3  UNL     1       5.744   0.082  -0.684  1.00  0.00     0.183 C 
BRANCH  16  17
HETATM   17  C4  UNL     1       6.463  -0.316   0.564  1.00  0.00     0.161 C 
BRANCH  17  18
HETATM   18  O1  UNL     1       7.020   0.809   1.187  1.00  0.00    -0.392 OA
ATOM     19  H1  UNL     1       7.477   0.556   1.980  1.00  0.00     0.210 HD
ENDBRANCH  17  18
BRANCH  17  20
HETATM   20  C5  UNL     1       7.589  -1.249   0.169  1.00  0.00     0.197 C 
BRANCH  20  21
HETATM   21  O2  UNL     1       8.325  -1.667   1.258  1.00  0.00    -0.398 OA
ATOM     22  H2  UNL     1       9.031  -2.252   1.010  1.00  0.00     0.209 HD
ENDBRANCH  20  21
ENDBRANCH  17  20
ENDBRANCH  16  17
ENDBRANCH   6  16
BRANCH  12  23
HETATM   23  N5  UNL     1      -0.607   0.778   0.787  1.00  0.00    -0.132 N 
ATOM     24  H5  UNL     1      -1.062   1.682   0.914  1.00  0.00     0.205 HD
BRANCH  23  25
HETATM   25  N6  UNL     1      -1.349  -0.307   0.929  1.00  0.00    -0.297 N 
HETATM   26  C9  UNL     1      -2.529  -0.611   0.722  1.00  0.00     0.124 C 
ATOM     27  H6  UNL     1      -0.813  -1.090   1.303  1.00  0.00     0.186 HD
BRANCH  26  28
HETATM   28  C10 UNL     1      -3.620   0.199   0.198  1.00  0.00     0.039 A 
HETATM   29  C11 UNL     1      -3.457   1.509  -0.159  1.00  0.00     0.021 A 
HETATM   30  C12 UNL     1      -4.521   2.230  -0.649  1.00  0.00     0.051 A 
HETATM   31  C13 UNL     1      -5.734   1.595  -0.764  1.00  0.00     0.123 A 
HETATM   32  N10 UNL     1      -5.890   0.329  -0.417  1.00  0.00    -0.316 N 
HETATM   33  C14 UNL     1      -4.876  -0.469   0.083  1.00  0.00     0.190 A 
ATOM     34  H10 UNL     1      -6.816  -0.086  -0.525  1.00  0.00     0.170 HD
BRANCH  31  35
HETATM   35  N7  UNL     1      -6.806   2.403  -1.281  1.00  0.00    -0.271 N 
ATOM     36  H7  UNL     1      -6.637   3.102  -2.005  1.00  0.00     0.190 HD
BRANCH  35  37
HETATM   37  N8  UNL     1      -7.950   2.221  -0.815  1.00  0.00    -0.248 N 
HETATM   38  N9  UNL     1      -9.133   1.888  -0.862  1.00  0.00    -0.331 N 
ATOM     39  H92 UNL     1      -9.197   1.603  -1.839  1.00  0.00     0.178 HD
ATOM     40  H91 UNL     1     -10.068   1.739  -0.481  1.00  0.00     0.178 HD
ATOM     41  H8  UNL     1      -7.842   2.516   0.155  1.00  0.00     0.207 HD
ENDBRANCH  35  37
ENDBRANCH  31  35
BRANCH  33  42
HETATM   42  N11 UNL     1      -5.052  -1.609   0.386  1.00  0.00    -0.371 NA
HETATM   43  C15 UNL     1      -5.092  -2.869   0.760  1.00  0.00     0.556 C 
HETATM   44  N12 UNL     1      -4.553  -3.783  -0.281  1.00  0.00    -0.021 N 
HETATM   45  N13 UNL     1      -6.423  -3.424   1.104  1.00  0.00    -0.021 N 
ATOM     46 3H12 UNL     1      -5.030  -3.648  -1.173  1.00  0.00     0.280 HD
ATOM     47 2H12 UNL     1      -3.610  -3.511  -0.558  1.00  0.00     0.280 HD
ATOM     48 1H12 UNL     1      -4.584  -4.760   0.009  1.00  0.00     0.280 HD
ATOM     49 3H13 UNL     1      -6.861  -2.842   1.818  1.00  0.00     0.280 HD
ATOM     50 2H13 UNL     1      -7.065  -3.279   0.324  1.00  0.00     0.280 HD
ATOM     51 1H13 UNL     1      -6.454  -4.401   1.394  1.00  0.00     0.280 HD
ENDBRANCH  33  42
ENDBRANCH  26  28
ENDBRANCH  23  25
ENDBRANCH  12  23
TORSDOF 11
