REMARK  10 active torsions:
REMARK  status: ('A' for Active; 'I' for Inactive)
REMARK       I    between atoms: N1_1  and  C1_4 
REMARK       I    between atoms: C1_4  and  N2_5 
REMARK       I    between atoms: C1_4  and  N7_16 
REMARK    1  A    between atoms: N2_5  and  C2_7 
REMARK    2  A    between atoms: N7_16  and  C3_18 
REMARK    3  A    between atoms: C6_23  and  C7_24 
REMARK    4  A    between atoms: C7_24  and  N9_25 
REMARK    5  A    between atoms: C9_29  and  C10_30 
REMARK    6  A    between atoms: N12_34  and  C12_36 
REMARK    7  A    between atoms: C12_36  and  C13_37 
REMARK    8  A    between atoms: C13_37  and  O1_38 
REMARK    9  A    between atoms: C13_37  and  C14_40 
REMARK   10  A    between atoms: C14_40  and  O2_41 
ROOT
HETATM    1  C3  UNL     1       4.430  -0.541  -1.208  1.00  0.00     0.065 A 
HETATM    2  C4  UNL     1       4.649   0.657  -0.535  1.00  0.00     0.117 A 
HETATM    3  N8  UNL     1       3.866   1.721  -0.765  1.00  0.00    -0.372 N 
ATOM      4  H8  UNL     1       4.028   2.598  -0.271  1.00  0.00     0.164 HD
HETATM    5  C5  UNL     1       2.864   1.615  -1.657  1.00  0.00     0.096 A 
HETATM    6  C6  UNL     1       2.613   0.449  -2.344  1.00  0.00    -0.021 A 
HETATM    7  C15 UNL     1       3.407  -0.648  -2.118  1.00  0.00     0.041 A 
ENDROOT
BRANCH   6   8
HETATM    8  C7  UNL     1       1.497   0.375  -3.318  1.00  0.00     0.189 C 
BRANCH   8   9
HETATM    9  N9  UNL     1       0.261  -0.052  -2.685  1.00  0.00    -0.282 N 
HETATM   10  C8  UNL     1      -0.245  -1.268  -2.499  1.00  0.00     0.202 A 
HETATM   11  N10 UNL     1      -1.426  -1.144  -1.856  1.00  0.00    -0.333 N 
HETATM   12  C9  UNL     1      -1.654   0.156  -1.641  1.00  0.00     0.168 A 
ATOM     13  H10 UNL     1      -2.040  -1.911  -1.581  1.00  0.00     0.168 HD
HETATM   14  N14 UNL     1      -0.604   0.804  -2.159  1.00  0.00    -0.279 N 
ATOM     15  H14 UNL     1      -0.485   1.817  -2.150  1.00  0.00     0.189 HD
BRANCH  12  16
HETATM   16  C10 UNL     1      -2.798   0.766  -0.983  1.00  0.00     0.175 A 
HETATM   17  N11 UNL     1      -3.869   0.154  -0.451  1.00  0.00    -0.302 N 
HETATM   18  C11 UNL     1      -4.701   1.074   0.061  1.00  0.00     0.244 A 
ATOM     19  H11 UNL     1      -4.026  -0.854  -0.438  1.00  0.00     0.171 HD
HETATM   20  N12 UNL     1      -5.830   0.924   0.657  1.00  0.00    -0.352 N 
HETATM   21  O3  UNL     1      -4.140   2.236  -0.157  1.00  0.00    -0.199 OA
ATOM     22  H12 UNL     1      -6.346   1.737   0.992  1.00  0.00     0.163 HD
HETATM   23  N13 UNL     1      -3.006   2.075  -0.778  1.00  0.00    -0.238 N 
ATOM     24  H13 UNL     1      -2.376   2.825  -1.063  1.00  0.00     0.197 HD
BRANCH  20  25
HETATM   25  C12 UNL     1      -6.356  -0.392   0.846  1.00  0.00     0.157 C 
BRANCH  25  26
HETATM   26  C13 UNL     1      -7.844  -0.393   1.122  1.00  0.00     0.159 C 
BRANCH  26  27
HETATM   27  O1  UNL     1      -8.576   0.173   0.084  1.00  0.00    -0.392 OA
ATOM     28  H1  UNL     1      -9.510   0.172   0.257  1.00  0.00     0.210 HD
ENDBRANCH  26  27
BRANCH  26  29
HETATM   29  C14 UNL     1      -8.133   0.410   2.397  1.00  0.00     0.197 C 
BRANCH  29  30
HETATM   30  O2  UNL     1      -9.491   0.353   2.682  1.00  0.00    -0.398 OA
ATOM     31  H2  UNL     1      -9.670   0.850   3.471  1.00  0.00     0.209 HD
ENDBRANCH  29  30
ENDBRANCH  26  29
ENDBRANCH  25  26
ENDBRANCH  20  25
ENDBRANCH  12  16
ENDBRANCH   8   9
ENDBRANCH   6   8
BRANCH   1  32
HETATM   32  N7  UNL     1       5.299  -1.626  -0.913  1.00  0.00    -0.190 N 
HETATM   33  C1  UNL     1       6.351  -1.514   0.024  1.00  0.00     0.691 C 
HETATM   34  N1  UNL     1       7.492  -1.042  -0.357  1.00  0.00    -0.234 N 
HETATM   35  N2  UNL     1       6.155  -1.920   1.387  1.00  0.00    -0.020 N 
ATOM     36  H12 UNL     1       8.251  -0.961   0.319  1.00  0.00     0.174 HD
ATOM     37  H11 UNL     1       7.631  -0.754  -1.325  1.00  0.00     0.174 HD
ATOM     38  H2  UNL     1       5.587  -2.742   1.594  1.00  0.00     0.203 HD
ATOM     39  H7  UNL     1       5.159  -2.515  -1.393  1.00  0.00     0.184 HD
BRANCH  35  40
HETATM   40  C2  UNL     1       6.693  -1.252   2.353  1.00  0.00     0.728 A 
HETATM   41  N3  UNL     1       7.472  -0.148   2.281  1.00  0.00    -0.115 N 
HETATM   42  N4  UNL     1       7.781   0.170   3.531  1.00  0.00    -0.213 N 
ATOM     43  H3  UNL     1       7.763   0.342   1.435  1.00  0.00     0.207 HD
HETATM   44  N5  UNL     1       7.223  -0.693   4.343  1.00  0.00    -0.213 N 
ATOM     45  H4  UNL     1       8.360   0.960   3.815  1.00  0.00     0.210 HD
HETATM   46  N6  UNL     1       6.548  -1.578   3.648  1.00  0.00    -0.115 N 
ATOM     47  H5  UNL     1       7.301  -0.679   5.360  1.00  0.00     0.210 HD
ATOM     48  H6  UNL     1       6.015  -2.364   4.020  1.00  0.00     0.207 HD
ENDBRANCH  35  40
ENDBRANCH   1  32
TORSDOF 10
