REMARK  10 active torsions:
REMARK  status: ('A' for Active; 'I' for Inactive)
REMARK    1  A    between atoms: C1_2  and  O2_4 
REMARK    2  A    between atoms: O2_4  and  C2_5 
REMARK    3  A    between atoms: C2_5  and  C3_6 
REMARK       I    between atoms: C3_6  and  N2_8 
REMARK    4  A    between atoms: N2_8  and  C4_10 
REMARK    5  A    between atoms: C4_10  and  O4_11 
REMARK    6  A    between atoms: C4_10  and  C5_13 
REMARK       I    between atoms: C5_13  and  N3_15 
REMARK    7  A    between atoms: N3_15  and  C6_17 
REMARK    8  A    between atoms: N6_22  and  N7_23 
REMARK    9  A    between atoms: C7_26  and  N8_27 
REMARK       I    between atoms: C8_29  and  N10_31 
REMARK   10  A    between atoms: N10_31  and  O6_33 
ROOT
HETATM    1  C5  UNL     1       0.955  -0.407  -1.104  1.00  0.00     0.272 C 
HETATM    2  O5  UNL     1       0.158   0.344  -1.719  1.00  0.00    -0.268 OA
HETATM    3  N3  UNL     1       2.353  -0.062  -0.952  1.00  0.00    -0.305 N 
ATOM      4  H3  UNL     1       2.994  -0.667  -0.439  1.00  0.00     0.170 HD
ENDROOT
BRANCH   1   5
HETATM    5  C4  UNL     1       0.396  -1.667  -0.540  1.00  0.00     0.314 C 
BRANCH   5   6
HETATM    6  N2  UNL     1      -0.702  -1.336   0.346  1.00  0.00    -0.324 N 
HETATM    7  C3  UNL     1      -2.022  -1.747   0.140  1.00  0.00     0.264 C 
HETATM    8  O3  UNL     1      -2.234  -2.453  -0.909  1.00  0.00    -0.269 OA
ATOM      9  H2  UNL     1      -0.499  -0.769   1.169  1.00  0.00     0.165 HD
BRANCH   7  10
HETATM   10  C2  UNL     1      -3.195  -1.476   0.967  1.00  0.00     0.198 A 
HETATM   11  C9  UNL     1      -4.075  -2.664   1.126  1.00  0.00     0.027 A 
HETATM   12  C10 UNL     1      -5.233  -2.479   0.523  1.00  0.00     0.012 A 
HETATM   13  C11 UNL     1      -5.280  -1.158  -0.111  1.00  0.00    -0.026 A 
HETATM   14  C12 UNL     1      -6.225  -0.481  -0.848  1.00  0.00     0.012 A 
HETATM   15  C16 UNL     1      -4.078  -0.557   0.146  1.00  0.00     0.000 A 
HETATM   16  C13 UNL     1      -6.018   0.789  -1.345  1.00  0.00     0.001 A 
HETATM   17  C14 UNL     1      -4.793   1.351  -1.059  1.00  0.00     0.001 A 
HETATM   18  C15 UNL     1      -3.818   0.715  -0.329  1.00  0.00     0.012 A 
BRANCH  10  19
HETATM   19  O2  UNL     1      -2.975  -0.814   2.167  1.00  0.00    -0.276 OA
BRANCH  19  20
HETATM   20  C1  UNL     1      -2.227  -1.251   3.229  1.00  0.00     0.374 C 
HETATM   21  N1  UNL     1      -2.102  -0.429   4.382  1.00  0.00    -0.032 NA
HETATM   22  O1  UNL     1      -1.670  -2.380   3.143  1.00  0.00    -0.242 OA
ENDBRANCH  19  20
ENDBRANCH  10  19
ENDBRANCH   7  10
ENDBRANCH   5   6
BRANCH   5  23
HETATM   23  O4  UNL     1       1.381  -2.405   0.112  1.00  0.00    -0.368 OA
ATOM     24  H4  UNL     1       2.101  -2.622  -0.469  1.00  0.00     0.212 HD
ENDBRANCH   5  23
ENDBRANCH   1   5
BRANCH   3  25
HETATM   25  C6  UNL     1       2.792   1.132  -1.534  1.00  0.00     0.172 A 
HETATM   26  N4  UNL     1       2.053   1.990  -2.301  1.00  0.00    -0.266 N 
HETATM   27  N5  UNL     1       2.828   2.976  -2.703  1.00  0.00    -0.218 N 
ATOM     28  H4  UNL     1       1.064   1.884  -2.525  1.00  0.00     0.190 HD
HETATM   29  N6  UNL     1       4.057   2.831  -2.247  1.00  0.00    -0.168 N 
ATOM     30  H5  UNL     1       2.518   3.750  -3.290  1.00  0.00     0.210 HD
HETATM   31  C7  UNL     1       4.048   1.670  -1.505  1.00  0.00     0.194 A 
BRANCH  29  32
HETATM   32  N7  UNL     1       5.160   3.658  -2.451  1.00  0.00    -0.321 N 
ATOM     33  H72 UNL     1       5.167   4.517  -3.000  1.00  0.00     0.179 HD
ATOM     34  H71 UNL     1       6.110   3.546  -2.098  1.00  0.00     0.179 HD
ENDBRANCH  29  32
BRANCH  31  35
HETATM   35  N8  UNL     1       5.201   1.227  -0.823  1.00  0.00    -0.309 N 
HETATM   36  C8  UNL     1       5.334   1.017   0.427  1.00  0.00     0.213 C 
HETATM   37  N9  UNL     1       4.243   1.234   1.300  1.00  0.00    -0.061 NA
HETATM   38  N10 UNL     1       6.552   0.563   1.010  1.00  0.00    -0.241 N 
ATOM     39  H10 UNL     1       6.789   0.869   1.954  1.00  0.00     0.197 HD
ATOM     40  H8  UNL     1       6.025   1.054  -1.398  1.00  0.00     0.170 HD
BRANCH  38  41
HETATM   41  O6  UNL     1       7.405  -0.259   0.358  1.00  0.00    -0.287 OA
ATOM     42  H6  UNL     1       8.217  -0.562   0.747  1.00  0.00     0.244 HD
ENDBRANCH  38  41
ENDBRANCH  31  35
ENDBRANCH   3  25
TORSDOF 10
