REMARK  16 active torsions:
REMARK  status: ('A' for Active; 'I' for Inactive)
REMARK    1  A    between atoms: C2_2  and  C3_3 
REMARK    2  A    between atoms: C3_3  and  C4_4 
REMARK    3  A    between atoms: C5_7  and  C6_8 
REMARK    4  A    between atoms: C6_8  and  C7_9 
REMARK    5  A    between atoms: C7_9  and  N2_10 
REMARK    6  A    between atoms: C7_9  and  C25_38 
REMARK       I    between atoms: N2_10  and  C8_12 
REMARK    7  A    between atoms: C8_12  and  C9_14 
REMARK    8  A    between atoms: C9_14  and  N3_15 
REMARK       I    between atoms: N3_15  and  C10_17 
REMARK    9  A    between atoms: C10_17  and  C11_19 
REMARK   10  A    between atoms: C11_19  and  C12_20 
REMARK   11  A    between atoms: C12_20  and  N4_21 
REMARK   12  A    between atoms: N4_21  and  C13_24 
REMARK   13  A    between atoms: C13_24  and  C14_25 
REMARK   14  A    between atoms: C14_25  and  C15_26 
REMARK   15  A    between atoms: C15_26  and  N5_27 
REMARK   16  A    between atoms: C28_42  and  C29_43 
ROOT
HETATM    1  C9  UNL     1       0.453  -2.961   1.121  1.00  0.00     0.113 C 
HETATM    2  C20 UNL     1       0.948  -3.106  -0.270  1.00  0.00     0.041 C 
HETATM    3  C21 UNL     1       0.589  -4.357  -0.990  1.00  0.00     0.003 C 
HETATM    4  C22 UNL     1       0.724  -5.590  -0.122  1.00  0.00     0.000 C 
HETATM    5  C23 UNL     1      -0.221  -5.372   1.066  1.00  0.00     0.003 C 
HETATM    6  C24 UNL     1       0.320  -4.240   1.869  1.00  0.00     0.041 C 
ENDROOT
BRANCH   1   7
HETATM    7  C8  UNL     1      -0.775  -2.120   1.201  1.00  0.00     0.246 C 
HETATM    8  N2  UNL     1      -1.950  -2.438   0.520  1.00  0.00    -0.347 N 
ATOM      9  H2  UNL     1      -1.995  -3.273  -0.064  1.00  0.00     0.163 HD
HETATM   10  O1  UNL     1      -0.737  -1.073   1.920  1.00  0.00    -0.271 OA
BRANCH   8  11
HETATM   11  C7  UNL     1      -3.150  -1.542   0.652  1.00  0.00     0.159 C 
BRANCH  11  12
HETATM   12  C6  UNL     1      -3.406  -0.985  -0.698  1.00  0.00     0.089 C 
BRANCH  12  13
HETATM   13  C5  UNL     1      -4.550  -0.078  -0.779  1.00  0.00     0.012 A 
HETATM   14  N1  UNL     1      -4.469   1.236  -0.472  1.00  0.00    -0.361 N 
HETATM   15  C4  UNL     1      -5.531   2.051  -0.613  1.00  0.00     0.032 A 
ATOM     16  H1  UNL     1      -3.588   1.617  -0.127  1.00  0.00     0.165 HD
HETATM   17  C32 UNL     1      -6.742   1.609  -1.067  1.00  0.00     0.063 A 
HETATM   18  C28 UNL     1      -6.890   0.269  -1.399  1.00  0.00    -0.028 A 
HETATM   19 CL1  UNL     1      -8.079   2.680  -1.234  1.00  0.00    -0.082 Cl
HETATM   20  C27 UNL     1      -5.782  -0.532  -1.242  1.00  0.00     0.034 A 
BRANCH  15  21
HETATM   21  C3  UNL     1      -5.299   3.481  -0.239  1.00  0.00     0.058 C 
BRANCH  21  22
HETATM   22  C2  UNL     1      -5.158   4.272  -1.529  1.00  0.00     0.002 C 
HETATM   23  C1  UNL     1      -4.919   5.733  -1.253  1.00  0.00     0.005 C 
ENDBRANCH  21  22
ENDBRANCH  15  21
BRANCH  18  24
HETATM   24  C29 UNL     1      -8.142  -0.286  -1.894  1.00  0.00     0.020 A 
HETATM   25  C30 UNL     1      -8.219  -1.789  -2.071  1.00  0.00     0.010 A 
HETATM   26  C31 UNL     1      -9.114  -1.037  -1.078  1.00  0.00     0.010 A 
ENDBRANCH  18  24
ENDBRANCH  12  13
ENDBRANCH  11  12
BRANCH  11  27
HETATM   27  C25 UNL     1      -4.194  -2.380   1.202  1.00  0.00     0.145 C 
HETATM   28  C26 UNL     1      -5.484  -1.870   1.762  1.00  0.00     0.093 C 
HETATM   29  O4  UNL     1      -4.059  -3.600   1.242  1.00  0.00    -0.296 OA
ENDBRANCH  11  27
ENDBRANCH   8  11
ENDBRANCH   1   7
BRANCH   1  30
HETATM   30  N3  UNL     1       1.515  -2.212   1.845  1.00  0.00    -0.343 N 
HETATM   31  C10 UNL     1       1.989  -0.955   1.409  1.00  0.00     0.220 C 
HETATM   32  O2  UNL     1       1.527  -0.421   0.374  1.00  0.00    -0.274 OA
ATOM     33  H3  UNL     1       1.916  -2.622   2.688  1.00  0.00     0.163 HD
BRANCH  31  34
HETATM   34  C11 UNL     1       3.040  -0.202   2.132  1.00  0.00     0.130 C 
BRANCH  34  35
HETATM   35  C12 UNL     1       3.411   1.077   1.428  1.00  0.00     0.241 C 
BRANCH  35  36
HETATM   36  N4  UNL     1       4.417   1.818   2.122  1.00  0.00    -0.075 N 
ATOM     37  H42 UNL     1       4.487   2.762   1.742  1.00  0.00     0.277 HD
ATOM     38  H41 UNL     1       4.108   2.032   3.070  1.00  0.00     0.277 HD
BRANCH  36  39
HETATM   39  C13 UNL     1       5.717   1.192   2.149  1.00  0.00     0.234 C 
BRANCH  39  40
HETATM   40  C14 UNL     1       6.391   1.132   0.800  1.00  0.00     0.057 C 
BRANCH  40  41
HETATM   41  C15 UNL     1       6.609   2.502   0.238  1.00  0.00     0.274 C 
BRANCH  41  42
HETATM   42  N5  UNL     1       7.253   2.414  -1.046  1.00  0.00     0.092 N 
HETATM   43  C16 UNL     1       7.492   3.741  -1.602  1.00  0.00     0.298 C 
HETATM   44  C17 UNL     1       8.972   4.107  -1.537  1.00  0.00     0.198 C 
HETATM   45  O3  UNL     1       9.575   3.725  -0.357  1.00  0.00    -0.388 OA
HETATM   46  C18 UNL     1       9.486   2.384  -0.066  1.00  0.00     0.198 C 
HETATM   47  C19 UNL     1       8.510   1.727  -1.036  1.00  0.00     0.298 C 
ENDBRANCH  41  42
ENDBRANCH  40  41
ENDBRANCH  39  40
ENDBRANCH  36  39
ENDBRANCH  35  36
ENDBRANCH  34  35
ENDBRANCH  31  34
ENDBRANCH   1  30
TORSDOF 16
