REMARK  18 active torsions:
REMARK  status: ('A' for Active; 'I' for Inactive)
REMARK    1  A    between atoms: C2_2  and  C3_3 
REMARK    2  A    between atoms: C3_3  and  C4_4 
REMARK    3  A    between atoms: C6_6  and  C7_7 
REMARK    4  A    between atoms: C12_17  and  C13_18 
REMARK       I    between atoms: C13_18  and  N2_20 
REMARK    5  A    between atoms: N2_20  and  C14_22 
REMARK    6  A    between atoms: C14_22  and  C15_23 
REMARK    7  A    between atoms: C15_23  and  C16_24 
REMARK    8  A    between atoms: C16_24  and  C17_25 
REMARK    9  A    between atoms: C17_25  and  C18_26 
REMARK   10  A    between atoms: C18_26  and  C19_27 
REMARK   11  A    between atoms: C19_27  and  C20_28 
REMARK   12  A    between atoms: C20_28  and  C21_29 
REMARK   13  A    between atoms: C21_29  and  C22_30 
REMARK   14  A    between atoms: C22_30  and  C23_31 
REMARK   15  A    between atoms: C23_31  and  N3_32 
REMARK   16  A    between atoms: C25_38  and  C26_39 
REMARK   17  A    between atoms: C26_39  and  O5_40 
REMARK   18  A    between atoms: O5_40  and  C27_41 
ROOT
HETATM    1  C4  UNL     1      -2.956  -1.132  -1.442  1.00  0.00     0.124 C 
HETATM    2  C5  UNL     1      -3.045   0.299  -2.014  1.00  0.00     0.053 C 
HETATM    3  C6  UNL     1      -2.589   1.048  -0.780  1.00  0.00     0.089 C 
HETATM    4  C8  UNL     1      -1.099   1.245  -0.942  1.00  0.00     0.185 C 
HETATM    5  C9  UNL     1      -0.622   2.137  -1.992  1.00  0.00     0.240 C 
HETATM    6  O1  UNL     1      -0.597   2.231  -3.233  1.00  0.00    -0.285 OA
HETATM    7  C10 UNL     1      -0.115   2.997  -0.943  1.00  0.00     0.292 C 
HETATM    8  O2  UNL     1       0.413   4.113  -0.892  1.00  0.00    -0.264 OA
HETATM    9  N1  UNL     1      -0.468   2.028   0.066  1.00  0.00    -0.331 N 
HETATM   10  C11 UNL     1      -0.321   1.808   1.457  1.00  0.00     0.149 C 
HETATM   11  C12 UNL     1      -0.700   0.456   1.882  1.00  0.00     0.168 C 
HETATM   12  C24 UNL     1      -1.659  -0.265   1.066  1.00  0.00     0.179 C 
HETATM   13  O4  UNL     1      -1.420  -1.422   0.928  1.00  0.00    -0.293 OA
HETATM   14  C25 UNL     1      -2.931   0.156   0.337  1.00  0.00     0.159 C 
HETATM   15  O7  UNL     1      -3.456  -0.989  -0.170  1.00  0.00    -0.364 OA
ENDROOT
BRANCH  11  16
HETATM   16  C13 UNL     1       0.514  -0.362   2.142  1.00  0.00     0.230 C 
HETATM   17  O3  UNL     1       0.677  -0.982   3.251  1.00  0.00    -0.273 OA
HETATM   18  N2  UNL     1       1.551  -0.502   1.188  1.00  0.00    -0.360 N 
ATOM     19  H2  UNL     1       1.457  -0.020   0.294  1.00  0.00     0.162 HD
BRANCH  18  20
HETATM   20  C14 UNL     1       2.732  -1.293   1.421  1.00  0.00     0.122 C 
BRANCH  20  21
HETATM   21  C15 UNL     1       3.663  -1.244   0.243  1.00  0.00     0.020 C 
BRANCH  21  22
HETATM   22  C16 UNL     1       4.129   0.169  -0.045  1.00  0.00     0.002 C 
BRANCH  22  23
HETATM   23  C17 UNL     1       5.067   0.156  -1.237  1.00  0.00     0.000 C 
BRANCH  23  24
HETATM   24  C18 UNL     1       5.582   1.501  -1.587  1.00  0.00     0.000 C 
BRANCH  24  25
HETATM   25  C19 UNL     1       6.331   2.278  -0.590  1.00  0.00     0.000 C 
BRANCH  25  26
HETATM   26  C20 UNL     1       7.615   1.841  -0.043  1.00  0.00     0.000 C 
BRANCH  26  27
HETATM   27  C21 UNL     1       7.735   0.575   0.712  1.00  0.00     0.002 C 
BRANCH  27  28
HETATM   28  C22 UNL     1       9.207   0.466   1.207  1.00  0.00     0.027 C 
BRANCH  28  29
HETATM   29  C23 UNL     1       9.370  -0.817   1.979  1.00  0.00     0.229 C 
BRANCH  29  30
HETATM   30  N3  UNL     1       8.501  -0.871   3.127  1.00  0.00    -0.079 N 
ATOM     31  H33 UNL     1       8.632  -0.058   3.729  1.00  0.00     0.274 HD
ATOM     32  H32 UNL     1       7.528  -0.720   2.862  1.00  0.00     0.274 HD
ATOM     33  H31 UNL     1       8.611  -1.740   3.650  1.00  0.00     0.274 HD
ENDBRANCH  29  30
ENDBRANCH  28  29
ENDBRANCH  27  28
ENDBRANCH  26  27
ENDBRANCH  25  26
ENDBRANCH  24  25
ENDBRANCH  23  24
ENDBRANCH  22  23
ENDBRANCH  21  22
ENDBRANCH  20  21
ENDBRANCH  18  20
ENDBRANCH  11  16
BRANCH  14  34
HETATM   34  C26 UNL     1      -3.848   0.680   1.400  1.00  0.00     0.215 C 
BRANCH  34  35
HETATM   35  O5  UNL     1      -5.137   0.927   1.128  1.00  0.00    -0.380 OA
BRANCH  35  36
HETATM   36  C27 UNL     1      -5.995  -0.092   0.847  1.00  0.00     0.148 C 
HETATM   37  C28 UNL     1      -7.159  -0.111   1.875  1.00  0.00     0.136 C 
HETATM   38  C29 UNL     1      -8.228  -0.766   1.069  1.00  0.00     0.222 C 
HETATM   39  O6  UNL     1      -9.236  -1.358   1.529  1.00  0.00    -0.273 OA
HETATM   40  N4  UNL     1      -7.949  -0.628  -0.311  1.00  0.00    -0.354 N 
HETATM   41  C30 UNL     1      -8.623  -1.188  -1.462  1.00  0.00     0.152 C 
HETATM   42  C31 UNL     1      -6.788   0.230  -0.398  1.00  0.00     0.157 C 
ENDBRANCH  35  36
ENDBRANCH  34  35
ENDBRANCH  14  34
BRANCH   3  43
HETATM   43  C7  UNL     1      -3.350   2.321  -0.764  1.00  0.00     0.367 C 
HETATM   44  F1  UNL     1      -3.054   3.035  -1.952  1.00  0.00    -0.213 F 
HETATM   45  F2  UNL     1      -3.040   3.199   0.250  1.00  0.00    -0.213 F 
ENDBRANCH   3  43
BRANCH   1  46
HETATM   46  C3  UNL     1      -3.724  -2.087  -2.281  1.00  0.00     0.032 C 
BRANCH  46  47
HETATM   47  C2  UNL     1      -3.629  -3.477  -1.729  1.00  0.00    -0.002 C 
HETATM   48  C1  UNL     1      -4.177  -3.655  -0.345  1.00  0.00     0.005 C 
ENDBRANCH  46  47
ENDBRANCH   1  46
TORSDOF 18
