REMARK  15 active torsions:
REMARK  status: ('A' for Active; 'I' for Inactive)
REMARK    1  A    between atoms: C2_2  and  C3_3 
REMARK    2  A    between atoms: C3_3  and  C4_4 
REMARK    3  A    between atoms: C4_4  and  C5_5 
REMARK    4  A    between atoms: C6_6  and  O1_7 
REMARK    5  A    between atoms: O1_7  and  C7_8 
REMARK    6  A    between atoms: C7_8  and  C8_9 
REMARK    7  A    between atoms: C8_9  and  C9_10 
REMARK    8  A    between atoms: C9_10  and  O2_11 
REMARK    9  A    between atoms: O2_11  and  C10_12 
REMARK   10  A    between atoms: C10_12  and  C11_13 
REMARK   11  A    between atoms: C11_13  and  O3_14 
REMARK   12  A    between atoms: O3_14  and  C12_15 
REMARK   13  A    between atoms: C12_15  and  C13_16 
REMARK   14  A    between atoms: N2_24  and  C19_25 
REMARK   15  A    between atoms: C22_31  and  N4_32 
ROOT
HETATM    1  O1  UNL     1      -3.091  -0.875   2.231  1.00  0.00    -0.335 OA
ENDROOT
BRANCH   1   2
HETATM    2  C6  UNL     1      -3.684   0.136   1.503  1.00  0.00     0.169 A 
HETATM    3  C5  UNL     1      -4.177   1.232   2.170  1.00  0.00     0.062 A 
HETATM    4  C27 UNL     1      -4.763   2.227   1.370  1.00  0.00     0.270 A 
HETATM    5  N5  UNL     1      -4.821   2.082   0.039  1.00  0.00    -0.155 N 
HETATM    6  O6  UNL     1      -5.222   3.245   1.964  1.00  0.00    -0.267 OA
HETATM    7  C22 UNL     1      -4.340   1.012  -0.609  1.00  0.00     0.692 A 
ATOM      8  H5  UNL     1      -5.254   2.825  -0.510  1.00  0.00     0.187 HD
HETATM    9  N3  UNL     1      -3.780   0.057   0.141  1.00  0.00    -0.169 N 
ATOM     10  H3  UNL     1      -3.407  -0.770  -0.325  1.00  0.00     0.186 HD
BRANCH   3  11
HETATM   11  C4  UNL     1      -4.164   1.433   3.632  1.00  0.00     0.049 C 
BRANCH  11  12
HETATM   12  C3  UNL     1      -5.244   0.798   4.408  1.00  0.00     0.004 C 
BRANCH  12  13
HETATM   13  C2  UNL     1      -5.387  -0.679   4.353  1.00  0.00    -0.004 C 
HETATM   14  C1  UNL     1      -6.576  -1.141   5.236  1.00  0.00     0.005 C 
ENDBRANCH  12  13
ENDBRANCH  11  12
ENDBRANCH   3  11
BRANCH   7  15
HETATM   15  N4  UNL     1      -4.390   0.874  -2.048  1.00  0.00    -0.140 N 
HETATM   16  C23 UNL     1      -4.012   1.994  -2.888  1.00  0.00     0.225 C 
HETATM   17  S1  UNL     1      -5.027   1.708  -4.366  1.00  0.00    -0.134 SA
HETATM   18  C24 UNL     1      -5.674   0.048  -3.917  1.00  0.00     0.138 C 
HETATM   19  C25 UNL     1      -5.528  -0.917  -5.074  1.00  0.00     0.031 C 
HETATM   20  C26 UNL     1      -4.768  -0.266  -2.787  1.00  0.00     0.252 C 
HETATM   21  O5  UNL     1      -4.345  -1.423  -2.467  1.00  0.00    -0.271 OA
ENDBRANCH   7  15
ENDBRANCH   1   2
BRANCH   1  22
HETATM   22  C7  UNL     1      -2.551  -2.051   1.707  1.00  0.00     0.179 C 
BRANCH  22  23
HETATM   23  C8  UNL     1      -1.452  -1.886   0.706  1.00  0.00     0.053 C 
BRANCH  23  24
HETATM   24  C9  UNL     1      -0.289  -1.145   1.312  1.00  0.00     0.169 C 
BRANCH  24  25
HETATM   25  O2  UNL     1       0.746  -0.992   0.420  1.00  0.00    -0.389 OA
BRANCH  25  26
HETATM   26  C10 UNL     1       0.368  -0.224  -0.657  1.00  0.00     0.193 C 
BRANCH  26  27
HETATM   27  C11 UNL     1       1.606  -0.169  -1.571  1.00  0.00     0.194 C 
BRANCH  27  28
HETATM   28  O3  UNL     1       1.881  -1.472  -1.919  1.00  0.00    -0.383 OA
BRANCH  28  29
HETATM   29  C12 UNL     1       2.970  -1.558  -2.739  1.00  0.00     0.224 C 
BRANCH  29  30
HETATM   30  C13 UNL     1       4.202  -1.118  -2.061  1.00  0.00     0.034 A 
HETATM   31  C14 UNL     1       5.399  -0.740  -2.679  1.00  0.00     0.046 A 
HETATM   32  C15 UNL     1       6.314  -0.439  -1.693  1.00  0.00     0.056 A 
HETATM   33  C16 UNL     1       5.690  -0.625  -0.487  1.00  0.00     0.026 A 
HETATM   34  C21 UNL     1       7.736  -0.051  -1.727  1.00  0.00     0.255 C 
HETATM   35  N1  UNL     1       4.410  -1.038  -0.748  1.00  0.00    -0.360 N 
HETATM   36  C17 UNL     1       6.415  -0.345   0.769  1.00  0.00     0.078 C 
ATOM     37  H1  UNL     1       3.713  -1.254  -0.035  1.00  0.00     0.165 HD
HETATM   38  C18 UNL     1       7.889  -0.560   0.642  1.00  0.00     0.132 C 
HETATM   39  N2  UNL     1       8.441   0.118  -0.504  1.00  0.00    -0.348 N 
HETATM   40  O4  UNL     1       8.274   0.116  -2.832  1.00  0.00    -0.267 OA
BRANCH  39  41
HETATM   41  C19 UNL     1       9.643   0.899  -0.436  1.00  0.00     0.121 C 
HETATM   42  C20 UNL     1       9.449   2.347  -0.134  1.00  0.00     0.026 C 
ENDBRANCH  39  41
ENDBRANCH  29  30
ENDBRANCH  28  29
ENDBRANCH  27  28
ENDBRANCH  26  27
ENDBRANCH  25  26
ENDBRANCH  24  25
ENDBRANCH  23  24
ENDBRANCH  22  23
ENDBRANCH   1  22
TORSDOF 15
