REMARK  17 active torsions:
REMARK  status: ('A' for Active; 'I' for Inactive)
REMARK    1  A    between atoms: C2_2  and  C3_3 
REMARK    2  A    between atoms: C3_3  and  N1_4 
REMARK       I    between atoms: N1_4  and  C4_5 
REMARK    3  A    between atoms: N1_4  and  C10_15 
REMARK    4  A    between atoms: C4_5  and  O2_7 
REMARK    5  A    between atoms: O2_7  and  C5_8 
REMARK    6  A    between atoms: C5_8  and  C6_9 
REMARK    7  A    between atoms: C8_11  and  C9_12 
REMARK    8  A    between atoms: C9_12  and  O3_13 
REMARK    9  A    between atoms: C13_18  and  C14_19 
REMARK       I    between atoms: C14_19  and  N2_21 
REMARK   10  A    between atoms: N2_21  and  C15_22 
REMARK   11  A    between atoms: N2_21  and  C17_24 
REMARK   12  A    between atoms: C17_24  and  C18_25 
REMARK   13  A    between atoms: C18_25  and  C19_26 
REMARK   14  A    between atoms: C19_26  and  C20_27 
REMARK   15  A    between atoms: C20_27  and  C21_28 
REMARK   16  A    between atoms: C21_28  and  C22_29 
REMARK   17  A    between atoms: C22_29  and  N3_30 
ROOT
HETATM    1  C10 UNL     1       3.939  -1.069  -0.208  1.00  0.00     0.115 C 
HETATM    2  C11 UNL     1       3.152  -0.900   1.040  1.00  0.00     0.029 C 
HETATM    3  C12 UNL     1       1.843  -0.233   0.991  1.00  0.00     0.045 C 
HETATM    4  C13 UNL     1       1.065  -0.276  -0.266  1.00  0.00     0.277 C 
HETATM    5  N4  UNL     1       1.748  -1.202  -1.194  1.00  0.00    -0.060 N 
ATOM      6  H41 UNL     1       1.228  -1.348  -2.059  1.00  0.00     0.278 HD
ATOM      7  H42 UNL     1       1.740  -2.168  -0.865  1.00  0.00     0.278 HD
HETATM    8  C31 UNL     1       3.106  -0.692  -1.426  1.00  0.00     0.258 C 
ENDROOT
BRANCH   4   9
HETATM    9  C14 UNL     1      -0.347  -0.724  -0.089  1.00  0.00     0.251 C 
HETATM   10  O4  UNL     1      -0.563  -1.886  -0.502  1.00  0.00    -0.271 OA
HETATM   11  N2  UNL     1      -1.406   0.007   0.466  1.00  0.00    -0.341 N 
BRANCH  11  12
HETATM   12  C15 UNL     1      -1.160   1.348   0.957  1.00  0.00     0.122 C 
HETATM   13  C16 UNL     1      -0.820   1.463   2.402  1.00  0.00     0.026 C 
ENDBRANCH  11  12
BRANCH  11  14
HETATM   14  C17 UNL     1      -2.753  -0.603   0.509  1.00  0.00     0.035 C 
HETATM   15  C27 UNL     1      -3.151  -1.061  -0.844  1.00  0.00     0.031 C 
HETATM   16  C28 UNL     1      -3.487  -2.532  -0.812  1.00  0.00     0.002 C 
HETATM   17  C29 UNL     1      -3.227  -2.974   0.579  1.00  0.00     0.002 C 
HETATM   18  C30 UNL     1      -2.601  -1.875   1.360  1.00  0.00     0.031 C 
BRANCH  14  19
HETATM   19  C18 UNL     1      -3.660   0.283   1.262  1.00  0.00     0.031 C 
BRANCH  19  20
HETATM   20  C19 UNL     1      -5.054  -0.018   1.539  1.00  0.00     0.002 C 
BRANCH  20  21
HETATM   21  C20 UNL     1      -6.052  -0.091   0.446  1.00  0.00     0.002 C 
BRANCH  21  22
HETATM   22  C21 UNL     1      -6.168   1.255  -0.300  1.00  0.00     0.019 C 
BRANCH  22  23
HETATM   23  C22 UNL     1      -7.217   0.999  -1.382  1.00  0.00     0.117 C 
BRANCH  23  24
HETATM   24  N3  UNL     1      -8.422   0.618  -0.711  1.00  0.00    -0.408 N 
HETATM   25  C23 UNL     1      -8.988   1.695   0.022  1.00  0.00     0.143 C 
HETATM   26  C24 UNL     1     -10.436   1.964  -0.211  1.00  0.00     0.187 C 
HETATM   27  O5  UNL     1     -11.184   0.867  -0.568  1.00  0.00    -0.388 OA
HETATM   28  C25 UNL     1     -10.637   0.401  -1.786  1.00  0.00     0.187 C 
HETATM   29  C26 UNL     1      -9.313  -0.203  -1.454  1.00  0.00     0.143 C 
ENDBRANCH  23  24
ENDBRANCH  22  23
ENDBRANCH  21  22
ENDBRANCH  20  21
ENDBRANCH  19  20
ENDBRANCH  14  19
ENDBRANCH  11  14
ENDBRANCH   4   9
BRANCH   1  30
HETATM   30  N1  UNL     1       5.274  -0.548  -0.196  1.00  0.00    -0.322 N 
HETATM   31  C4  UNL     1       6.340  -1.481  -0.329  1.00  0.00     0.363 C 
HETATM   32  O1  UNL     1       6.135  -2.722  -0.495  1.00  0.00    -0.238 OA
BRANCH  30  33
HETATM   33  C3  UNL     1       5.587   0.847  -0.018  1.00  0.00     0.128 C 
BRANCH  33  34
HETATM   34  C2  UNL     1       5.777   1.585  -1.294  1.00  0.00     0.015 C 
HETATM   35  C1  UNL     1       6.106   3.063  -1.031  1.00  0.00     0.006 C 
ENDBRANCH  33  34
ENDBRANCH  30  33
BRANCH  31  36
HETATM   36  O2  UNL     1       7.659  -1.065  -0.282  1.00  0.00    -0.304 OA
BRANCH  36  37
HETATM   37  C5  UNL     1       8.684  -2.014  -0.427  1.00  0.00     0.185 C 
BRANCH  37  38
HETATM   38  C6  UNL     1      10.073  -1.532  -0.375  1.00  0.00     0.016 A 
HETATM   39  C7  UNL     1      10.550  -0.496  -1.379  1.00  0.00     0.014 A 
HETATM   40  C8  UNL     1      10.605  -0.286   0.137  1.00  0.00     0.016 A 
BRANCH  40  41
HETATM   41  C9  UNL     1       9.796   0.835   0.675  1.00  0.00     0.169 C 
BRANCH  41  42
HETATM   42  O3  UNL     1       9.029   0.454   1.792  1.00  0.00    -0.400 OA
ATOM     43  H3  UNL     1       8.511   1.172   2.137  1.00  0.00     0.209 HD
ENDBRANCH  41  42
ENDBRANCH  40  41
ENDBRANCH  37  38
ENDBRANCH  36  37
ENDBRANCH  31  36
ENDBRANCH   1  30
TORSDOF 17
