REMARK  18 active torsions:
REMARK  status: ('A' for Active; 'I' for Inactive)
REMARK    1  A    between atoms: C2_2  and  C3_3 
REMARK    2  A    between atoms: C11_14  and  C12_15 
REMARK    3  A    between atoms: C12_15  and  C13_16 
REMARK    4  A    between atoms: C13_16  and  C14_17 
REMARK    5  A    between atoms: C14_17  and  C15_18 
REMARK    6  A    between atoms: C15_18  and  C16_19 
REMARK    7  A    between atoms: C16_19  and  C17_20 
REMARK       I    between atoms: C17_20  and  N1_22 
REMARK    8  A    between atoms: N1_22  and  C18_24 
REMARK    9  A    between atoms: C18_24  and  C19_25 
REMARK   10  A    between atoms: C19_25  and  N2_26 
REMARK   11  A    between atoms: N2_26  and  C21_28 
REMARK   12  A    between atoms: C21_28  and  C22_29 
REMARK   13  A    between atoms: C22_29  and  N3_30 
REMARK       I    between atoms: N3_30  and  C23_32 
REMARK   14  A    between atoms: C23_32  and  O6_34 
REMARK   15  A    between atoms: O6_34  and  C24_35 
REMARK   16  A    between atoms: C24_35  and  C25_36 
REMARK   17  A    between atoms: C26_37  and  C27_38 
REMARK   18  A    between atoms: C27_38  and  S1_39 
ROOT
HETATM    1  C17 UNL     1       0.330  -0.551   0.282  1.00  0.00     0.217 C 
HETATM    2  O4  UNL     1       0.314  -1.514  -0.517  1.00  0.00    -0.274 OA
HETATM    3  N1  UNL     1       1.458   0.306   0.322  1.00  0.00    -0.359 N 
ATOM      4  H1  UNL     1       1.413   1.079   0.985  1.00  0.00     0.162 HD
ENDROOT
BRANCH   1   5
HETATM    5  C16 UNL     1      -0.821  -0.330   1.162  1.00  0.00     0.103 C 
BRANCH   5   6
HETATM    6  C15 UNL     1      -1.995  -1.249   0.902  1.00  0.00     0.009 C 
BRANCH   6   7
HETATM    7  C14 UNL     1      -3.035  -0.878   1.925  1.00  0.00     0.000 C 
BRANCH   7   8
HETATM    8  C13 UNL     1      -4.308  -1.599   1.896  1.00  0.00     0.000 C 
BRANCH   8   9
HETATM    9  C12 UNL     1      -5.138  -1.482   0.673  1.00  0.00     0.008 C 
BRANCH   9  10
HETATM   10  C11 UNL     1      -5.549  -0.064   0.354  1.00  0.00     0.024 C 
HETATM   11  C10 UNL     1      -6.401   0.031  -0.881  1.00  0.00     0.159 C 
HETATM   12  C6  UNL     1      -7.793   0.417  -0.425  1.00  0.00     0.161 C 
HETATM   13  O3  UNL     1      -6.633  -1.169  -1.509  1.00  0.00    -0.348 OA
HETATM   14  C5  UNL     1      -7.806   0.357   1.082  1.00  0.00     0.048 C 
HETATM   15  O2  UNL     1      -8.640  -0.503  -1.005  1.00  0.00    -0.348 OA
HETATM   16  C4  UNL     1      -8.436   1.599   1.641  1.00  0.00     0.176 C 
HETATM   17  C29 UNL     1      -6.346   0.598   1.406  1.00  0.00     0.034 C 
HETATM   18  O1  UNL     1      -7.459   2.565   1.806  1.00  0.00    -0.381 OA
HETATM   19  C3  UNL     1      -6.301   2.108   1.215  1.00  0.00     0.148 C 
HETATM   20  C7  UNL     1      -7.894  -0.952  -2.090  1.00  0.00     0.158 C 
HETATM   21  C8  UNL     1      -8.444  -2.244  -2.644  1.00  0.00     0.078 C 
HETATM   22  C9  UNL     1      -7.844   0.059  -3.206  1.00  0.00     0.078 C 
BRANCH  19  23
HETATM   23  C2  UNL     1      -5.063   2.733   1.670  1.00  0.00    -0.005 C 
HETATM   24  C1  UNL     1      -5.011   3.357   2.829  1.00  0.00     0.009 C 
ENDBRANCH  19  23
ENDBRANCH   9  10
ENDBRANCH   8   9
ENDBRANCH   7   8
ENDBRANCH   6   7
ENDBRANCH   5   6
ENDBRANCH   1   5
BRANCH   3  25
HETATM   25  C18 UNL     1       2.641   0.213  -0.453  1.00  0.00     0.152 C 
BRANCH  25  26
HETATM   26  C19 UNL     1       3.435  -1.063  -0.252  1.00  0.00     0.291 C 
BRANCH  26  27
HETATM   27  N2  UNL     1       4.621  -1.033  -1.049  1.00  0.00     0.087 N 
HETATM   28  C20 UNL     1       4.325  -1.126  -2.446  1.00  0.00     0.310 C 
BRANCH  27  29
HETATM   29  C21 UNL     1       5.671  -1.919  -0.685  1.00  0.00     0.291 C 
BRANCH  29  30
HETATM   30  C22 UNL     1       6.240  -1.483   0.658  1.00  0.00     0.155 C 
BRANCH  30  31
HETATM   31  N3  UNL     1       6.709  -0.132   0.602  1.00  0.00    -0.335 N 
HETATM   32  C23 UNL     1       7.745   0.266  -0.261  1.00  0.00     0.361 C 
HETATM   33  O5  UNL     1       8.314  -0.555  -1.018  1.00  0.00    -0.238 OA
ATOM     34  H3  UNL     1       6.277   0.565   1.208  1.00  0.00     0.164 HD
BRANCH  32  35
HETATM   35  O6  UNL     1       8.143   1.612  -0.271  1.00  0.00    -0.292 OA
BRANCH  35  36
HETATM   36  C24 UNL     1       9.192   1.962  -1.153  1.00  0.00     0.274 C 
BRANCH  36  37
HETATM   37  C25 UNL     1      10.360   1.160  -0.720  1.00  0.00    -0.079 C 
HETATM   38  C26 UNL     1      11.298   0.505  -0.346  1.00  0.00    -0.094 C 
BRANCH  38  39
HETATM   39  C27 UNL     1      12.424  -0.293   0.134  1.00  0.00     0.167 C 
BRANCH  39  40
HETATM   40  S1  UNL     1      13.124   0.459   1.621  1.00  0.00    -0.161 SA
HETATM   41  C28 UNL     1      13.868   2.045   1.197  1.00  0.00     0.090 C 
ENDBRANCH  39  40
ENDBRANCH  38  39
ENDBRANCH  36  37
ENDBRANCH  35  36
ENDBRANCH  32  35
ENDBRANCH  30  31
ENDBRANCH  29  30
ENDBRANCH  27  29
ENDBRANCH  26  27
ENDBRANCH  25  26
ENDBRANCH   3  25
TORSDOF 18
