REMARK  15 active torsions:
REMARK  status: ('A' for Active; 'I' for Inactive)
REMARK    1  A    between atoms: O1_2  and  C2_3 
REMARK    2  A    between atoms: C2_3  and  C5_6 
REMARK       I    between atoms: C5_6  and  N1_8 
REMARK    3  A    between atoms: N1_8  and  C6_10 
REMARK    4  A    between atoms: C6_10  and  C7_11 
REMARK    5  A    between atoms: C6_10  and  C14_19 
REMARK    6  A    between atoms: C7_11  and  O3_12 
REMARK    7  A    between atoms: O3_12  and  C8_13 
REMARK       I    between atoms: C14_19  and  N2_21 
REMARK    8  A    between atoms: N2_21  and  C15_23 
REMARK    9  A    between atoms: C15_23  and  C16_24 
REMARK   10  A    between atoms: C15_23  and  C28_42 
REMARK       I    between atoms: C16_24  and  N3_26 
REMARK   11  A    between atoms: C20_30  and  C21_31 
REMARK       I    between atoms: C21_31  and  N4_33 
REMARK   12  A    between atoms: N4_33  and  C22_35 
REMARK   13  A    between atoms: C22_35  and  C23_36 
REMARK   14  A    between atoms: C22_35  and  C24_38 
REMARK   15  A    between atoms: C24_38  and  C25_39 
ROOT
HETATM    1  C14 UNL     1      -2.109  -0.561  -1.278  1.00  0.00     0.243 C 
HETATM    2  O4  UNL     1      -1.577  -1.452  -2.009  1.00  0.00    -0.271 OA
HETATM    3  N2  UNL     1      -1.328   0.528  -0.937  1.00  0.00    -0.346 N 
ATOM      4  H2  UNL     1      -1.732   1.255  -0.346  1.00  0.00     0.163 HD
ENDROOT
BRANCH   3   5
HETATM    5  C15 UNL     1       0.074   0.681  -1.397  1.00  0.00     0.180 C 
BRANCH   5   6
HETATM    6  C16 UNL     1       0.882   0.123  -0.297  1.00  0.00     0.243 C 
HETATM    7  O5  UNL     1       0.409   0.116   0.868  1.00  0.00    -0.271 OA
HETATM    8  N3  UNL     1       2.179  -0.418  -0.484  1.00  0.00    -0.337 N 
HETATM    9  C17 UNL     1       2.994  -0.563  -1.680  1.00  0.00     0.127 C 
HETATM   10  C20 UNL     1       3.012  -0.996   0.566  1.00  0.00     0.179 C 
HETATM   11  C18 UNL     1       3.732  -1.863  -1.517  1.00  0.00     0.022 C 
HETATM   12  C19 UNL     1       3.567  -2.224  -0.061  1.00  0.00     0.037 C 
BRANCH  10  13
HETATM   13  C21 UNL     1       4.052  -0.032   1.049  1.00  0.00     0.241 C 
HETATM   14  O6  UNL     1       4.049   1.095   0.531  1.00  0.00    -0.271 OA
HETATM   15  N4  UNL     1       4.980  -0.390   2.038  1.00  0.00    -0.348 N 
ATOM     16  H4  UNL     1       4.895  -1.337   2.406  1.00  0.00     0.163 HD
BRANCH  15  17
HETATM   17  C22 UNL     1       6.019   0.395   2.590  1.00  0.00     0.146 C 
BRANCH  17  18
HETATM   18  C23 UNL     1       5.682   0.894   3.947  1.00  0.00     0.256 C 
HETATM   19  O7  UNL     1       4.601   0.576   4.412  1.00  0.00    -0.305 OA
ENDBRANCH  17  18
BRANCH  17  20
HETATM   20  C24 UNL     1       6.579   1.488   1.693  1.00  0.00     0.036 C 
BRANCH  20  21
HETATM   21  C25 UNL     1       7.211   0.908   0.457  1.00  0.00    -0.020 C 
HETATM   22  C26 UNL     1       7.745   2.046  -0.416  1.00  0.00     0.009 C 
HETATM   23  C27 UNL     1       8.393   0.016   0.862  1.00  0.00     0.009 C 
ENDBRANCH  20  21
ENDBRANCH  17  20
ENDBRANCH  15  17
ENDBRANCH  10  13
ENDBRANCH   5   6
BRANCH   5  24
HETATM   24  C28 UNL     1       0.328   2.104  -1.732  1.00  0.00     0.009 C 
HETATM   25  C29 UNL     1      -0.648   2.542  -2.842  1.00  0.00     0.012 C 
HETATM   26  C30 UNL     1       1.690   2.460  -2.235  1.00  0.00     0.012 C 
ENDBRANCH   5  24
ENDBRANCH   3   5
BRANCH   1  27
HETATM   27  C6  UNL     1      -3.505  -0.804  -0.878  1.00  0.00     0.200 C 
BRANCH  27  28
HETATM   28  N1  UNL     1      -3.775  -2.260  -0.880  1.00  0.00    -0.343 N 
HETATM   29  C5  UNL     1      -4.740  -2.775  -1.749  1.00  0.00     0.252 C 
HETATM   30  O2  UNL     1      -5.359  -2.018  -2.527  1.00  0.00    -0.270 OA
ATOM     31  H1  UNL     1      -3.262  -2.880  -0.254  1.00  0.00     0.163 HD
BRANCH  29  32
HETATM   32  C2  UNL     1      -5.072  -4.232  -1.793  1.00  0.00     0.133 C 
HETATM   33  C3  UNL     1      -4.434  -4.681  -3.137  1.00  0.00     0.056 C 
HETATM   34  C4  UNL     1      -6.550  -4.455  -1.906  1.00  0.00     0.056 C 
BRANCH  32  35
HETATM   35  O1  UNL     1      -4.474  -4.907  -0.755  1.00  0.00    -0.376 OA
HETATM   36  C1  UNL     1      -5.074  -4.656   0.451  1.00  0.00     0.203 C 
ENDBRANCH  32  35
ENDBRANCH  29  32
ENDBRANCH  27  28
BRANCH  27  37
HETATM   37  C7  UNL     1      -3.860  -0.335   0.488  1.00  0.00     0.202 C 
BRANCH  37  38
HETATM   38  O3  UNL     1      -3.756   1.006   0.723  1.00  0.00    -0.383 OA
BRANCH  38  39
HETATM   39  C8  UNL     1      -4.117   1.375   2.015  1.00  0.00     0.121 C 
HETATM   40  C9  UNL     1      -3.031   2.168   2.664  1.00  0.00     0.032 C 
HETATM   41  C10 UNL     1      -3.273   3.629   2.770  1.00  0.00     0.002 C 
HETATM   42  C11 UNL     1      -4.196   4.268   1.822  1.00  0.00     0.000 C 
HETATM   43  C12 UNL     1      -5.014   3.338   0.962  1.00  0.00     0.002 C 
HETATM   44  C13 UNL     1      -5.403   2.184   1.864  1.00  0.00     0.032 C 
ENDBRANCH  38  39
ENDBRANCH  37  38
ENDBRANCH  27  37
ENDBRANCH   1  27
TORSDOF 15
