REMARK  15 active torsions:
REMARK  status: ('A' for Active; 'I' for Inactive)
REMARK    1  A    between atoms: C2_2  and  C4_4 
REMARK    2  A    between atoms: C4_4  and  C5_5 
REMARK    3  A    between atoms: C5_5  and  C6_7 
REMARK    4  A    between atoms: C6_7  and  C7_8 
REMARK    5  A    between atoms: C6_7  and  N1_15 
REMARK    6  A    between atoms: C7_8  and  C8_9 
REMARK       I    between atoms: N1_15  and  C14_17 
REMARK    7  A    between atoms: C14_17  and  C15_19 
REMARK    8  A    between atoms: C15_19  and  C16_20 
REMARK    9  A    between atoms: C15_19  and  N2_22 
REMARK       I    between atoms: N2_22  and  C17_24 
REMARK   10  A    between atoms: C17_24  and  C18_26 
REMARK   11  A    between atoms: C18_26  and  N3_28 
REMARK       I    between atoms: N3_28  and  C20_30 
REMARK   12  A    between atoms: C20_30  and  C21_32 
REMARK   13  A    between atoms: C21_32  and  O6_33 
REMARK   14  A    between atoms: O6_33  and  C22_34 
REMARK   15  A    between atoms: N4_39  and  O7_40 
ROOT
HETATM    1  N2  UNL     1       0.724   0.284   0.300  1.00  0.00    -0.340 N 
ATOM      2  H2  UNL     1       0.746   1.095  -0.319  1.00  0.00     0.163 HD
HETATM    3  C17 UNL     1      -0.465  -0.461   0.346  1.00  0.00     0.241 C 
HETATM    4  O4  UNL     1      -0.544  -1.462   1.098  1.00  0.00    -0.271 OA
ENDROOT
BRANCH   1   5
HETATM    5  C15 UNL     1       1.920  -0.006   1.060  1.00  0.00     0.238 C 
BRANCH   5   6
HETATM    6  C14 UNL     1       3.038  -0.105   0.081  1.00  0.00     0.247 C 
HETATM    7  N1  UNL     1       4.394  -0.387   0.473  1.00  0.00    -0.348 N 
ATOM      8  H1  UNL     1       4.616  -0.522   1.459  1.00  0.00     0.163 HD
HETATM    9  O2  UNL     1       2.836   0.059  -1.160  1.00  0.00    -0.271 OA
BRANCH   7  10
HETATM   10  C6  UNL     1       5.427  -0.479  -0.498  1.00  0.00     0.154 C 
BRANCH  10  11
HETATM   11  C5  UNL     1       5.779  -1.956  -0.594  1.00  0.00     0.149 C 
HETATM   12  O1  UNL     1       5.215  -2.776   0.095  1.00  0.00    -0.296 OA
BRANCH  11  13
HETATM   13  C4  UNL     1       6.837  -2.341  -1.565  1.00  0.00     0.084 C 
BRANCH  13  14
HETATM   14  C2  UNL     1       7.045  -3.838  -1.534  1.00  0.00    -0.016 C 
HETATM   15  C1  UNL     1       8.130  -4.164  -2.551  1.00  0.00     0.010 C 
HETATM   16  C3  UNL     1       7.553  -4.194  -0.138  1.00  0.00     0.010 C 
ENDBRANCH  13  14
ENDBRANCH  11  13
ENDBRANCH  10  11
BRANCH  10  17
HETATM   17  C7  UNL     1       6.685   0.280  -0.273  1.00  0.00     0.037 C 
BRANCH  17  18
HETATM   18  C8  UNL     1       6.581   1.776  -0.168  1.00  0.00    -0.012 C 
HETATM   19  C9  UNL     1       5.759   2.307   0.937  1.00  0.00     0.005 C 
HETATM   20  C10 UNL     1       6.205   3.517   1.662  1.00  0.00     0.000 C 
HETATM   21  C11 UNL     1       7.513   4.115   1.275  1.00  0.00     0.000 C 
HETATM   22  C12 UNL     1       8.448   2.936   0.968  1.00  0.00     0.000 C 
HETATM   23  C13 UNL     1       7.942   2.405  -0.358  1.00  0.00     0.005 C 
ENDBRANCH  17  18
ENDBRANCH  10  17
ENDBRANCH   7  10
ENDBRANCH   5   6
BRANCH   5  24
HETATM   24  C16 UNL     1       2.184   1.139   1.970  1.00  0.00     0.266 C 
HETATM   25  O3  UNL     1       1.420   2.084   1.952  1.00  0.00    -0.304 OA
ENDBRANCH   5  24
ENDBRANCH   1   5
BRANCH   3  26
HETATM   26  C18 UNL     1      -1.658  -0.116  -0.468  1.00  0.00     0.172 C 
HETATM   27  C19 UNL     1      -1.190  -0.193  -1.924  1.00  0.00     0.042 C 
BRANCH  26  28
HETATM   28  N3  UNL     1      -2.779  -0.965  -0.235  1.00  0.00    -0.346 N 
HETATM   29  C20 UNL     1      -4.080  -0.370  -0.021  1.00  0.00     0.242 C 
HETATM   30  O5  UNL     1      -4.202   0.880  -0.048  1.00  0.00    -0.271 OA
ATOM     31  H3  UNL     1      -2.665  -1.979  -0.219  1.00  0.00     0.163 HD
BRANCH  29  32
HETATM   32  C21 UNL     1      -5.262  -1.211   0.228  1.00  0.00     0.270 C 
BRANCH  32  33
HETATM   33  O6  UNL     1      -6.410  -0.489   0.306  1.00  0.00    -0.377 OA
BRANCH  33  34
HETATM   34  C22 UNL     1      -6.787   0.239  -0.796  1.00  0.00     0.126 C 
HETATM   35  C23 UNL     1      -8.012  -0.535  -1.362  1.00  0.00     0.058 C 
HETATM   36  C24 UNL     1      -8.934  -0.862  -0.237  1.00  0.00     0.034 C 
HETATM   37  C25 UNL     1      -8.608  -2.279   0.236  1.00  0.00     0.034 C 
HETATM   38  C26 UNL     1     -10.375  -0.911  -0.737  1.00  0.00     0.034 C 
HETATM   39  N4  UNL     1      -8.767   0.000   0.908  1.00  0.00    -0.182 NA
HETATM   40  C27 UNL     1      -8.464   1.350   0.588  1.00  0.00     0.034 C 
HETATM   41  C28 UNL     1      -9.697   2.111   0.075  1.00  0.00     0.034 C 
HETATM   42  C29 UNL     1      -8.083   2.049   1.887  1.00  0.00     0.034 C 
HETATM   43  C30 UNL     1      -7.350   1.566  -0.396  1.00  0.00     0.058 C 
BRANCH  39  44
HETATM   44  O7  UNL     1      -9.918  -0.045   1.628  1.00  0.00    -0.312 OA
ATOM     45  H7  UNL     1      -9.808   0.523   2.382  1.00  0.00     0.237 HD
ENDBRANCH  39  44
ENDBRANCH  33  34
ENDBRANCH  32  33
ENDBRANCH  29  32
ENDBRANCH  26  28
ENDBRANCH   3  26
TORSDOF 15
