REMARK  17 active torsions:
REMARK  status: ('A' for Active; 'I' for Inactive)
REMARK    1  A    between atoms: C2_2  and  C3_4 
REMARK    2  A    between atoms: C3_4  and  C4_5 
REMARK    3  A    between atoms: C4_5  and  N1_6 
REMARK    4  A    between atoms: C4_5  and  C20_32 
REMARK    5  A    between atoms: N1_6  and  C5_9 
REMARK    6  A    between atoms: C5_9  and  O2_10 
REMARK    7  A    between atoms: C5_9  and  C6_12 
REMARK    8  A    between atoms: C6_12  and  C7_14 
REMARK    9  A    between atoms: C7_14  and  C8_15 
REMARK   10  A    between atoms: C7_14  and  N2_19 
REMARK   11  A    between atoms: C8_15  and  C9_16 
REMARK   12  A    between atoms: N2_19  and  C12_21 
REMARK   13  A    between atoms: C12_21  and  C13_22 
REMARK   14  A    between atoms: C12_21  and  C17_26 
REMARK   15  A    between atoms: C17_26  and  C18_28 
REMARK   16  A    between atoms: C18_28  and  S1_29 
REMARK       I    between atoms: N3_35  and  C23_36 
REMARK   17  A    between atoms: C23_36  and  C24_38 
ROOT
HETATM    1  C5  UNL     1      -0.580   0.791   1.157  1.00  0.00     0.396 C 
ENDROOT
BRANCH   1   2
HETATM    2  N1  UNL     1       0.573   0.441   0.381  1.00  0.00    -0.036 N 
ATOM      3  H12 UNL     1       0.400   0.555  -0.618  1.00  0.00     0.281 HD
ATOM      4  H11 UNL     1       0.744  -0.564   0.397  1.00  0.00     0.281 HD
BRANCH   2   5
HETATM    5  C4  UNL     1       1.758   1.196   0.813  1.00  0.00     0.200 C 
BRANCH   5   6
HETATM    6  C3  UNL     1       1.589   2.649   0.587  1.00  0.00     0.111 C 
BRANCH   6   7
HETATM    7  C2  UNL     1       2.693   3.519   0.985  1.00  0.00     0.125 C 
HETATM    8  C1  UNL     1       2.721   4.988   0.792  1.00  0.00     0.091 C 
HETATM    9  O1  UNL     1       3.688   3.022   1.521  1.00  0.00    -0.298 OA
ENDBRANCH   6   7
ENDBRANCH   5   6
BRANCH   5  10
HETATM   10  C20 UNL     1       2.932   0.547   0.174  1.00  0.00     0.020 C 
HETATM   11  C21 UNL     1       2.954  -0.959   0.510  1.00  0.00     0.027 C 
HETATM   12  C22 UNL     1       4.341  -1.441   0.099  1.00  0.00     0.126 C 
HETATM   13  N3  UNL     1       4.960  -0.557  -0.863  1.00  0.00    -0.351 N 
HETATM   14  C23 UNL     1       6.318  -0.157  -0.839  1.00  0.00     0.227 C 
HETATM   15  C28 UNL     1       4.066  -0.080  -1.928  1.00  0.00     0.126 C 
HETATM   16  O6  UNL     1       6.706   0.632  -1.767  1.00  0.00    -0.273 OA
HETATM   17  C29 UNL     1       2.875   0.617  -1.351  1.00  0.00     0.027 C 
BRANCH  14  18
HETATM   18  C24 UNL     1       7.324  -0.557   0.146  1.00  0.00     0.030 C 
HETATM   19  C25 UNL     1       6.965  -0.030   1.503  1.00  0.00     0.025 C 
HETATM   20  C26 UNL     1       7.493  -2.066   0.149  1.00  0.00     0.025 C 
HETATM   21  C27 UNL     1       8.705   0.016  -0.199  1.00  0.00     0.025 C 
ENDBRANCH  14  18
ENDBRANCH   5  10
ENDBRANCH   2   5
ENDBRANCH   1   2
BRANCH   1  22
HETATM   22  O2  UNL     1      -0.355   1.021   2.490  1.00  0.00    -0.364 OA
ATOM     23  H2  UNL     1      -1.119   1.253   3.004  1.00  0.00     0.212 HD
ENDBRANCH   1  22
BRANCH   1  24
HETATM   24  C6  UNL     1      -1.682  -0.209   0.960  1.00  0.00     0.227 C 
HETATM   25  O3  UNL     1      -2.239  -0.560   2.019  1.00  0.00    -0.286 OA
BRANCH  24  26
HETATM   26  C7  UNL     1      -2.121  -0.763  -0.306  1.00  0.00     0.057 C 
BRANCH  26  27
HETATM   27  C8  UNL     1      -1.251  -1.907  -0.752  1.00  0.00     0.064 C 
BRANCH  27  28
HETATM   28  C9  UNL     1      -1.142  -3.120   0.057  1.00  0.00    -0.017 C 
HETATM   29  C10 UNL     1      -0.615  -3.068   1.434  1.00  0.00     0.010 C 
HETATM   30  C11 UNL     1      -0.224  -4.077  -0.746  1.00  0.00     0.010 C 
ENDBRANCH  27  28
ENDBRANCH  26  27
BRANCH  26  31
HETATM   31  N2  UNL     1      -3.467  -1.016  -0.561  1.00  0.00    -0.375 N 
ATOM     32  H2  UNL     1      -3.788  -1.984  -0.566  1.00  0.00     0.160 HD
BRANCH  31  33
HETATM   33  C12 UNL     1      -4.451   0.053  -0.824  1.00  0.00     0.175 C 
BRANCH  33  34
HETATM   34  C13 UNL     1      -4.610   0.994   0.273  1.00  0.00     0.008 C 
HETATM   35  C14 UNL     1      -5.404   2.203   0.281  1.00  0.00    -0.089 C 
HETATM   36  C15 UNL     1      -6.821   2.410   0.112  1.00  0.00     0.042 C 
HETATM   37  C16 UNL     1      -4.713   3.302  -0.609  1.00  0.00     0.042 C 
ENDBRANCH  33  34
BRANCH  33  38
HETATM   38  C17 UNL     1      -5.621  -0.755  -1.191  1.00  0.00     0.164 C 
HETATM   39  O4  UNL     1      -5.327  -1.750  -1.952  1.00  0.00    -0.294 OA
BRANCH  38  40
HETATM   40  C18 UNL     1      -7.007  -0.653  -0.860  1.00  0.00     0.189 C 
BRANCH  40  41
HETATM   41  S1  UNL     1      -7.906  -2.167  -1.368  1.00  0.00     0.018 S 
HETATM   42  C19 UNL     1      -9.601  -1.832  -0.868  1.00  0.00     0.127 C 
HETATM   43  O5  UNL     1      -7.333  -3.350  -0.289  1.00  0.00    -0.258 OA
ENDBRANCH  40  41
ENDBRANCH  38  40
ENDBRANCH  33  38
ENDBRANCH  31  33
ENDBRANCH  26  31
ENDBRANCH  24  26
ENDBRANCH   1  24
TORSDOF 17
