REMARK  16 active torsions:
REMARK  status: ('A' for Active; 'I' for Inactive)
REMARK       I    between atoms: C2_2  and  N1_4 
REMARK    1  A    between atoms: N1_4  and  C3_6 
REMARK    2  A    between atoms: C3_6  and  C4_7 
REMARK    3  A    between atoms: C4_7  and  C5_8 
REMARK    4  A    between atoms: C5_8  and  C6_9 
REMARK    5  A    between atoms: C6_9  and  C7_10 
REMARK    6  A    between atoms: C7_10  and  N2_11 
REMARK    7  A    between atoms: C7_10  and  C9_17 
REMARK    8  A    between atoms: N2_11  and  S1_13 
REMARK       I    between atoms: C9_17  and  N3_19 
REMARK    9  A    between atoms: N3_19  and  C10_21 
REMARK   10  A    between atoms: N4_24  and  C13_25 
REMARK   11  A    between atoms: C13_25  and  C14_26 
REMARK   12  A    between atoms: C14_26  and  C15_27 
REMARK   13  A    between atoms: C21_33  and  O5_34 
REMARK   14  A    between atoms: O5_34  and  C22_35 
REMARK   15  A    between atoms: C22_35  and  C23_37 
REMARK   16  A    between atoms: C23_37  and  C24_38 
ROOT
HETATM    1  C10 UNL     1      -0.381  -1.021  -0.055  1.00  0.00     0.117 C 
HETATM    2  C11 UNL     1      -0.501  -1.691   1.300  1.00  0.00     0.047 C 
HETATM    3  C12 UNL     1      -1.913  -2.322   1.335  1.00  0.00     0.119 C 
HETATM    4  N4  UNL     1      -2.397  -2.443  -0.004  1.00  0.00    -0.410 N 
HETATM    5  C20 UNL     1      -2.767  -1.191  -0.566  1.00  0.00     0.151 C 
HETATM    6  C21 UNL     1      -1.623  -0.201  -0.361  1.00  0.00     0.172 C 
ENDROOT
BRANCH   1   7
HETATM    7  N3  UNL     1       0.847  -0.335  -0.240  1.00  0.00    -0.352 N 
HETATM    8  C9  UNL     1       1.692  -0.607  -1.346  1.00  0.00     0.241 C 
HETATM    9  O4  UNL     1       1.317  -1.481  -2.166  1.00  0.00    -0.271 OA
ATOM     10  H3  UNL     1       1.129   0.371   0.439  1.00  0.00     0.163 HD
BRANCH   8  11
HETATM   11  C7  UNL     1       2.996   0.077  -1.601  1.00  0.00     0.184 C 
BRANCH  11  12
HETATM   12  C6  UNL     1       3.995  -0.245  -0.514  1.00  0.00     0.035 C 
BRANCH  12  13
HETATM   13  C5  UNL     1       5.325   0.388  -0.840  1.00  0.00     0.004 C 
BRANCH  13  14
HETATM   14  C4  UNL     1       6.365   0.082   0.221  1.00  0.00     0.020 C 
BRANCH  14  15
HETATM   15  C3  UNL     1       5.995   0.595   1.587  1.00  0.00     0.122 C 
BRANCH  15  16
HETATM   16  N1  UNL     1       6.987   0.299   2.592  1.00  0.00    -0.361 N 
HETATM   17  C2  UNL     1       8.329   0.746   2.573  1.00  0.00     0.213 C 
HETATM   18  C1  UNL     1       9.300   0.395   3.648  1.00  0.00     0.117 C 
HETATM   19  O1  UNL     1       8.763   1.458   1.648  1.00  0.00    -0.274 OA
ATOM     20  H1  UNL     1       6.697  -0.280   3.380  1.00  0.00     0.162 HD
ENDBRANCH  15  16
ENDBRANCH  14  15
ENDBRANCH  13  14
ENDBRANCH  12  13
ENDBRANCH  11  12
BRANCH  11  21
HETATM   21  N2  UNL     1       3.496  -0.436  -2.844  1.00  0.00    -0.306 N 
ATOM     22  H2  UNL     1       3.720  -1.423  -2.970  1.00  0.00     0.173 HD
BRANCH  21  23
HETATM   23  S1  UNL     1       3.692   0.694  -4.088  1.00  0.00     0.223 S 
HETATM   24  C8  UNL     1       2.185   1.477  -4.581  1.00  0.00     0.185 C 
HETATM   25  O2  UNL     1       4.240  -0.034  -5.291  1.00  0.00    -0.206 OA
HETATM   26  O3  UNL     1       4.682   1.769  -3.749  1.00  0.00    -0.206 OA
ENDBRANCH  21  23
ENDBRANCH  11  21
ENDBRANCH   8  11
ENDBRANCH   1   7
BRANCH   6  27
HETATM   27  O5  UNL     1      -1.932   0.750   0.607  1.00  0.00    -0.312 OA
BRANCH  27  28
HETATM   28  C22 UNL     1      -1.987   2.113   0.253  1.00  0.00     0.259 C 
HETATM   29  O6  UNL     1      -1.737   2.397  -0.940  1.00  0.00    -0.265 OA
BRANCH  28  30
HETATM   30  C23 UNL     1      -2.316   3.159   1.213  1.00  0.00     0.115 C 
BRANCH  30  31
HETATM   31  C24 UNL     1      -1.361   4.293   1.361  1.00  0.00    -0.005 C 
HETATM   32  C25 UNL     1      -1.955   5.220   2.417  1.00  0.00     0.005 C 
HETATM   33  C26 UNL     1      -2.175   6.599   1.896  1.00  0.00     0.000 C 
HETATM   34  C27 UNL     1      -2.845   6.664   0.545  1.00  0.00     0.000 C 
HETATM   35  C28 UNL     1      -2.358   5.634  -0.430  1.00  0.00     0.000 C 
HETATM   36  C29 UNL     1      -1.071   5.047   0.097  1.00  0.00     0.005 C 
ENDBRANCH  30  31
ENDBRANCH  28  30
ENDBRANCH  27  28
ENDBRANCH   6  27
BRANCH   4  37
HETATM   37  C13 UNL     1      -3.257  -3.535  -0.279  1.00  0.00     0.117 C 
BRANCH  37  38
HETATM   38  C14 UNL     1      -4.610  -3.484   0.359  1.00  0.00     0.024 C 
BRANCH  38  39
HETATM   39  C15 UNL     1      -5.445  -4.667   0.012  1.00  0.00    -0.013 C 
HETATM   40  C16 UNL     1      -4.893  -5.988   0.415  1.00  0.00     0.005 C 
HETATM   41  C17 UNL     1      -5.772  -6.975  -0.334  1.00  0.00     0.000 C 
HETATM   42  C18 UNL     1      -6.292  -6.247  -1.547  1.00  0.00     0.000 C 
HETATM   43  C19 UNL     1      -5.697  -4.834  -1.452  1.00  0.00     0.005 C 
ENDBRANCH  38  39
ENDBRANCH  37  38
ENDBRANCH   4  37
TORSDOF 16
