REMARK  14 active torsions:
REMARK  status: ('A' for Active; 'I' for Inactive)
REMARK    1  A    between atoms: O1_2  and  C2_3 
REMARK    2  A    between atoms: C2_3  and  C3_5 
REMARK    3  A    between atoms: C3_5  and  C4_6 
REMARK    4  A    between atoms: C3_5  and  N1_10 
REMARK    5  A    between atoms: C4_6  and  C5_7 
REMARK    6  A    between atoms: C5_7  and  S1_8 
REMARK       I    between atoms: N1_10  and  C7_12 
REMARK    7  A    between atoms: C7_12  and  C8_14 
REMARK    8  A    between atoms: C10_16  and  C11_17 
REMARK       I    between atoms: N2_21  and  C14_22 
REMARK    9  A    between atoms: C14_22  and  C15_24 
REMARK   10  A    between atoms: C15_24  and  N3_25 
REMARK   11  A    between atoms: C15_24  and  C24_39 
REMARK       I    between atoms: N3_25  and  C16_27 
REMARK   12  A    between atoms: C16_27  and  C17_29 
REMARK   13  A    between atoms: C17_29  and  C18_30 
REMARK   14  A    between atoms: C18_30  and  C19_31 
ROOT
HETATM    1  C8  UNL     1      -2.419   1.079  -0.188  1.00  0.00     0.193 C 
HETATM    2  C9  UNL     1      -3.497   1.220   0.786  1.00  0.00     0.053 C 
HETATM    3  C10 UNL     1      -3.034   1.330   2.190  1.00  0.00     0.075 C 
HETATM    4  S2  UNL     1      -1.277   0.805   2.047  1.00  0.00    -0.044 SA
HETATM    5  N2  UNL     1      -1.117   1.268   0.368  1.00  0.00    -0.276 N 
HETATM    6  C14 UNL     1       0.043   1.702  -0.281  1.00  0.00     0.253 C 
HETATM    7  O4  UNL     1       0.044   1.969  -1.534  1.00  0.00    -0.270 OA
ENDROOT
BRANCH   6   8
HETATM    8  C15 UNL     1       1.379   1.899   0.370  1.00  0.00     0.181 C 
BRANCH   8   9
HETATM    9  N3  UNL     1       2.410   1.444  -0.577  1.00  0.00    -0.347 N 
HETATM   10  C16 UNL     1       3.157   0.268  -0.347  1.00  0.00     0.218 C 
HETATM   11  O5  UNL     1       2.895  -0.382   0.721  1.00  0.00    -0.274 OA
ATOM     12  H3  UNL     1       2.589   1.991  -1.419  1.00  0.00     0.163 HD
BRANCH  10  13
HETATM   13  C17 UNL     1       4.202  -0.185  -1.312  1.00  0.00     0.103 C 
BRANCH  13  14
HETATM   14  C18 UNL     1       4.745  -1.474  -0.789  1.00  0.00     0.014 C 
BRANCH  14  15
HETATM   15  C19 UNL     1       5.822  -2.096  -1.637  1.00  0.00    -0.011 C 
HETATM   16  C20 UNL     1       6.974  -1.155  -1.729  1.00  0.00     0.032 C 
HETATM   17  C21 UNL     1       8.257  -1.778  -1.164  1.00  0.00     0.232 C 
HETATM   18  N4  UNL     1       8.460  -3.019  -1.849  1.00  0.00    -0.075 N 
HETATM   19  C22 UNL     1       7.458  -3.994  -1.569  1.00  0.00     0.232 C 
ATOM     20  H42 UNL     1       8.545  -2.867  -2.854  1.00  0.00     0.277 HD
ATOM     21  H41 UNL     1       9.390  -3.391  -1.655  1.00  0.00     0.277 HD
HETATM   22  C23 UNL     1       6.180  -3.423  -1.013  1.00  0.00     0.032 C 
ENDBRANCH  14  15
ENDBRANCH  13  14
ENDBRANCH  10  13
ENDBRANCH   8   9
BRANCH   8  23
HETATM   23  C24 UNL     1       1.685   3.329   0.682  1.00  0.00     0.018 C 
HETATM   24  C25 UNL     1       0.759   4.031   1.602  1.00  0.00     0.007 C 
HETATM   25  C26 UNL     1       1.046   3.790   3.069  1.00  0.00     0.000 C 
HETATM   26  C27 UNL     1       2.457   4.242   3.350  1.00  0.00     0.000 C 
HETATM   27  C28 UNL     1       3.365   3.340   2.544  1.00  0.00     0.000 C 
HETATM   28  C29 UNL     1       3.136   3.497   1.061  1.00  0.00     0.007 C 
ENDBRANCH   8  23
ENDBRANCH   6   8
BRANCH   1  29
HETATM   29  C7  UNL     1      -2.512  -0.241  -0.917  1.00  0.00     0.242 C 
HETATM   30  N1  UNL     1      -3.752  -0.587  -1.478  1.00  0.00    -0.345 N 
ATOM     31  H1  UNL     1      -4.529   0.064  -1.368  1.00  0.00     0.163 HD
HETATM   32  O3  UNL     1      -1.527  -0.988  -1.012  1.00  0.00    -0.271 OA
BRANCH  30  33
HETATM   33  C3  UNL     1      -3.988  -1.818  -2.205  1.00  0.00     0.185 C 
BRANCH  33  34
HETATM   34  C2  UNL     1      -4.474  -1.433  -3.558  1.00  0.00     0.281 C 
HETATM   35  O2  UNL     1      -4.624  -0.239  -3.913  1.00  0.00    -0.263 OA
BRANCH  34  36
HETATM   36  O1  UNL     1      -4.773  -2.429  -4.460  1.00  0.00    -0.325 OA
HETATM   37  C1  UNL     1      -5.237  -2.064  -5.751  1.00  0.00     0.213 C 
ENDBRANCH  34  36
ENDBRANCH  33  34
BRANCH  33  38
HETATM   38  C4  UNL     1      -5.068  -2.665  -1.568  1.00  0.00     0.045 C 
BRANCH  38  39
HETATM   39  C5  UNL     1      -6.367  -1.934  -1.427  1.00  0.00     0.076 C 
BRANCH  39  40
HETATM   40  S1  UNL     1      -7.591  -3.035  -0.664  1.00  0.00    -0.173 SA
HETATM   41  C6  UNL     1      -7.077  -3.407   1.023  1.00  0.00     0.089 C 
ENDBRANCH  39  40
ENDBRANCH  38  39
ENDBRANCH  33  38
ENDBRANCH  30  33
ENDBRANCH   1  29
BRANCH   3  42
HETATM   42  C11 UNL     1      -3.763   0.486   3.186  1.00  0.00    -0.007 C 
HETATM   43  C12 UNL     1      -5.214   0.902   3.158  1.00  0.00     0.011 C 
HETATM   44  C13 UNL     1      -3.239   0.900   4.569  1.00  0.00     0.011 C 
ENDBRANCH   3  42
TORSDOF 14
