REMARK  3 active torsions:
REMARK  status: ('A' for Active; 'I' for Inactive)
REMARK    1  A    between atoms: C1_2  and  C2_4 
REMARK       I    between atoms: C2_4  and  N2_6 
REMARK       I    between atoms: N2_6  and  C3_8 
REMARK    2  A    between atoms: C3_8  and  C4_10 
REMARK    3  A    between atoms: C6_12  and  N3_13 
ROOT
HETATM    1  C4  UNL     1       0.952   0.812  -0.126  1.00  0.00     0.111 A 
HETATM    2  C5  UNL     1       0.248   1.640  -1.193  1.00  0.00     0.050 A 
HETATM    3  C6  UNL     1      -0.165   0.234  -0.902  1.00  0.00     0.204 A 
ENDROOT
BRANCH   1   4
HETATM    4  C3  UNL     1       2.307   0.364  -0.532  1.00  0.00     0.230 C 
HETATM    5  N2  UNL     1       3.336   0.298   0.420  1.00  0.00    -0.289 N 
HETATM    6  C2  UNL     1       4.632  -0.131   0.030  1.00  0.00     0.313 C 
ATOM      7  H2  UNL     1       3.153   0.558   1.389  1.00  0.00     0.172 HD
HETATM    8  O2  UNL     1       4.839  -0.450  -1.178  1.00  0.00    -0.262 OA
HETATM    9  O3  UNL     1       2.540   0.042  -1.718  1.00  0.00    -0.273 OA
BRANCH   6  10
HETATM   10  C1  UNL     1       5.702  -0.200   1.013  1.00  0.00     0.322 C 
HETATM   11  N1  UNL     1       7.002  -0.632   0.615  1.00  0.00    -0.053 NA
HETATM   12  O1  UNL     1       5.450   0.125   2.196  1.00  0.00    -0.266 OA
ENDBRANCH   6  10
ENDBRANCH   1   4
BRANCH   3  13
HETATM   13  N3  UNL     1      -1.460   0.011  -0.317  1.00  0.00    -0.062 N 
HETATM   14  C7  UNL     1      -2.453   0.325  -1.335  1.00  0.00     0.238 C 
HETATM   15  C8  UNL     1      -3.797  -0.238  -0.974  1.00  0.00     0.032 C 
HETATM   16  C9  UNL     1      -3.771  -0.526   0.524  1.00  0.00    -0.010 C 
HETATM   17  C10 UNL     1      -2.832  -1.672   0.754  1.00  0.00     0.032 C 
HETATM   18  C12 UNL     1      -3.176   0.705   1.182  1.00  0.00     0.032 C 
HETATM   19  C11 UNL     1      -1.541  -1.414   0.023  1.00  0.00     0.238 C 
HETATM   20  C13 UNL     1      -1.681   0.742   0.897  1.00  0.00     0.238 C 
ENDBRANCH   3  13
TORSDOF 3
