REMARK  2 active torsions:
REMARK  status: ('A' for Active; 'I' for Inactive)
REMARK       I    between atoms: C1_4  and  N3_6 
REMARK    1  A    between atoms: N4_9  and  C4_10 
REMARK    2  A    between atoms: C4_10  and  C5_11 
REMARK       I    between atoms: C5_11  and  N5_13 
ROOT
HETATM    1  N1  UNL     1       6.388  -0.337   0.296  1.00  0.00    -0.374 N 
ATOM      2  H11 UNL     1       6.237  -1.343   0.218  1.00  0.00     0.158 HD
ATOM      3  H12 UNL     1       7.320   0.044   0.459  1.00  0.00     0.158 HD
HETATM    4  C1  UNL     1       5.360   0.436   0.181  1.00  0.00     0.184 C 
HETATM    5  N2  UNL     1       5.569   1.825   0.289  1.00  0.00    -0.064 NA
HETATM    6  N3  UNL     1       4.071  -0.091  -0.045  1.00  0.00    -0.353 N 
HETATM    7  C2  UNL     1       3.779  -1.492   0.188  1.00  0.00     0.156 C 
HETATM    8  C3  UNL     1       2.315  -1.713  -0.132  1.00  0.00     0.293 C 
HETATM    9  N4  UNL     1       1.451  -0.826   0.627  1.00  0.00     0.100 N 
HETATM   10  C12 UNL     1       1.741   0.566   0.341  1.00  0.00     0.293 C 
HETATM   11  C13 UNL     1       2.977   0.729  -0.519  1.00  0.00     0.156 C 
ENDROOT
BRANCH   9  12
HETATM   12  C4  UNL     1       0.086  -1.088   0.152  1.00  0.00     0.374 C 
BRANCH  12  13
HETATM   13  C5  UNL     1      -0.848  -0.227   0.913  1.00  0.00     0.248 C 
HETATM   14  O1  UNL     1      -0.413   0.564   1.801  1.00  0.00    -0.271 OA
HETATM   15  N5  UNL     1      -2.239  -0.279   0.658  1.00  0.00    -0.351 N 
HETATM   16  C6  UNL     1      -3.097   0.590   1.431  1.00  0.00     0.126 C 
HETATM   17  C11 UNL     1      -2.645  -1.211  -0.359  1.00  0.00     0.126 C 
HETATM   18  C7  UNL     1      -3.667   1.726   0.648  1.00  0.00     0.020 C 
HETATM   19  C8  UNL     1      -4.831   1.336  -0.221  1.00  0.00     0.002 C 
HETATM   20  C9  UNL     1      -4.841  -0.135  -0.554  1.00  0.00     0.002 C 
HETATM   21  C10 UNL     1      -3.617  -0.559  -1.321  1.00  0.00     0.020 C 
ENDBRANCH  12  13
ENDBRANCH   9  12
TORSDOF 2
