REMARK  3 active torsions:
REMARK  status: ('A' for Active; 'I' for Inactive)
REMARK    1  A    between atoms: C3_3  and  N1_4 
REMARK       I    between atoms: N1_4  and  C5_6 
REMARK       I    between atoms: C5_6  and  N2_8 
REMARK    2  A    between atoms: N2_8  and  C6_10 
REMARK    3  A    between atoms: C14_19  and  O2_20 
ROOT
HETATM    1  C1  UNL     1       5.925  -0.258   1.751  1.00  0.00     0.014 C 
HETATM    2  C2  UNL     1       5.167  -1.046   1.238  1.00  0.00    -0.098 C 
HETATM    3  C3  UNL     1       4.240  -2.003   0.633  1.00  0.00     0.220 C 
ENDROOT
BRANCH   3   4
HETATM    4  N1  UNL     1       3.296  -1.237  -0.155  1.00  0.00    -0.328 N 
HETATM    5  C4  UNL     1       3.591  -0.953  -1.565  1.00  0.00     0.155 C 
HETATM    6  C5  UNL     1       2.101  -0.763   0.420  1.00  0.00     0.319 C 
HETATM    7  O1  UNL     1       1.856  -1.007   1.619  1.00  0.00    -0.247 OA
HETATM    8  N2  UNL     1       1.180  -0.017  -0.343  1.00  0.00    -0.336 N 
ATOM      9  H2  UNL     1       1.402   0.170  -1.321  1.00  0.00     0.164 HD
BRANCH   8  10
HETATM   10  C6  UNL     1      -0.066   0.498   0.188  1.00  0.00     0.117 C 
HETATM   11  C7  UNL     1      -0.096   2.006   0.171  1.00  0.00     0.034 C 
HETATM   12  C8  UNL     1      -1.562   2.265  -0.206  1.00  0.00     0.020 C 
HETATM   13  C9  UNL     1      -1.677   1.249  -1.353  1.00  0.00     0.043 C 
HETATM   14  C14 UNL     1      -2.393   1.808   0.946  1.00  0.00     0.148 C 
HETATM   15  C10 UNL     1      -1.197   0.000  -0.640  1.00  0.00     0.212 C 
HETATM   16  N3  UNL     1      -2.308  -0.510   0.122  1.00  0.00    -0.066 N 
HETATM   17  C11 UNL     1      -1.903  -1.521   1.085  1.00  0.00     0.272 C 
HETATM   18  C12 UNL     1      -3.158  -1.246  -0.828  1.00  0.00     0.272 C 
HETATM   19  C13 UNL     1      -3.116   0.511   0.704  1.00  0.00     0.269 C 
BRANCH  14  20
HETATM   20  O2  UNL     1      -3.362   2.777   1.226  1.00  0.00    -0.394 OA
ATOM     21  H2  UNL     1      -3.891   2.486   1.959  1.00  0.00     0.210 HD
ENDBRANCH  14  20
ENDBRANCH   8  10
ENDBRANCH   3   4
TORSDOF 3
