REMARK  6 active torsions:
REMARK  status: ('A' for Active; 'I' for Inactive)
REMARK    1  A    between atoms: C3_3  and  N1_4 
REMARK    2  A    between atoms: N1_4  and  C4_5 
REMARK    3  A    between atoms: C4_5  and  O1_6 
REMARK    4  A    between atoms: C4_5  and  N2_8 
REMARK       I    between atoms: N2_8  and  C5_10 
REMARK    5  A    between atoms: C5_10  and  C6_12 
REMARK       I    between atoms: N3_15  and  C9_16 
REMARK    6  A    between atoms: C9_16  and  C10_18 
ROOT
HETATM    1  C1  UNL     1       3.125   3.728  -1.232  1.00  0.00     0.019 C 
HETATM    2  C2  UNL     1       3.928   2.855  -1.036  1.00  0.00    -0.058 C 
HETATM    3  C3  UNL     1       4.942   1.810  -0.792  1.00  0.00     0.250 C 
ENDROOT
BRANCH   3   4
HETATM    4  N1  UNL     1       4.481   0.546  -0.544  1.00  0.00    -0.369 NA
BRANCH   4   5
HETATM    5  C4  UNL     1       4.030  -0.688  -0.302  1.00  0.00     0.300 C 
BRANCH   5   6
HETATM    6  O1  UNL     1       4.914  -1.670  -0.021  1.00  0.00    -0.321 OA
ATOM      7  H1  UNL     1       4.593  -2.548   0.151  1.00  0.00     0.222 HD
ENDBRANCH   5   6
BRANCH   5   8
HETATM    8  N2  UNL     1       2.705  -1.170  -0.287  1.00  0.00    -0.281 N 
HETATM    9  C5  UNL     1       1.519  -0.508  -0.540  1.00  0.00     0.229 C 
HETATM   10  O2  UNL     1       1.318   0.676  -0.851  1.00  0.00    -0.273 OA
ATOM     11  H2  UNL     1       2.607  -2.158  -0.054  1.00  0.00     0.173 HD
BRANCH   9  12
HETATM   12  C6  UNL     1       0.258  -1.369  -0.414  1.00  0.00     0.081 C 
HETATM   13  C7  UNL     1      -0.876  -0.645  -0.999  1.00  0.00     0.034 C 
HETATM   14  C8  UNL     1      -2.228  -1.071  -0.461  1.00  0.00     0.127 C 
HETATM   15  N3  UNL     1      -2.173  -1.164   0.999  1.00  0.00    -0.341 N 
HETATM   16  C9  UNL     1      -3.024  -0.391   1.826  1.00  0.00     0.298 C 
HETATM   17  C13 UNL     1      -1.206  -2.099   1.502  1.00  0.00     0.127 C 
HETATM   18  O3  UNL     1      -2.913  -0.502   3.068  1.00  0.00    -0.258 OA
HETATM   19  C14 UNL     1       0.151  -1.747   1.022  1.00  0.00     0.034 C 
BRANCH  16  20
HETATM   20  C10 UNL     1      -3.980   0.486   1.219  1.00  0.00    -0.006 C 
HETATM   21  C11 UNL     1      -4.807   1.217   0.710  1.00  0.00    -0.101 C 
HETATM   22  C12 UNL     1      -5.830   2.091   0.108  1.00  0.00     0.112 C 
ENDBRANCH  16  20
ENDBRANCH   9  12
ENDBRANCH   5   8
ENDBRANCH   4   5
ENDBRANCH   3   4
TORSDOF 6
