REMARK  4 active torsions:
REMARK  status: ('A' for Active; 'I' for Inactive)
REMARK       I    between atoms: C1_2  and  N2_4 
REMARK       I    between atoms: N3_7  and  C4_8 
REMARK       I    between atoms: C4_8  and  N4_10 
REMARK    1  A    between atoms: N4_10  and  C5_12 
REMARK    2  A    between atoms: C5_12  and  C6_13 
REMARK    3  A    between atoms: C7_14  and  C8_15 
REMARK    4  A    between atoms: C8_15  and  C9_16 
ROOT
HETATM    1  N1  UNL     1       4.757  -2.516  -0.502  1.00  0.00    -0.040 NA
HETATM    2  C1  UNL     1       4.977  -1.322   0.231  1.00  0.00     0.330 C 
HETATM    3  O1  UNL     1       5.788  -1.297   1.215  1.00  0.00    -0.251 OA
HETATM    4  N2  UNL     1       4.319  -0.110  -0.084  1.00  0.00    -0.333 N 
HETATM    5  C2  UNL     1       4.528   1.113   0.646  1.00  0.00     0.147 C 
HETATM    6  C3  UNL     1       3.297   1.914   0.872  1.00  0.00     0.147 C 
HETATM    7  N3  UNL     1       2.090   1.336   0.327  1.00  0.00    -0.331 N 
HETATM    8  C4  UNL     1       0.858   1.829   0.827  1.00  0.00     0.319 C 
HETATM    9  O2  UNL     1       0.797   2.743   1.721  1.00  0.00    -0.247 OA
HETATM   10  N4  UNL     1      -0.367   1.312   0.342  1.00  0.00    -0.333 N 
ATOM     11  H4  UNL     1      -0.339   0.582  -0.370  1.00  0.00     0.165 HD
HETATM   12  C12 UNL     1       2.054   0.312  -0.672  1.00  0.00     0.147 C 
HETATM   13  C13 UNL     1       3.392  -0.091  -1.191  1.00  0.00     0.147 C 
ENDROOT
BRANCH  10  14
HETATM   14  C5  UNL     1      -1.654   1.769   0.807  1.00  0.00     0.218 C 
BRANCH  14  15
HETATM   15  C6  UNL     1      -2.748   1.066   0.137  1.00  0.00    -0.087 C 
HETATM   16  C7  UNL     1      -3.641   0.507  -0.425  1.00  0.00    -0.104 C 
BRANCH  16  17
HETATM   17  C8  UNL     1      -4.730  -0.163  -1.134  1.00  0.00     0.098 C 
BRANCH  17  18
HETATM   18  C9  UNL     1      -4.989  -1.542  -0.581  1.00  0.00    -0.003 A 
HETATM   19  C10 UNL     1      -5.373  -1.768   0.808  1.00  0.00     0.006 A 
HETATM   20  C11 UNL     1      -6.469  -1.814  -0.251  1.00  0.00     0.006 A 
ENDBRANCH  17  18
ENDBRANCH  16  17
ENDBRANCH  14  15
ENDBRANCH  10  14
TORSDOF 4
