REMARK  2 active torsions:
REMARK  status: ('A' for Active; 'I' for Inactive)
REMARK    1  A    between atoms: C7_11  and  C8_12 
REMARK       I    between atoms: C8_12  and  N4_14 
REMARK    2  A    between atoms: N4_14  and  C9_16 
ROOT
HETATM    1  C1  UNL     1      -2.572   0.510   2.325  1.00  0.00     0.272 C 
HETATM    2  N1  UNL     1      -2.460   0.239   0.874  1.00  0.00    -0.067 N 
HETATM    3  C2  UNL     1      -3.117  -1.004   0.646  1.00  0.00     0.238 C 
HETATM    4  C3  UNL     1      -2.286  -2.050  -0.023  1.00  0.00     0.049 C 
HETATM    5  C4  UNL     1      -1.877  -1.721  -1.419  1.00  0.00     0.145 C 
HETATM    6  N2  UNL     1      -1.602  -0.350  -1.667  1.00  0.00    -0.317 N 
HETATM    7  N3  UNL     1      -2.738   0.320  -1.967  1.00  0.00    -0.336 N 
ATOM      8  H3  UNL     1      -3.337   0.013  -2.733  1.00  0.00     0.180 HD
HETATM    9  C5  UNL     1      -3.076   1.455  -1.195  1.00  0.00     0.167 C 
HETATM   10  C6  UNL     1      -3.204   1.289   0.254  1.00  0.00     0.258 C 
HETATM   11  C7  UNL     1      -0.670   0.283  -0.824  1.00  0.00     0.219 C 
HETATM   12  C14 UNL     1      -1.058   0.254   0.616  1.00  0.00     0.273 C 
ENDROOT
BRANCH  11  13
HETATM   13  C8  UNL     1       0.716  -0.205  -0.949  1.00  0.00     0.244 C 
HETATM   14  O1  UNL     1       1.036  -1.112  -1.751  1.00  0.00    -0.271 OA
HETATM   15  N4  UNL     1       1.747   0.347  -0.150  1.00  0.00    -0.355 N 
ATOM     16  H4  UNL     1       1.506   1.087   0.510  1.00  0.00     0.162 HD
BRANCH  15  17
HETATM   17  C9  UNL     1       3.126  -0.086  -0.223  1.00  0.00     0.084 C 
HETATM   18  C10 UNL     1       3.683  -0.513   1.102  1.00  0.00     0.025 C 
HETATM   19  C11 UNL     1       5.190  -0.507   0.810  1.00  0.00     0.002 C 
HETATM   20  C12 UNL     1       5.376   0.615  -0.185  1.00  0.00     0.002 C 
HETATM   21  C13 UNL     1       4.008   1.097  -0.576  1.00  0.00     0.025 C 
ENDBRANCH  15  17
ENDBRANCH  11  13
TORSDOF 2
