REMARK  4 active torsions:
REMARK  status: ('A' for Active; 'I' for Inactive)
REMARK    1  A    between atoms: C8_11  and  C9_12 
REMARK       I    between atoms: C9_12  and  N2_14 
REMARK    2  A    between atoms: N2_14  and  C10_16 
REMARK    3  A    between atoms: N3_22  and  C16_23 
REMARK    4  A    between atoms: C16_23  and  C17_24 
REMARK       I    between atoms: C17_24  and  N4_26 
ROOT
HETATM    1  N1  UNL     1       2.677  -2.437  -1.036  1.00  0.00    -0.389 N 
ATOM      2  H11 UNL     1       2.864  -1.554  -1.511  1.00  0.00     0.157 HD
ATOM      3  H12 UNL     1       3.105  -3.356  -1.154  1.00  0.00     0.157 HD
HETATM    4  C1  UNL     1       1.733  -2.356  -0.136  1.00  0.00     0.078 C 
HETATM    5  C2  UNL     1       1.461  -3.642   0.556  1.00  0.00     0.053 C 
HETATM    6  C3  UNL     1       1.155  -3.368   2.015  1.00  0.00     0.013 C 
HETATM    7  C4  UNL     1      -0.146  -2.684   2.246  1.00  0.00     0.008 C 
HETATM    8  C5  UNL     1      -0.790  -2.095   1.017  1.00  0.00     0.018 C 
HETATM    9  C6  UNL     1      -0.850  -3.069  -0.119  1.00  0.00     0.008 C 
HETATM   10  C7  UNL     1       0.159  -4.191  -0.031  1.00  0.00     0.013 C 
HETATM   11  C8  UNL     1      -0.146  -0.777   0.607  1.00  0.00     0.182 C 
HETATM   12  N3  UNL     1       1.137  -1.076   0.028  1.00  0.00    -0.348 N 
ENDROOT
BRANCH  11  13
HETATM   13  C9  UNL     1      -1.029  -0.017  -0.309  1.00  0.00     0.241 C 
HETATM   14  O1  UNL     1      -0.687   0.278  -1.463  1.00  0.00    -0.271 OA
HETATM   15  N2  UNL     1      -2.305   0.379   0.165  1.00  0.00    -0.355 N 
ATOM     16  H2  UNL     1      -2.597   0.142   1.113  1.00  0.00     0.162 HD
BRANCH  15  17
HETATM   17  C10 UNL     1      -3.188   1.121  -0.704  1.00  0.00     0.084 C 
HETATM   18  C11 UNL     1      -3.471   2.488  -0.114  1.00  0.00     0.025 C 
HETATM   19  C12 UNL     1      -4.862   2.490   0.515  1.00  0.00     0.002 C 
HETATM   20  C13 UNL     1      -5.924   2.310  -0.553  1.00  0.00     0.000 C 
HETATM   21  C14 UNL     1      -5.466   1.314  -1.588  1.00  0.00     0.002 C 
HETATM   22  C15 UNL     1      -4.482   0.360  -0.947  1.00  0.00     0.025 C 
ENDBRANCH  15  17
ENDBRANCH  11  13
BRANCH  12  23
HETATM   23  C16 UNL     1       1.937   0.052  -0.459  1.00  0.00     0.228 C 
BRANCH  23  24
HETATM   24  C17 UNL     1       3.170   0.248   0.371  1.00  0.00     0.237 C 
HETATM   25  O2  UNL     1       3.332  -0.552   1.323  1.00  0.00    -0.272 OA
HETATM   26  N4  UNL     1       4.091   1.285   0.080  1.00  0.00    -0.351 N 
HETATM   27  C18 UNL     1       4.009   2.261  -0.980  1.00  0.00     0.126 C 
HETATM   28  C21 UNL     1       5.304   1.513   0.852  1.00  0.00     0.126 C 
HETATM   29  C19 UNL     1       5.140   3.220  -0.734  1.00  0.00     0.021 C 
HETATM   30  C20 UNL     1       5.379   3.043   0.772  1.00  0.00     0.021 C 
ENDBRANCH  23  24
ENDBRANCH  12  23
TORSDOF 4
