REMARK  4 active torsions:
REMARK  status: ('A' for Active; 'I' for Inactive)
REMARK       I    between atoms: N1_2  and  C2_4 
REMARK       I    between atoms: C2_4  and  N2_6 
REMARK    1  A    between atoms: C5_9  and  C6_10 
REMARK       I    between atoms: C6_10  and  N3_12 
REMARK    2  A    between atoms: N3_12  and  C7_14 
REMARK       I    between atoms: N4_17  and  C10_18 
REMARK    3  A    between atoms: C10_18  and  C11_20 
REMARK    4  A    between atoms: C11_20  and  C12_21 
ROOT
HETATM    1  C7  UNL     1       0.768  -0.121   0.415  1.00  0.00     0.087 C 
HETATM    2  C8  UNL     1       0.169  -1.479   0.151  1.00  0.00     0.045 C 
HETATM    3  C9  UNL     1      -1.067  -1.321  -0.662  1.00  0.00     0.127 C 
HETATM    4  N4  UNL     1      -1.916  -0.242  -0.284  1.00  0.00    -0.352 N 
HETATM    5  C10 UNL     1      -3.271  -0.252  -0.716  1.00  0.00     0.220 C 
HETATM    6  O3  UNL     1      -3.652  -1.225  -1.418  1.00  0.00    -0.273 OA
HETATM    7  C18 UNL     1      -1.501   0.887   0.522  1.00  0.00     0.127 C 
HETATM    8  C19 UNL     1      -0.223   0.646   1.265  1.00  0.00     0.045 C 
ENDROOT
BRANCH   1   9
HETATM    9  N3  UNL     1       1.988  -0.275   1.135  1.00  0.00    -0.356 N 
HETATM   10  C6  UNL     1       3.191   0.276   0.640  1.00  0.00     0.223 C 
HETATM   11  O2  UNL     1       3.169   0.905  -0.445  1.00  0.00    -0.273 OA
ATOM     12  H3  UNL     1       1.993  -0.788   2.017  1.00  0.00     0.162 HD
BRANCH  10  13
HETATM   13  C5  UNL     1       4.485   0.135   1.365  1.00  0.00     0.097 C 
HETATM   14  C4  UNL     1       4.808  -1.355   1.503  1.00  0.00     0.035 C 
HETATM   15  C3  UNL     1       5.520  -1.620   0.187  1.00  0.00     0.128 C 
HETATM   16  N2  UNL     1       6.376  -0.469   0.078  1.00  0.00    -0.333 N 
HETATM   17  C2  UNL     1       7.720  -0.463  -0.373  1.00  0.00     0.317 C 
HETATM   18  C20 UNL     1       5.615   0.672   0.512  1.00  0.00     0.141 C 
HETATM   19  N1  UNL     1       8.497   0.718  -0.451  1.00  0.00    -0.347 N 
HETATM   20  O1  UNL     1       8.292  -1.550  -0.734  1.00  0.00    -0.247 OA
HETATM   21  C1  UNL     1       9.841   0.681  -0.908  1.00  0.00     0.151 C 
ATOM     22  H1  UNL     1       8.085   1.609  -0.175  1.00  0.00     0.163 HD
ENDBRANCH  10  13
ENDBRANCH   1   9
BRANCH   5  23
HETATM   23  C11 UNL     1      -4.222   0.835  -0.365  1.00  0.00     0.107 C 
BRANCH  23  24
HETATM   24  C12 UNL     1      -5.581   0.445  -0.972  1.00  0.00    -0.006 C 
HETATM   25  C13 UNL     1      -6.083  -0.835  -0.431  1.00  0.00     0.005 C 
HETATM   26  C14 UNL     1      -7.392  -0.843   0.264  1.00  0.00     0.000 C 
HETATM   27  C15 UNL     1      -8.266   0.349   0.063  1.00  0.00     0.000 C 
HETATM   28  C16 UNL     1      -7.412   1.593   0.271  1.00  0.00     0.000 C 
HETATM   29  C17 UNL     1      -6.469   1.630  -0.906  1.00  0.00     0.005 C 
ENDBRANCH  23  24
ENDBRANCH   5  23
TORSDOF 4
