REMARK  6 active torsions:
REMARK  status: ('A' for Active; 'I' for Inactive)
REMARK    1  A    between atoms: N1_9  and  S1_10 
REMARK    2  A    between atoms: S1_10  and  N2_13 
REMARK    3  A    between atoms: C11_16  and  N3_17 
REMARK    4  A    between atoms: N3_17  and  C12_19 
REMARK    5  A    between atoms: C12_19  and  N4_21 
REMARK    6  A    between atoms: N4_21  and  C13_23 
ROOT
HETATM    1  C1  UNL     1      -4.375  -1.942   1.847  1.00  0.00     0.014 C 
HETATM    2  C2  UNL     1      -3.809  -1.470   0.884  1.00  0.00    -0.091 C 
HETATM    3  C3  UNL     1      -3.100  -0.905  -0.270  1.00  0.00     0.175 C 
HETATM    4  C4  UNL     1      -3.802  -1.338  -1.525  1.00  0.00     0.039 C 
HETATM    5  C5  UNL     1      -5.229  -1.124  -1.668  1.00  0.00     0.003 C 
HETATM    6  C6  UNL     1      -5.957  -0.134  -0.881  1.00  0.00     0.002 C 
HETATM    7  C7  UNL     1      -5.207   1.037  -0.357  1.00  0.00     0.021 C 
HETATM    8  C8  UNL     1      -3.871   1.251  -0.998  1.00  0.00     0.138 C 
HETATM    9  N1  UNL     1      -2.933   0.473  -0.238  1.00  0.00    -0.282 N 
ENDROOT
BRANCH   9  10
HETATM   10  S1  UNL     1      -1.691   1.258   0.485  1.00  0.00     0.302 S 
HETATM   11  O1  UNL     1      -1.964   2.766   0.407  1.00  0.00    -0.188 OA
HETATM   12  O2  UNL     1      -1.709   0.970   1.982  1.00  0.00    -0.188 OA
BRANCH  10  13
HETATM   13  N2  UNL     1      -0.098   0.993  -0.061  1.00  0.00    -0.193 NA
HETATM   14  C9  UNL     1       0.293  -0.358   0.100  1.00  0.00     0.111 C 
HETATM   15  C10 UNL     1       1.824  -0.490   0.257  1.00  0.00     0.041 C 
HETATM   16  C11 UNL     1       2.399   0.522  -0.706  1.00  0.00     0.086 C 
HETATM   17  C15 UNL     1       2.182   1.893  -0.101  1.00  0.00     0.041 C 
HETATM   18  C16 UNL     1       0.786   1.984   0.488  1.00  0.00     0.111 C 
BRANCH  16  19
HETATM   19  N3  UNL     1       3.711   0.249  -1.161  1.00  0.00    -0.363 N 
ATOM     20  H3  UNL     1       3.851   0.168  -2.168  1.00  0.00     0.162 HD
BRANCH  19  21
HETATM   21  C12 UNL     1       4.843   0.079  -0.331  1.00  0.00     0.167 C 
HETATM   22  S2  UNL     1       4.704   0.182   1.277  1.00  0.00    -0.041 SA
BRANCH  21  23
HETATM   23  N4  UNL     1       6.130  -0.192  -0.929  1.00  0.00    -0.368 N 
ATOM     24  H4  UNL     1       6.227  -0.261  -1.942  1.00  0.00     0.161 HD
BRANCH  23  25
HETATM   25  C13 UNL     1       7.280  -0.364  -0.067  1.00  0.00     0.117 C 
HETATM   26  C14 UNL     1       7.103  -1.660   0.718  1.00  0.00     0.026 C 
ENDBRANCH  23  25
ENDBRANCH  21  23
ENDBRANCH  19  21
ENDBRANCH  16  19
ENDBRANCH  10  13
ENDBRANCH   9  10
TORSDOF 6
