REMARK  6 active torsions:
REMARK  status: ('A' for Active; 'I' for Inactive)
REMARK    1  A    between atoms: C1_2  and  C2_4 
REMARK    2  A    between atoms: N1_7  and  C5_8 
REMARK    3  A    between atoms: C5_8  and  O3_9 
REMARK    4  A    between atoms: C5_8  and  N2_11 
REMARK       I    between atoms: N2_11  and  C6_13 
REMARK    5  A    between atoms: C6_13  and  C7_15 
REMARK       I    between atoms: N3_19  and  C11_20 
REMARK    6  A    between atoms: C11_20  and  C12_22 
ROOT
HETATM    1  N2  UNL     1       0.276  -0.380   1.707  1.00  0.00    -0.291 N 
ATOM      2  H2  UNL     1      -0.470  -0.941   2.118  1.00  0.00     0.172 HD
HETATM    3  C6  UNL     1      -0.175   0.899   1.369  1.00  0.00     0.247 C 
HETATM    4  O4  UNL     1       0.540   1.769   0.864  1.00  0.00    -0.271 OA
ENDROOT
BRANCH   1   5
HETATM    5  C5  UNL     1       1.447  -1.083   1.636  1.00  0.00     0.221 C 
BRANCH   5   6
HETATM    6  N1  UNL     1       2.709  -0.782   1.169  1.00  0.00    -0.347 N 
HETATM    7  C4  UNL     1       3.253   0.383   0.579  1.00  0.00     0.127 C 
HETATM    8  C3  UNL     1       4.701   0.225   0.148  1.00  0.00     0.035 C 
HETATM    9  C2  UNL     1       4.997  -1.053  -0.540  1.00  0.00     0.090 C 
HETATM   10  C17 UNL     1       4.102  -2.196  -0.122  1.00  0.00     0.035 C 
HETATM   11  C16 UNL     1       3.715  -1.904   1.312  1.00  0.00     0.127 C 
BRANCH   9  12
HETATM   12  C1  UNL     1       4.846  -0.902  -2.014  1.00  0.00     0.177 C 
HETATM   13  O1  UNL     1       5.776  -1.096  -2.830  1.00  0.00    -0.648 OA
HETATM   14  O2  UNL     1       3.597  -0.523  -2.504  1.00  0.00    -0.648 OA
ENDBRANCH   9  12
ENDBRANCH   5   6
BRANCH   5  15
HETATM   15  O3  UNL     1       1.325  -2.322   2.128  1.00  0.00    -0.332 OA
ATOM     16  H3  UNL     1       0.456  -2.529   2.450  1.00  0.00     0.220 HD
ENDBRANCH   5  15
ENDBRANCH   1   5
BRANCH   3  17
HETATM   17  C7  UNL     1      -1.584   1.306   1.606  1.00  0.00     0.179 C 
HETATM   18  C8  UNL     1      -1.760   2.796   1.432  1.00  0.00     0.037 C 
HETATM   19  C9  UNL     1      -3.141   2.963   0.783  1.00  0.00     0.022 C 
HETATM   20  C10 UNL     1      -3.750   1.580   1.054  1.00  0.00     0.127 C 
HETATM   21  N3  UNL     1      -2.566   0.756   0.737  1.00  0.00    -0.338 N 
HETATM   22  C11 UNL     1      -2.568  -0.252  -0.216  1.00  0.00     0.224 C 
HETATM   23  O5  UNL     1      -1.551  -0.952  -0.534  1.00  0.00    -0.273 OA
BRANCH  22  24
HETATM   24  C12 UNL     1      -3.826  -0.584  -0.952  1.00  0.00     0.078 C 
HETATM   25  C13 UNL     1      -3.724  -1.684  -1.955  1.00  0.00     0.014 C 
HETATM   26  C14 UNL     1      -4.257  -0.790  -3.070  1.00  0.00     0.002 C 
HETATM   27  C15 UNL     1      -4.173   0.367  -2.067  1.00  0.00     0.014 C 
ENDBRANCH  22  24
ENDBRANCH   3  17
TORSDOF 6
