REMARK  3 active torsions:
REMARK  status: ('A' for Active; 'I' for Inactive)
REMARK    1  A    between atoms: C3_3  and  N1_4 
REMARK       I    between atoms: N1_4  and  C4_6 
REMARK    2  A    between atoms: C4_6  and  C5_8 
REMARK    3  A    between atoms: C8_11  and  N2_12 
REMARK       I    between atoms: N2_12  and  C9_14 
REMARK       I    between atoms: C9_14  and  N3_16 
ROOT
HETATM    1  C1  UNL     1       8.725  -0.756  -0.301  1.00  0.00     0.014 C 
HETATM    2  C2  UNL     1       7.809  -0.033  -0.582  1.00  0.00    -0.098 C 
HETATM    3  C3  UNL     1       6.707   0.867  -0.924  1.00  0.00     0.216 C 
ENDROOT
BRANCH   3   4
HETATM    4  N1  UNL     1       5.506   0.424  -0.273  1.00  0.00    -0.350 N 
HETATM    5  C4  UNL     1       4.281   1.124  -0.438  1.00  0.00     0.222 C 
HETATM    6  O1  UNL     1       4.281   2.143  -1.172  1.00  0.00    -0.273 OA
ATOM      7  H1  UNL     1       5.533  -0.407   0.318  1.00  0.00     0.163 HD
BRANCH   5   8
HETATM    8  C5  UNL     1       3.024   0.686   0.225  1.00  0.00     0.080 C 
HETATM    9  C6  UNL     1       3.133   0.668   1.720  1.00  0.00     0.016 C 
HETATM   10  C7  UNL     1       2.016  -0.280   2.166  1.00  0.00     0.026 C 
HETATM   11  C8  UNL     1       1.600  -1.040   0.933  1.00  0.00     0.087 C 
HETATM   12  C19 UNL     1       2.708  -0.764  -0.089  1.00  0.00     0.039 C 
BRANCH  11  13
HETATM   13  N2  UNL     1       0.368  -0.522   0.359  1.00  0.00    -0.338 N 
HETATM   14  C9  UNL     1      -0.758  -1.341   0.113  1.00  0.00     0.318 C 
HETATM   15  O2  UNL     1      -0.690  -2.559   0.401  1.00  0.00    -0.247 OA
HETATM   16  N3  UNL     1      -1.925  -0.781  -0.447  1.00  0.00    -0.332 N 
HETATM   17  C10 UNL     1      -2.992  -1.748  -0.637  1.00  0.00     0.134 C 
HETATM   18  C18 UNL     1      -1.844   0.632  -0.724  1.00  0.00     0.163 C 
HETATM   19  C11 UNL     1      -4.349  -1.138  -0.421  1.00  0.00     0.037 C 
HETATM   20  C12 UNL     1      -4.566  -0.905   1.057  1.00  0.00     0.010 C 
HETATM   21  C17 UNL     1      -4.627   0.039  -1.275  1.00  0.00     0.231 C 
HETATM   22  C13 UNL     1      -5.212   0.433   1.242  1.00  0.00     0.031 C 
HETATM   23  C14 UNL     1      -4.279   1.472   0.640  1.00  0.00     0.273 C 
HETATM   24  N4  UNL     1      -4.217   1.300  -0.743  1.00  0.00     0.100 N 
HETATM   25  C15 UNL     1      -2.998   1.220  -1.439  1.00  0.00     0.243 C 
HETATM   26  C16 UNL     1      -3.633   0.233  -2.394  1.00  0.00     0.073 C 
ATOM     27  H2  UNL     1       0.314   0.469   0.125  1.00  0.00     0.164 HD
ENDBRANCH  11  13
ENDBRANCH   5   8
ENDBRANCH   3   4
TORSDOF 3
