REMARK  6 active torsions:
REMARK  status: ('A' for Active; 'I' for Inactive)
REMARK    1  A    between atoms: C2_2  and  N1_3 
REMARK       I    between atoms: N1_3  and  C3_5 
REMARK       I    between atoms: C3_5  and  N2_7 
REMARK    2  A    between atoms: N2_7  and  C4_9 
REMARK    3  A    between atoms: N3_12  and  C7_13 
REMARK    4  A    between atoms: N4_16  and  C10_17 
REMARK    5  A    between atoms: C10_17  and  O2_18 
REMARK    6  A    between atoms: C10_17  and  N5_20 
ROOT
HETATM    1  C7  UNL     1      -0.579  -0.797  -1.017  1.00  0.00     0.226 C 
HETATM    2  C8  UNL     1      -0.742  -1.416   0.352  1.00  0.00     0.055 C 
HETATM    3  C9  UNL     1      -2.121  -0.921   0.841  1.00  0.00     0.128 C 
HETATM    4  N4  UNL     1      -3.114  -1.121  -0.166  1.00  0.00    -0.347 N 
HETATM    5  C15 UNL     1      -2.819  -1.783  -1.434  1.00  0.00     0.128 C 
HETATM    6  C16 UNL     1      -1.455  -1.547  -1.961  1.00  0.00     0.055 C 
ENDROOT
BRANCH   1   7
HETATM    7  N3  UNL     1       0.754  -0.662  -1.461  1.00  0.00     0.095 N 
HETATM    8  C6  UNL     1       1.500  -1.870  -1.634  1.00  0.00     0.275 C 
HETATM    9  C5  UNL     1       2.957  -1.443  -1.615  1.00  0.00     0.057 C 
HETATM   10  C4  UNL     1       2.935  -0.337  -0.575  1.00  0.00     0.116 C 
HETATM   11  C17 UNL     1       1.545   0.229  -0.657  1.00  0.00     0.298 C 
BRANCH  10  12
HETATM   12  N2  UNL     1       3.892   0.674  -1.023  1.00  0.00    -0.337 N 
HETATM   13  C3  UNL     1       4.991   0.977  -0.205  1.00  0.00     0.316 C 
HETATM   14  N1  UNL     1       5.922   1.958  -0.631  1.00  0.00    -0.343 N 
HETATM   15  O1  UNL     1       5.140   0.370   0.904  1.00  0.00    -0.247 OA
ATOM     16  H1  UNL     1       5.793   2.444  -1.518  1.00  0.00     0.164 HD
ATOM     17  H2  UNL     1       3.763   1.151  -1.915  1.00  0.00     0.164 HD
BRANCH  14  18
HETATM   18  C2  UNL     1       7.054   2.257   0.211  1.00  0.00     0.120 C 
HETATM   19  C1  UNL     1       7.881   1.015   0.388  1.00  0.00     0.026 C 
ENDBRANCH  14  18
ENDBRANCH  10  12
ENDBRANCH   1   7
BRANCH   4  20
HETATM   20  C10 UNL     1      -4.436  -0.677   0.032  1.00  0.00     0.217 C 
BRANCH  20  21
HETATM   21  O2  UNL     1      -5.253  -0.916  -0.963  1.00  0.00    -0.333 OA
ATOM     22  H2  UNL     1      -6.145  -0.617  -0.829  1.00  0.00     0.220 HD
ENDBRANCH  20  21
BRANCH  20  23
HETATM   23  N5  UNL     1      -5.000  -0.019   1.134  1.00  0.00    -0.348 N 
HETATM   24  C11 UNL     1      -6.440   0.377   1.147  1.00  0.00     0.126 C 
HETATM   25  C12 UNL     1      -6.257   1.862   1.458  1.00  0.00     0.021 C 
HETATM   26  C13 UNL     1      -4.992   1.933   2.300  1.00  0.00     0.021 C 
HETATM   27  C14 UNL     1      -4.568   0.450   2.413  1.00  0.00     0.126 C 
ENDBRANCH  20  23
ENDBRANCH   4  20
TORSDOF 6
