REMARK  3 active torsions:
REMARK  status: ('A' for Active; 'I' for Inactive)
REMARK    1  A    between atoms: C2_2  and  C3_3 
REMARK       I    between atoms: C3_3  and  N1_5 
REMARK    2  A    between atoms: C8_13  and  C9_14 
REMARK    3  A    between atoms: C12_17  and  C13_18 
ROOT
HETATM    1  C3  UNL     1      -2.903   0.279   0.219  1.00  0.00     0.220 C 
HETATM    2  O1  UNL     1      -3.417   1.428   0.045  1.00  0.00    -0.273 OA
HETATM    3  N1  UNL     1      -1.508   0.120  -0.038  1.00  0.00    -0.335 N 
HETATM    4  C4  UNL     1      -0.817  -1.141   0.121  1.00  0.00     0.152 C 
HETATM    5  C5  UNL     1       0.251  -1.016  -0.946  1.00  0.00     0.101 C 
HETATM    6  N2  UNL     1       1.323  -1.906  -0.773  1.00  0.00    -0.414 N 
ATOM      7  H2  UNL     1       1.181  -2.810  -0.322  1.00  0.00     0.153 HD
HETATM    8  C6  UNL     1       2.606  -1.524  -1.237  1.00  0.00     0.130 C 
HETATM    9  C7  UNL     1       2.892  -0.059  -1.268  1.00  0.00     0.080 C 
HETATM   10 BR1  UNL     1       4.709   0.443  -1.141  1.00  0.00    -0.089 Br
HETATM   11  C8  UNL     1       1.951   0.719  -0.328  1.00  0.00     0.010 C 
HETATM   12  C11 UNL     1       0.617   0.467  -0.914  1.00  0.00     0.048 C 
HETATM   13  C12 UNL     1      -0.581   1.160  -0.490  1.00  0.00     0.194 C 
ENDROOT
BRANCH   1  14
HETATM   14  C2  UNL     1      -3.763  -0.826   0.674  1.00  0.00     0.098 C 
HETATM   15  C1  UNL     1      -5.185  -0.343   0.857  1.00  0.00     0.014 C 
ENDBRANCH   1  14
BRANCH  13  16
HETATM   16  C13 UNL     1      -0.523   2.186   0.523  1.00  0.00     0.197 C 
HETATM   17  O2  UNL     1       0.217   3.209   0.324  1.00  0.00    -0.646 OA
HETATM   18  O3  UNL     1      -1.206   2.177   1.728  1.00  0.00    -0.646 OA
ENDBRANCH  13  16
BRANCH  11  19
HETATM   19  C9  UNL     1       2.162   0.382   1.100  1.00  0.00     0.002 C 
HETATM   20  C10 UNL     1       3.526   0.652   1.633  1.00  0.00     0.005 C 
ENDBRANCH  11  19
TORSDOF 3
