REMARK  6 active torsions:
REMARK  status: ('A' for Active; 'I' for Inactive)
REMARK    1  A    between atoms: C2_2  and  N1_3 
REMARK    2  A    between atoms: N2_6  and  C5_7 
REMARK    3  A    between atoms: C5_7  and  N3_9 
REMARK    4  A    between atoms: N3_9  and  N4_11 
REMARK       I    between atoms: N4_11  and  C6_13 
REMARK    5  A    between atoms: C6_13  and  C7_15 
REMARK    6  A    between atoms: C7_15  and  C8_16 
ROOT
HETATM    1  C5  UNL     1      -0.108   2.177   1.363  1.00  0.00     0.188 C 
HETATM    2  S1  UNL     1      -0.539   3.346   2.474  1.00  0.00    -0.039 SA
ENDROOT
BRANCH   1   3
HETATM    3  N2  UNL     1      -1.079   1.223   1.042  1.00  0.00    -0.354 N 
HETATM    4  C4  UNL     1      -2.404   1.312   1.696  1.00  0.00     0.155 C 
HETATM    5  C3  UNL     1      -3.398   1.041   0.572  1.00  0.00     0.292 C 
HETATM    6  N1  UNL     1      -3.305  -0.382   0.331  1.00  0.00     0.091 N 
HETATM    7  C11 UNL     1      -2.007  -0.837   0.015  1.00  0.00     0.292 C 
HETATM    8  C10 UNL     1      -0.886   0.161   0.124  1.00  0.00     0.155 C 
BRANCH   6   9
HETATM    9  C2  UNL     1      -4.222  -0.718  -0.735  1.00  0.00     0.268 C 
HETATM   10  C1  UNL     1      -4.206  -2.198  -1.046  1.00  0.00     0.037 C 
ENDBRANCH   6   9
ENDBRANCH   1   3
BRANCH   1  11
HETATM   11  N3  UNL     1       1.182   2.259   0.859  1.00  0.00    -0.274 N 
ATOM     12  H3  UNL     1       1.743   3.031   1.220  1.00  0.00     0.189 HD
BRANCH  11  13
HETATM   13  N4  UNL     1       1.819   1.443  -0.065  1.00  0.00    -0.268 N 
HETATM   14  C6  UNL     1       2.983   0.748   0.328  1.00  0.00     0.237 C 
HETATM   15  O1  UNL     1       3.463   0.840   1.486  1.00  0.00    -0.272 OA
ATOM     16  H4  UNL     1       1.452   1.347  -1.012  1.00  0.00     0.190 HD
BRANCH  14  17
HETATM   17  C7  UNL     1       3.660  -0.121  -0.660  1.00  0.00     0.120 C 
BRANCH  17  18
HETATM   18  C8  UNL     1       4.888  -0.791  -0.080  1.00  0.00     0.062 C 
HETATM   19  C9  UNL     1       5.484  -1.646  -1.189  1.00  0.00     0.022 C 
HETATM   20 BR1  UNL     1       6.171   0.495   0.562  1.00  0.00    -0.091 Br
ENDBRANCH  17  18
ENDBRANCH  14  17
ENDBRANCH  11  13
ENDBRANCH   1  11
TORSDOF 6
