REMARK  3 active torsions:
REMARK  status: ('A' for Active; 'I' for Inactive)
REMARK       I    between atoms: N1_2  and  C2_4 
REMARK    1  A    between atoms: C2_4  and  C3_6 
REMARK       I    between atoms: N3_14  and  C9_15 
REMARK    2  A    between atoms: C9_15  and  C10_17 
REMARK    3  A    between atoms: C13_20  and  C14_21 
REMARK       I    between atoms: C14_21  and  N4_23 
ROOT
HETATM    1  C3  UNL     1       2.760  -1.441  -0.887  1.00  0.00     0.095 C 
HETATM    2  C4  UNL     1       1.790  -2.248  -0.092  1.00  0.00     0.128 C 
HETATM    3  N2  UNL     1       0.402  -1.936  -0.335  1.00  0.00    -0.413 N 
ATOM      4  H2  UNL     1      -0.313  -2.660  -0.403  1.00  0.00     0.153 HD
HETATM    5  C5  UNL     1       0.097  -0.567  -0.473  1.00  0.00     0.114 C 
HETATM    6  C6  UNL     1       1.292   0.234   0.028  1.00  0.00     0.029 C 
HETATM    7  C7  UNL     1       2.356   0.015  -1.017  1.00  0.00     0.024 C 
HETATM    8  C8  UNL     1       0.671   1.618  -0.009  1.00  0.00     0.133 C 
HETATM    9  N3  UNL     1      -0.697   1.404   0.436  1.00  0.00    -0.336 N 
HETATM   10  C9  UNL     1      -1.590   2.411   0.907  1.00  0.00     0.224 C 
HETATM   11  O2  UNL     1      -2.766   2.100   1.283  1.00  0.00    -0.273 OA
HETATM   12  C13 UNL     1      -1.023  -0.004   0.336  1.00  0.00     0.202 C 
ENDROOT
BRANCH  12  13
HETATM   13  C14 UNL     1      -2.261  -0.226  -0.458  1.00  0.00     0.244 C 
HETATM   14  O3  UNL     1      -2.671   0.707  -1.184  1.00  0.00    -0.271 OA
HETATM   15  N4  UNL     1      -2.984  -1.432  -0.424  1.00  0.00    -0.350 N 
HETATM   16  C15 UNL     1      -4.182  -1.704  -1.189  1.00  0.00     0.126 C 
HETATM   17  C18 UNL     1      -2.738  -2.630   0.349  1.00  0.00     0.126 C 
HETATM   18  C16 UNL     1      -5.095  -2.279  -0.126  1.00  0.00     0.021 C 
HETATM   19  C17 UNL     1      -4.143  -3.089   0.694  1.00  0.00     0.021 C 
ENDBRANCH  12  13
BRANCH  10  20
HETATM   20  C10 UNL     1      -1.235   3.844   0.995  1.00  0.00     0.070 C 
HETATM   21  C11 UNL     1      -0.123   4.149   1.952  1.00  0.00     0.019 C 
HETATM   22  C12 UNL     1      -0.857   4.387  -0.392  1.00  0.00     0.019 C 
ENDBRANCH  10  20
BRANCH   1  23
HETATM   23  C2  UNL     1       4.071  -1.469  -0.190  1.00  0.00     0.223 C 
HETATM   24  N1  UNL     1       5.216  -0.796  -0.687  1.00  0.00    -0.365 N 
HETATM   25  C1  UNL     1       6.498  -0.816  -0.017  1.00  0.00     0.149 C 
ATOM     26  H1  UNL     1       5.132  -0.273  -1.559  1.00  0.00     0.161 HD
HETATM   27  O1  UNL     1       4.227  -2.111   0.904  1.00  0.00    -0.273 OA
ENDBRANCH   1  23
TORSDOF 3
