REMARK  4 active torsions:
REMARK  status: ('A' for Active; 'I' for Inactive)
REMARK       I    between atoms: C1_2  and  N1_3 
REMARK       I    between atoms: C1_2  and  N3_21 
REMARK    1  A    between atoms: N1_3  and  C2_5 
REMARK    2  A    between atoms: C2_5  and  C3_6 
REMARK    3  A    between atoms: C3_6  and  N2_7 
REMARK       I    between atoms: N2_7  and  C4_9 
REMARK    4  A    between atoms: C4_9  and  C5_11 
ROOT
HETATM    1  N2  UNL     1       0.549  -0.521  -0.172  1.00  0.00    -0.359 N 
ATOM      2  H2  UNL     1       0.176  -0.830  -1.070  1.00  0.00     0.162 HD
HETATM    3  C4  UNL     1      -0.377  -0.102   0.793  1.00  0.00     0.226 C 
HETATM    4  O2  UNL     1       0.005   0.285   1.914  1.00  0.00    -0.273 OA
ENDROOT
BRANCH   1   5
HETATM    5  C3  UNL     1       1.994  -0.554  -0.008  1.00  0.00     0.142 C 
BRANCH   5   6
HETATM    6  C2  UNL     1       2.550   0.814   0.248  1.00  0.00     0.144 C 
BRANCH   6   7
HETATM    7  N1  UNL     1       3.974   0.737   0.401  1.00  0.00    -0.341 N 
HETATM    8  C1  UNL     1       4.816   0.310  -0.623  1.00  0.00     0.332 C 
HETATM    9  O1  UNL     1       4.415  -0.029  -1.747  1.00  0.00    -0.246 OA
HETATM   10  N3  UNL     1       6.227   0.254  -0.382  1.00  0.00    -0.210 N 
HETATM   11  C15 UNL     1       7.586  -0.057  -0.909  1.00  0.00     0.309 A 
HETATM   12  S1  UNL     1       7.593   0.479   0.683  1.00  0.00     0.255 S 
HETATM   13  O3  UNL     1       7.979   1.869   1.045  1.00  0.00    -0.204 OA
HETATM   14  O4  UNL     1       7.772  -0.518   1.793  1.00  0.00    -0.204 OA
ATOM     15  H1  UNL     1       4.386   1.005   1.295  1.00  0.00     0.164 HD
ENDBRANCH   6   7
ENDBRANCH   5   6
ENDBRANCH   1   5
BRANCH   3  16
HETATM   16  C5  UNL     1      -1.823  -0.116   0.486  1.00  0.00     0.042 C 
HETATM   17  C6  UNL     1      -2.037   0.801  -0.704  1.00  0.00     0.024 C 
HETATM   18  C7  UNL     1      -3.495   0.743  -1.152  1.00  0.00    -0.013 C 
HETATM   19  C8  UNL     1      -4.320   1.259   0.005  1.00  0.00     0.009 C 
HETATM   20  C12 UNL     1      -3.795  -0.691  -1.485  1.00  0.00     0.009 C 
HETATM   21  C9  UNL     1      -4.091   0.395   1.209  1.00  0.00    -0.013 C 
HETATM   22  C10 UNL     1      -4.553  -1.005   0.865  1.00  0.00     0.009 C 
HETATM   23  C14 UNL     1      -2.650   0.415   1.639  1.00  0.00     0.024 C 
HETATM   24  C11 UNL     1      -3.705  -1.548  -0.252  1.00  0.00    -0.013 C 
HETATM   25  C13 UNL     1      -2.249  -1.530   0.205  1.00  0.00     0.024 C 
ENDBRANCH   3  16
TORSDOF 4
