REMARK  5 active torsions:
REMARK  status: ('A' for Active; 'I' for Inactive)
REMARK       I    between atoms: C1_2  and  N1_3 
REMARK    1  A    between atoms: C1_2  and  C9_16 
REMARK    2  A    between atoms: N1_3  and  C2_5 
REMARK    3  A    between atoms: C2_5  and  C3_6 
REMARK    4  A    between atoms: C2_5  and  C8_13 
REMARK    5  A    between atoms: C3_6  and  N2_7 
ROOT
HETATM    1  O1  UNL     1       1.201   0.014  -2.040  1.00  0.00    -0.268 OA
HETATM    2  C1  UNL     1       1.547  -0.232  -0.839  1.00  0.00     0.254 C 
HETATM    3  N1  UNL     1       0.764  -1.062   0.003  1.00  0.00    -0.345 N 
ATOM      4  H1  UNL     1       1.059  -1.247   0.962  1.00  0.00     0.163 HD
ENDROOT
BRANCH   3   5
HETATM    5  C2  UNL     1      -0.440  -1.636  -0.504  1.00  0.00     0.177 C 
BRANCH   5   6
HETATM    6  C3  UNL     1      -1.669  -1.379   0.283  1.00  0.00     0.303 C 
BRANCH   6   7
HETATM    7  N2  UNL     1      -2.024   0.001   0.432  1.00  0.00     0.094 N 
HETATM    8  C4  UNL     1      -2.445   0.624  -0.804  1.00  0.00     0.298 C 
HETATM    9  C5  UNL     1      -2.681   2.093  -0.515  1.00  0.00     0.198 C 
HETATM   10  O2  UNL     1      -3.382   2.288   0.671  1.00  0.00    -0.388 OA
HETATM   11  C6  UNL     1      -4.136   1.163   0.918  1.00  0.00     0.198 C 
HETATM   12  C7  UNL     1      -3.200   0.042   1.315  1.00  0.00     0.298 C 
ENDBRANCH   6   7
ENDBRANCH   5   6
BRANCH   5  13
HETATM   13  C8  UNL     1      -0.225  -3.160  -0.517  1.00  0.00     0.377 C 
HETATM   14  F1  UNL     1       0.023  -3.510   0.809  1.00  0.00    -0.212 F 
HETATM   15  F2  UNL     1      -1.376  -3.802  -0.909  1.00  0.00    -0.212 F 
ENDBRANCH   5  13
ENDBRANCH   3   5
BRANCH   2  16
HETATM   16  C9  UNL     1       2.783   0.379  -0.377  1.00  0.00     0.057 A 
HETATM   17  C10 UNL     1       2.831   1.619   0.220  1.00  0.00     0.044 A 
HETATM   18  C11 UNL     1       4.037   2.174   0.653  1.00  0.00     0.058 A 
HETATM   19 CL1  UNL     1       4.045   3.744   1.403  1.00  0.00    -0.082 Cl
HETATM   20  C12 UNL     1       5.188   1.465   0.475  1.00  0.00     0.079 A 
HETATM   21 CL2  UNL     1       6.741   2.123   1.006  1.00  0.00    -0.081 Cl
HETATM   22  C13 UNL     1       5.172   0.217  -0.123  1.00  0.00     0.080 A 
HETATM   23 CL3  UNL     1       6.681  -0.643  -0.321  1.00  0.00    -0.081 Cl
HETATM   24  C14 UNL     1       3.969  -0.315  -0.543  1.00  0.00     0.073 A 
HETATM   25 CL4  UNL     1       3.932  -1.882  -1.299  1.00  0.00    -0.081 Cl
ENDBRANCH   2  16
TORSDOF 5
