REMARK  4 active torsions:
REMARK  status: ('A' for Active; 'I' for Inactive)
REMARK       I    between atoms: C1_2  and  N1_3 
REMARK       I    between atoms: C1_2  and  N2_13 
REMARK    1  A    between atoms: N1_3  and  C2_5 
REMARK    2  A    between atoms: C10_16  and  C11_17 
REMARK    3  A    between atoms: C11_17  and  O2_18 
REMARK    4  A    between atoms: O2_18  and  C12_19 
ROOT
HETATM    1  O1  UNL     1       1.372  -2.468  -1.352  1.00  0.00    -0.247 OA
HETATM    2  C1  UNL     1       1.172  -1.471  -0.633  1.00  0.00     0.318 C 
HETATM    3  N1  UNL     1       2.199  -0.522  -0.442  1.00  0.00    -0.338 N 
ATOM      4  H1  UNL     1       2.012   0.286   0.152  1.00  0.00     0.164 HD
HETATM    5  N2  UNL     1      -0.088  -1.287  -0.004  1.00  0.00    -0.334 N 
HETATM    6  C8  UNL     1      -1.250  -2.160  -0.091  1.00  0.00     0.128 C 
HETATM    7  C9  UNL     1      -1.671  -2.257   1.359  1.00  0.00     0.028 C 
HETATM    8  C10 UNL     1      -1.468  -0.834   1.837  1.00  0.00     0.030 C 
HETATM    9  C17 UNL     1      -0.503  -0.196   0.864  1.00  0.00     0.134 C 
ENDROOT
BRANCH   3  10
HETATM   10  C2  UNL     1       3.513  -0.645  -1.055  1.00  0.00     0.086 C 
HETATM   11  C3  UNL     1       4.606  -0.770  -0.054  1.00  0.00     0.031 C 
HETATM   12  C4  UNL     1       5.239   0.498   0.373  1.00  0.00     0.081 C 
HETATM   13  C5  UNL     1       5.465   1.490  -0.735  1.00  0.00     0.243 C 
HETATM   14  F1  UNL     1       6.708   2.050  -0.732  1.00  0.00    -0.206 F 
HETATM   15  F2  UNL     1       4.542   2.513  -0.583  1.00  0.00    -0.206 F 
HETATM   16  C6  UNL     1       5.144   0.849  -2.092  1.00  0.00     0.081 C 
HETATM   17  C7  UNL     1       3.669   0.491  -2.015  1.00  0.00     0.031 C 
ENDBRANCH   3  10
BRANCH   8  18
HETATM   18  C11 UNL     1      -2.786  -0.065   1.879  1.00  0.00     0.183 C 
BRANCH  18  19
HETATM   19  O2  UNL     1      -3.365  -0.016   0.592  1.00  0.00    -0.335 OA
BRANCH  19  20
HETATM   20  C12 UNL     1      -4.580   0.632   0.359  1.00  0.00     0.146 A 
HETATM   21  C13 UNL     1      -5.119   0.662  -0.910  1.00  0.00     0.101 A 
HETATM   22  C14 UNL     1      -6.308   1.298  -1.133  1.00  0.00     0.162 A 
HETATM   23  F3  UNL     1      -6.831   1.319  -2.401  1.00  0.00    -0.203 F 
HETATM   24  C15 UNL     1      -6.994   1.917  -0.118  1.00  0.00     0.193 A 
HETATM   25  F4  UNL     1      -8.166   2.542  -0.344  1.00  0.00    -0.199 F 
HETATM   26  C16 UNL     1      -6.426   1.868   1.143  1.00  0.00     0.147 A 
HETATM   27 CL1  UNL     1      -7.317   2.667   2.436  1.00  0.00    -0.061 Cl
HETATM   28  N3  UNL     1      -5.260   1.242   1.348  1.00  0.00    -0.325 N 
ATOM     29  H3  UNL     1      -4.872   1.227   2.291  1.00  0.00     0.169 HD
ENDBRANCH  19  20
ENDBRANCH  18  19
ENDBRANCH   8  18
TORSDOF 4
