REMARK  5 active torsions:
REMARK  status: ('A' for Active; 'I' for Inactive)
REMARK    1  A    between atoms: C1_2  and  C2_3 
REMARK       I    between atoms: C1_2  and  N1_16 
REMARK    2  A    between atoms: C2_3  and  O2_4 
REMARK    3  A    between atoms: O2_4  and  C3_5 
REMARK    4  A    between atoms: N1_16  and  C9_18 
REMARK    5  A    between atoms: C12_24  and  C13_25 
ROOT
HETATM    1  O1  UNL     1       1.379  -0.438  -1.729  1.00  0.00    -0.266 OA
HETATM    2  C1  UNL     1       0.888   0.063  -0.730  1.00  0.00     0.281 C 
HETATM    3  N1  UNL     1      -0.422   0.720  -0.792  1.00  0.00    -0.154 N 
ATOM      4  H1  UNL     1      -0.534   1.704  -1.037  1.00  0.00     0.187 HD
ENDROOT
BRANCH   2   5
HETATM    5  C2  UNL     1       1.494   0.079   0.586  1.00  0.00     0.217 C 
BRANCH   5   6
HETATM    6  O2  UNL     1       2.670  -0.509   0.884  1.00  0.00    -0.311 OA
BRANCH   6   7
HETATM    7  C3  UNL     1       3.948  -0.380   0.427  1.00  0.00     0.157 A 
HETATM    8  C4  UNL     1       4.739   0.689   0.914  1.00  0.00     0.194 A 
HETATM    9  F1  UNL     1       4.105   1.517   1.821  1.00  0.00    -0.200 F 
HETATM   10  C5  UNL     1       6.028   0.910   0.539  1.00  0.00     0.198 A 
HETATM   11  F2  UNL     1       6.724   1.970   1.053  1.00  0.00    -0.199 F 
HETATM   12  C6  UNL     1       6.622   0.070  -0.363  1.00  0.00     0.182 A 
HETATM   13  F3  UNL     1       7.891   0.197  -0.791  1.00  0.00    -0.201 F 
HETATM   14  C7  UNL     1       5.872  -0.983  -0.857  1.00  0.00     0.117 A 
HETATM   15 CL1  UNL     1       6.607  -2.060  -2.005  1.00  0.00    -0.077 Cl
HETATM   16  C8  UNL     1       4.568  -1.217  -0.481  1.00  0.00     0.178 A 
HETATM   17  F4  UNL     1       3.917  -2.318  -0.979  1.00  0.00    -0.201 F 
ENDBRANCH   6   7
ENDBRANCH   5   6
ENDBRANCH   2   5
BRANCH   3  18
HETATM   18  C9  UNL     1      -1.424  -0.049  -0.511  1.00  0.00     0.685 A 
HETATM   19  N2  UNL     1      -1.283  -1.347  -0.185  1.00  0.00    -0.200 N 
HETATM   20  C10 UNL     1      -2.362  -2.117   0.127  1.00  0.00     0.132 A 
ATOM     21  H2  UNL     1      -0.351  -1.762  -0.171  1.00  0.00     0.183 HD
HETATM   22  C11 UNL     1      -3.632  -1.585   0.120  1.00  0.00     0.073 A 
HETATM   23 CL2  UNL     1      -5.005  -2.600   0.537  1.00  0.00    -0.081 Cl
HETATM   24  C12 UNL     1      -3.773  -0.242  -0.215  1.00  0.00     0.053 A 
HETATM   25  N3  UNL     1      -2.681   0.456  -0.510  1.00  0.00    -0.193 N 
ATOM     26  H3  UNL     1      -2.798   1.440  -0.752  1.00  0.00     0.184 HD
BRANCH  24  27
HETATM   27  C13 UNL     1      -5.154   0.323  -0.206  1.00  0.00     0.038 A 
HETATM   28  C14 UNL     1      -5.297   1.866  -0.149  1.00  0.00     0.011 A 
HETATM   29  C15 UNL     1      -5.623   1.105  -1.382  1.00  0.00     0.011 A 
ENDBRANCH  24  27
ENDBRANCH   3  18
TORSDOF 5
