REMARK  6 active torsions:
REMARK  status: ('A' for Active; 'I' for Inactive)
REMARK    1  A    between atoms: C2_2  and  O1_3 
REMARK    2  A    between atoms: O1_3  and  C3_4 
REMARK       I    between atoms: C3_4  and  N1_6 
REMARK    3  A    between atoms: N1_6  and  C4_8 
REMARK    4  A    between atoms: C4_8  and  C5_9 
REMARK    5  A    between atoms: C4_8  and  C12_22 
REMARK       I    between atoms: C5_9  and  N2_11 
REMARK    6  A    between atoms: C10_17  and  C11_18 
ROOT
HETATM    1  C4  UNL     1      -0.545  -0.013  -0.470  1.00  0.00     0.183 C 
ENDROOT
BRANCH   1   2
HETATM    2  N1  UNL     1      -1.295   1.088  -1.103  1.00  0.00    -0.323 N 
HETATM    3  C3  UNL     1      -1.893   2.066  -0.283  1.00  0.00     0.361 C 
HETATM    4  O2  UNL     1      -1.792   2.007   0.975  1.00  0.00    -0.238 OA
ATOM      5  H1  UNL     1      -1.380   1.141  -2.118  1.00  0.00     0.165 HD
BRANCH   3   6
HETATM    6  O1  UNL     1      -2.616   3.137  -0.787  1.00  0.00    -0.304 OA
BRANCH   6   7
HETATM    7  C2  UNL     1      -3.195   4.091   0.080  1.00  0.00     0.176 C 
HETATM    8  C1  UNL     1      -3.910   5.121  -0.778  1.00  0.00     0.034 C 
ENDBRANCH   6   7
ENDBRANCH   3   6
ENDBRANCH   1   2
BRANCH   1   9
HETATM    9  C5  UNL     1       0.857   0.023  -0.956  1.00  0.00     0.243 C 
HETATM   10  O3  UNL     1       1.056   0.251  -2.211  1.00  0.00    -0.271 OA
HETATM   11  N2  UNL     1       2.018  -0.166  -0.169  1.00  0.00    -0.334 N 
HETATM   12  C6  UNL     1       2.032  -0.384   1.237  1.00  0.00     0.164 C 
HETATM   13  C10 UNL     1       3.311  -0.144  -0.860  1.00  0.00     0.195 C 
HETATM   14  C7  UNL     1       3.100   0.335   2.007  1.00  0.00     0.188 C 
HETATM   15  F1  UNL     1       2.578   1.453   2.674  1.00  0.00    -0.248 F 
HETATM   16  C8  UNL     1       4.317   0.715   1.262  1.00  0.00     0.041 C 
HETATM   17  C9  UNL     1       4.128   0.926  -0.206  1.00  0.00     0.037 C 
BRANCH  13  18
HETATM   18  C11 UNL     1       3.962  -1.486  -0.897  1.00  0.00     0.407 C 
HETATM   19  F2  UNL     1       5.171  -1.327  -1.574  1.00  0.00    -0.169 F 
HETATM   20  F3  UNL     1       4.254  -2.025   0.317  1.00  0.00    -0.169 F 
HETATM   21  F4  UNL     1       3.199  -2.326  -1.686  1.00  0.00    -0.169 F 
ENDBRANCH  13  18
ENDBRANCH   1   9
BRANCH   1  22
HETATM   22  C12 UNL     1      -1.177  -1.310  -0.931  1.00  0.00     0.018 C 
HETATM   23  C13 UNL     1      -0.532  -2.534  -0.377  1.00  0.00     0.013 C 
HETATM   24  C14 UNL     1      -1.054  -2.701   1.058  1.00  0.00     0.079 C 
HETATM   25  C15 UNL     1      -2.436  -3.317   0.906  1.00  0.00     0.243 C 
HETATM   26  F5  UNL     1      -2.221  -4.675   0.681  1.00  0.00    -0.206 F 
HETATM   27  F6  UNL     1      -3.168  -3.227   2.065  1.00  0.00    -0.206 F 
HETATM   28  C16 UNL     1      -3.139  -2.717  -0.287  1.00  0.00     0.079 C 
HETATM   29  C17 UNL     1      -2.643  -1.310  -0.505  1.00  0.00     0.013 C 
ENDBRANCH   1  22
TORSDOF 6
