REMARK  4 active torsions:
REMARK  status: ('A' for Active; 'I' for Inactive)
REMARK    1  A    between atoms: C2_3  and  C3_4 
REMARK    2  A    between atoms: C2_3  and  N3_19 
REMARK    3  A    between atoms: C3_4  and  N2_5 
REMARK       I    between atoms: N2_5  and  C4_7 
REMARK    4  A    between atoms: C4_7  and  C5_9 
ROOT
HETATM    1  N1  UNL     1      -0.535   2.110  -2.191  1.00  0.00    -0.195 NA
HETATM    2  C1  UNL     1      -0.781   1.196  -1.516  1.00  0.00     0.086 C 
HETATM    3  C2  UNL     1      -1.069   0.022  -0.659  1.00  0.00     0.205 C 
ENDROOT
BRANCH   3   4
HETATM    4  C3  UNL     1      -0.014   0.032   0.436  1.00  0.00     0.162 C 
BRANCH   4   5
HETATM    5  N2  UNL     1       1.335  -0.070  -0.142  1.00  0.00    -0.354 N 
HETATM    6  C4  UNL     1       2.452  -0.074   0.688  1.00  0.00     0.256 C 
HETATM    7  O1  UNL     1       2.198   0.030   1.949  1.00  0.00    -0.267 OA
ATOM      8  H2  UNL     1       1.452  -0.138  -1.153  1.00  0.00     0.162 HD
BRANCH   6   9
HETATM    9  C5  UNL     1       3.852  -0.172   0.347  1.00  0.00     0.094 A 
HETATM   10  C6  UNL     1       4.331  -0.642  -0.850  1.00  0.00     0.054 A 
HETATM   11 CL1  UNL     1       3.275  -1.304  -2.106  1.00  0.00    -0.083 Cl
HETATM   12  C7  UNL     1       5.695  -0.679  -1.168  1.00  0.00     0.050 A 
HETATM   13  C8  UNL     1       6.575  -0.218  -0.220  1.00  0.00     0.060 A 
HETATM   14 CL2  UNL     1       8.295  -0.238  -0.561  1.00  0.00    -0.082 Cl
HETATM   15  C9  UNL     1       6.114   0.257   0.987  1.00  0.00     0.095 A 
HETATM   16 CL3  UNL     1       7.253   0.851   2.210  1.00  0.00    -0.079 Cl
HETATM   17  C10 UNL     1       4.784   0.292   1.295  1.00  0.00     0.157 A 
HETATM   18  F1  UNL     1       4.351   0.770   2.504  1.00  0.00    -0.203 F 
ENDBRANCH   6   9
ENDBRANCH   4   5
ENDBRANCH   3   4
BRANCH   3  19
HETATM   19  N3  UNL     1      -2.347   0.183  -0.050  1.00  0.00    -0.395 N 
HETATM   20  C11 UNL     1      -2.871  -0.972   0.594  1.00  0.00     0.124 C 
HETATM   21  C12 UNL     1      -4.333  -1.208   0.385  1.00  0.00     0.098 C 
HETATM   22  C13 UNL     1      -5.179   0.026   0.508  1.00  0.00     0.246 C 
HETATM   23  F2  UNL     1      -6.195  -0.036  -0.445  1.00  0.00    -0.206 F 
HETATM   24  F3  UNL     1      -5.808   0.122   1.736  1.00  0.00    -0.206 F 
HETATM   25  C14 UNL     1      -4.413   1.300   0.239  1.00  0.00     0.098 C 
HETATM   26  C15 UNL     1      -3.323   0.917  -0.776  1.00  0.00     0.124 C 
ENDBRANCH   3  19
TORSDOF 4
