REMARK  3 active torsions:
REMARK  status: ('A' for Active; 'I' for Inactive)
REMARK    1  A    between atoms: N2_12  and  C8_14 
REMARK    2  A    between atoms: C8_14  and  C9_15 
REMARK    3  A    between atoms: C9_15  and  N3_16 
ROOT
HETATM    1  C1  UNL     1      -4.510   0.876   2.103  1.00  0.00     0.070 C 
HETATM    2  C2  UNL     1      -3.559   0.362   1.060  1.00  0.00     0.028 A 
HETATM    3  N1  UNL     1      -4.045  -0.241  -0.041  1.00  0.00    -0.326 N 
ATOM      4  H1  UNL     1      -5.047  -0.361  -0.189  1.00  0.00     0.169 HD
HETATM    5  C3  UNL     1      -3.138  -0.679  -0.939  1.00  0.00     0.258 A 
HETATM    6  O1  UNL     1      -3.568  -1.250  -1.982  1.00  0.00    -0.267 OA
HETATM    7  C4  UNL     1      -1.784  -0.535  -0.772  1.00  0.00     0.061 A 
HETATM    8  C5  UNL     1      -0.860  -0.982  -1.688  1.00  0.00     0.042 A 
HETATM    9  C6  UNL     1       0.507  -0.791  -1.433  1.00  0.00     0.055 A 
HETATM   10 BR1  UNL     1       1.670  -1.464  -2.795  1.00  0.00    -0.047 Br
HETATM   11  C7  UNL     1       0.951  -0.175  -0.306  1.00  0.00     0.119 A 
HETATM   12  N2  UNL     1       2.121   0.036   0.001  1.00  0.00    -0.374 N 
ATOM     13  H2  UNL     1       2.219   0.515   0.896  1.00  0.00     0.161 HD
HETATM   14  N4  UNL     1       0.001   0.259   0.588  1.00  0.00    -0.340 N 
ATOM     15  H4  UNL     1       0.301   0.724   1.445  1.00  0.00     0.167 HD
HETATM   16  C10 UNL     1      -1.316   0.085   0.361  1.00  0.00     0.069 A 
HETATM   17  C11 UNL     1      -2.220   0.546   1.303  1.00  0.00     0.061 A 
HETATM   18 BR2  UNL     1      -1.577   1.407   2.877  1.00  0.00    -0.046 Br
ENDROOT
BRANCH  12  19
HETATM   19  C8  UNL     1       3.345  -0.238  -0.610  1.00  0.00     0.148 C 
BRANCH  19  20
HETATM   20  C9  UNL     1       4.536   0.280   0.215  1.00  0.00     0.249 C 
BRANCH  20  21
HETATM   21  N3  UNL     1       5.728  -0.078  -0.548  1.00  0.00    -0.078 N 
ATOM     22  H33 UNL     1       5.787  -1.071  -0.773  1.00  0.00     0.274 HD
ATOM     23  H32 UNL     1       5.717   0.263  -1.509  1.00  0.00     0.274 HD
ATOM     24  H31 UNL     1       6.518   0.265  -0.001  1.00  0.00     0.274 HD
ENDBRANCH  20  21
ENDBRANCH  19  20
ENDBRANCH  12  19
TORSDOF 3
