REMARK  3 active torsions:
REMARK  status: ('A' for Active; 'I' for Inactive)
REMARK    1  A    between atoms: N1_1  and  C1_5 
REMARK    2  A    between atoms: C4_11  and  C5_12 
REMARK    3  A    between atoms: C5_12  and  C6_13 
ROOT
HETATM    1  C1  UNL     1      -3.028  -0.342  -0.927  1.00  0.00     0.187 C 
HETATM    2  C2  UNL     1      -2.945   0.955  -0.171  1.00  0.00     0.060 C 
HETATM    3  C3  UNL     1      -2.516   0.740   1.248  1.00  0.00     0.235 C 
HETATM    4  N2  UNL     1      -1.318  -0.034   1.282  1.00  0.00    -0.071 N 
ATOM      5  H21 UNL     1      -1.464  -0.894   1.811  1.00  0.00     0.277 HD
ATOM      6  H22 UNL     1      -0.619   0.417   1.872  1.00  0.00     0.277 HD
HETATM    7  C4  UNL     1      -0.767  -0.329  -0.011  1.00  0.00     0.189 C 
HETATM    8  C11 UNL     1      -1.754  -1.142  -0.859  1.00  0.00     0.066 C 
ENDROOT
BRANCH   7   9
HETATM    9  C5  UNL     1       0.516  -1.073   0.171  1.00  0.00     0.055 C 
BRANCH   9  10
HETATM   10  C6  UNL     1       1.523  -0.267   0.940  1.00  0.00     0.043 C 
HETATM   11 BR1  UNL     1       0.948   0.212   2.716  1.00  0.00    -0.084 Br
HETATM   12  C7  UNL     1       1.748   1.000   0.142  1.00  0.00     0.042 C 
HETATM   13  C8  UNL     1       3.188   1.452   0.133  1.00  0.00     0.124 C 
HETATM   14  N3  UNL     1       4.064   0.417  -0.402  1.00  0.00    -0.360 N 
HETATM   15  C9  UNL     1       3.679  -0.917  -0.083  1.00  0.00     0.233 C 
ATOM     16  H3  UNL     1       4.889   0.631  -0.962  1.00  0.00     0.162 HD
HETATM   17  O1  UNL     1       4.042  -1.904  -0.746  1.00  0.00    -0.272 OA
HETATM   18  C10 UNL     1       2.797  -1.069   1.115  1.00  0.00     0.169 C 
HETATM   19 BR2  UNL     1       3.749  -0.506   2.707  1.00  0.00    -0.079 Br
ENDBRANCH   9  10
ENDBRANCH   7   9
BRANCH   1  20
HETATM   20  N1  UNL     1      -3.480  -0.132  -2.276  1.00  0.00    -0.075 N 
ATOM     21  H13 UNL     1      -4.366   0.373  -2.300  1.00  0.00     0.274 HD
ATOM     22  H12 UNL     1      -2.899   0.549  -2.764  1.00  0.00     0.274 HD
ATOM     23  H11 UNL     1      -3.536  -1.012  -2.789  1.00  0.00     0.274 HD
ENDBRANCH   1  20
TORSDOF 3
