REMARK  4 active torsions:
REMARK  status: ('A' for Active; 'I' for Inactive)
REMARK    1  A    between atoms: C3_5  and  N2_6 
REMARK    2  A    between atoms: N2_6  and  C4_7 
REMARK    3  A    between atoms: N3_11  and  C8_12 
REMARK    4  A    between atoms: C8_12  and  C9_13 
ROOT
HETATM    1  C1  UNL     1       0.534  -3.047   0.365  1.00  0.00     0.064 C 
HETATM    2  C2  UNL     1      -0.154  -1.946   0.015  1.00  0.00     0.101 A 
HETATM    3  N1  UNL     1      -1.401  -1.675   0.353  1.00  0.00    -0.316 N 
ATOM      4  H1  UNL     1      -1.992  -2.278   0.926  1.00  0.00     0.170 HD
HETATM    5  C3  UNL     1      -1.795  -0.459  -0.178  1.00  0.00     0.200 A 
HETATM    6  C6  UNL     1      -0.663   0.003  -0.884  1.00  0.00     0.085 A 
HETATM    7  C7  UNL     1      -0.644   1.151  -1.539  1.00  0.00     0.048 C 
HETATM    8  N3  UNL     1       0.283  -0.923  -0.734  1.00  0.00    -0.325 N 
ENDROOT
BRANCH   8   9
HETATM    9  C8  UNL     1       1.604  -0.813  -1.315  1.00  0.00     0.188 C 
BRANCH   9  10
HETATM   10  C9  UNL     1       2.564  -0.127  -0.400  1.00  0.00     0.029 A 
HETATM   11  C10 UNL     1       2.837   1.221  -0.298  1.00  0.00     0.048 A 
HETATM   12  C11 UNL     1       3.791   1.429   0.677  1.00  0.00     0.046 A 
HETATM   13 BR1  UNL     1       4.557   3.079   1.255  1.00  0.00    -0.048 Br
HETATM   14  C12 UNL     1       4.102   0.166   1.179  1.00  0.00     0.097 A 
HETATM   15 BR2  UNL     1       5.362  -0.254   2.561  1.00  0.00    -0.030 Br
HETATM   16  N4  UNL     1       3.349  -0.727   0.509  1.00  0.00    -0.351 N 
ATOM     17  H4  UNL     1       3.372  -1.734   0.672  1.00  0.00     0.166 HD
ENDBRANCH   9  10
ENDBRANCH   8   9
BRANCH   5  18
HETATM   18  N2  UNL     1      -2.883   0.060  -0.042  1.00  0.00    -0.429 NA
BRANCH  18  19
HETATM   19  C4  UNL     1      -4.063   0.624   0.105  1.00  0.00     0.216 C 
HETATM   20  C5  UNL     1      -3.911   2.067   0.662  1.00  0.00     0.041 C 
ENDBRANCH  18  19
ENDBRANCH   5  18
TORSDOF 4
