REMARK  2 active torsions:
REMARK  status: ('A' for Active; 'I' for Inactive)
REMARK    1  A    between atoms: C5_8  and  C6_9 
REMARK    2  A    between atoms: C6_9  and  C7_10 
ROOT
HETATM    1  C7  UNL     1       1.208  -0.605  -0.820  1.00  0.00     0.042 A 
HETATM    2  N2  UNL     1       1.203  -1.931  -1.012  1.00  0.00    -0.302 N 
ATOM      3  H2  UNL     1       0.463  -2.473  -1.458  1.00  0.00     0.186 HD
HETATM    4  N3  UNL     1       2.325  -2.406  -0.521  1.00  0.00    -0.284 N 
ATOM      5  H3  UNL     1       2.581  -3.393  -0.534  1.00  0.00     0.188 HD
HETATM    6  C8  UNL     1       3.094  -1.436   0.000  1.00  0.00     0.134 A 
HETATM    7  N4  UNL     1       4.259  -1.124   0.622  1.00  0.00    -0.334 N 
ATOM      8  H4  UNL     1       4.982  -1.793   0.887  1.00  0.00     0.168 HD
HETATM    9  C9  UNL     1       4.313   0.201   0.835  1.00  0.00     0.099 A 
HETATM   10 BR1  UNL     1       5.714   1.181   1.667  1.00  0.00    -0.030 Br
HETATM   11  C10 UNL     1       3.139   0.774   0.333  1.00  0.00     0.061 A 
HETATM   12 BR2  UNL     1       2.694   2.612   0.358  1.00  0.00    -0.047 Br
HETATM   13  C11 UNL     1       2.381  -0.255  -0.187  1.00  0.00     0.053 A 
ENDROOT
BRANCH   1  14
HETATM   14  C6  UNL     1       0.116   0.304  -1.215  1.00  0.00     0.073 C 
BRANCH  14  15
HETATM   15  C5  UNL     1      -0.779   0.689  -0.029  1.00  0.00     0.083 C 
HETATM   16  C1  UNL     1      -1.810   1.598  -0.603  1.00  0.00     0.222 C 
HETATM   17  O1  UNL     1      -1.482   2.734  -1.092  1.00  0.00    -0.273 OA
HETATM   18  N1  UNL     1      -3.186   1.243  -0.630  1.00  0.00    -0.361 N 
HETATM   19  C2  UNL     1      -3.748   0.470   0.485  1.00  0.00     0.122 C 
ATOM     20  H1  UNL     1      -3.776   1.522  -1.414  1.00  0.00     0.162 HD
HETATM   21  C3  UNL     1      -2.731  -0.383   1.161  1.00  0.00     0.020 C 
HETATM   22  C4  UNL     1      -1.448  -0.572   0.430  1.00  0.00     0.016 C 
ENDBRANCH  14  15
ENDBRANCH   1  14
TORSDOF 2
