REMARK  4 active torsions:
REMARK  status: ('A' for Active; 'I' for Inactive)
REMARK    1  A    between atoms: C3_5  and  N2_6 
REMARK    2  A    between atoms: C4_11  and  N4_12 
REMARK    3  A    between atoms: N4_12  and  C5_14 
REMARK    4  A    between atoms: C5_14  and  C6_15 
ROOT
HETATM    1  C1  UNL     1      -3.150  -0.635  -1.660  1.00  0.00     0.070 C 
HETATM    2  C2  UNL     1      -2.079  -0.142  -0.752  1.00  0.00     0.043 A 
HETATM    3  N1  UNL     1      -2.328   0.677   0.289  1.00  0.00    -0.195 N 
ATOM      4  H1  UNL     1      -3.285   0.979   0.474  1.00  0.00     0.184 HD
HETATM    5  C3  UNL     1      -1.331   1.102   1.089  1.00  0.00     0.677 A 
HETATM    6  N3  UNL     1      -0.052   0.718   0.870  1.00  0.00    -0.176 N 
ATOM      7  H3  UNL     1       0.691   1.049   1.486  1.00  0.00     0.186 HD
HETATM    8  C4  UNL     1       0.246  -0.105  -0.164  1.00  0.00     0.136 A 
HETATM    9  C7  UNL     1      -0.781  -0.547  -0.995  1.00  0.00     0.077 A 
HETATM   10 BR2  UNL     1      -0.423  -1.709  -2.470  1.00  0.00    -0.045 Br
ENDROOT
BRANCH   8  11
HETATM   11  N4  UNL     1       1.439  -0.502  -0.422  1.00  0.00    -0.374 N 
ATOM     12  H4  UNL     1       1.591  -1.121  -1.218  1.00  0.00     0.161 HD
BRANCH  11  13
HETATM   13  C5  UNL     1       2.562  -0.106   0.369  1.00  0.00     0.132 C 
BRANCH  13  14
HETATM   14  C6  UNL     1       3.823  -0.478  -0.422  1.00  0.00     0.104 C 
HETATM   15 BR1  UNL     1       3.810  -2.391  -0.713  1.00  0.00    -0.095 Br
ENDBRANCH  13  14
ENDBRANCH  11  13
ENDBRANCH   8  11
BRANCH   5  16
HETATM   16  N2  UNL     1      -1.631   1.892   2.079  1.00  0.00    -0.234 N 
ATOM     17  H22 UNL     1      -2.595   2.181   2.244  1.00  0.00     0.174 HD
ATOM     18  H21 UNL     1      -0.876   2.214   2.685  1.00  0.00     0.174 HD
ENDBRANCH   5  16
TORSDOF 4
