REMARK  3 active torsions:
REMARK  status: ('A' for Active; 'I' for Inactive)
REMARK    1  A    between atoms: C2_2  and  C3_3 
REMARK    2  A    between atoms: C5_8  and  C6_9 
REMARK    3  A    between atoms: C6_9  and  N2_10 
ROOT
HETATM    1  C3  UNL     1      -0.953  -0.080   0.319  1.00  0.00     0.186 C 
HETATM    2  N1  UNL     1      -0.401  -1.161  -0.415  1.00  0.00    -0.339 N 
ATOM      3  H1  UNL     1      -0.922  -2.030  -0.297  1.00  0.00     0.164 HD
HETATM    4  C4  UNL     1       0.716  -1.298  -1.277  1.00  0.00     0.230 C 
HETATM    5  O1  UNL     1       0.637  -2.182  -2.181  1.00  0.00    -0.273 OA
HETATM    6  C5  UNL     1       1.957  -0.483  -1.190  1.00  0.00     0.146 C 
HETATM    7  C7  UNL     1       1.683   0.951  -1.211  1.00  0.00     0.037 C 
HETATM    8 BR1  UNL     1       2.926   1.964  -2.278  1.00  0.00    -0.052 Br
HETATM    9  C8  UNL     1       0.740   1.624  -0.624  1.00  0.00     0.093 C 
HETATM   10 BR2  UNL     1       0.803   3.514  -0.963  1.00  0.00    -0.030 Br
HETATM   11  N3  UNL     1      -0.305   1.171   0.214  1.00  0.00    -0.357 N 
HETATM   12  C9  UNL     1      -0.807   2.172   1.137  1.00  0.00     0.152 C 
ENDROOT
BRANCH   6  13
HETATM   13  C6  UNL     1       2.765  -0.917   0.012  1.00  0.00     0.249 C 
BRANCH  13  14
HETATM   14  N2  UNL     1       2.070  -0.768   1.255  1.00  0.00    -0.078 N 
ATOM     15  H23 UNL     1       1.739   0.190   1.370  1.00  0.00     0.274 HD
ATOM     16  H22 UNL     1       1.174  -1.256   1.228  1.00  0.00     0.274 HD
ATOM     17  H21 UNL     1       2.615  -1.061   2.066  1.00  0.00     0.274 HD
ENDBRANCH  13  14
ENDBRANCH   6  13
BRANCH   1  18
HETATM   18  C2  UNL     1      -2.427   0.026  -0.073  1.00  0.00     0.042 C 
HETATM   19  C1  UNL     1      -3.176  -1.242   0.251  1.00  0.00     0.009 C 
ENDBRANCH   1  18
TORSDOF 3
