REMARK  5 active torsions:
REMARK  status: ('A' for Active; 'I' for Inactive)
REMARK    1  A    between atoms: C2_2  and  N1_3 
REMARK    2  A    between atoms: N1_3  and  C3_5 
REMARK    3  A    between atoms: C3_5  and  N2_7 
REMARK    4  A    between atoms: C5_9  and  N3_10 
REMARK    5  A    between atoms: C7_16  and  C8_17 
ROOT
HETATM    1  N2  UNL     1      -0.307  -0.030   0.510  1.00  0.00    -0.350 N 
HETATM    2  C4  UNL     1      -1.361  -0.088   1.505  1.00  0.00     0.159 C 
HETATM    3  C5  UNL     1      -2.662   0.164   0.792  1.00  0.00     0.217 C 
HETATM    4  C6  UNL     1      -2.206   0.918  -0.438  1.00  0.00     0.113 C 
HETATM    5 BR1  UNL     1      -3.527   0.959  -1.825  1.00  0.00    -0.087 Br
HETATM    6  C7  UNL     1      -0.954   0.201  -0.794  1.00  0.00     0.113 C 
ENDROOT
BRANCH   1   7
HETATM    7  C3  UNL     1       1.061  -0.224   0.781  1.00  0.00     0.170 C 
HETATM    8  S1  UNL     1       1.584  -0.601   2.302  1.00  0.00    -0.041 SA
BRANCH   7   9
HETATM    9  N1  UNL     1       2.047  -0.117  -0.236  1.00  0.00    -0.367 N 
ATOM     10  H1  UNL     1       1.766   0.122  -1.187  1.00  0.00     0.161 HD
BRANCH   9  11
HETATM   11  C2  UNL     1       3.449  -0.343   0.062  1.00  0.00     0.117 C 
HETATM   12  C1  UNL     1       4.347   0.089  -1.084  1.00  0.00     0.026 C 
ENDBRANCH   9  11
ENDBRANCH   7   9
ENDBRANCH   1   7
BRANCH   6  13
HETATM   13  C8  UNL     1      -1.231  -1.194  -1.319  1.00  0.00     0.111 C 
HETATM   14 BR2  UNL     1      -2.072  -1.265  -3.017  1.00  0.00    -0.094 Br
ENDBRANCH   6  13
BRANCH   3  15
HETATM   15  N3  UNL     1      -3.535   0.979   1.619  1.00  0.00    -0.072 N 
ATOM     16  H33 UNL     1      -3.679   0.569   2.542  1.00  0.00     0.274 HD
ATOM     17  H32 UNL     1      -3.085   1.847   1.909  1.00  0.00     0.274 HD
ATOM     18  H31 UNL     1      -4.417   1.150   1.136  1.00  0.00     0.274 HD
ENDBRANCH   3  15
TORSDOF 5
