REMARK  4 active torsions:
REMARK  status: ('A' for Active; 'I' for Inactive)
REMARK    1  A    between atoms: N1_4  and  C4_5 
REMARK    2  A    between atoms: C4_5  and  N2_7 
REMARK    3  A    between atoms: N2_7  and  C5_9 
REMARK    4  A    between atoms: C5_9  and  C8_12 
REMARK       I    between atoms: N3_18  and  C12_19 
ROOT
HETATM    1  C1  UNL     1       3.620   0.906  -1.827  1.00  0.00     0.034 C 
HETATM    2  C2  UNL     1       2.935   1.029  -0.458  1.00  0.00     0.101 C 
HETATM    3  C3  UNL     1       1.647   1.743  -0.681  1.00  0.00     0.150 C 
HETATM    4  N1  UNL     1       0.466   0.814  -0.620  1.00  0.00    -0.355 N 
HETATM    5  C10 UNL     1       0.754  -0.448  -1.218  1.00  0.00     0.145 C 
HETATM    6  C11 UNL     1       1.779  -1.223  -0.389  1.00  0.00     0.146 C 
HETATM    7  N3  UNL     1       2.801  -0.295   0.076  1.00  0.00    -0.348 N 
HETATM    8  C12 UNL     1       3.686  -0.727   1.087  1.00  0.00     0.184 C 
HETATM    9  N4  UNL     1       4.684  -1.516   0.864  1.00  0.00    -0.374 N 
ATOM     10  H41 UNL     1       5.324  -1.828   1.595  1.00  0.00     0.158 HD
ATOM     11  H42 UNL     1       4.809  -1.821  -0.101  1.00  0.00     0.158 HD
HETATM   12  N5  UNL     1       3.509  -0.297   2.450  1.00  0.00    -0.064 NA
ENDROOT
BRANCH   4  13
HETATM   13  C4  UNL     1      -0.680   1.308  -0.015  1.00  0.00     0.170 C 
HETATM   14  S1  UNL     1      -0.484   2.932   0.514  1.00  0.00    -0.041 SA
BRANCH  13  15
HETATM   15  N2  UNL     1      -1.945   0.824   0.262  1.00  0.00    -0.356 N 
ATOM     16  H2  UNL     1      -2.514   1.523   0.740  1.00  0.00     0.162 HD
BRANCH  15  17
HETATM   17  C5  UNL     1      -2.662  -0.375   0.063  1.00  0.00     0.060 C 
HETATM   18  C6  UNL     1      -2.962  -0.777  -1.341  1.00  0.00     0.041 C 
HETATM   19  C7  UNL     1      -1.996  -1.522   0.811  1.00  0.00     0.041 C 
BRANCH  17  20
HETATM   20  C8  UNL     1      -4.041  -0.255   0.774  1.00  0.00     0.134 C 
HETATM   21  C9  UNL     1      -4.816   0.890   0.206  1.00  0.00     0.053 C 
HETATM   22 CL1  UNL     1      -3.787   0.014   2.510  1.00  0.00    -0.099 Cl
HETATM   23 CL2  UNL     1      -4.927  -1.762   0.556  1.00  0.00    -0.099 Cl
ENDBRANCH  17  20
ENDBRANCH  15  17
ENDBRANCH  13  15
ENDBRANCH   4  13
TORSDOF 4
