REMARK  3 active torsions:
REMARK  status: ('A' for Active; 'I' for Inactive)
REMARK    1  A    between atoms: N1_2  and  C2_4 
REMARK    2  A    between atoms: C5_9  and  C6_10 
REMARK    3  A    between atoms: C6_10  and  N3_11 
ROOT
HETATM    1  C2  UNL     1      -2.644  -0.211  -0.560  1.00  0.00     0.120 A 
HETATM    2  N2  UNL     1      -2.248   0.848   0.239  1.00  0.00    -0.345 N 
ATOM      3  H2  UNL     1      -2.945   1.500   0.600  1.00  0.00     0.167 HD
HETATM    4  C3  UNL     1      -0.966   1.019   0.537  1.00  0.00     0.016 A 
HETATM    5  C4  UNL     1      -0.574   2.160   1.393  1.00  0.00     0.069 C 
HETATM    6  C5  UNL     1       0.017   0.168   0.075  1.00  0.00     0.001 A 
HETATM    7  C8  UNL     1      -0.368  -0.873  -0.710  1.00  0.00     0.042 A 
HETATM    8 BR1  UNL     1       0.912  -2.083  -1.383  1.00  0.00    -0.049 Br
HETATM    9  C9  UNL     1      -1.719  -1.083  -1.045  1.00  0.00     0.072 A 
HETATM   10 BR2  UNL     1      -2.132  -2.587  -2.159  1.00  0.00    -0.046 Br
ENDROOT
BRANCH   6  11
HETATM   11  C6  UNL     1       1.400   0.423   0.446  1.00  0.00     0.164 C 
BRANCH  11  12
HETATM   12  N3  UNL     1       2.380  -0.505  -0.070  1.00  0.00    -0.363 N 
HETATM   13  C7  UNL     1       3.643  -0.362   0.208  1.00  0.00     0.197 C 
HETATM   14  N4  UNL     1       4.561  -1.287  -0.315  1.00  0.00    -0.067 NA
HETATM   15  N5  UNL     1       4.092   0.705   1.024  1.00  0.00    -0.067 NA
ATOM     16  H3  UNL     1       2.078  -1.281  -0.659  1.00  0.00     0.162 HD
ENDBRANCH  11  12
ENDBRANCH   6  11
BRANCH   1  17
HETATM   17  N1  UNL     1      -3.877  -0.309  -0.800  1.00  0.00    -0.380 N 
HETATM   18  C1  UNL     1      -4.650  -1.207  -1.539  1.00  0.00     0.147 C 
ATOM     19  H1  UNL     1      -4.430   0.426  -0.359  1.00  0.00     0.160 HD
ENDBRANCH   1  17
TORSDOF 3
