REMARK  3 active torsions:
REMARK  status: ('A' for Active; 'I' for Inactive)
REMARK       I    between atoms: C1_4  and  N2_5 
REMARK       I    between atoms: C1_4  and  N4_14 
REMARK    1  A    between atoms: N2_5  and  C2_7 
REMARK    2  A    between atoms: N4_14  and  C5_16 
REMARK    3  A    between atoms: C5_16  and  C6_17 
ROOT
HETATM    1  N1  UNL     1      -0.214  -1.744  -0.476  1.00  0.00    -0.235 N 
ATOM      2  H11 UNL     1      -0.920  -2.281   0.028  1.00  0.00     0.174 HD
ATOM      3  H12 UNL     1       0.555  -2.245  -0.922  1.00  0.00     0.174 HD
HETATM    4  C1  UNL     1      -0.292  -0.467  -0.549  1.00  0.00     0.673 C 
HETATM    5  N2  UNL     1       0.687   0.278  -1.248  1.00  0.00    -0.171 N 
ATOM      6  H2  UNL     1       0.440   0.764  -2.110  1.00  0.00     0.186 HD
HETATM    7  N4  UNL     1      -1.367   0.233   0.075  1.00  0.00    -0.226 N 
ATOM      8  H4  UNL     1      -1.188   1.150   0.484  1.00  0.00     0.177 HD
ENDROOT
BRANCH   5   9
HETATM    9  C2  UNL     1       1.914   0.343  -0.785  1.00  0.00     0.164 A 
HETATM   10  N3  UNL     1       2.407  -0.222   0.310  1.00  0.00    -0.344 N 
HETATM   11  C3  UNL     1       3.674  -0.030   0.595  1.00  0.00     0.116 A 
ATOM     12  H3  UNL     1       1.816  -0.792   0.915  1.00  0.00     0.167 HD
HETATM   13  C4  UNL     1       4.408   0.743  -0.258  1.00  0.00     0.070 A 
HETATM   14 BR1  UNL     1       6.275   1.213  -0.125  1.00  0.00    -0.042 Br
HETATM   15  S1  UNL     1       3.251   1.167  -1.440  1.00  0.00    -0.044 SA
ENDBRANCH   5   9
BRANCH   7  16
HETATM   16  C5  UNL     1      -2.704  -0.318   0.146  1.00  0.00     0.149 C 
BRANCH  16  17
HETATM   17  C6  UNL     1      -3.628   0.630   0.853  1.00  0.00     0.105 C 
HETATM   18 BR2  UNL     1      -5.417  -0.092   0.957  1.00  0.00    -0.095 Br
ENDBRANCH  16  17
ENDBRANCH   7  16
TORSDOF 3
