REMARK  5 active torsions:
REMARK  status: ('A' for Active; 'I' for Inactive)
REMARK    1  A    between atoms: C3_3  and  C4_4 
REMARK    2  A    between atoms: C4_4  and  C6_7 
REMARK    3  A    between atoms: C6_7  and  C7_8 
REMARK    4  A    between atoms: C8_11  and  N2_12 
REMARK    5  A    between atoms: C9_17  and  N4_18 
ROOT
HETATM    1  C1  UNL     1       2.961   2.466  -0.308  1.00  0.00     0.112 C 
HETATM    2  C2  UNL     1       2.384   1.154   0.005  1.00  0.00    -0.109 C 
HETATM    3  C3  UNL     1       1.927   0.073   0.271  1.00  0.00    -0.085 C 
ENDROOT
BRANCH   3   4
HETATM    4  C4  UNL     1       1.379  -1.277   0.604  1.00  0.00     0.083 C 
HETATM    5  C5  UNL     1       2.432  -2.327   0.199  1.00  0.00     0.042 C 
HETATM    6 BR1  UNL     1       1.188  -1.332   2.483  1.00  0.00    -0.071 Br
BRANCH   4   7
HETATM    7  C6  UNL     1       0.193  -1.530  -0.244  1.00  0.00     0.093 C 
BRANCH   7   8
HETATM    8  C7  UNL     1      -0.939  -0.634  -0.147  1.00  0.00     0.050 A 
HETATM    9  N1  UNL     1      -1.023   0.435  -0.974  1.00  0.00    -0.194 N 
HETATM   10  C8  UNL     1      -2.022   1.330  -0.903  1.00  0.00     0.677 A 
ATOM     11  H1  UNL     1      -0.298   0.566  -1.680  1.00  0.00     0.184 HD
HETATM   12  N3  UNL     1      -3.008   1.230  -0.013  1.00  0.00    -0.176 N 
HETATM   13  C9  UNL     1      -2.971   0.182   0.831  1.00  0.00     0.134 A 
ATOM     14  H3  UNL     1      -3.759   1.919   0.027  1.00  0.00     0.186 HD
HETATM   15  C10 UNL     1      -1.938  -0.766   0.777  1.00  0.00     0.078 A 
HETATM   16 BR2  UNL     1      -2.074  -2.224   1.994  1.00  0.00    -0.045 Br
BRANCH  10  17
HETATM   17  N2  UNL     1      -2.050   2.345  -1.728  1.00  0.00    -0.234 N 
ATOM     18  H22 UNL     1      -1.295   2.422  -2.410  1.00  0.00     0.174 HD
ATOM     19  H21 UNL     1      -2.809   3.025  -1.674  1.00  0.00     0.174 HD
ENDBRANCH  10  17
BRANCH  13  20
HETATM   20  N4  UNL     1      -3.933   0.088   1.697  1.00  0.00    -0.384 N 
ATOM     21  H42 UNL     1      -4.684   0.777   1.736  1.00  0.00     0.157 HD
ATOM     22  H41 UNL     1      -3.905  -0.706   2.337  1.00  0.00     0.157 HD
ENDBRANCH  13  20
ENDBRANCH   7   8
ENDBRANCH   4   7
ENDBRANCH   3   4
TORSDOF 5
