REMARK  4 active torsions:
REMARK  status: ('A' for Active; 'I' for Inactive)
REMARK    1  A    between atoms: N3_8  and  C4_10 
REMARK    2  A    between atoms: C4_10  and  C5_14 
REMARK    3  A    between atoms: C5_14  and  C6_15 
REMARK    4  A    between atoms: C6_15  and  N5_16 
ROOT
HETATM    1  C4  UNL     1      -0.333   1.733  -0.193  1.00  0.00     0.078 C 
HETATM    2  N4  UNL     1      -0.188   2.598   0.749  1.00  0.00    -0.389 N 
ATOM      3  H41 UNL     1       0.600   2.487   1.387  1.00  0.00     0.157 HD
ATOM      4  H42 UNL     1      -0.823   3.385   0.882  1.00  0.00     0.157 HD
ENDROOT
BRANCH   1   5
HETATM    5  N3  UNL     1      -1.421   1.887  -1.075  1.00  0.00    -0.317 N 
HETATM    6  C3  UNL     1      -2.562   1.337  -0.859  1.00  0.00     0.201 A 
HETATM    7  N2  UNL     1      -3.754   1.382  -1.626  1.00  0.00    -0.269 N 
HETATM    8  N7  UNL     1      -2.851   0.527   0.269  1.00  0.00    -0.312 N 
HETATM    9  N1  UNL     1      -4.742   0.635  -1.005  1.00  0.00    -0.283 N 
ATOM     10  H2  UNL     1      -3.867   1.889  -2.504  1.00  0.00     0.190 HD
HETATM   11  C2  UNL     1      -4.186   0.096   0.182  1.00  0.00     0.112 A 
ATOM     12  H1  UNL     1      -5.695   0.498  -1.341  1.00  0.00     0.188 HD
HETATM   13  C1  UNL     1      -4.809  -0.688   1.073  1.00  0.00     0.065 C 
ATOM     14  H7  UNL     1      -2.199   0.296   1.018  1.00  0.00     0.170 HD
ATOM     15  H3  UNL     1      -1.299   2.455  -1.914  1.00  0.00     0.170 HD
ENDBRANCH   1   5
BRANCH   1  16
HETATM   16  C5  UNL     1       0.593   0.586  -0.387  1.00  0.00     0.098 C 
BRANCH  16  17
HETATM   17  C6  UNL     1       1.645   0.673   0.686  1.00  0.00     0.155 C 
BRANCH  17  18
HETATM   18  N5  UNL     1       2.611  -0.416   0.583  1.00  0.00    -0.301 N 
HETATM   19  C7  UNL     1       3.732  -0.294  -0.162  1.00  0.00     0.129 A 
HETATM   20  C8  UNL     1       4.665  -1.288  -0.287  1.00  0.00     0.030 A 
HETATM   21 BR1  UNL     1       6.253  -1.135  -1.333  1.00  0.00    -0.050 Br
HETATM   22  C9  UNL     1       4.463  -2.480   0.375  1.00  0.00     0.059 A 
HETATM   23  C10 UNL     1       3.310  -2.584   1.132  1.00  0.00     0.095 A 
HETATM   24 BR2  UNL     1       3.018  -4.243   2.060  1.00  0.00    -0.030 Br
HETATM   25  N6  UNL     1       2.437  -1.570   1.211  1.00  0.00    -0.292 N 
ATOM     26  H6  UNL     1       1.600  -1.692   1.781  1.00  0.00     0.188 HD
ENDBRANCH  17  18
ENDBRANCH  16  17
ENDBRANCH   1  16
TORSDOF 4
