REMARK  3 active torsions:
REMARK  status: ('A' for Active; 'I' for Inactive)
REMARK    1  A    between atoms: C4_10  and  C5_11 
REMARK    2  A    between atoms: N3_13  and  C7_14 
REMARK    3  A    between atoms: C8_16  and  C9_17 
ROOT
HETATM    1  N1  UNL     1       5.766   0.489   0.449  1.00  0.00    -0.234 N 
ATOM      2  H11 UNL     1       5.986   1.322   0.995  1.00  0.00     0.174 HD
ATOM      3  H12 UNL     1       6.543  -0.076   0.108  1.00  0.00     0.174 HD
HETATM    4  C1  UNL     1       4.532   0.141   0.188  1.00  0.00     0.681 A 
HETATM    5  N2  UNL     1       4.227  -1.015  -0.569  1.00  0.00    -0.155 N 
ATOM      6  H2  UNL     1       4.986  -1.598  -0.921  1.00  0.00     0.187 HD
HETATM    7  C2  UNL     1       2.886  -1.376  -0.846  1.00  0.00     0.275 A 
HETATM    8  O1  UNL     1       2.633  -2.423  -1.531  1.00  0.00    -0.267 OA
HETATM    9  C3  UNL     1       1.722  -0.588  -0.374  1.00  0.00     0.103 A 
HETATM   10  C4  UNL     1       0.529  -1.025  -0.656  1.00  0.00     0.053 C 
HETATM   11  C10 UNL     1       2.067   0.585   0.397  1.00  0.00     0.275 A 
HETATM   12  O2  UNL     1       1.159   1.318   0.847  1.00  0.00    -0.267 OA
HETATM   13  N5  UNL     1       3.454   0.925   0.661  1.00  0.00    -0.155 N 
ATOM     14  H5  UNL     1       3.659   1.761   1.208  1.00  0.00     0.187 HD
ENDROOT
BRANCH  10  15
HETATM   15  C5  UNL     1      -0.772  -0.474  -0.342  1.00  0.00     0.050 A 
HETATM   16  C6  UNL     1      -1.310   0.762  -0.614  1.00  0.00     0.122 A 
HETATM   17  N3  UNL     1      -2.554   0.849  -0.118  1.00  0.00    -0.334 N 
HETATM   18  C8  UNL     1      -2.844  -0.315   0.478  1.00  0.00     0.094 A 
HETATM   19  N4  UNL     1      -1.775  -1.115   0.347  1.00  0.00    -0.344 N 
ATOM     20  H4  UNL     1      -1.714  -2.067   0.708  1.00  0.00     0.167 HD
BRANCH  17  21
HETATM   21  C7  UNL     1      -3.424   1.998  -0.214  1.00  0.00     0.214 C 
HETATM   22 BR1  UNL     1      -4.504   1.886  -1.840  1.00  0.00    -0.074 Br
ENDBRANCH  17  21
BRANCH  18  23
HETATM   23  C9  UNL     1      -4.130  -0.683   1.174  1.00  0.00     0.161 C 
HETATM   24 BR2  UNL     1      -5.334  -1.485  -0.101  1.00  0.00    -0.088 Br
ENDBRANCH  18  23
ENDBRANCH  10  15
TORSDOF 3
