REMARK  6 active torsions:
REMARK  status: ('A' for Active; 'I' for Inactive)
REMARK    1  A    between atoms: C2_2  and  N1_3 
REMARK    2  A    between atoms: C2_2  and  N2_7 
REMARK    3  A    between atoms: N2_7  and  C3_10 
REMARK    4  A    between atoms: C3_10  and  C5_12 
REMARK       I    between atoms: C5_12  and  N3_14 
REMARK    5  A    between atoms: C6_16  and  N4_17 
REMARK    6  A    between atoms: N4_17  and  C7_19 
ROOT
HETATM    1  C5  UNL     1      -0.182   0.596  -0.694  1.00  0.00     0.253 C 
HETATM    2  O1  UNL     1      -0.116   1.577  -1.464  1.00  0.00    -0.271 OA
HETATM    3  N3  UNL     1       0.972  -0.149  -0.368  1.00  0.00    -0.321 N 
ATOM      4  H3  UNL     1       1.248  -0.932  -0.961  1.00  0.00     0.169 HD
HETATM    5  C6  UNL     1       1.675   0.140   0.655  1.00  0.00     0.200 C 
ENDROOT
BRANCH   1   6
HETATM    6  C3  UNL     1      -1.459   0.123  -0.053  1.00  0.00     0.275 C 
HETATM    7  C4  UNL     1      -1.626  -1.322  -0.444  1.00  0.00     0.050 C 
BRANCH   6   8
HETATM    8  N2  UNL     1      -2.591   0.915  -0.438  1.00  0.00    -0.034 N 
ATOM      9  H22 UNL     1      -2.732   0.923  -1.448  1.00  0.00     0.280 HD
ATOM     10  H21 UNL     1      -2.428   1.913  -0.307  1.00  0.00     0.280 HD
BRANCH   8  11
HETATM   11  C2  UNL     1      -3.753   0.455   0.271  1.00  0.00     0.377 C 
HETATM   12  C1  UNL     1      -3.639   0.638   1.760  1.00  0.00     0.071 C 
BRANCH  11  13
HETATM   13  N1  UNL     1      -4.981   1.093  -0.171  1.00  0.00    -0.051 N 
ATOM     14  H13 UNL     1      -5.802   0.756   0.331  1.00  0.00     0.276 HD
ATOM     15  H12 UNL     1      -5.040   2.072   0.111  1.00  0.00     0.276 HD
ATOM     16  H11 UNL     1      -5.058   0.969  -1.180  1.00  0.00     0.276 HD
ENDBRANCH  11  13
ENDBRANCH   8  11
ENDBRANCH   6   8
ENDBRANCH   1   6
BRANCH   5  17
HETATM   17  N4  UNL     1       2.828  -0.617   0.968  1.00  0.00    -0.188 N 
ATOM     18  H4  UNL     1       2.827  -1.174   1.822  1.00  0.00     0.185 HD
BRANCH  17  19
HETATM   19  C7  UNL     1       3.878  -0.635   0.224  1.00  0.00     0.685 A 
HETATM   20  N5  UNL     1       5.009  -1.324   0.447  1.00  0.00    -0.182 N 
HETATM   21  C8  UNL     1       5.864  -1.075  -0.558  1.00  0.00     0.130 A 
ATOM     22  H5  UNL     1       5.188  -1.933   1.245  1.00  0.00     0.185 HD
HETATM   23 BR1  UNL     1       7.608  -1.792  -0.748  1.00  0.00    -0.028 Br
HETATM   24  C9  UNL     1       5.256  -0.205  -1.438  1.00  0.00     0.130 A 
HETATM   25 BR2  UNL     1       5.998   0.492  -3.043  1.00  0.00    -0.028 Br
HETATM   26  N6  UNL     1       4.043   0.037  -0.920  1.00  0.00    -0.182 N 
ATOM     27  H6  UNL     1       3.343   0.649  -1.340  1.00  0.00     0.185 HD
ENDBRANCH  17  19
ENDBRANCH   5  17
TORSDOF 6
