REMARK  6 active torsions:
REMARK  status: ('A' for Active; 'I' for Inactive)
REMARK    1  A    between atoms: C3_3  and  C4_4 
REMARK    2  A    between atoms: C5_8  and  C6_9 
REMARK    3  A    between atoms: C6_9  and  C7_10 
REMARK    4  A    between atoms: C8_11  and  C9_12 
REMARK    5  A    between atoms: C9_12  and  N2_13 
REMARK    6  A    between atoms: N5_22  and  N6_23 
ROOT
HETATM    1  C6  UNL     1      -0.736  -0.358  -0.194  1.00  0.00    -0.059 C 
ENDROOT
BRANCH   1   2
HETATM    2  C5  UNL     1       0.619  -0.158   0.052  1.00  0.00     0.176 A 
HETATM    3  N1  UNL     1       1.070   0.941  -0.582  1.00  0.00    -0.335 N 
HETATM    4  C3  UNL     1       2.466   0.943  -0.185  1.00  0.00     0.045 A 
ATOM      5  H1  UNL     1       0.566   1.596  -1.180  1.00  0.00     0.168 HD
HETATM    6  C2  UNL     1       2.667  -0.158   0.583  1.00  0.00     0.055 A 
HETATM    7  C1  UNL     1       3.944  -0.796   1.003  1.00  0.00     0.072 C 
HETATM    8  N5  UNL     1       1.428  -0.795   0.657  1.00  0.00    -0.242 N 
BRANCH   4   9
HETATM    9  C4  UNL     1       3.496   1.880  -0.653  1.00  0.00     0.144 C 
HETATM   10 BR1  UNL     1       4.450   2.833   0.742  1.00  0.00    -0.090 Br
ENDBRANCH   4   9
BRANCH   8  11
HETATM   11  N6  UNL     1       1.507  -1.943   1.291  1.00  0.00    -0.336 N 
ATOM     12  H62 UNL     1       2.198  -2.487   1.808  1.00  0.00     0.177 HD
ATOM     13  H61 UNL     1       0.601  -2.409   1.345  1.00  0.00     0.177 HD
ENDBRANCH   8  11
ENDBRANCH   1   2
BRANCH   1  14
HETATM   14  C7  UNL     1      -2.037  -0.573  -0.414  1.00  0.00     0.108 A 
HETATM   15  C8  UNL     1      -3.159  -0.014  -0.061  1.00  0.00     0.067 A 
HETATM   16  N3  UNL     1      -4.223  -0.814  -0.439  1.00  0.00    -0.299 N 
HETATM   17  N4  UNL     1      -3.802  -1.898  -1.054  1.00  0.00    -0.265 N 
ATOM     18  H3  UNL     1      -5.203  -0.593  -0.264  1.00  0.00     0.186 HD
HETATM   19  C10 UNL     1      -2.448  -1.764  -1.078  1.00  0.00     0.280 A 
ATOM     20  H4  UNL     1      -4.362  -2.664  -1.428  1.00  0.00     0.190 HD
HETATM   21  O1  UNL     1      -1.751  -2.676  -1.652  1.00  0.00    -0.265 OA
BRANCH  15  22
HETATM   22  C9  UNL     1      -3.626   1.374   0.432  1.00  0.00     0.187 C 
BRANCH  22  23
HETATM   23  N2  UNL     1      -2.607   2.236   0.375  1.00  0.00    -0.352 N 
HETATM   24 BR2  UNL     1      -3.383   3.983   1.021  1.00  0.00     0.042 Br
ATOM     25  H2  UNL     1      -1.650   2.052   0.073  1.00  0.00     0.167 HD
ENDBRANCH  22  23
ENDBRANCH  15  22
ENDBRANCH   1  14
TORSDOF 6
