REMARK  10 active torsions:
REMARK  status: ('A' for Active; 'I' for Inactive)
REMARK    1  A    between atoms: C2_2  and  O1_4 
REMARK    2  A    between atoms: O1_4  and  C3_5 
REMARK    3  A    between atoms: C8_12  and  C9_13 
REMARK    4  A    between atoms: C9_13  and  C10_14 
REMARK    5  A    between atoms: C10_14  and  C11_15 
REMARK    6  A    between atoms: C11_15  and  C12_16 
REMARK    7  A    between atoms: C12_16  and  N2_17 
REMARK    8  A    between atoms: N2_17  and  C13_19 
REMARK    9  A    between atoms: C13_19  and  N3_21 
REMARK   10  A    between atoms: N3_21  and  N4_23 
ROOT
HETATM    1  C9  UNL     1      -0.269   0.212  -0.453  1.00  0.00     0.017 C 
ENDROOT
BRANCH   1   2
HETATM    2  C8  UNL     1      -1.376  -0.681  -0.860  1.00  0.00     0.107 C 
HETATM    3  C3  UNL     1      -2.729  -0.217  -0.272  1.00  0.00     0.139 C 
HETATM    4  C4  UNL     1      -3.753  -0.922  -1.163  1.00  0.00     0.053 C 
HETATM    5  C5  UNL     1      -3.760  -2.372  -0.799  1.00  0.00     0.128 C 
HETATM    6  N1  UNL     1      -2.453  -2.916  -0.625  1.00  0.00    -0.356 N 
HETATM    7  C6  UNL     1      -2.293  -4.355  -0.649  1.00  0.00     0.152 C 
HETATM    8  C7  UNL     1      -1.286  -2.088  -0.420  1.00  0.00     0.226 C 
HETATM    9  O2  UNL     1      -0.321  -2.651   0.111  1.00  0.00    -0.273 OA
BRANCH   3  10
HETATM   10  O1  UNL     1      -2.884   1.141  -0.283  1.00  0.00    -0.351 OA
BRANCH  10  11
HETATM   11  C2  UNL     1      -3.109   1.585   1.015  1.00  0.00     0.303 C 
HETATM   12  C1  UNL     1      -2.131   2.637   1.478  1.00  0.00     0.076 C 
HETATM   13  F1  UNL     1      -4.404   2.138   0.972  1.00  0.00    -0.220 F 
ENDBRANCH  10  11
ENDBRANCH   3  10
ENDBRANCH   1   2
BRANCH   1  14
HETATM   14  C10 UNL     1       1.023  -0.201  -1.052  1.00  0.00     0.002 C 
BRANCH  14  15
HETATM   15  C11 UNL     1       2.189   0.697  -0.682  1.00  0.00     0.020 C 
BRANCH  15  16
HETATM   16  C12 UNL     1       2.454   0.759   0.784  1.00  0.00     0.122 C 
BRANCH  16  17
HETATM   17  N2  UNL     1       3.554   1.597   1.157  1.00  0.00    -0.366 N 
ATOM     18  H2  UNL     1       3.328   2.457   1.657  1.00  0.00     0.161 HD
BRANCH  17  19
HETATM   19  C13 UNL     1       4.906   1.354   0.904  1.00  0.00     0.185 C 
HETATM   20  S1  UNL     1       5.361   0.003   0.125  1.00  0.00    -0.040 SA
BRANCH  19  21
HETATM   21  N3  UNL     1       5.902   2.260   1.320  1.00  0.00    -0.283 N 
ATOM     22  H3  UNL     1       5.623   3.107   1.814  1.00  0.00     0.188 HD
BRANCH  21  23
HETATM   23  N4  UNL     1       7.257   2.036   1.078  1.00  0.00    -0.343 N 
ATOM     24  H42 UNL     1       7.519   1.184   0.583  1.00  0.00     0.176 HD
ATOM     25  H41 UNL     1       7.978   2.692   1.379  1.00  0.00     0.176 HD
ENDBRANCH  21  23
ENDBRANCH  19  21
ENDBRANCH  17  19
ENDBRANCH  16  17
ENDBRANCH  15  16
ENDBRANCH  14  15
ENDBRANCH   1  14
TORSDOF 10
