REMARK  11 active torsions:
REMARK  status: ('A' for Active; 'I' for Inactive)
REMARK    1  A    between atoms: N1_1  and  C1_4 
REMARK    2  A    between atoms: C2_7  and  N3_8 
REMARK    3  A    between atoms: N3_8  and  C3_9 
REMARK    4  A    between atoms: N3_8  and  C4_12 
REMARK    5  A    between atoms: C3_9  and  O1_10 
REMARK    6  A    between atoms: C4_12  and  C5_13 
REMARK    7  A    between atoms: C5_13  and  C6_14 
REMARK    8  A    between atoms: C10_20  and  N5_21 
REMARK    9  A    between atoms: C11_23  and  O2_25 
REMARK   10  A    between atoms: C14_32  and  N9_33 
REMARK   11  A    between atoms: N10_36  and  C15_37 
ROOT
HETATM    1  N3  UNL     1      -1.213   0.127  -1.867  1.00  0.00    -0.195 N 
ENDROOT
BRANCH   1   2
HETATM    2  C2  UNL     1      -2.293   0.007  -0.946  1.00  0.00     0.711 A 
HETATM    3  N2  UNL     1      -2.234   0.490   0.293  1.00  0.00    -0.021 N 
HETATM    4  C1  UNL     1      -3.272   0.347   1.135  1.00  0.00     0.710 A 
ATOM      5  H2  UNL     1      -1.392   0.974   0.607  1.00  0.00     0.203 HD
HETATM    6  N10 UNL     1      -4.409  -0.273   0.808  1.00  0.00     0.032 N 
HETATM    7  C14 UNL     1      -4.467  -0.764  -0.460  1.00  0.00     0.710 A 
HETATM    8  N8  UNL     1      -3.426  -0.621  -1.305  1.00  0.00    -0.021 N 
ATOM      9  H8  UNL     1      -3.501  -1.002  -2.248  1.00  0.00     0.203 HD
BRANCH   4  10
HETATM   10  N1  UNL     1      -3.153   0.865   2.311  1.00  0.00    -0.233 N 
ATOM     11  H12 UNL     1      -2.285   1.338   2.561  1.00  0.00     0.174 HD
ATOM     12  H11 UNL     1      -3.941   0.756   2.950  1.00  0.00     0.174 HD
ENDBRANCH   4  10
BRANCH   6  13
HETATM   13  C15 UNL     1      -5.503  -0.443   1.699  1.00  0.00     0.404 C 
HETATM   14  N11 UNL     1      -6.310  -1.663   1.526  1.00  0.00    -0.063 NA
HETATM   15  N12 UNL     1      -6.362  -1.769   2.968  1.00  0.00     0.019 NA
HETATM   16  O3  UNL     1      -5.157  -1.113   2.904  1.00  0.00    -0.223 OA
ENDBRANCH   6  13
BRANCH   7  17
HETATM   17  N9  UNL     1      -5.521  -1.363  -0.910  1.00  0.00    -0.233 N 
ATOM     18  H92 UNL     1      -5.564  -1.731  -1.860  1.00  0.00     0.174 HD
ATOM     19  H91 UNL     1      -6.308  -1.471  -0.271  1.00  0.00     0.174 HD
ENDBRANCH   7  17
ENDBRANCH   1   2
BRANCH   1  20
HETATM   20  C3  UNL     1      -1.415  -0.371  -3.215  1.00  0.00     0.308 C 
BRANCH  20  21
HETATM   21  O1  UNL     1      -2.417   0.382  -3.867  1.00  0.00    -0.381 OA
ATOM     22  H1  UNL     1      -2.549   0.056  -4.749  1.00  0.00     0.211 HD
ENDBRANCH  20  21
ENDBRANCH   1  20
BRANCH   1  23
HETATM   23  C4  UNL     1       0.069   0.692  -1.602  1.00  0.00     0.149 C 
BRANCH  23  24
HETATM   24  C5  UNL     1       0.331   1.225  -0.248  1.00  0.00     0.079 C 
BRANCH  24  25
HETATM   25  C6  UNL     1       1.750   1.744  -0.270  1.00  0.00     0.035 A 
HETATM   26  C7  UNL     1       2.182   3.010  -0.595  1.00  0.00     0.115 A 
HETATM   27  N4  UNL     1       3.505   3.058  -0.490  1.00  0.00    -0.350 N 
HETATM   28  C8  UNL     1       3.937   1.847  -0.102  1.00  0.00     0.113 A 
ATOM     29  H4  UNL     1       4.091   3.873  -0.672  1.00  0.00     0.166 HD
HETATM   30  C9  UNL     1       5.220   1.393   0.145  1.00  0.00     0.078 A 
HETATM   31  N7  UNL     1       2.869   1.042   0.034  1.00  0.00    -0.311 N 
HETATM   32  C10 UNL     1       5.379   0.084   0.536  1.00  0.00     0.039 A 
HETATM   33  C12 UNL     1       4.279  -0.733   0.672  1.00  0.00     0.047 A 
HETATM   34  C13 UNL     1       3.027  -0.233   0.415  1.00  0.00     0.101 A 
BRANCH  32  35
HETATM   35  N5  UNL     1       6.677  -0.415   0.797  1.00  0.00    -0.325 N 
HETATM   36  C11 UNL     1       6.962  -1.083   1.849  1.00  0.00     0.229 C 
HETATM   37  N6  UNL     1       8.274  -1.557   2.059  1.00  0.00    -0.056 NA
ATOM     38  H5  UNL     1       7.416  -0.234   0.118  1.00  0.00     0.169 HD
BRANCH  36  39
HETATM   39  O2  UNL     1       5.985  -1.340   2.784  1.00  0.00    -0.335 OA
ATOM     40  H2  UNL     1       6.197  -1.836   3.566  1.00  0.00     0.220 HD
ENDBRANCH  36  39
ENDBRANCH  32  35
ENDBRANCH  24  25
ENDBRANCH  23  24
ENDBRANCH   1  23
TORSDOF 11
