REMARK  10 active torsions:
REMARK  status: ('A' for Active; 'I' for Inactive)
REMARK    1  A    between atoms: O1_2  and  N1_3 
REMARK    2  A    between atoms: N1_3  and  N2_4 
REMARK       I    between atoms: N2_4  and  C2_6 
REMARK       I    between atoms: C2_6  and  N3_8 
REMARK    3  A    between atoms: N3_8  and  S1_10 
REMARK    4  A    between atoms: S1_10  and  C3_12 
REMARK    5  A    between atoms: N4_14  and  O4_16 
REMARK    6  A    between atoms: C5_20  and  C6_21 
REMARK    7  A    between atoms: C6_21  and  O6_23 
REMARK    8  A    between atoms: O6_23  and  C7_24 
REMARK    9  A    between atoms: C8_29  and  N8_30 
REMARK   10  A    between atoms: C9_35  and  N11_36 
ROOT
HETATM    1  C3  UNL     1      -0.214  -0.729  -0.276  1.00  0.00     0.199 C 
HETATM    2  C4  UNL     1       0.066  -0.221  -1.638  1.00  0.00     0.118 C 
HETATM    3  N4  UNL     1       0.983  -0.647  -2.476  1.00  0.00    -0.256 N 
ATOM      4  H4  UNL     1       1.108  -0.235  -3.401  1.00  0.00     0.195 HD
HETATM    5  N5  UNL     1      -0.889   0.833  -1.871  1.00  0.00    -0.361 N 
ATOM      6  H5  UNL     1      -0.739   1.668  -2.437  1.00  0.00     0.161 HD
HETATM    7  C5  UNL     1      -2.076   0.497  -1.170  1.00  0.00     0.211 C 
HETATM    8  C8  UNL     1      -1.682  -0.445  -0.065  1.00  0.00     0.186 C 
ENDROOT
BRANCH   1   9
HETATM    9  S1  UNL     1       0.806   0.048   0.936  1.00  0.00     0.132 S 
HETATM   10  O3  UNL     1       0.312  -0.128   2.340  1.00  0.00    -0.234 OA
BRANCH   9  11
HETATM   11  N3  UNL     1       2.494  -0.190   0.716  1.00  0.00    -0.256 N 
HETATM   12  C2  UNL     1       3.447   0.823   0.622  1.00  0.00     0.345 C 
HETATM   13  N2  UNL     1       4.818   0.536   0.448  1.00  0.00    -0.229 N 
HETATM   14  O2  UNL     1       3.069   2.021   0.700  1.00  0.00    -0.245 OA
ATOM     15  H2  UNL     1       5.094  -0.444   0.385  1.00  0.00     0.189 HD
ATOM     16  H3  UNL     1       2.826  -1.152   0.649  1.00  0.00     0.181 HD
BRANCH  13  17
HETATM   17  N1  UNL     1       5.816   1.494   0.357  1.00  0.00     0.025 NA
BRANCH  17  18
HETATM   18  O1  UNL     1       7.025   0.949   0.331  1.00  0.00    -0.272 OA
HETATM   19  C1  UNL     1       7.577   0.760  -0.911  1.00  0.00     0.234 C 
ENDBRANCH  17  18
ENDBRANCH  13  17
ENDBRANCH   9  11
ENDBRANCH   1   9
BRANCH   8  20
HETATM   20  N8  UNL     1      -2.476  -1.660  -0.138  1.00  0.00    -0.196 N 
HETATM   21  N9  UNL     1      -3.180  -2.058  -1.180  1.00  0.00    -0.211 N 
HETATM   22  N10 UNL     1      -3.780  -3.197  -0.914  1.00  0.00    -0.115 N 
ATOM     23  H9  UNL     1      -3.249  -1.555  -2.064  1.00  0.00     0.210 HD
HETATM   24  C9  UNL     1      -3.445  -3.533   0.340  1.00  0.00     0.707 A 
ATOM     25  H10 UNL     1      -4.386  -3.725  -1.542  1.00  0.00     0.207 HD
HETATM   26  N12 UNL     1      -2.640  -2.572   0.799  1.00  0.00    -0.113 N 
ATOM     27  H12 UNL     1      -2.219  -2.548   1.728  1.00  0.00     0.207 HD
BRANCH  24  28
HETATM   28  N11 UNL     1      -3.839  -4.610   0.990  1.00  0.00    -0.232 N 
ATOM     29 2H11 UNL     1      -4.454  -5.344   0.639  1.00  0.00     0.174 HD
ATOM     30 1H11 UNL     1      -3.584  -4.866   1.944  1.00  0.00     0.174 HD
ENDBRANCH  24  28
ENDBRANCH   8  20
BRANCH   3  31
HETATM   31  O4  UNL     1       1.771  -1.694  -2.021  1.00  0.00    -0.288 OA
ATOM     32  H4  UNL     1       2.434  -2.002  -2.627  1.00  0.00     0.244 HD
ENDBRANCH   3  31
BRANCH   7  33
HETATM   33  C6  UNL     1      -2.836   1.642  -0.617  1.00  0.00     0.291 C 
HETATM   34  O5  UNL     1      -2.525   2.809  -0.894  1.00  0.00    -0.262 OA
BRANCH  33  35
HETATM   35  O6  UNL     1      -3.902   1.378   0.223  1.00  0.00    -0.247 OA
BRANCH  35  36
HETATM   36  C7  UNL     1      -4.688   2.375   0.806  1.00  0.00     0.232 C 
HETATM   37  N6  UNL     1      -4.592   3.572   0.564  1.00  0.00    -0.367 N 
ATOM     38  H62 UNL     1      -3.884   3.852  -0.115  1.00  0.00     0.159 HD
ATOM     39  H61 UNL     1      -5.166   4.300   0.990  1.00  0.00     0.159 HD
HETATM   40  N7  UNL     1      -5.698   1.976   1.775  1.00  0.00    -0.056 NA
ENDBRANCH  35  36
ENDBRANCH  33  35
ENDBRANCH   7  33
TORSDOF 10
