REMARK  2 active torsions:
REMARK  status: ('A' for Active; 'I' for Inactive)
REMARK    1  A    between atoms: C2_2  and  C3_3 
REMARK    2  A    between atoms: C3_3  and  C4_4 
ROOT
HETATM    1  C4  UNL     1      -1.910   0.699  -0.276  1.00  0.00     0.137 C 
HETATM    2  C5  UNL     1      -1.615   2.044  -0.734  1.00  0.00     0.060 C 
HETATM    3  N1  UNL     1      -1.363   3.126  -1.100  1.00  0.00    -0.197 NA
ENDROOT
BRANCH   1   4
HETATM    4  C3  UNL     1      -0.585   0.015   0.088  1.00  0.00    -0.008 C 
HETATM    5  C6  UNL     1       0.049   0.722   1.263  1.00  0.00     0.042 C 
HETATM    6  C7  UNL     1       1.492   1.029   0.963  1.00  0.00     0.233 C 
HETATM    7  N2  UNL     1       2.105  -0.189   0.466  1.00  0.00    -0.075 N 
HETATM    8  C8  UNL     1       1.682  -0.382  -0.908  1.00  0.00     0.233 C 
ATOM      9  H22 UNL     1       3.120  -0.189   0.569  1.00  0.00     0.277 HD
ATOM     10  H21 UNL     1       1.907  -0.998   1.056  1.00  0.00     0.277 HD
HETATM   11  C9  UNL     1       0.256   0.024  -1.132  1.00  0.00     0.042 C 
BRANCH   4  12
HETATM   12  C2  UNL     1      -0.951  -1.348   0.546  1.00  0.00    -0.026 C 
HETATM   13  C1  UNL     1      -0.767  -2.460  -0.108  1.00  0.00     0.008 C 
ENDBRANCH   4  12
ENDBRANCH   1   4
TORSDOF 2
