REMARK  2 active torsions:
REMARK  status: ('A' for Active; 'I' for Inactive)
REMARK    1  A    between atoms: N1_1  and  C1_5 
REMARK    2  A    between atoms: C1_5  and  C2_6 
ROOT
HETATM    1  C2  UNL     1       0.537  -0.291  -0.414  1.00  0.00     0.085 C 
HETATM    2  C3  UNL     1       0.257   1.157  -0.618  1.00  0.00     0.040 C 
HETATM    3  C4  UNL     1      -1.016   1.508   0.129  1.00  0.00     0.006 C 
HETATM    4  C5  UNL     1      -2.090   0.574  -0.382  1.00  0.00     0.032 C 
HETATM    5  C6  UNL     1      -1.567  -0.825  -0.316  1.00  0.00     0.122 C 
HETATM    6  C7  UNL     1      -1.102  -1.065   1.126  1.00  0.00     0.035 C 
HETATM    7  C8  UNL     1       0.371  -0.763   1.000  1.00  0.00     0.042 C 
HETATM    8  O1  UNL     1      -0.429  -1.024  -1.097  1.00  0.00    -0.373 OA
ENDROOT
BRANCH   1   9
HETATM    9  C1  UNL     1       1.934  -0.606  -0.870  1.00  0.00     0.267 C 
BRANCH   9  10
HETATM   10  N1  UNL     1       2.830   0.221  -0.082  1.00  0.00    -0.076 N 
ATOM     11  H13 UNL     1       2.606   1.215  -0.130  1.00  0.00     0.274 HD
ATOM     12  H12 UNL     1       2.701   0.108   0.923  1.00  0.00     0.274 HD
ATOM     13  H11 UNL     1       3.778   0.007  -0.391  1.00  0.00     0.274 HD
ENDBRANCH   9  10
ENDBRANCH   1   9
TORSDOF 2
