REMARK  2 active torsions:
REMARK  status: ('A' for Active; 'I' for Inactive)
REMARK    1  A    between atoms: C3_3  and  S1_4 
REMARK    2  A    between atoms: S1_4  and  C4_5 
ROOT
HETATM    1  C1  UNL     1       3.546   1.361   0.005  1.00  0.00     0.013 C 
HETATM    2  C2  UNL     1       3.196   0.217  -0.141  1.00  0.00    -0.107 C 
HETATM    3  C3  UNL     1       2.797  -1.178  -0.312  1.00  0.00     0.167 C 
ENDROOT
BRANCH   3   4
HETATM    4  S1  UNL     1       1.165  -1.529   0.385  1.00  0.00    -0.152 SA
BRANCH   4   5
HETATM    5  C4  UNL     1      -0.169  -0.672  -0.501  1.00  0.00     0.051 C 
HETATM    6  C5  UNL     1      -0.118   0.795  -0.350  1.00  0.00     0.043 C 
HETATM    7  C6  UNL     1      -1.405   1.527  -0.226  1.00  0.00     0.233 C 
HETATM    8  N1  UNL     1      -2.587   0.718  -0.148  1.00  0.00    -0.075 N 
HETATM    9  C7  UNL     1      -2.264  -0.400   0.736  1.00  0.00     0.233 C 
ATOM     10  H12 UNL     1      -3.415   1.238   0.143  1.00  0.00     0.277 HD
ATOM     11  H11 UNL     1      -2.937   0.424  -1.060  1.00  0.00     0.277 HD
HETATM   12  C8  UNL     1      -1.456  -1.344  -0.130  1.00  0.00     0.043 C 
ENDBRANCH   4   5
ENDBRANCH   3   4
TORSDOF 2
