REMARK  4 active torsions:
REMARK  status: ('A' for Active; 'I' for Inactive)
REMARK    1  A    between atoms: C1_2  and  C2_4 
REMARK    2  A    between atoms: C2_4  and  N2_5 
REMARK    3  A    between atoms: C2_4  and  C3_9 
REMARK       I    between atoms: C3_9  and  N3_11 
REMARK    4  A    between atoms: N3_11  and  C4_13 
ROOT
HETATM    1  C3  UNL     1      -0.558  -1.264   0.237  1.00  0.00     0.275 C 
HETATM    2  O2  UNL     1      -0.475  -2.518   0.208  1.00  0.00    -0.270 OA
HETATM    3  N3  UNL     1       0.334  -0.546   1.048  1.00  0.00    -0.156 N 
ATOM      4  H3  UNL     1       0.154  -0.476   2.050  1.00  0.00     0.187 HD
ENDROOT
BRANCH   3   5
HETATM    5  C4  UNL     1       1.392   0.036   0.544  1.00  0.00     0.703 A 
HETATM    6  N4  UNL     1       2.307   0.745   1.223  1.00  0.00    -0.128 N 
HETATM    7  N5  UNL     1       3.253   1.200   0.418  1.00  0.00    -0.237 N 
ATOM      8  H4  UNL     1       2.277   0.911   2.229  1.00  0.00     0.205 HD
HETATM    9  C5  UNL     1       2.915   0.757  -0.816  1.00  0.00     0.353 A 
ATOM     10  H5  UNL     1       4.064   1.764   0.673  1.00  0.00     0.192 HD
HETATM   11  O3  UNL     1       3.614   1.013  -1.849  1.00  0.00    -0.245 OA
HETATM   12  N6  UNL     1       1.778   0.045  -0.744  1.00  0.00    -0.139 N 
ATOM     13  H6  UNL     1       1.297  -0.405  -1.522  1.00  0.00     0.189 HD
ENDBRANCH   3   5
BRANCH   1  14
HETATM   14  C2  UNL     1      -1.591  -0.610  -0.586  1.00  0.00     0.363 C 
BRANCH  14  15
HETATM   15  C1  UNL     1      -2.512   0.228   0.190  1.00  0.00     0.271 C 
HETATM   16  N1  UNL     1      -2.122   1.296   1.025  1.00  0.00    -0.060 NA
HETATM   17  O1  UNL     1      -3.763  -0.023   0.107  1.00  0.00    -0.274 OA
ENDBRANCH  14  15
BRANCH  14  18
HETATM   18  N2  UNL     1      -2.362  -1.594  -1.315  1.00  0.00    -0.058 N 
ATOM     19  H23 UNL     1      -2.970  -2.142  -0.707  1.00  0.00     0.275 HD
ATOM     20  H22 UNL     1      -3.087  -1.171  -1.894  1.00  0.00     0.275 HD
ATOM     21  H21 UNL     1      -1.722  -2.177  -1.854  1.00  0.00     0.275 HD
ENDBRANCH  14  18
ENDBRANCH   1  14
TORSDOF 4
