REMARK  1 active torsions:
REMARK  status: ('A' for Active; 'I' for Inactive)
REMARK    1  A    between atoms: N2_3  and  N3_5 
ROOT
HETATM    1  N3  UNL     1       1.041  -1.074  -1.070  1.00  0.00    -0.286 N 
ATOM      2  H3  UNL     1       1.074  -2.057  -1.341  1.00  0.00     0.188 HD
HETATM    3  C2  UNL     1      -0.090  -0.472  -0.881  1.00  0.00     0.124 C 
HETATM    4  C3  UNL     1      -1.337  -1.253  -1.069  1.00  0.00     0.203 C 
HETATM    5  N4  UNL     1      -2.126  -1.391   0.105  1.00  0.00    -0.335 N 
ATOM      6  H4  UNL     1      -2.601  -2.291   0.172  1.00  0.00     0.164 HD
HETATM    7  C4  UNL     1      -2.390  -0.523   1.214  1.00  0.00     0.331 C 
HETATM    8  O1  UNL     1      -2.865  -1.076   2.246  1.00  0.00    -0.246 OA
HETATM    9  N5  UNL     1      -2.180   0.864   1.282  1.00  0.00    -0.219 N 
ATOM     10  H5  UNL     1      -2.604   1.339   2.079  1.00  0.00     0.185 HD
HETATM   11  S1  UNL     1      -1.297   1.868   0.191  1.00  0.00     0.328 S 
HETATM   12  O2  UNL     1      -0.748   3.075   0.885  1.00  0.00    -0.182 OA
HETATM   13  O3  UNL     1      -2.221   2.256  -0.930  1.00  0.00    -0.182 OA
HETATM   14  N6  UNL     1      -0.048   0.900  -0.504  1.00  0.00    -0.254 N 
ATOM     15  H6  UNL     1       0.840   1.375  -0.666  1.00  0.00     0.181 HD
ENDROOT
BRANCH   1  16
HETATM   16  N2  UNL     1       2.206  -0.341  -0.893  1.00  0.00    -0.297 N 
HETATM   17  C1  UNL     1       3.051  -0.519   0.043  1.00  0.00     0.206 C 
HETATM   18  N1  UNL     1       4.199   0.319   0.086  1.00  0.00    -0.095 NA
ATOM     19  H2  UNL     1       2.401   0.400  -1.567  1.00  0.00     0.187 HD
ENDBRANCH   1  16
TORSDOF 1
