REMARK  2 active torsions:
REMARK  status: ('A' for Active; 'I' for Inactive)
REMARK    1  A    between atoms: C1_2  and  C2_4 
REMARK    2  A    between atoms: C2_4  and  N2_5 
ROOT
HETATM    1  C2  UNL     1      -0.392  -0.046   0.406  1.00  0.00     0.359 C 
HETATM    2  N3  UNL     1       0.331   1.206   0.251  1.00  0.00    -0.285 N 
ATOM      3  H3  UNL     1      -0.142   2.100   0.381  1.00  0.00     0.169 HD
HETATM    4  C3  UNL     1       1.715   1.158  -0.087  1.00  0.00     0.327 C 
HETATM    5  O2  UNL     1       2.432   2.211  -0.114  1.00  0.00    -0.247 OA
HETATM    6  N4  UNL     1       2.364  -0.054  -0.415  1.00  0.00    -0.261 N 
ATOM      7  H4  UNL     1       3.353  -0.053  -0.663  1.00  0.00     0.175 HD
HETATM    8  C4  UNL     1       1.633  -1.280  -0.399  1.00  0.00     0.327 C 
HETATM    9  O3  UNL     1       2.197  -2.359  -0.629  1.00  0.00    -0.247 OA
HETATM   10  N5  UNL     1       0.248  -1.191  -0.066  1.00  0.00    -0.285 N 
ATOM     11  H5  UNL     1      -0.318  -2.031  -0.183  1.00  0.00     0.169 HD
ENDROOT
BRANCH   1  12
HETATM   12  C1  UNL     1      -1.792   0.086  -0.073  1.00  0.00     0.310 C 
HETATM   13  N1  UNL     1      -2.044   0.149  -1.468  1.00  0.00    -0.056 NA
HETATM   14  O1  UNL     1      -2.729   0.154   0.742  1.00  0.00    -0.270 OA
ENDBRANCH   1  12
BRANCH   1  15
HETATM   15  N2  UNL     1      -0.483  -0.142   1.930  1.00  0.00    -0.024 N 
ATOM     16  H23 UNL     1      -0.990   0.632   2.359  1.00  0.00     0.280 HD
ATOM     17  H22 UNL     1      -1.099  -0.887   2.257  1.00  0.00     0.280 HD
ATOM     18  H21 UNL     1       0.478  -0.233   2.259  1.00  0.00     0.280 HD
ENDBRANCH   1  15
TORSDOF 2
