REMARK  14 active torsions:
REMARK  status: ('A' for Active; 'I' for Inactive)
REMARK    1  A    between atoms: C2_8  and  S1_9 
REMARK    2  A    between atoms: S1_9  and  C3_10 
REMARK    3  A    between atoms: C3_10  and  C4_11 
REMARK       I    between atoms: C4_11  and  N5_13 
REMARK    4  A    between atoms: N5_13  and  C5_15 
REMARK    5  A    between atoms: C9_19  and  C10_20 
REMARK       I    between atoms: C10_20  and  N6_22 
REMARK    6  A    between atoms: N6_22  and  S2_24 
REMARK    7  A    between atoms: S2_24  and  N7_27 
REMARK    8  A    between atoms: N7_27  and  C11_29 
REMARK    9  A    between atoms: C11_29  and  C12_30 
REMARK   10  A    between atoms: C11_29  and  C13_33 
REMARK   11  A    between atoms: C15_35  and  O7_36 
REMARK   12  A    between atoms: C16_38  and  O8_39 
REMARK   13  A    between atoms: C17_41  and  C18_42 
REMARK   14  A    between atoms: C18_42  and  O9_43 
ROOT
HETATM    1  C10 UNL     1       0.357  -1.251   0.784  1.00  0.00     0.266 C 
HETATM    2  O2  UNL     1       0.308  -1.489   2.013  1.00  0.00    -0.267 OA
HETATM    3  N6  UNL     1      -0.860  -1.294   0.047  1.00  0.00    -0.233 N 
ATOM      4  H6  UNL     1      -0.820  -1.102  -0.954  1.00  0.00     0.183 HD
ENDROOT
BRANCH   3   5
HETATM    5  S2  UNL     1      -2.389  -1.649   0.738  1.00  0.00     0.322 S 
HETATM    6  O3  UNL     1      -2.647  -0.659   1.859  1.00  0.00    -0.182 OA
HETATM    7  O4  UNL     1      -2.436  -3.026   1.270  1.00  0.00    -0.182 OA
BRANCH   5   8
HETATM    8  N7  UNL     1      -3.595  -1.363  -0.461  1.00  0.00    -0.283 N 
ATOM      9  H7  UNL     1      -3.909  -2.063  -1.133  1.00  0.00     0.175 HD
BRANCH   8  10
HETATM   10  C11 UNL     1      -4.112  -0.004  -0.401  1.00  0.00     0.228 C 
BRANCH  10  11
HETATM   11  C12 UNL     1      -3.817   0.695  -1.681  1.00  0.00     0.202 C 
HETATM   12  O5  UNL     1      -3.203   0.038  -2.584  1.00  0.00    -0.646 OA
HETATM   13  O6  UNL     1      -4.150   1.999  -1.970  1.00  0.00    -0.646 OA
ENDBRANCH  10  11
BRANCH  10  14
HETATM   14  C13 UNL     1      -5.587  -0.073  -0.176  1.00  0.00    -0.021 A 
HETATM   15  C14 UNL     1      -6.387  -0.875  -0.954  1.00  0.00     0.049 A 
HETATM   16  C15 UNL     1      -7.750  -0.960  -0.779  1.00  0.00     0.100 A 
HETATM   17  C16 UNL     1      -8.342  -0.209   0.220  1.00  0.00     0.107 A 
HETATM   18  C17 UNL     1      -7.541   0.597   1.005  1.00  0.00     0.002 A 
HETATM   19  C19 UNL     1      -6.179   0.675   0.819  1.00  0.00     0.022 A 
BRANCH  16  20
HETATM   20  O7  UNL     1      -8.493  -1.789  -1.605  1.00  0.00    -0.358 OA
ATOM     21  H7  UNL     1      -9.433  -1.848  -1.484  1.00  0.00     0.217 HD
ENDBRANCH  16  20
BRANCH  17  22
HETATM   22  O8  UNL     1      -9.712  -0.270   0.422  1.00  0.00    -0.357 OA
ATOM     23  H8  UNL     1     -10.119   0.246   1.108  1.00  0.00     0.217 HD
ENDBRANCH  17  22
BRANCH  18  24
HETATM   24  C18 UNL     1      -8.225   1.392   2.084  1.00  0.00     0.205 C 
BRANCH  24  25
HETATM   25  O9  UNL     1      -7.268   2.130   2.766  1.00  0.00    -0.396 OA
ATOM     26  H9  UNL     1      -7.700   2.632   3.447  1.00  0.00     0.209 HD
ENDBRANCH  24  25
ENDBRANCH  18  24
ENDBRANCH  10  14
ENDBRANCH   8  10
ENDBRANCH   5   8
ENDBRANCH   3   5
BRANCH   1  27
HETATM   27  C9  UNL     1       1.622  -0.934   0.125  1.00  0.00     0.035 A 
HETATM   28  C8  UNL     1       1.806  -1.097  -1.218  1.00  0.00     0.017 A 
HETATM   29  C7  UNL     1       2.972  -0.781  -1.874  1.00  0.00     0.003 A 
HETATM   30  C6  UNL     1       4.014  -0.268  -1.106  1.00  0.00     0.029 A 
HETATM   31  C5  UNL     1       3.894  -0.080   0.248  1.00  0.00     0.035 A 
HETATM   32  C20 UNL     1       2.695  -0.419   0.843  1.00  0.00     0.046 A 
BRANCH  31  33
HETATM   33  N5  UNL     1       4.899   0.489   1.057  1.00  0.00    -0.327 N 
HETATM   34  C4  UNL     1       5.817   1.438   0.558  1.00  0.00     0.231 C 
HETATM   35  O1  UNL     1       5.821   1.872  -0.646  1.00  0.00    -0.272 OA
ATOM     36  H5  UNL     1       4.965   0.206   2.035  1.00  0.00     0.169 HD
BRANCH  34  37
HETATM   37  C3  UNL     1       6.866   2.002   1.443  1.00  0.00     0.185 C 
BRANCH  37  38
HETATM   38  S1  UNL     1       8.440   1.923   0.510  1.00  0.00    -0.082 SA
BRANCH  38  39
HETATM   39  C2  UNL     1       8.926   0.213   0.314  1.00  0.00     0.175 A 
HETATM   40  N1  UNL     1      10.027  -0.189  -0.345  1.00  0.00    -0.257 N 
HETATM   41  C1  UNL     1      10.998   0.627  -1.023  1.00  0.00     0.177 C 
HETATM   42  N2  UNL     1      10.064  -1.519  -0.267  1.00  0.00    -0.003 NA
HETATM   43  N3  UNL     1       9.015  -1.974   0.419  1.00  0.00    -0.224 N 
HETATM   44  N4  UNL     1       8.336  -0.896   0.762  1.00  0.00    -0.266 N 
ATOM     45  H3  UNL     1       8.787  -2.945   0.632  1.00  0.00     0.205 HD
ATOM     46  H4  UNL     1       7.470  -0.909   1.301  1.00  0.00     0.190 HD
ENDBRANCH  38  39
ENDBRANCH  37  38
ENDBRANCH  34  37
ENDBRANCH  31  33
ENDBRANCH   1  27
TORSDOF 14
