REMARK  4 active torsions:
REMARK  status: ('A' for Active; 'I' for Inactive)
REMARK    1  A    between atoms: C2_2  and  C4_4 
REMARK    2  A    between atoms: C2_2  and  C7_12 
REMARK    3  A    between atoms: C4_4  and  C5_5 
REMARK       I    between atoms: C5_5  and  N1_7 
REMARK    4  A    between atoms: C7_12  and  C10_15 
ROOT
HETATM    1  C1  UNL     1      -1.324  -1.336  -1.199  1.00  0.00     0.016 C 
HETATM    2  C2  UNL     1      -0.748  -0.638   0.108  1.00  0.00    -0.024 C 
HETATM    3  C3  UNL     1      -0.852  -1.695   1.167  1.00  0.00     0.016 C 
ENDROOT
BRANCH   2   4
HETATM    4  C4  UNL     1       0.631  -0.311  -0.305  1.00  0.00     0.113 C 
BRANCH   4   5
HETATM    5  C5  UNL     1       1.584   0.250   0.620  1.00  0.00     0.224 C 
HETATM    6  O1  UNL     1       1.499   0.123   1.856  1.00  0.00    -0.273 OA
HETATM    7  N1  UNL     1       2.688   0.992   0.117  1.00  0.00    -0.304 N 
HETATM    8  C6  UNL     1       3.783   0.512  -0.271  1.00  0.00     0.203 C 
ATOM      9  H1  UNL     1       2.582   2.005   0.067  1.00  0.00     0.171 HD
HETATM   10  N2  UNL     1       4.796   1.372  -0.748  1.00  0.00    -0.066 NA
HETATM   11  N3  UNL     1       4.020  -0.879  -0.239  1.00  0.00    -0.066 NA
ENDBRANCH   4   5
ENDBRANCH   2   4
BRANCH   2  12
HETATM   12  C7  UNL     1      -1.736   0.472   0.280  1.00  0.00     0.058 C 
HETATM   13  C8  UNL     1      -3.117  -0.168   0.477  1.00  0.00     0.025 C 
HETATM   14  C9  UNL     1      -1.859   1.185  -1.075  1.00  0.00     0.025 C 
BRANCH  12  15
HETATM   15  C10 UNL     1      -1.546   1.519   1.294  1.00  0.00     0.395 C 
HETATM   16  F1  UNL     1      -2.713   2.363   1.163  1.00  0.00    -0.170 F 
HETATM   17  F2  UNL     1      -1.571   1.155   2.593  1.00  0.00    -0.170 F 
HETATM   18  F3  UNL     1      -0.551   2.464   0.994  1.00  0.00    -0.170 F 
ENDBRANCH  12  15
ENDBRANCH   2  12
TORSDOF 4
