REMARK  2 active torsions:
REMARK  status: ('A' for Active; 'I' for Inactive)
REMARK       I    between atoms: C1_2  and  N3_11 
REMARK    1  A    between atoms: N2_3  and  C2_5 
REMARK    2  A    between atoms: N3_11  and  C7_13 
ROOT
HETATM    1  N1  UNL     1       0.642   3.056   0.253  1.00  0.00    -0.064 NA
HETATM    2  C1  UNL     1       0.082   1.833  -0.210  1.00  0.00     0.189 C 
HETATM    3  N2  UNL     1      -1.106   1.540   0.195  1.00  0.00    -0.360 N 
ATOM      4  H2  UNL     1      -1.607   2.170   0.821  1.00  0.00     0.162 HD
HETATM    5  N3  UNL     1       0.789   0.972  -1.076  1.00  0.00    -0.331 N 
ATOM      6  H3  UNL     1       0.501   0.869  -2.049  1.00  0.00     0.168 HD
ENDROOT
BRANCH   3   7
HETATM    7  C2  UNL     1      -1.713   0.323  -0.242  1.00  0.00     0.086 C 
HETATM    8  C3  UNL     1      -3.216   0.540  -0.318  1.00  0.00     0.028 C 
HETATM    9  C4  UNL     1      -3.737  -0.873  -0.397  1.00  0.00     0.039 C 
HETATM   10  C5  UNL     1      -2.755  -1.696   0.372  1.00  0.00     0.172 C 
HETATM   11  F1  UNL     1      -3.306  -2.282   1.495  1.00  0.00    -0.249 F 
HETATM   12  C6  UNL     1      -1.626  -0.791   0.782  1.00  0.00     0.062 C 
ENDBRANCH   3   7
BRANCH   5  13
HETATM   13  C7  UNL     1       1.908   0.249  -0.577  1.00  0.00     0.034 A 
HETATM   14  C8  UNL     1       2.642  -0.610  -1.376  1.00  0.00     0.032 A 
HETATM   15  C9  UNL     1       3.735  -1.318  -0.895  1.00  0.00     0.044 A 
HETATM   16  C10 UNL     1       4.098  -1.157   0.426  1.00  0.00     0.116 A 
HETATM   17  F2  UNL     1       5.163  -1.844   0.903  1.00  0.00    -0.206 F 
HETATM   18  C11 UNL     1       3.397  -0.313   1.258  1.00  0.00     0.044 A 
HETATM   19  C12 UNL     1       2.324   0.366   0.736  1.00  0.00     0.032 A 
ENDBRANCH   5  13
TORSDOF 2
