REMARK  2 active torsions:
REMARK  status: ('A' for Active; 'I' for Inactive)
REMARK    1  A    between atoms: C2_2  and  C3_3 
REMARK    2  A    between atoms: C2_2  and  S1_11 
ROOT
HETATM    1  C1  UNL     1       1.532  -0.356  -2.574  1.00  0.00     0.033 C 
HETATM    2  C2  UNL     1       1.120  -0.146  -1.354  1.00  0.00     0.013 C 
ENDROOT
BRANCH   2   3
HETATM    3  C3  UNL     1       2.089  -0.223  -0.279  1.00  0.00     0.089 A 
HETATM    4  N1  UNL     1       2.828   0.817   0.173  1.00  0.00    -0.359 N 
HETATM    5  C4  UNL     1       3.629   0.423   1.165  1.00  0.00     0.134 A 
ATOM      6  H1  UNL     1       2.780   1.768  -0.193  1.00  0.00     0.165 HD
HETATM    7  C5  UNL     1       3.412  -0.920   1.375  1.00  0.00     0.172 A 
HETATM    8  F1  UNL     1       4.014  -1.735   2.293  1.00  0.00    -0.201 F 
HETATM    9  C6  UNL     1       2.456  -1.314   0.476  1.00  0.00     0.184 A 
HETATM   10  F2  UNL     1       1.939  -2.558   0.331  1.00  0.00    -0.200 F 
ENDBRANCH   2   3
BRANCH   2  11
HETATM   11  S1  UNL     1      -0.486   0.209  -1.029  1.00  0.00    -0.167 SA
HETATM   12  C7  UNL     1      -0.863   1.582  -0.060  1.00  0.00     0.070 C 
HETATM   13  C8  UNL     1      -1.211   1.132   1.330  1.00  0.00     0.011 C 
HETATM   14  C9  UNL     1      -1.857  -0.247   1.273  1.00  0.00     0.020 C 
HETATM   15  C10 UNL     1      -3.115  -0.180   0.472  1.00  0.00     0.114 C 
HETATM   16  N2  UNL     1      -2.985  -0.495  -0.904  1.00  0.00    -0.413 N 
HETATM   17  C11 UNL     1      -1.705  -0.950  -1.321  1.00  0.00     0.183 C 
ATOM     18  H2  UNL     1      -3.764  -0.401  -1.556  1.00  0.00     0.153 HD
ENDBRANCH   2  11
TORSDOF 2
