REMARK  3 active torsions:
REMARK  status: ('A' for Active; 'I' for Inactive)
REMARK    1  A    between atoms: C1_2  and  C2_3 
REMARK    2  A    between atoms: C2_3  and  N1_5 
REMARK    3  A    between atoms: N1_5  and  C3_7 
ROOT
HETATM    1  C2  UNL     1       0.445   0.933  -0.730  1.00  0.00     0.237 C 
HETATM    2 CL1  UNL     1       1.352   2.480  -0.896  1.00  0.00    -0.098 Cl
ENDROOT
BRANCH   1   3
HETATM    3  C1  UNL     1      -0.988   1.304  -0.596  1.00  0.00     0.149 C 
HETATM    4  F1  UNL     1      -1.419   2.002  -1.709  1.00  0.00    -0.238 F 
HETATM    5  C6  UNL     1      -1.358   2.078   0.655  1.00  0.00     0.049 C 
HETATM    6  C7  UNL     1      -2.711   1.356   0.551  1.00  0.00     0.020 C 
HETATM    7  C8  UNL     1      -1.948   0.271  -0.145  1.00  0.00     0.020 A 
HETATM    8  C9  UNL     1      -1.528  -0.869   0.587  1.00  0.00    -0.017 A 
HETATM    9  C11 UNL     1      -2.607  -0.605  -1.075  1.00  0.00     0.043 A 
HETATM   10  C10 UNL     1      -2.111  -1.686  -0.233  1.00  0.00    -0.029 A 
ENDBRANCH   1   3
BRANCH   1  11
HETATM   11  N1  UNL     1       0.987   0.262   0.418  1.00  0.00    -0.205 N 
ATOM     12  H1  UNL     1       0.510   0.344   1.316  1.00  0.00     0.179 HD
BRANCH  11  13
HETATM   13  C3  UNL     1       2.065  -0.443   0.338  1.00  0.00     0.679 A 
HETATM   14  N2  UNL     1       2.640  -1.103   1.360  1.00  0.00    -0.201 N 
HETATM   15  C4  UNL     1       3.733  -1.709   0.864  1.00  0.00     0.123 A 
ATOM     16  H2  UNL     1       2.310  -1.137   2.325  1.00  0.00     0.183 HD
HETATM   17  C5  UNL     1       3.829  -1.418  -0.475  1.00  0.00     0.123 A 
HETATM   18  N3  UNL     1       2.785  -0.631  -0.789  1.00  0.00    -0.201 N 
ATOM     19  H3  UNL     1       2.575  -0.246  -1.710  1.00  0.00     0.183 HD
ENDBRANCH  11  13
ENDBRANCH   1  11
TORSDOF 3
