REMARK  1 active torsions:
REMARK  status: ('A' for Active; 'I' for Inactive)
REMARK    1  A    between atoms: C6_6  and  N1_8 
ROOT
HETATM    1  C1  UNL     1      -1.103  -1.573   0.229  1.00  0.00     0.012 C 
HETATM    2  C2  UNL     1      -0.305  -0.432   0.782  1.00  0.00     0.017 C 
HETATM    3  C3  UNL     1      -1.202   0.778   0.892  1.00  0.00     0.007 C 
HETATM    4  C4  UNL     1      -1.209   1.270  -0.556  1.00  0.00     0.003 C 
HETATM    5  C5  UNL     1       0.287   1.226  -0.871  1.00  0.00     0.038 C 
HETATM    6  C6  UNL     1       0.800   0.041  -0.086  1.00  0.00     0.123 C 
HETATM    7  C7  UNL     1       1.403  -1.012  -0.967  1.00  0.00     0.046 C 
ENDROOT
BRANCH   6   8
HETATM    8  N1  UNL     1       1.860   0.560   0.792  1.00  0.00    -0.070 N 
ATOM      9  H13 UNL     1       1.527   1.276   1.438  1.00  0.00     0.275 HD
ATOM     10  H12 UNL     1       2.165  -0.118   1.491  1.00  0.00     0.275 HD
ATOM     11  H11 UNL     1       2.620   0.885   0.195  1.00  0.00     0.275 HD
ENDBRANCH   6   8
TORSDOF 1
