REMARK  3 active torsions:
REMARK  status: ('A' for Active; 'I' for Inactive)
REMARK    1  A    between atoms: C2_2  and  N1_3 
REMARK    2  A    between atoms: C2_2  and  C7_9 
REMARK    3  A    between atoms: N1_3  and  C3_5 
ROOT
HETATM    1  C1  UNL     1      -0.196  -2.138   0.589  1.00  0.00     0.032 C 
HETATM    2  C2  UNL     1       0.032  -0.629   0.730  1.00  0.00     0.078 C 
ENDROOT
BRANCH   2   3
HETATM    3  N1  UNL     1      -0.788   0.171  -0.058  1.00  0.00    -0.410 N 
ATOM      4  H1  UNL     1      -0.357   0.749  -0.780  1.00  0.00     0.154 HD
BRANCH   3   5
HETATM    5  C3  UNL     1      -2.176   0.219   0.094  1.00  0.00     0.015 C 
HETATM    6  C4  UNL     1      -2.630   0.751   1.455  1.00  0.00     0.037 C 
HETATM    7  C5  UNL     1      -2.710   1.211  -0.954  1.00  0.00     0.037 C 
HETATM    8  C6  UNL     1      -2.944  -1.056  -0.121  1.00  0.00     0.037 C 
ENDBRANCH   3   5
ENDBRANCH   2   3
BRANCH   2   9
HETATM    9  C7  UNL     1       1.480  -0.391   0.314  1.00  0.00     0.017 C 
HETATM   10  C8  UNL     1       1.811   1.055   0.422  1.00  0.00     0.008 C 
HETATM   11  C9  UNL     1       3.023   1.525  -0.264  1.00  0.00     0.010 C 
HETATM   12  C10 UNL     1       4.112   0.521  -0.451  1.00  0.00     0.074 C 
HETATM   13  S1  UNL     1       3.467  -0.835  -1.485  1.00  0.00    -0.169 SA
HETATM   14  C11 UNL     1       1.694  -1.002  -1.028  1.00  0.00     0.080 C 
ENDBRANCH   2   9
TORSDOF 3
