REMARK  2 active torsions:
REMARK  status: ('A' for Active; 'I' for Inactive)
REMARK    1  A    between atoms: C2_2  and  N2_5 
REMARK    2  A    between atoms: N2_5  and  C4_8 
ROOT
HETATM    1  C1  UNL     1       3.412   0.580   0.442  1.00  0.00     0.056 C 
HETATM    2  C2  UNL     1       2.889  -0.807   0.214  1.00  0.00     0.288 C 
HETATM    3  C3  UNL     1       3.209  -1.214  -1.145  1.00  0.00     0.092 C 
HETATM    4  N1  UNL     1       3.502  -1.519  -2.210  1.00  0.00    -0.195 NA
ENDROOT
BRANCH   2   5
HETATM    5  N2  UNL     1       1.495  -0.921   0.536  1.00  0.00    -0.054 N 
ATOM      6  H22 UNL     1       1.209  -1.900   0.565  1.00  0.00     0.279 HD
ATOM      7  H21 UNL     1       1.326  -0.667   1.509  1.00  0.00     0.279 HD
BRANCH   5   8
HETATM    8  C4  UNL     1       0.635  -0.158  -0.354  1.00  0.00     0.192 C 
HETATM    9  C5  UNL     1      -0.297  -1.008  -1.115  1.00  0.00     0.038 C 
HETATM   10  C6  UNL     1      -1.732  -0.982  -0.744  1.00  0.00    -0.012 C 
HETATM   11  C7  UNL     1      -2.049  -1.116   0.705  1.00  0.00     0.010 C 
HETATM   12  C13 UNL     1      -2.480   0.242  -1.185  1.00  0.00     0.010 C 
HETATM   13  C8  UNL     1      -2.048   0.326   1.194  1.00  0.00    -0.010 C 
HETATM   14  C9  UNL     1      -0.628   0.547   1.699  1.00  0.00     0.011 C 
HETATM   15  C12 UNL     1      -2.220   1.189  -0.021  1.00  0.00    -0.010 C 
HETATM   16  C10 UNL     1       0.064   0.962   0.438  1.00  0.00     0.017 C 
HETATM   17  C11 UNL     1      -0.891   1.836  -0.317  1.00  0.00     0.011 C 
ENDBRANCH   5   8
ENDBRANCH   2   5
TORSDOF 2
