REMARK  8 active torsions:
REMARK  status: ('A' for Active; 'I' for Inactive)
REMARK    1  A    between atoms: C2_2  and  C3_3 
REMARK    2  A    between atoms: C3_3  and  C4_4 
REMARK    3  A    between atoms: C4_4  and  C5_5 
REMARK    4  A    between atoms: C4_4  and  C7_7 
REMARK    5  A    between atoms: C9_9  and  C10_10 
REMARK    6  A    between atoms: C11_12  and  O2_13 
REMARK    7  A    between atoms: C18_23  and  O5_24 
REMARK    8  A    between atoms: C20_28  and  O7_29 
ROOT
HETATM    1  C10 UNL     1       0.063  -0.793  -0.355  1.00  0.00     0.112 A 
HETATM    2  O1  UNL     1       0.325  -1.391  -1.482  1.00  0.00    -0.285 OA
HETATM    3  C11 UNL     1       1.611  -1.514  -1.625  1.00  0.00     0.193 A 
HETATM    4  C12 UNL     1       2.239  -0.967  -0.535  1.00  0.00     0.046 A 
HETATM    5  C13 UNL     1       1.250  -0.493   0.301  1.00  0.00     0.115 A 
HETATM    6  O3  UNL     1       1.865   0.081   1.440  1.00  0.00    -0.334 OA
HETATM    7  C14 UNL     1       3.075   0.587   0.925  1.00  0.00     0.215 C 
HETATM    8  C15 UNL     1       4.143   0.854   1.869  1.00  0.00     0.192 C 
HETATM    9  O4  UNL     1       4.025   1.094   3.095  1.00  0.00    -0.289 OA
HETATM   10  C16 UNL     1       5.510   0.841   1.331  1.00  0.00     0.050 A 
HETATM   11  C17 UNL     1       6.749   1.256   1.786  1.00  0.00     0.081 A 
HETATM   12  C18 UNL     1       7.681   0.961   0.798  1.00  0.00     0.184 A 
HETATM   13  O6  UNL     1       7.014   0.396  -0.195  1.00  0.00    -0.289 OA
HETATM   14  C19 UNL     1       5.740   0.307   0.076  1.00  0.00     0.099 A 
HETATM   15  C20 UNL     1       4.623  -0.260  -0.758  1.00  0.00     0.188 C 
HETATM   16  C21 UNL     1       3.508  -0.664   0.135  1.00  0.00     0.099 C 
ENDROOT
BRANCH   1  17
HETATM   17  C9  UNL     1      -1.275  -0.479   0.149  1.00  0.00     0.043 C 
HETATM   18  C7  UNL     1      -2.258   0.030  -0.530  1.00  0.00    -0.077 C 
HETATM   19  C8  UNL     1      -2.153   0.397  -1.957  1.00  0.00     0.044 C 
BRANCH  18  20
HETATM   20  C4  UNL     1      -3.589   0.294   0.147  1.00  0.00     0.014 C 
BRANCH  20  21
HETATM   21  C3  UNL     1      -4.542  -0.693  -0.397  1.00  0.00     0.009 C 
BRANCH  21  22
HETATM   22  C2  UNL     1      -5.899  -0.785   0.184  1.00  0.00    -0.004 C 
HETATM   23  C1  UNL     1      -6.635  -1.917  -0.575  1.00  0.00     0.005 C 
ENDBRANCH  21  22
ENDBRANCH  20  21
BRANCH  20  24
HETATM   24  C5  UNL     1      -3.930   1.732   0.095  1.00  0.00     0.005 C 
HETATM   25  C6  UNL     1      -5.151   2.155   0.843  1.00  0.00     0.006 C 
ENDBRANCH  20  24
ENDBRANCH  18  20
ENDBRANCH   1  17
BRANCH   3  26
HETATM   26  O2  UNL     1       2.295  -2.099  -2.695  1.00  0.00    -0.340 OA
ATOM     27  H2  UNL     1       3.235  -2.189  -2.800  1.00  0.00     0.220 HD
ENDBRANCH   3  26
BRANCH  15  28
HETATM   28  O7  UNL     1       5.136  -1.431  -1.341  1.00  0.00    -0.388 OA
ATOM     29  H7  UNL     1       4.431  -1.789  -1.867  1.00  0.00     0.210 HD
ENDBRANCH  15  28
BRANCH  12  30
HETATM   30  O5  UNL     1       9.019   1.233   0.904  1.00  0.00    -0.341 OA
ATOM     31  H5  UNL     1       9.656   1.031   0.229  1.00  0.00     0.220 HD
ENDBRANCH  12  30
TORSDOF 8
