REMARK  9 active torsions:
REMARK  status: ('A' for Active; 'I' for Inactive)
REMARK    1  A    between atoms: O1_1  and  O2_3 
REMARK    2  A    between atoms: O2_3  and  C1_4 
REMARK    3  A    between atoms: C3_6  and  N1_7 
REMARK    4  A    between atoms: C12_16  and  N2_17 
REMARK    5  A    between atoms: N2_17  and  C13_19 
REMARK    6  A    between atoms: C13_19  and  O3_20 
REMARK    7  A    between atoms: C13_19  and  C14_22 
REMARK    8  A    between atoms: C16_24  and  O4_25 
REMARK    9  A    between atoms: N3_27  and  C17_28 
ROOT
HETATM    1  N2  UNL     1       0.452   0.499   0.131  1.00  0.00    -0.358 N 
ATOM      2  H2  UNL     1       0.831   1.239  -0.460  1.00  0.00     0.162 HD
ENDROOT
BRANCH   1   3
HETATM    3  C12 UNL     1      -0.936   0.409   0.242  1.00  0.00     0.067 A 
HETATM    4  C1  UNL     1      -1.749   1.280  -0.430  1.00  0.00     0.135 A 
HETATM    5  C2  UNL     1      -3.116   1.180  -0.308  1.00  0.00     0.071 A 
HETATM    6  C3  UNL     1      -3.715   0.213   0.484  1.00  0.00     0.033 A 
HETATM    7  C10 UNL     1      -2.910  -0.655   1.154  1.00  0.00     0.031 A 
HETATM    8  C11 UNL     1      -1.521  -0.549   1.027  1.00  0.00     0.034 A 
BRANCH   4   9
HETATM    9  O2  UNL     1      -1.221   2.265  -1.235  1.00  0.00    -0.198 OA
BRANCH   9  10
HETATM   10  O1  UNL     1      -2.044   3.095  -1.873  1.00  0.00    -0.245 OA
ATOM     11  H1  UNL     1      -1.680   3.774  -2.428  1.00  0.00     0.254 HD
ENDBRANCH   9  10
ENDBRANCH   4   9
BRANCH   6  12
HETATM   12  N1  UNL     1      -5.136   0.162   0.564  1.00  0.00    -0.381 N 
HETATM   13  C4  UNL     1      -5.769  -0.764   1.449  1.00  0.00     0.123 C 
HETATM   14  C5  UNL     1      -6.138  -1.978   0.583  1.00  0.00     0.020 C 
HETATM   15  C6  UNL     1      -6.853  -1.442  -0.641  1.00  0.00     0.002 C 
HETATM   16  C7  UNL     1      -7.863  -0.397  -0.305  1.00  0.00     0.002 C 
HETATM   17  C8  UNL     1      -7.338   0.989  -0.166  1.00  0.00     0.020 C 
HETATM   18  C9  UNL     1      -5.834   1.106  -0.317  1.00  0.00     0.123 C 
ENDBRANCH   6  12
ENDBRANCH   1   3
BRANCH   1  19
HETATM   19  C13 UNL     1       1.394  -0.379   0.792  1.00  0.00     0.254 C 
BRANCH  19  20
HETATM   20  O3  UNL     1       1.141  -1.668   0.324  1.00  0.00    -0.372 OA
ATOM     21  H3  UNL     1       1.759  -2.244   0.758  1.00  0.00     0.212 HD
ENDBRANCH  19  20
BRANCH  19  22
HETATM   22  C14 UNL     1       2.803   0.007   0.517  1.00  0.00     0.009 A 
HETATM   23  C15 UNL     1       3.311   1.295   0.557  1.00  0.00     0.069 A 
HETATM   24  C16 UNL     1       4.671   1.215   0.237  1.00  0.00     0.142 A 
HETATM   25  N3  UNL     1       4.989  -0.051   0.011  1.00  0.00    -0.333 N 
HETATM   26  C22 UNL     1       3.873  -0.791   0.177  1.00  0.00     0.105 A 
BRANCH  24  27
HETATM   27  O4  UNL     1       5.526   2.299   0.173  1.00  0.00    -0.346 OA
ATOM     28  H4  UNL     1       6.449   2.245  -0.044  1.00  0.00     0.219 HD
ENDBRANCH  24  27
BRANCH  25  29
HETATM   29  C17 UNL     1       6.288  -0.593  -0.350  1.00  0.00     0.091 C 
HETATM   30  C18 UNL     1       6.931   0.123  -1.490  1.00  0.00     0.026 C 
HETATM   31  C19 UNL     1       8.420   0.226  -1.151  1.00  0.00     0.002 C 
HETATM   32  C20 UNL     1       8.603  -0.727   0.033  1.00  0.00     0.002 C 
HETATM   33  C21 UNL     1       7.281  -0.494   0.760  1.00  0.00     0.026 C 
ENDBRANCH  25  29
ENDBRANCH  19  22
ENDBRANCH   1  19
TORSDOF 9
