REMARK  9 active torsions:
REMARK  status: ('A' for Active; 'I' for Inactive)
REMARK    1  A    between atoms: O1_1  and  C1_3 
REMARK    2  A    between atoms: C5_7  and  C6_8 
REMARK    3  A    between atoms: C6_8  and  N1_9 
REMARK    4  A    between atoms: C6_8  and  C16_28 
REMARK    5  A    between atoms: N2_11  and  C7_13 
REMARK    6  A    between atoms: C9_15  and  O2_16 
REMARK    7  A    between atoms: N3_18  and  C10_19 
REMARK    8  A    between atoms: C10_19  and  N4_20 
REMARK    9  A    between atoms: C15_25  and  O3_26 
ROOT
HETATM    1  N1  UNL     1      -1.081   1.353  -1.350  1.00  0.00    -0.326 N 
ATOM      2  H1  UNL     1      -1.596   1.733  -2.144  1.00  0.00     0.181 HD
HETATM    3  N2  UNL     1       0.160   1.483  -1.357  1.00  0.00    -0.300 N 
ATOM      4  H2  UNL     1       0.563   1.962  -2.162  1.00  0.00     0.186 HD
ENDROOT
BRANCH   1   5
HETATM    5  C6  UNL     1      -1.851   0.707  -0.307  1.00  0.00     0.136 C 
BRANCH   5   6
HETATM    6  C5  UNL     1      -2.873   1.640   0.173  1.00  0.00    -0.031 A 
HETATM    7  C4  UNL     1      -3.616   2.397  -0.704  1.00  0.00     0.009 A 
HETATM    8  C3  UNL     1      -4.571   3.269  -0.281  1.00  0.00     0.003 A 
HETATM    9  C2  UNL     1      -4.842   3.437   1.064  1.00  0.00     0.036 A 
HETATM   10  C1  UNL     1      -4.087   2.671   1.935  1.00  0.00     0.066 A 
HETATM   11  C22 UNL     1      -3.120   1.786   1.521  1.00  0.00     0.045 A 
BRANCH  10  12
HETATM   12  O1  UNL     1      -4.335   2.815   3.311  1.00  0.00    -0.361 OA
ATOM     13  H1  UNL     1      -3.817   2.289   3.909  1.00  0.00     0.217 HD
ENDBRANCH  10  12
ENDBRANCH   5   6
BRANCH   5  14
HETATM   14  C16 UNL     1      -2.414  -0.572  -0.887  1.00  0.00     0.014 C 
HETATM   15  C17 UNL     1      -3.317  -0.334  -2.068  1.00  0.00     0.007 C 
HETATM   16  C18 UNL     1      -3.588  -1.693  -2.695  1.00  0.00     0.000 C 
HETATM   17  C19 UNL     1      -4.380  -2.477  -1.640  1.00  0.00     0.000 C 
HETATM   18  C20 UNL     1      -3.457  -2.728  -0.476  1.00  0.00     0.000 C 
HETATM   19  C21 UNL     1      -3.128  -1.394   0.175  1.00  0.00     0.007 C 
ENDBRANCH   5  14
ENDBRANCH   1   5
BRANCH   3  20
HETATM   20  C7  UNL     1       1.060   1.041  -0.376  1.00  0.00     0.103 A 
HETATM   21  C8  UNL     1       1.175   1.600   0.877  1.00  0.00     0.091 A 
HETATM   22  C9  UNL     1       2.144   0.934   1.584  1.00  0.00     0.147 A 
HETATM   23  N3  UNL     1       2.625  -0.030   0.772  1.00  0.00    -0.279 N 
HETATM   24  C15 UNL     1       1.986   0.021  -0.406  1.00  0.00     0.174 A 
BRANCH  22  25
HETATM   25  O2  UNL     1       2.564   1.198   2.903  1.00  0.00    -0.346 OA
ATOM     26  H2  UNL     1       3.235   0.737   3.393  1.00  0.00     0.219 HD
ENDBRANCH  22  25
BRANCH  23  27
HETATM   27  C10 UNL     1       3.678  -0.968   1.179  1.00  0.00     0.406 C 
BRANCH  27  28
HETATM   28  N4  UNL     1       4.981  -0.451   0.906  1.00  0.00     0.106 N 
HETATM   29  C11 UNL     1       6.036  -1.351   1.359  1.00  0.00     0.274 C 
HETATM   30  C12 UNL     1       7.262  -0.670   0.798  1.00  0.00     0.032 C 
HETATM   31  C13 UNL     1       6.809  -0.207  -0.556  1.00  0.00     0.032 C 
HETATM   32  C14 UNL     1       5.276  -0.334  -0.516  1.00  0.00     0.274 C 
ENDBRANCH  27  28
ENDBRANCH  23  27
BRANCH  24  33
HETATM   33  O3  UNL     1       2.161  -0.784  -1.529  1.00  0.00    -0.344 OA
ATOM     34  H3  UNL     1       2.799  -1.487  -1.550  1.00  0.00     0.219 HD
ENDBRANCH  24  33
ENDBRANCH   3  20
TORSDOF 9
