REMARK  13 active torsions:
REMARK  status: ('A' for Active; 'I' for Inactive)
REMARK    1  A    between atoms: N2_9  and  C5_11 
REMARK    2  A    between atoms: C5_11  and  C6_12 
REMARK    3  A    between atoms: C6_12  and  C7_13 
REMARK    4  A    between atoms: C7_13  and  C8_14 
REMARK    5  A    between atoms: C8_14  and  C9_15 
REMARK    6  A    between atoms: C9_15  and  C10_16 
REMARK    7  A    between atoms: C10_16  and  C11_17 
REMARK    8  A    between atoms: C11_17  and  C12_18 
REMARK    9  A    between atoms: C12_18  and  C13_19 
REMARK   10  A    between atoms: C13_19  and  C14_20 
REMARK   11  A    between atoms: C14_20  and  N3_21 
REMARK   12  A    between atoms: C17_24  and  N4_25 
REMARK   13  A    between atoms: N4_25  and  C18_27 
ROOT
HETATM    1  C11 UNL     1      -0.624  -0.713  -0.747  1.00  0.00     0.000 C 
ENDROOT
BRANCH   1   2
HETATM    2  C10 UNL     1       0.732  -1.378  -0.514  1.00  0.00     0.000 C 
BRANCH   2   3
HETATM    3  C9  UNL     1       1.325  -0.837   0.749  1.00  0.00     0.000 C 
BRANCH   3   4
HETATM    4  C8  UNL     1       2.672  -1.484   1.038  1.00  0.00     0.000 C 
BRANCH   4   5
HETATM    5  C7  UNL     1       3.655  -1.229  -0.082  1.00  0.00     0.002 C 
BRANCH   5   6
HETATM    6  C6  UNL     1       4.963  -1.909   0.306  1.00  0.00     0.020 C 
BRANCH   6   7
HETATM    7  C5  UNL     1       6.006  -1.702  -0.776  1.00  0.00     0.121 C 
BRANCH   7   8
HETATM    8  N2  UNL     1       6.254  -0.291  -0.968  1.00  0.00    -0.375 N 
HETATM    9  C4  UNL     1       7.328   0.274  -0.584  1.00  0.00     0.146 C 
HETATM   10  C1  UNL     1       7.626   1.735  -0.764  1.00  0.00     0.301 C 
HETATM   11  N1  UNL     1       8.477  -0.247   0.073  1.00  0.00    -0.375 N 
HETATM   12  F1  UNL     1       8.432   1.835  -1.880  1.00  0.00    -0.198 F 
HETATM   13  F2  UNL     1       6.497   2.491  -0.861  1.00  0.00    -0.198 F 
HETATM   14  C2  UNL     1       8.439   2.027   0.480  1.00  0.00     0.107 C 
HETATM   15  C3  UNL     1       9.318   0.797   0.575  1.00  0.00     0.127 C 
ATOM     16  H1  UNL     1       8.677  -1.242   0.174  1.00  0.00     0.160 HD
ATOM     17  H2  UNL     1       5.541   0.274  -1.429  1.00  0.00     0.160 HD
ENDBRANCH   7   8
ENDBRANCH   6   7
ENDBRANCH   5   6
ENDBRANCH   4   5
ENDBRANCH   3   4
ENDBRANCH   2   3
ENDBRANCH   1   2
BRANCH   1  18
HETATM   18  C12 UNL     1      -0.530   0.774  -0.886  1.00  0.00     0.002 C 
BRANCH  18  19
HETATM   19  C13 UNL     1      -1.810   1.486  -1.184  1.00  0.00     0.030 C 
BRANCH  19  20
HETATM   20  C14 UNL     1      -2.906   1.359  -0.203  1.00  0.00     0.272 C 
BRANCH  20  21
HETATM   21  N3  UNL     1      -3.429   0.063   0.048  1.00  0.00     0.090 N 
HETATM   22  C15 UNL     1      -4.139  -0.514  -1.056  1.00  0.00     0.274 C 
HETATM   23  C16 UNL     1      -5.509   0.166  -0.949  1.00  0.00     0.057 C 
HETATM   24  C17 UNL     1      -5.766  -0.019   0.538  1.00  0.00     0.129 C 
HETATM   25  C21 UNL     1      -4.381   0.124   1.129  1.00  0.00     0.297 C 
BRANCH  24  26
HETATM   26  N4  UNL     1      -6.718   0.923   1.060  1.00  0.00    -0.220 N 
ATOM     27  H4  UNL     1      -6.405   1.784   1.508  1.00  0.00     0.178 HD
BRANCH  26  28
HETATM   28  C18 UNL     1      -7.974   0.660   0.951  1.00  0.00     0.678 A 
HETATM   29  N5  UNL     1      -8.527  -0.437   0.383  1.00  0.00    -0.201 N 
HETATM   30  C19 UNL     1      -9.861  -0.362   0.455  1.00  0.00     0.123 A 
ATOM     31  H5  UNL     1      -8.005  -1.206  -0.037  1.00  0.00     0.183 HD
HETATM   32  C20 UNL     1     -10.191   0.811   1.084  1.00  0.00     0.123 A 
HETATM   33  N6  UNL     1      -9.023   1.415   1.376  1.00  0.00    -0.201 N 
ATOM     34  H6  UNL     1      -8.937   2.314   1.850  1.00  0.00     0.183 HD
ENDBRANCH  26  28
ENDBRANCH  24  26
ENDBRANCH  20  21
ENDBRANCH  19  20
ENDBRANCH  18  19
ENDBRANCH   1  18
TORSDOF 13
