REMARK  14 active torsions:
REMARK  status: ('A' for Active; 'I' for Inactive)
REMARK    1  A    between atoms: C2_2  and  N1_3 
REMARK    2  A    between atoms: N1_3  and  C3_5 
REMARK    3  A    between atoms: C3_5  and  N2_7 
REMARK    4  A    between atoms: N2_7  and  C4_9 
REMARK    5  A    between atoms: C4_9  and  C5_10 
REMARK    6  A    between atoms: C5_10  and  C6_11 
REMARK    7  A    between atoms: C6_11  and  C7_12 
REMARK    8  A    between atoms: C7_12  and  C8_13 
REMARK    9  A    between atoms: C8_13  and  C9_14 
REMARK   10  A    between atoms: C9_14  and  C10_15 
REMARK       I    between atoms: C10_15  and  N3_17 
REMARK   11  A    between atoms: N3_17  and  C11_19 
REMARK   12  A    between atoms: C11_19  and  C12_20 
REMARK   13  A    between atoms: C12_20  and  N4_21 
REMARK   14  A    between atoms: C16_25  and  C17_26 
ROOT
HETATM    1  C9  UNL     1      -0.520   1.077   1.171  1.00  0.00     0.103 C 
ENDROOT
BRANCH   1   2
HETATM    2  C8  UNL     1       0.578   0.897   0.211  1.00  0.00     0.009 C 
BRANCH   2   3
HETATM    3  C7  UNL     1       1.510  -0.228   0.417  1.00  0.00     0.001 C 
BRANCH   3   4
HETATM    4  C6  UNL     1       2.554  -0.318  -0.677  1.00  0.00     0.002 C 
BRANCH   4   5
HETATM    5  C5  UNL     1       3.433   0.877  -0.818  1.00  0.00     0.020 C 
BRANCH   5   6
HETATM    6  C4  UNL     1       4.289   1.158   0.400  1.00  0.00     0.122 C 
BRANCH   6   7
HETATM    7  N2  UNL     1       5.187   0.060   0.680  1.00  0.00    -0.367 N 
ATOM      8  H2  UNL     1       4.991  -0.506   1.505  1.00  0.00     0.161 HD
BRANCH   7   9
HETATM    9  C3  UNL     1       6.314  -0.293  -0.095  1.00  0.00     0.167 C 
HETATM   10  S1  UNL     1       7.196  -1.611   0.382  1.00  0.00    -0.041 SA
BRANCH   9  11
HETATM   11  N1  UNL     1       6.758   0.381  -1.249  1.00  0.00    -0.368 N 
ATOM     12  H1  UNL     1       6.258   1.206  -1.580  1.00  0.00     0.161 HD
BRANCH  11  13
HETATM   13  C2  UNL     1       7.930  -0.096  -1.972  1.00  0.00     0.117 C 
HETATM   14  C1  UNL     1       9.157   0.096  -1.143  1.00  0.00     0.026 C 
ENDBRANCH  11  13
ENDBRANCH   9  11
ENDBRANCH   7   9
ENDBRANCH   6   7
ENDBRANCH   5   6
ENDBRANCH   4   5
ENDBRANCH   3   4
ENDBRANCH   2   3
ENDBRANCH   1   2
BRANCH   1  15
HETATM   15  C10 UNL     1      -1.523   0.012   1.275  1.00  0.00     0.217 C 
HETATM   16  O1  UNL     1      -1.334  -1.092   0.769  1.00  0.00    -0.274 OA
HETATM   17  N3  UNL     1      -2.738   0.263   1.971  1.00  0.00    -0.359 N 
ATOM     18  H3  UNL     1      -2.863   1.187   2.384  1.00  0.00     0.162 HD
BRANCH  17  19
HETATM   19  C11 UNL     1      -3.814  -0.698   2.138  1.00  0.00     0.152 C 
BRANCH  19  20
HETATM   20  C12 UNL     1      -4.320  -1.087   0.785  1.00  0.00     0.292 C 
BRANCH  20  21
HETATM   21  N4  UNL     1      -4.823   0.054   0.073  1.00  0.00     0.095 N 
HETATM   22  C13 UNL     1      -4.938  -0.292  -1.332  1.00  0.00     0.273 C 
HETATM   23  C14 UNL     1      -6.361  -0.083  -1.733  1.00  0.00     0.032 C 
HETATM   24  C15 UNL     1      -6.744   1.063  -0.760  1.00  0.00     0.038 C 
HETATM   25  C16 UNL     1      -6.063   0.568   0.540  1.00  0.00     0.236 C 
BRANCH  25  26
HETATM   26  C17 UNL     1      -6.991  -0.350   1.233  1.00  0.00     0.150 C 
HETATM   27 CL1  UNL     1      -8.490   0.524   1.721  1.00  0.00    -0.128 Cl
ENDBRANCH  25  26
ENDBRANCH  20  21
ENDBRANCH  19  20
ENDBRANCH  17  19
ENDBRANCH   1  15
TORSDOF 14
