REMARK  11 active torsions:
REMARK  status: ('A' for Active; 'I' for Inactive)
REMARK       I    between atoms: C1_2  and  N1_4 
REMARK    1  A    between atoms: N1_4  and  C2_6 
REMARK    2  A    between atoms: N2_11  and  C7_12 
REMARK    3  A    between atoms: C7_12  and  C8_13 
REMARK    4  A    between atoms: C8_13  and  N3_14 
REMARK    5  A    between atoms: N3_14  and  C9_17 
REMARK    6  A    between atoms: C9_17  and  C10_18 
REMARK    7  A    between atoms: C10_18  and  C11_19 
REMARK    8  A    between atoms: C11_19  and  C12_20 
REMARK    9  A    between atoms: C12_20  and  C13_21 
REMARK   10  A    between atoms: C13_21  and  C14_22 
REMARK   11  A    between atoms: C18_27  and  C19_28 
ROOT
HETATM    1  C2  UNL     1      -4.283   1.570   0.245  1.00  0.00     0.105 C 
HETATM    2  C3  UNL     1      -3.271   1.831  -0.854  1.00  0.00     0.012 C 
HETATM    3  C4  UNL     1      -3.343   0.794  -1.931  1.00  0.00     0.013 C 
HETATM    4  C5  UNL     1      -3.112  -0.564  -1.304  1.00  0.00     0.021 C 
HETATM    5  C6  UNL     1      -1.721  -1.054  -1.767  1.00  0.00     0.278 C 
HETATM    6  N2  UNL     1      -0.798  -0.305  -0.945  1.00  0.00     0.095 N 
HETATM    7  C15 UNL     1      -1.496   0.339   0.101  1.00  0.00     0.229 C 
HETATM    8  C16 UNL     1      -1.898   1.765  -0.212  1.00  0.00     0.043 C 
HETATM    9  C17 UNL     1      -2.799  -0.441   0.175  1.00  0.00     0.041 C 
HETATM   10  C18 UNL     1      -3.834   0.329   0.952  1.00  0.00     0.116 C 
ENDROOT
BRANCH   6  11
HETATM   11  C7  UNL     1       0.327  -1.104  -0.609  1.00  0.00     0.300 C 
BRANCH  11  12
HETATM   12  C8  UNL     1       1.353  -0.390   0.212  1.00  0.00     0.262 C 
BRANCH  12  13
HETATM   13  N3  UNL     1       2.501  -1.191   0.556  1.00  0.00    -0.073 N 
ATOM     14  H32 UNL     1       3.052  -0.751   1.293  1.00  0.00     0.277 HD
ATOM     15  H31 UNL     1       2.225  -2.041   1.047  1.00  0.00     0.277 HD
BRANCH  13  16
HETATM   16  C9  UNL     1       3.312  -1.492  -0.594  1.00  0.00     0.232 C 
BRANCH  16  17
HETATM   17  C10 UNL     1       4.531  -2.283  -0.265  1.00  0.00     0.027 C 
BRANCH  17  18
HETATM   18  C11 UNL     1       5.498  -1.764   0.706  1.00  0.00     0.002 C 
BRANCH  18  19
HETATM   19  C12 UNL     1       6.228  -0.511   0.490  1.00  0.00     0.001 C 
BRANCH  19  20
HETATM   20  C13 UNL     1       5.490   0.766   0.384  1.00  0.00     0.015 C 
BRANCH  20  21
HETATM   21  C14 UNL     1       6.482   1.936   0.206  1.00  0.00     0.114 C 
HETATM   22 CL1  UNL     1       7.439   1.702  -1.265  1.00  0.00    -0.130 Cl
ENDBRANCH  20  21
ENDBRANCH  19  20
ENDBRANCH  18  19
ENDBRANCH  17  18
ENDBRANCH  16  17
ENDBRANCH  13  16
ENDBRANCH  12  13
ENDBRANCH  11  12
ENDBRANCH   6  11
BRANCH  10  23
HETATM   23  C19 UNL     1      -4.902  -0.554   1.418  1.00  0.00     0.179 C 
HETATM   24  O2  UNL     1      -5.085  -0.832   2.657  1.00  0.00    -0.648 OA
HETATM   25  O3  UNL     1      -5.809  -1.169   0.563  1.00  0.00    -0.648 OA
ENDBRANCH  10  23
BRANCH   1  26
HETATM   26  N1  UNL     1      -5.615   1.489  -0.255  1.00  0.00    -0.327 N 
HETATM   27  C1  UNL     1      -6.609   2.410   0.167  1.00  0.00     0.398 C 
HETATM   28  O1  UNL     1      -6.300   3.322   1.004  1.00  0.00    -0.233 OA
HETATM   29  F1  UNL     1      -7.883   2.359  -0.289  1.00  0.00    -0.142 F 
ATOM     30  H1  UNL     1      -5.857   0.759  -0.925  1.00  0.00     0.165 HD
ENDBRANCH   1  26
TORSDOF 11
