REMARK  7 active torsions:
REMARK  status: ('A' for Active; 'I' for Inactive)
REMARK    1  A    between atoms: N1_2  and  C2_4 
REMARK    2  A    between atoms: C2_4  and  C3_5 
REMARK    3  A    between atoms: C2_4  and  C4_10 
REMARK    4  A    between atoms: C3_5  and  N2_6 
REMARK    5  A    between atoms: C4_10  and  O1_11 
REMARK    6  A    between atoms: O1_11  and  C5_12 
REMARK    7  A    between atoms: C8_15  and  C9_16 
ROOT
HETATM    1  C5  UNL     1       0.081  -0.640   0.006  1.00  0.00     0.068 A 
HETATM    2  C6  UNL     1       0.983  -1.642   0.340  1.00  0.00     0.037 A 
HETATM    3  C7  UNL     1       2.344  -1.360   0.303  1.00  0.00     0.016 A 
HETATM    4  C8  UNL     1       2.797  -0.124  -0.053  1.00  0.00    -0.009 A 
HETATM    5  C13 UNL     1       1.929   0.873  -0.384  1.00  0.00     0.016 A 
HETATM    6  C14 UNL     1       0.577   0.603  -0.350  1.00  0.00     0.037 A 
ENDROOT
BRANCH   1   7
HETATM    7  O1  UNL     1      -1.270  -0.927   0.043  1.00  0.00    -0.349 OA
BRANCH   7   8
HETATM    8  C4  UNL     1      -2.219   0.081  -0.295  1.00  0.00     0.202 C 
BRANCH   8   9
HETATM    9  C2  UNL     1      -3.596  -0.489  -0.183  1.00  0.00     0.126 C 
BRANCH   9  10
HETATM   10  N1  UNL     1      -3.903  -0.961   1.139  1.00  0.00    -0.418 N 
HETATM   11  C1  UNL     1      -3.895   0.042   2.155  1.00  0.00     0.140 C 
ATOM     12  H1  UNL     1      -4.111  -1.940   1.337  1.00  0.00     0.153 HD
ENDBRANCH   9  10
BRANCH   9  13
HETATM   13  C3  UNL     1      -4.605   0.513  -0.703  1.00  0.00     0.256 C 
BRANCH  13  14
HETATM   14  N2  UNL     1      -4.158   0.895  -2.042  1.00  0.00    -0.077 N 
ATOM     15  H23 UNL     1      -3.198   1.239  -2.065  1.00  0.00     0.274 HD
ATOM     16  H22 UNL     1      -4.022   0.099  -2.665  1.00  0.00     0.274 HD
ATOM     17  H21 UNL     1      -4.838   1.570  -2.392  1.00  0.00     0.274 HD
ENDBRANCH  13  14
ENDBRANCH   9  13
ENDBRANCH   8   9
ENDBRANCH   7   8
ENDBRANCH   1   7
BRANCH   4  18
HETATM   18  C9  UNL     1       4.249   0.111  -0.078  1.00  0.00     0.042 A 
HETATM   19  C10 UNL     1       4.850   1.307  -0.428  1.00  0.00     0.031 A 
HETATM   20  C11 UNL     1       6.215   1.125  -0.330  1.00  0.00     0.019 A 
HETATM   21  C12 UNL     1       6.448  -0.183   0.082  1.00  0.00     0.088 A 
HETATM   22  N3  UNL     1       5.233  -0.731   0.214  1.00  0.00    -0.365 N 
ATOM     23  H3  UNL     1       5.080  -1.695   0.508  1.00  0.00     0.165 HD
ENDBRANCH   4  18
TORSDOF 7
