REMARK  6 active torsions:
REMARK  status: ('A' for Active; 'I' for Inactive)
REMARK    1  A    between atoms: N1_2  and  C2_5 
REMARK    2  A    between atoms: C2_5  and  C3_6 
REMARK    3  A    between atoms: C3_6  and  N2_7 
REMARK    4  A    between atoms: C3_6  and  C4_11 
REMARK    5  A    between atoms: C4_11  and  C5_12 
REMARK    6  A    between atoms: C10_17  and  O1_18 
ROOT
HETATM    1  C5  UNL     1       0.020  -0.869  -0.053  1.00  0.00    -0.045 A 
HETATM    2  C6  UNL     1       0.215  -1.681  -1.182  1.00  0.00     0.008 A 
HETATM    3  C7  UNL     1       1.455  -1.823  -1.767  1.00  0.00     0.002 A 
HETATM    4  C8  UNL     1       2.555  -1.168  -1.259  1.00  0.00     0.015 A 
HETATM    5  C9  UNL     1       2.365  -0.369  -0.148  1.00  0.00     0.008 A 
HETATM    6  C10 UNL     1       3.477   0.295   0.376  1.00  0.00     0.079 A 
HETATM    7  C12 UNL     1       3.293   1.083   1.481  1.00  0.00     0.037 A 
HETATM    8  C13 UNL     1       2.067   1.243   2.088  1.00  0.00     0.004 A 
HETATM    9  C14 UNL     1       0.959   0.583   1.566  1.00  0.00     0.013 A 
HETATM   10  C15 UNL     1       1.124  -0.211   0.457  1.00  0.00    -0.017 A 
ENDROOT
BRANCH   1  11
HETATM   11  C4  UNL     1      -1.322  -0.758   0.478  1.00  0.00     0.074 C 
BRANCH  11  12
HETATM   12  C3  UNL     1      -2.038   0.532   0.043  1.00  0.00     0.213 C 
BRANCH  12  13
HETATM   13  C2  UNL     1      -3.426   0.593   0.628  1.00  0.00     0.264 C 
BRANCH  13  14
HETATM   14  N1  UNL     1      -4.279  -0.479   0.192  1.00  0.00    -0.077 N 
HETATM   15  C1  UNL     1      -5.580  -0.396   0.761  1.00  0.00     0.267 C 
ATOM     16  H12 UNL     1      -3.853  -1.387   0.376  1.00  0.00     0.276 HD
ATOM     17  H11 UNL     1      -4.324  -0.524  -0.826  1.00  0.00     0.276 HD
ENDBRANCH  13  14
ENDBRANCH  12  13
BRANCH  12  18
HETATM   18  N2  UNL     1      -2.076   0.602  -1.417  1.00  0.00    -0.073 N 
ATOM     19  H23 UNL     1      -2.681  -0.118  -1.811  1.00  0.00     0.274 HD
ATOM     20  H22 UNL     1      -2.583   1.426  -1.740  1.00  0.00     0.274 HD
ATOM     21  H21 UNL     1      -1.137   0.561  -1.813  1.00  0.00     0.274 HD
ENDBRANCH  12  18
ENDBRANCH  11  12
ENDBRANCH   1  11
BRANCH   6  22
HETATM   22  O1  UNL     1       4.686   0.110  -0.258  1.00  0.00    -0.355 OA
HETATM   23  C11 UNL     1       5.911   0.672   0.093  1.00  0.00     0.210 C 
ENDBRANCH   6  22
TORSDOF 6
