REMARK  6 active torsions:
REMARK  status: ('A' for Active; 'I' for Inactive)
REMARK    1  A    between atoms: C2_2  and  N1_3 
REMARK    2  A    between atoms: N1_3  and  C3_5 
REMARK    3  A    between atoms: C3_5  and  C5_13 
REMARK    4  A    between atoms: N2_6  and  N3_8 
REMARK    5  A    between atoms: C10_18  and  O1_19 
REMARK    6  A    between atoms: O1_19  and  C11_20 
ROOT
HETATM    1  C3  UNL     1       0.598   1.066   0.010  1.00  0.00     0.129 C 
HETATM    2  N2  UNL     1       1.381   0.383   0.725  1.00  0.00    -0.283 N 
ATOM      3  H2  UNL     1       1.948   0.879   1.413  1.00  0.00     0.188 HD
ENDROOT
BRANCH   1   4
HETATM    4  N1  UNL     1       0.527   2.478   0.172  1.00  0.00    -0.375 N 
ATOM      5  H1  UNL     1       0.654   3.068  -0.650  1.00  0.00     0.161 HD
BRANCH   4   6
HETATM    6  C2  UNL     1       0.285   3.111   1.438  1.00  0.00     0.116 C 
HETATM    7  C1  UNL     1       0.265   4.597   1.292  1.00  0.00     0.026 C 
ENDBRANCH   4   6
ENDBRANCH   1   4
BRANCH   1   8
HETATM    8  C5  UNL     1      -0.275   0.468  -0.975  1.00  0.00     0.042 A 
HETATM    9  C6  UNL     1      -0.165   0.902  -2.308  1.00  0.00     0.018 A 
HETATM   10  C7  UNL     1      -0.971   0.401  -3.291  1.00  0.00     0.001 A 
HETATM   11  C8  UNL     1      -1.923  -0.549  -3.008  1.00  0.00     0.003 A 
HETATM   12  C9  UNL     1      -2.032  -0.977  -1.699  1.00  0.00     0.038 A 
HETATM   13  C10 UNL     1      -1.234  -0.495  -0.666  1.00  0.00     0.082 A 
BRANCH  13  14
HETATM   14  O1  UNL     1      -1.369  -0.933   0.616  1.00  0.00    -0.351 OA
BRANCH  14  15
HETATM   15  C11 UNL     1      -2.232  -1.869   1.153  1.00  0.00     0.171 C 
HETATM   16  C12 UNL     1      -2.141  -3.256   0.634  1.00  0.00     0.034 C 
ENDBRANCH  14  15
ENDBRANCH  13  14
ENDBRANCH   1   8
BRANCH   2  17
HETATM   17  N3  UNL     1       1.526  -0.989   0.644  1.00  0.00    -0.274 N 
HETATM   18  C4  UNL     1       2.657  -1.561   0.729  1.00  0.00     0.215 C 
HETATM   19  N4  UNL     1       2.736  -2.962   0.638  1.00  0.00    -0.065 NA
HETATM   20  N5  UNL     1       3.843  -0.794   0.914  1.00  0.00    -0.065 NA
ATOM     21  H3  UNL     1       0.694  -1.564   0.511  1.00  0.00     0.189 HD
ENDBRANCH   2  17
TORSDOF 6
