REMARK  3 active torsions:
REMARK  status: ('A' for Active; 'I' for Inactive)
REMARK    1  A    between atoms: C2_2  and  C3_3 
REMARK    2  A    between atoms: C3_3  and  C4_4 
REMARK    3  A    between atoms: C4_4  and  C5_5 
ROOT
HETATM    1  C5  UNL     1      -0.696  -0.027   0.532  1.00  0.00     0.026 C 
HETATM    2  C6  UNL     1      -0.824  -1.510   0.788  1.00  0.00     0.245 C 
HETATM    3  N1  UNL     1      -1.403  -2.109  -0.372  1.00  0.00    -0.071 N 
ATOM      4  H11 UNL     1      -2.238  -2.651  -0.149  1.00  0.00     0.277 HD
ATOM      5  H12 UNL     1      -0.829  -2.868  -0.740  1.00  0.00     0.277 HD
HETATM    6  C7  UNL     1      -1.659  -1.106  -1.349  1.00  0.00     0.276 C 
HETATM    7  C8  UNL     1      -1.518   0.242  -0.710  1.00  0.00     0.140 C 
HETATM    8  F1  UNL     1      -1.122   1.273  -1.494  1.00  0.00    -0.240 F 
HETATM    9  C9  UNL     1      -2.645   0.660   0.198  1.00  0.00     0.033 A 
HETATM   10  C10 UNL     1      -2.385   1.916   0.943  1.00  0.00     0.014 A 
HETATM   11  C11 UNL     1      -1.673   0.723   1.398  1.00  0.00     0.007 A 
ENDROOT
BRANCH   1  12
HETATM   12  C4  UNL     1       0.695   0.507   0.498  1.00  0.00     0.015 C 
BRANCH  12  13
HETATM   13  C3  UNL     1       1.519  -0.132  -0.571  1.00  0.00     0.001 C 
BRANCH  13  14
HETATM   14  C2  UNL     1       2.924   0.377  -0.639  1.00  0.00    -0.005 C 
HETATM   15  C1  UNL     1       3.722   0.182   0.599  1.00  0.00     0.005 C 
ENDBRANCH  13  14
ENDBRANCH  12  13
ENDBRANCH   1  12
TORSDOF 3
