REMARK  3 active torsions:
REMARK  status: ('A' for Active; 'I' for Inactive)
REMARK    1  A    between atoms: C1_2  and  C2_3 
REMARK    2  A    between atoms: C2_3  and  C3_4 
REMARK    3  A    between atoms: C3_4  and  C4_5 
ROOT
HETATM    1  C4  UNL     1      -0.201  -0.488   0.061  1.00  0.00    -0.011 C 
HETATM    2  C5  UNL     1      -0.906  -1.003  -1.137  1.00  0.00     0.032 C 
HETATM    3  C6  UNL     1      -2.372  -0.800  -1.174  1.00  0.00     0.232 C 
HETATM    4  N1  UNL     1      -2.852   0.353  -0.486  1.00  0.00    -0.075 N 
ATOM      5  H11 UNL     1      -3.871   0.404  -0.495  1.00  0.00     0.277 HD
ATOM      6  H12 UNL     1      -2.653   1.212  -0.999  1.00  0.00     0.277 HD
HETATM    7  C7  UNL     1      -2.322   0.395   0.859  1.00  0.00     0.232 C 
HETATM    8  C8  UNL     1      -0.832   0.684   0.724  1.00  0.00     0.032 C 
ENDROOT
BRANCH   1   9
HETATM    9  C3  UNL     1       1.248  -0.202  -0.331  1.00  0.00     0.005 C 
BRANCH   9  10
HETATM   10  C2  UNL     1       2.029   0.330   0.851  1.00  0.00     0.011 C 
BRANCH  10  11
HETATM   11  C1  UNL     1       3.446   0.580   0.356  1.00  0.00     0.085 C 
HETATM   12 BR1  UNL     1       4.594   1.261   1.724  1.00  0.00    -0.097 Br
ENDBRANCH  10  11
ENDBRANCH   9  10
ENDBRANCH   1   9
TORSDOF 3
