REMARK  6 active torsions:
REMARK  status: ('A' for Active; 'I' for Inactive)
REMARK    1  A    between atoms: C5_5  and  C6_6 
REMARK    2  A    between atoms: C6_6  and  C7_7 
REMARK    3  A    between atoms: C7_7  and  N1_8 
REMARK    4  A    between atoms: N1_8  and  C10_11 
REMARK    5  A    between atoms: C10_11  and  N2_12 
REMARK    6  A    between atoms: N2_12  and  N3_13 
ROOT
HETATM    1  C6  UNL     1       0.128   0.484   0.149  1.00  0.00     0.087 C 
ENDROOT
BRANCH   1   2
HETATM    2  C5  UNL     1      -1.329   0.526   0.246  1.00  0.00     0.034 C 
HETATM    3  C4  UNL     1      -2.042  -0.349  -0.445  1.00  0.00     0.027 C 
HETATM    4  C3  UNL     1      -3.513  -0.512  -0.517  1.00  0.00     0.011 C 
HETATM    5  C2  UNL     1      -4.453   0.255  -0.008  1.00  0.00    -0.038 C 
HETATM    6  C1  UNL     1      -5.871  -0.085  -0.194  1.00  0.00     0.050 C 
HETATM    7  C11 UNL     1      -4.241   1.477   0.765  1.00  0.00     0.174 C 
HETATM    8  O1  UNL     1      -3.180   1.984   1.211  1.00  0.00    -0.250 OA
HETATM    9  N4  UNL     1      -1.906   1.526   1.094  1.00  0.00    -0.266 N 
ATOM     10  H4  UNL     1      -1.241   1.975   1.723  1.00  0.00     0.194 HD
ENDBRANCH   1   2
BRANCH   1  11
HETATM   11  C7  UNL     1       0.659  -0.582  -0.750  1.00  0.00     0.244 C 
BRANCH  11  12
HETATM   12  N1  UNL     1       2.102  -0.547  -0.782  1.00  0.00    -0.060 N 
HETATM   13  C8  UNL     1       2.612   0.205  -1.907  1.00  0.00     0.273 C 
HETATM   14  C9  UNL     1       2.613  -1.904  -0.853  1.00  0.00     0.273 C 
BRANCH  12  15
HETATM   15  C10 UNL     1       2.665   0.050   0.417  1.00  0.00     0.370 C 
BRANCH  15  16
HETATM   16  N2  UNL     1       4.101   0.012   0.256  1.00  0.00    -0.120 NA
BRANCH  16  17
HETATM   17  N3  UNL     1       4.784   0.554   1.335  1.00  0.00    -0.347 N 
ATOM     18  H32 UNL     1       4.307   0.936   2.151  1.00  0.00     0.172 HD
ATOM     19  H31 UNL     1       5.797   0.527   1.221  1.00  0.00     0.172 HD
ENDBRANCH  16  17
ENDBRANCH  15  16
ENDBRANCH  12  15
ENDBRANCH  11  12
ENDBRANCH   1  11
TORSDOF 6
