REMARK  4 active torsions:
REMARK  status: ('A' for Active; 'I' for Inactive)
REMARK    1  A    between atoms: N1_1  and  C1_5 
REMARK    2  A    between atoms: C1_5  and  C2_6 
REMARK    3  A    between atoms: C5_11  and  C6_12 
REMARK    4  A    between atoms: C6_12  and  C7_13 
ROOT
HETATM    1  C2  UNL     1      -2.206   0.186   0.298  1.00  0.00    -0.010 A 
HETATM    2  C3  UNL     1      -2.939   1.381   0.284  1.00  0.00     0.097 A 
HETATM    3  N2  UNL     1      -2.197   2.369   0.805  1.00  0.00    -0.374 N 
ATOM      4  H2  UNL     1      -2.493   3.339   0.912  1.00  0.00     0.164 HD
HETATM    5  C4  UNL     1      -1.022   1.882   1.156  1.00  0.00     0.095 A 
HETATM    6  C5  UNL     1      -0.991   0.520   0.853  1.00  0.00    -0.029 A 
ENDROOT
BRANCH   6   7
HETATM    7  C6  UNL     1       0.152  -0.385   1.064  1.00  0.00     0.077 C 
BRANCH   7   8
HETATM    8  C7  UNL     1       1.057  -0.586  -0.044  1.00  0.00    -0.044 A 
HETATM    9  C8  UNL     1       2.382  -0.301   0.001  1.00  0.00     0.013 A 
HETATM   10  C9  UNL     1       3.383   0.185   0.808  1.00  0.00     0.032 A 
HETATM   11  C11 UNL     1       2.967  -0.603  -1.203  1.00  0.00     0.111 A 
HETATM   12  C10 UNL     1       4.560   0.177   0.103  1.00  0.00     0.090 A 
HETATM   13  N3  UNL     1       4.277  -0.307  -1.118  1.00  0.00    -0.352 N 
ATOM     14  H3  UNL     1       4.955  -0.432  -1.870  1.00  0.00     0.166 HD
HETATM   15  N4  UNL     1       2.087  -1.073  -2.034  1.00  0.00    -0.372 N 
HETATM   16  C12 UNL     1       0.807  -1.110  -1.390  1.00  0.00     0.156 A 
ATOM     17  H4  UNL     1       2.276  -1.369  -2.992  1.00  0.00     0.161 HD
ENDBRANCH   7   8
ENDBRANCH   6   7
BRANCH   1  18
HETATM   18  C1  UNL     1      -2.721  -1.124  -0.177  1.00  0.00     0.270 C 
BRANCH  18  19
HETATM   19  N1  UNL     1      -4.095  -0.904  -0.657  1.00  0.00    -0.075 N 
ATOM     20  H13 UNL     1      -4.697  -0.468   0.041  1.00  0.00     0.274 HD
ATOM     21  H12 UNL     1      -4.159  -0.170  -1.363  1.00  0.00     0.274 HD
ATOM     22  H11 UNL     1      -4.449  -1.803  -0.983  1.00  0.00     0.274 HD
ENDBRANCH  18  19
ENDBRANCH   1  18
TORSDOF 4
