REMARK  4 active torsions:
REMARK  status: ('A' for Active; 'I' for Inactive)
REMARK    1  A    between atoms: N2_4  and  N3_6 
REMARK    2  A    between atoms: N3_6  and  C1_8 
REMARK    3  A    between atoms: C1_8  and  C2_9 
REMARK    4  A    between atoms: C2_9  and  C3_11 
ROOT
HETATM    1  C3  UNL     1      -0.005  -0.647  -0.007  1.00  0.00     0.013 A 
HETATM    2  C4  UNL     1      -0.201  -1.993  -0.255  1.00  0.00     0.015 A 
HETATM    3  C5  UNL     1      -1.472  -2.573  -0.412  1.00  0.00     0.002 A 
HETATM    4  C6  UNL     1      -2.555  -1.753  -0.310  1.00  0.00     0.014 A 
HETATM    5  C7  UNL     1      -2.428  -0.414  -0.065  1.00  0.00    -0.009 A 
HETATM    6  C8  UNL     1      -3.538   0.411  -0.030  1.00  0.00     0.015 A 
HETATM    7  C9  UNL     1      -3.379   1.749   0.159  1.00  0.00     0.018 A 
HETATM    8  C10 UNL     1      -2.100   2.270   0.309  1.00  0.00     0.088 A 
HETATM    9  N5  UNL     1      -1.060   1.432   0.263  1.00  0.00    -0.365 N 
ATOM     10  H5  UNL     1      -0.125   1.824   0.374  1.00  0.00     0.165 HD
HETATM   11  C11 UNL     1      -1.167   0.126   0.083  1.00  0.00     0.054 A 
ENDROOT
BRANCH   1  12
HETATM   12  C2  UNL     1       1.304  -0.053   0.256  1.00  0.00     0.055 C 
HETATM   13  N4  UNL     1       1.488   0.504   1.544  1.00  0.00    -0.104 NA
BRANCH  12  14
HETATM   14  C1  UNL     1       1.905   0.680  -0.898  1.00  0.00     0.195 C 
BRANCH  14  15
HETATM   15  N3  UNL     1       3.351   0.814  -0.698  1.00  0.00    -0.317 N 
ATOM     16  H3  UNL     1       3.735   1.759  -0.696  1.00  0.00     0.182 HD
BRANCH  15  17
HETATM   17  N2  UNL     1       4.236  -0.226  -0.512  1.00  0.00    -0.254 N 
HETATM   18  N1  UNL     1       4.888  -0.462   0.544  1.00  0.00    -0.331 N 
ATOM     19  H12 UNL     1       4.734   0.184   1.318  1.00  0.00     0.178 HD
ATOM     20  H11 UNL     1       5.543  -1.232   0.682  1.00  0.00     0.178 HD
ATOM     21  H2  UNL     1       4.377  -0.862  -1.297  1.00  0.00     0.207 HD
ENDBRANCH  15  17
ENDBRANCH  14  15
ENDBRANCH  12  14
ENDBRANCH   1  12
TORSDOF 4
