REMARK  4 active torsions:
REMARK  status: ('A' for Active; 'I' for Inactive)
REMARK    1  A    between atoms: C2_7  and  N3_8 
REMARK    2  A    between atoms: N3_8  and  C3_10 
REMARK    3  A    between atoms: C3_10  and  C4_11 
REMARK    4  A    between atoms: C4_11  and  C5_12 
ROOT
HETATM    1  N3  UNL     1      -1.472  -1.147  -0.951  1.00  0.00    -0.224 N 
ATOM      2  H3  UNL     1      -1.606  -1.613  -1.848  1.00  0.00     0.177 HD
ENDROOT
BRANCH   1   3
HETATM    3  C2  UNL     1      -2.474  -0.577  -0.371  1.00  0.00     0.696 A 
HETATM    4  N2  UNL     1      -2.444   0.073   0.806  1.00  0.00    -0.128 N 
HETATM    5  N1  UNL     1      -3.682   0.513   1.048  1.00  0.00    -0.237 N 
ATOM      6  H2  UNL     1      -1.628   0.205   1.403  1.00  0.00     0.205 HD
HETATM    7  C1  UNL     1      -4.507   0.157   0.045  1.00  0.00     0.353 A 
ATOM      8  H1  UNL     1      -3.962   1.042   1.874  1.00  0.00     0.192 HD
HETATM    9  O1  UNL     1      -5.737   0.417  -0.034  1.00  0.00    -0.245 OA
HETATM   10  N5  UNL     1      -3.728  -0.523  -0.830  1.00  0.00    -0.139 N 
ATOM     11  H5  UNL     1      -4.050  -0.932  -1.707  1.00  0.00     0.189 HD
ENDBRANCH   1   3
BRANCH   1  12
HETATM   12  C3  UNL     1      -0.159  -1.132  -0.341  1.00  0.00     0.142 C 
BRANCH  12  13
HETATM   13  C4  UNL     1       0.572   0.093  -0.846  1.00  0.00     0.058 C 
BRANCH  13  14
HETATM   14  C5  UNL     1       1.941   0.190  -0.267  1.00  0.00    -0.054 A 
HETATM   15  C6  UNL     1       2.436  -0.688   0.576  1.00  0.00     0.024 A 
HETATM   16  C7  UNL     1       3.780  -0.511   1.088  1.00  0.00     0.088 A 
HETATM   17  N4  UNL     1       4.505   0.495   0.732  1.00  0.00    -0.375 N 
HETATM   18  C8  UNL     1       4.000   1.460  -0.177  1.00  0.00     0.088 A 
ATOM     19  H4  UNL     1       5.448   0.597   1.107  1.00  0.00     0.164 HD
HETATM   20  C9  UNL     1       2.792   1.312  -0.645  1.00  0.00     0.024 A 
ENDBRANCH  13  14
ENDBRANCH  12  13
ENDBRANCH   1  12
TORSDOF 4
