REMARK  6 active torsions:
REMARK  status: ('A' for Active; 'I' for Inactive)
REMARK    1  A    between atoms: N1_1  and  C1_4 
REMARK    2  A    between atoms: N3_7  and  C2_8 
REMARK    3  A    between atoms: C2_8  and  C3_9 
REMARK    4  A    between atoms: C3_9  and  C4_10 
REMARK    5  A    between atoms: C4_10  and  C5_11 
REMARK    6  A    between atoms: C5_11  and  N4_12 
ROOT
HETATM    1  C1  UNL     1       4.615   0.910  -0.552  1.00  0.00     0.690 A 
HETATM    2  N2  UNL     1       3.326   1.148  -0.279  1.00  0.00    -0.131 N 
ATOM      3  H2  UNL     1       2.868   1.945  -0.720  1.00  0.00     0.206 HD
HETATM    4  N3  UNL     1       2.622   0.377   0.550  1.00  0.00    -0.288 N 
HETATM    5  C9  UNL     1       3.234  -0.684   1.135  1.00  0.00     0.128 A 
HETATM    6  C10 UNL     1       4.561  -0.943   0.865  1.00  0.00     0.125 A 
HETATM    7  N6  UNL     1       5.246  -0.129   0.010  1.00  0.00    -0.200 N 
ATOM      8  H6  UNL     1       6.228  -0.310  -0.199  1.00  0.00     0.183 HD
ENDROOT
BRANCH   4   9
HETATM    9  C2  UNL     1       1.241   0.617   0.853  1.00  0.00     0.149 C 
BRANCH   9  10
HETATM   10  C3  UNL     1       0.313  -0.106  -0.109  1.00  0.00     0.023 C 
BRANCH  10  11
HETATM   11  C4  UNL     1      -1.137   0.162   0.231  1.00  0.00     0.022 C 
BRANCH  11  12
HETATM   12  C5  UNL     1      -1.987  -0.583  -0.761  1.00  0.00     0.129 C 
BRANCH  12  13
HETATM   13  N4  UNL     1      -3.399  -0.411  -0.547  1.00  0.00    -0.352 N 
HETATM   14  C6  UNL     1      -4.253  -1.136   0.209  1.00  0.00     0.108 A 
HETATM   15  C7  UNL     1      -5.518  -0.629   0.133  1.00  0.00     0.106 A 
HETATM   16  N5  UNL     1      -5.445   0.432  -0.687  1.00  0.00    -0.361 N 
HETATM   17  C8  UNL     1      -4.155   0.557  -1.095  1.00  0.00     0.182 A 
ATOM     18  H5  UNL     1      -6.221   1.037  -0.956  1.00  0.00     0.166 HD
ENDBRANCH  12  13
ENDBRANCH  11  12
ENDBRANCH  10  11
ENDBRANCH   9  10
ENDBRANCH   4   9
BRANCH   1  19
HETATM   19  N1  UNL     1       5.281   1.665  -1.356  1.00  0.00    -0.233 N 
ATOM     20  H12 UNL     1       4.800   2.456  -1.784  1.00  0.00     0.174 HD
ATOM     21  H11 UNL     1       6.263   1.484  -1.564  1.00  0.00     0.174 HD
ENDBRANCH   1  19
TORSDOF 6
