REMARK  9 active torsions:
REMARK  status: ('A' for Active; 'I' for Inactive)
REMARK    1  A    between atoms: C4_4  and  C5_5 
REMARK    2  A    between atoms: C5_5  and  C7_7 
REMARK    3  A    between atoms: C7_7  and  C8_8 
REMARK    4  A    between atoms: C9_9  and  C11_11 
REMARK    5  A    between atoms: C11_11  and  O2_13 
REMARK    6  A    between atoms: O2_13  and  C12_14 
REMARK    7  A    between atoms: C16_19  and  O4_20 
REMARK    8  A    between atoms: C17_22  and  O5_23 
REMARK    9  A    between atoms: C22_29  and  O6_30 
ROOT
HETATM    1  C12 UNL     1       1.768  -0.732   0.308  1.00  0.00     0.305 C 
HETATM    2  O3  UNL     1       2.302   0.557   0.220  1.00  0.00    -0.316 OA
HETATM    3  C13 UNL     1       3.614   0.857  -0.001  1.00  0.00     0.088 A 
HETATM    4  C14 UNL     1       4.173   2.095   0.319  1.00  0.00     0.008 A 
HETATM    5  C15 UNL     1       3.327   3.153   0.927  1.00  0.00     0.054 C 
HETATM    6  C16 UNL     1       5.505   2.355   0.078  1.00  0.00     0.108 A 
HETATM    7  C17 UNL     1       6.284   1.353  -0.492  1.00  0.00     0.105 A 
HETATM    8  C18 UNL     1       5.731   0.122  -0.810  1.00  0.00    -0.017 A 
HETATM    9  C19 UNL     1       6.627  -0.919  -1.424  1.00  0.00     0.052 C 
HETATM   10  C20 UNL     1       4.407  -0.138  -0.572  1.00  0.00    -0.013 A 
HETATM   11  C21 UNL     1       3.849  -1.445  -0.916  1.00  0.00     0.079 C 
HETATM   12  C22 UNL     1       2.683  -1.842  -0.051  1.00  0.00     0.178 C 
ENDROOT
BRANCH   1  13
HETATM   13  O2  UNL     1       0.560  -0.865  -0.418  1.00  0.00    -0.283 OA
BRANCH  13  14
HETATM   14  C11 UNL     1      -0.671  -1.101   0.175  1.00  0.00     0.291 C 
HETATM   15  O1  UNL     1      -0.663  -1.195   1.429  1.00  0.00    -0.260 OA
BRANCH  14  16
HETATM   16  C9  UNL     1      -1.891  -1.231  -0.622  1.00  0.00     0.010 C 
HETATM   17  C8  UNL     1      -3.056  -1.456  -0.050  1.00  0.00    -0.010 C 
HETATM   18  C10 UNL     1      -1.783  -1.104  -2.100  1.00  0.00     0.054 C 
BRANCH  17  19
HETATM   19  C7  UNL     1      -4.256  -1.583  -0.859  1.00  0.00     0.061 C 
BRANCH  19  20
HETATM   20  C5  UNL     1      -5.325  -0.562  -0.548  1.00  0.00    -0.080 C 
HETATM   21  C6  UNL     1      -5.101   0.785  -1.143  1.00  0.00     0.043 C 
BRANCH  20  22
HETATM   22  C4  UNL     1      -5.793  -0.628   0.838  1.00  0.00     0.004 C 
HETATM   23  C2  UNL     1      -5.762   0.232   1.806  1.00  0.00    -0.087 C 
HETATM   24  C1  UNL     1      -5.204   1.583   1.740  1.00  0.00     0.043 C 
HETATM   25  C3  UNL     1      -6.351  -0.172   3.142  1.00  0.00     0.043 C 
ENDBRANCH  20  22
ENDBRANCH  19  20
ENDBRANCH  17  19
ENDBRANCH  14  16
ENDBRANCH  13  14
ENDBRANCH   1  13
BRANCH  12  26
HETATM   26  O6  UNL     1       2.034  -2.899  -0.707  1.00  0.00    -0.390 OA
ATOM     27  H6  UNL     1       2.620  -3.610  -0.937  1.00  0.00     0.210 HD
ENDBRANCH  12  26
BRANCH   6  28
HETATM   28  O4  UNL     1       6.105   3.580   0.382  1.00  0.00    -0.357 OA
ATOM     29  H4  UNL     1       7.023   3.759   0.216  1.00  0.00     0.217 HD
ENDBRANCH   6  28
BRANCH   7  30
HETATM   30  O5  UNL     1       7.648   1.555  -0.762  1.00  0.00    -0.357 OA
ATOM     31  H5  UNL     1       8.180   0.871  -1.151  1.00  0.00     0.217 HD
ENDBRANCH   7  30
TORSDOF 9
