REMARK  6 active torsions:
REMARK  status: ('A' for Active; 'I' for Inactive)
REMARK    1  A    between atoms: C2_2  and  C4_4 
REMARK    2  A    between atoms: C4_4  and  C5_5 
REMARK    3  A    between atoms: C5_5  and  C6_6 
REMARK    4  A    between atoms: C6_6  and  C7_7 
REMARK    5  A    between atoms: C9_9  and  O1_10 
REMARK    6  A    between atoms: C12_15  and  O3_16 
ROOT
HETATM    1  C7  UNL     1       1.241  -0.036   0.435  1.00  0.00     0.012 C 
HETATM    2  C8  UNL     1       1.876   0.213   1.783  1.00  0.00     0.020 C 
HETATM    3  C9  UNL     1       0.892   1.373  -0.055  1.00  0.00     0.266 C 
HETATM    4  O2  UNL     1      -0.197   1.780   0.700  1.00  0.00    -0.352 OA
HETATM    5  C10 UNL     1      -1.311   1.182   0.065  1.00  0.00     0.166 C 
HETATM    6  C11 UNL     1      -2.579   1.871   0.548  1.00  0.00     0.070 C 
HETATM    7  C12 UNL     1      -3.728   1.641  -0.387  1.00  0.00     0.158 C 
HETATM    8  C13 UNL     1      -3.625   0.444  -1.260  1.00  0.00     0.118 C 
HETATM    9  C14 UNL     1      -4.550   0.684  -2.464  1.00  0.00     0.052 C 
HETATM   10  C15 UNL     1      -4.130  -0.829  -0.616  1.00  0.00     0.044 C 
HETATM   11  C16 UNL     1      -3.718  -0.868   0.814  1.00  0.00     0.015 C 
HETATM   12  C17 UNL     1      -2.299  -0.889   1.128  1.00  0.00     0.054 C 
HETATM   13  C18 UNL     1      -1.870  -2.321   1.307  1.00  0.00    -0.082 C 
HETATM   14  C19 UNL     1      -2.228  -2.927   2.446  1.00  0.00     0.015 C 
HETATM   15  C20 UNL     1      -1.084  -3.034   0.270  1.00  0.00     0.034 C 
HETATM   16  C21 UNL     1       0.098  -2.197  -0.244  1.00  0.00     0.013 C 
HETATM   17  C22 UNL     1       0.029  -0.899   0.552  1.00  0.00     0.040 C 
HETATM   18  C23 UNL     1      -1.304  -0.288   0.167  1.00  0.00     0.134 C 
HETATM   19  O4  UNL     1      -1.721  -0.761  -1.108  1.00  0.00    -0.225 OA
HETATM   20  O5  UNL     1      -2.388   0.159  -1.773  1.00  0.00    -0.226 OA
ENDROOT
BRANCH   1  21
HETATM   21  C6  UNL     1       2.269  -0.671  -0.447  1.00  0.00     0.015 C 
BRANCH  21  22
HETATM   22  C5  UNL     1       3.500   0.022  -0.805  1.00  0.00     0.005 C 
BRANCH  22  23
HETATM   23  C4  UNL     1       4.478   0.448   0.232  1.00  0.00     0.033 C 
BRANCH  23  24
HETATM   24  C2  UNL     1       5.686   1.087  -0.404  1.00  0.00    -0.093 C 
HETATM   25  C1  UNL     1       5.988   2.338  -0.102  1.00  0.00     0.014 C 
HETATM   26  C3  UNL     1       6.496   0.275  -1.353  1.00  0.00     0.042 C 
ENDBRANCH  23  24
ENDBRANCH  22  23
ENDBRANCH  21  22
ENDBRANCH   1  21
BRANCH   3  27
HETATM   27  O1  UNL     1       0.758   1.464  -1.404  1.00  0.00    -0.370 OA
ATOM     28  H1  UNL     1       0.542   2.338  -1.708  1.00  0.00     0.212 HD
ENDBRANCH   3  27
BRANCH   7  29
HETATM   29  O3  UNL     1      -3.937   2.755  -1.236  1.00  0.00    -0.392 OA
ATOM     30  H3  UNL     1      -4.665   2.609  -1.829  1.00  0.00     0.210 HD
ENDBRANCH   7  29
TORSDOF 6
