REMARK  8 active torsions:
REMARK  status: ('A' for Active; 'I' for Inactive)
REMARK    1  A    between atoms: C3_3  and  C4_4 
REMARK    2  A    between atoms: C7_7  and  C8_8 
REMARK    3  A    between atoms: C8_8  and  S1_9 
REMARK    4  A    between atoms: S1_9  and  C9_10 
REMARK    5  A    between atoms: C10_12  and  N1_13 
REMARK    6  A    between atoms: N4_20  and  O1_21 
REMARK    7  A    between atoms: C12_23  and  C13_24 
REMARK    8  A    between atoms: C13_24  and  C14_25 
ROOT
HETATM    1  C1  UNL     1      -3.319   0.441   0.542  1.00  0.00     0.051 C 
HETATM    2  C2  UNL     1      -1.949  -0.143   0.366  1.00  0.00    -0.024 A 
HETATM    3  C3  UNL     1      -0.792   0.506   0.479  1.00  0.00    -0.021 A 
HETATM    4  C7  UNL     1       0.327  -0.444   0.227  1.00  0.00     0.057 A 
HETATM    5  N4  UNL     1      -0.184  -1.570  -0.012  1.00  0.00    -0.227 N 
HETATM    6  C12 UNL     1      -1.630  -1.517   0.048  1.00  0.00     0.070 A 
ENDROOT
BRANCH   4   7
HETATM    7  C8  UNL     1       1.804  -0.145   0.237  1.00  0.00     0.140 C 
BRANCH   7   8
HETATM    8  S1  UNL     1       2.412   0.143  -1.415  1.00  0.00    -0.113 SA
BRANCH   8   9
HETATM    9  C9  UNL     1       4.182   0.487  -1.386  1.00  0.00     0.086 A 
HETATM   10  S2  UNL     1       5.203   0.827  -2.723  1.00  0.00    -0.044 SA
HETATM   11  C10 UNL     1       6.667   1.024  -1.871  1.00  0.00     0.144 A 
HETATM   12  N2  UNL     1       6.311   0.822  -0.606  1.00  0.00    -0.324 N 
HETATM   13  C11 UNL     1       5.054   0.549  -0.344  1.00  0.00     0.142 A 
ATOM     14  H2  UNL     1       7.000   0.878   0.144  1.00  0.00     0.169 HD
HETATM   15  N3  UNL     1       4.574   0.312   1.013  1.00  0.00    -0.081 NA
BRANCH  11  16
HETATM   16  N1  UNL     1       7.868   1.308  -2.337  1.00  0.00    -0.380 N 
ATOM     17  H12 UNL     1       8.141   1.463  -3.307  1.00  0.00     0.158 HD
ATOM     18  H11 UNL     1       8.744   1.426  -1.827  1.00  0.00     0.158 HD
ENDBRANCH  11  16
ENDBRANCH   8   9
ENDBRANCH   7   8
ENDBRANCH   4   7
BRANCH   3  19
HETATM   19  C4  UNL     1      -0.499   1.901   0.798  1.00  0.00     0.013 C 
HETATM   20  C5  UNL     1       0.157   2.582  -0.428  1.00  0.00     0.015 C 
HETATM   21  C6  UNL     1      -1.619   2.815   1.162  1.00  0.00     0.015 C 
ENDBRANCH   3  19
BRANCH   5  22
HETATM   22  O1  UNL     1       0.549  -2.725  -0.298  1.00  0.00    -0.282 OA
ATOM     23  H1  UNL     1       0.164  -3.574  -0.478  1.00  0.00     0.245 HD
ENDBRANCH   5  22
BRANCH   6  24
HETATM   24  C13 UNL     1      -2.365  -2.580  -0.083  1.00  0.00     0.051 C 
BRANCH  24  25
HETATM   25  C14 UNL     1      -3.802  -2.728   0.069  1.00  0.00     0.007 A 
HETATM   26  C15 UNL     1      -4.712  -3.146  -0.874  1.00  0.00     0.019 A 
HETATM   27  C16 UNL     1      -5.979  -3.293  -0.503  1.00  0.00     0.008 A 
HETATM   28  C17 UNL     1      -6.302  -3.019   0.800  1.00  0.00     0.050 A 
HETATM   29  S3  UNL     1      -4.807  -2.560   1.469  1.00  0.00    -0.102 SA
ENDBRANCH  24  25
ENDBRANCH   6  24
TORSDOF 8
