REMARK  8 active torsions:
REMARK  status: ('A' for Active; 'I' for Inactive)
REMARK    1  A    between atoms: C2_2  and  C3_3 
REMARK    2  A    between atoms: C3_3  and  C4_4 
REMARK    3  A    between atoms: C4_4  and  C5_5 
REMARK    4  A    between atoms: C5_5  and  N1_6 
REMARK    5  A    between atoms: C6_7  and  O1_8 
REMARK    6  A    between atoms: C7_10  and  N2_11 
REMARK    7  A    between atoms: C8_12  and  O2_13 
REMARK    8  A    between atoms: C11_17  and  O3_18 
ROOT
HETATM    1  N2  UNL     1      -1.044  -0.902  -0.396  1.00  0.00    -0.267 N 
HETATM    2  C8  UNL     1      -1.595  -0.211  -1.409  1.00  0.00     0.156 A 
HETATM    3  C9  UNL     1      -2.792   0.253  -1.025  1.00  0.00     0.008 A 
HETATM    4  C10 UNL     1      -3.018  -0.150   0.272  1.00  0.00     0.009 A 
HETATM    5  C11 UNL     1      -1.927  -0.864   0.646  1.00  0.00     0.156 A 
HETATM    6  C12 UNL     1      -4.319   0.291   0.847  1.00  0.00     0.027 C 
HETATM    7  C13 UNL     1      -5.383  -0.299  -0.095  1.00  0.00     0.010 C 
HETATM    8  C14 UNL     1      -5.152   0.181  -1.487  1.00  0.00     0.010 C 
HETATM    9  C15 UNL     1      -3.921   1.069  -1.602  1.00  0.00     0.024 C 
HETATM   10  C16 UNL     1      -4.051   2.267  -0.683  1.00  0.00     0.014 C 
HETATM   11  C17 UNL     1      -4.475   1.801   0.686  1.00  0.00    -0.009 C 
HETATM   12  C18 UNL     1      -3.810   2.560   1.797  1.00  0.00     0.010 C 
ENDROOT
BRANCH   1  13
HETATM   13  C7  UNL     1       0.221  -1.549  -0.413  1.00  0.00     0.095 A 
HETATM   14  C6  UNL     1       1.352  -0.787  -0.576  1.00  0.00     0.173 A 
HETATM   15  N1  UNL     1       2.592  -1.343  -0.601  1.00  0.00    -0.293 N 
HETATM   16  C22 UNL     1       2.722  -2.664  -0.465  1.00  0.00     0.255 A 
HETATM   17  C20 UNL     1       1.640  -3.497  -0.299  1.00  0.00     0.009 A 
HETATM   18  O4  UNL     1       3.875  -3.190  -0.488  1.00  0.00    -0.267 OA
HETATM   19  C19 UNL     1       0.375  -2.905  -0.275  1.00  0.00     0.047 A 
HETATM   20  C21 UNL     1       1.811  -4.973  -0.149  1.00  0.00     0.054 C 
BRANCH  14  21
HETATM   21  O1  UNL     1       1.264   0.587  -0.720  1.00  0.00    -0.344 OA
ATOM     22  H1  UNL     1       0.397   0.976  -0.703  1.00  0.00     0.219 HD
ENDBRANCH  14  21
BRANCH  15  23
HETATM   23  C5  UNL     1       3.768  -0.482  -0.778  1.00  0.00     0.134 C 
BRANCH  23  24
HETATM   24  C4  UNL     1       4.190  -0.088   0.614  1.00  0.00     0.020 C 
BRANCH  24  25
HETATM   25  C3  UNL     1       5.390   0.794   0.659  1.00  0.00     0.001 C 
BRANCH  25  26
HETATM   26  C2  UNL     1       5.105   2.060  -0.087  1.00  0.00    -0.004 C 
HETATM   27  C1  UNL     1       6.297   3.010  -0.071  1.00  0.00     0.005 C 
ENDBRANCH  25  26
ENDBRANCH  24  25
ENDBRANCH  23  24
ENDBRANCH  15  23
ENDBRANCH   1  13
BRANCH   2  28
HETATM   28  O2  UNL     1      -1.033   0.004  -2.670  1.00  0.00    -0.345 OA
ATOM     29  H2  UNL     1      -1.422   0.492  -3.386  1.00  0.00     0.219 HD
ENDBRANCH   2  28
BRANCH   5  30
HETATM   30  O3  UNL     1      -1.756  -1.453   1.894  1.00  0.00    -0.345 OA
ATOM     31  H3  UNL     1      -2.370  -1.427   2.618  1.00  0.00     0.219 HD
ENDBRANCH   5  30
TORSDOF 8
