REMARK  3 active torsions:
REMARK  status: ('A' for Active; 'I' for Inactive)
REMARK    1  A    between atoms: C7_8  and  C8_9 
REMARK    2  A    between atoms: C8_9  and  C9_10 
REMARK    3  A    between atoms: C20_22  and  C22_24 
ROOT
HETATM    1  C1  UNL     1      -2.449  -0.758  -2.446  1.00  0.00     0.040 C 
HETATM    2  C2  UNL     1      -2.807  -1.020  -0.973  1.00  0.00     0.133 C 
HETATM    3  O1  UNL     1      -1.706  -1.792  -0.472  1.00  0.00    -0.325 OA
HETATM    4  C3  UNL     1      -0.537  -1.123  -0.103  1.00  0.00     0.184 C 
HETATM    5  C4  UNL     1      -0.706  -0.036   0.607  1.00  0.00    -0.013 C 
HETATM    6  C5  UNL     1       0.474   0.748   1.044  1.00  0.00     0.042 C 
HETATM    7  C6  UNL     1       1.682   0.517   0.137  1.00  0.00     0.037 C 
HETATM    8  C7  UNL     1       1.929  -0.943   0.038  1.00  0.00     0.131 C 
HETATM    9  O2  UNL     1       0.717  -1.542  -0.438  1.00  0.00    -0.325 OA
HETATM   10  C15 UNL     1      -2.096   0.352   0.984  1.00  0.00    -0.009 C 
HETATM   11  C16 UNL     1      -2.014   1.730   1.569  1.00  0.00     0.021 C 
HETATM   12  C17 UNL     1      -2.618  -0.588   2.042  1.00  0.00     0.014 C 
HETATM   13  C18 UNL     1      -3.940  -0.117   2.533  1.00  0.00     0.002 C 
HETATM   14  C19 UNL     1      -4.869   0.415   1.532  1.00  0.00     0.020 C 
HETATM   15  C20 UNL     1      -4.435   0.581   0.120  1.00  0.00     0.052 C 
HETATM   16  C21 UNL     1      -4.716   2.045  -0.275  1.00  0.00     0.027 C 
HETATM   17  C23 UNL     1      -3.011   0.243  -0.198  1.00  0.00     0.046 C 
ENDROOT
BRANCH   8  18
HETATM   18  C8  UNL     1       2.985  -1.409  -0.879  1.00  0.00     0.037 C 
BRANCH  18  19
HETATM   19  C9  UNL     1       4.376  -0.974  -0.684  1.00  0.00    -0.012 C 
HETATM   20  C10 UNL     1       4.958  -1.334   0.663  1.00  0.00     0.005 C 
HETATM   21  C11 UNL     1       6.468  -1.107   0.553  1.00  0.00     0.000 C 
HETATM   22  C12 UNL     1       6.772   0.255  -0.002  1.00  0.00     0.000 C 
HETATM   23  C13 UNL     1       5.521   1.113  -0.126  1.00  0.00     0.000 C 
HETATM   24  C14 UNL     1       4.627   0.411  -1.140  1.00  0.00     0.005 C 
ENDBRANCH  18  19
ENDBRANCH   8  18
BRANCH  15  25
HETATM   25  C22 UNL     1      -5.319  -0.192  -0.787  1.00  0.00     0.182 C 
HETATM   26  O3  UNL     1      -6.122  -1.045  -0.269  1.00  0.00    -0.647 OA
HETATM   27  O4  UNL     1      -5.375  -0.093  -2.151  1.00  0.00    -0.647 OA
ENDBRANCH  15  25
TORSDOF 3
