REMARK  5 active torsions:
REMARK  status: ('A' for Active; 'I' for Inactive)
REMARK    1  A    between atoms: C3_3  and  N1_4 
REMARK    2  A    between atoms: C7_9  and  S1_10 
REMARK    3  A    between atoms: S1_10  and  C8_11 
REMARK    4  A    between atoms: C8_11  and  C9_12 
REMARK    5  A    between atoms: C22_25  and  C23_26 
ROOT
HETATM    1  C1  UNL     1      -3.001  -3.642  -1.789  1.00  0.00     0.014 C 
HETATM    2  C2  UNL     1      -1.925  -3.613  -1.247  1.00  0.00    -0.098 C 
HETATM    3  C3  UNL     1      -0.600  -3.576  -0.573  1.00  0.00     0.217 C 
ENDROOT
BRANCH   3   4
HETATM    4  N1  UNL     1      -0.332  -2.274  -0.034  1.00  0.00    -0.361 N 
HETATM    5  C4  UNL     1       0.692  -1.367  -0.510  1.00  0.00     0.044 A 
HETATM    6  C5  UNL     1       1.927  -1.532  -1.078  1.00  0.00     0.058 A 
HETATM    7  C13 UNL     1       0.214  -0.065  -0.296  1.00  0.00     0.001 A 
HETATM    8  C6  UNL     1       2.736  -0.453  -1.451  1.00  0.00     0.065 A 
HETATM    9  N2  UNL     1       4.006  -0.739  -2.064  1.00  0.00    -0.101 NA
HETATM   10  C7  UNL     1       2.276   0.814  -1.240  1.00  0.00     0.026 A 
HETATM   11  C12 UNL     1       1.008   0.992  -0.659  1.00  0.00     0.034 A 
HETATM   12  C14 UNL     1      -1.137  -0.234   0.320  1.00  0.00    -0.020 C 
HETATM   13  C15 UNL     1      -2.135   0.571   0.094  1.00  0.00    -0.071 C 
HETATM   14  C22 UNL     1      -0.927  -1.503   1.054  1.00  0.00     0.119 C 
HETATM   15  C16 UNL     1      -3.436   0.264   0.806  1.00  0.00     0.035 C 
HETATM   16  C21 UNL     1      -2.067   1.699  -0.863  1.00  0.00     0.035 C 
HETATM   17  C17 UNL     1      -4.466   1.365   0.605  1.00  0.00     0.004 C 
HETATM   18  C18 UNL     1      -4.154   2.636   1.304  1.00  0.00     0.000 C 
HETATM   19  C19 UNL     1      -2.717   2.978   1.191  1.00  0.00     0.000 C 
HETATM   20  C20 UNL     1      -2.212   3.057  -0.223  1.00  0.00     0.004 C 
BRANCH  10  21
HETATM   21  S1  UNL     1       3.127   2.277  -1.655  1.00  0.00    -0.116 SA
BRANCH  21  22
HETATM   22  C8  UNL     1       4.787   2.183  -2.213  1.00  0.00     0.173 C 
BRANCH  22  23
HETATM   23  C9  UNL     1       5.696   1.783  -1.129  1.00  0.00    -0.097 C 
HETATM   24  C10 UNL     1       6.459   1.471  -0.243  1.00  0.00    -0.110 C 
HETATM   25  C11 UNL     1       7.390   1.064   0.832  1.00  0.00     0.112 C 
ENDBRANCH  22  23
ENDBRANCH  21  22
ENDBRANCH  10  21
BRANCH  14  26
HETATM   26  C23 UNL     1      -1.983  -2.136   1.805  1.00  0.00     0.026 C 
HETATM   27  C24 UNL     1      -1.389  -3.427   2.422  1.00  0.00     0.007 C 
ENDBRANCH  14  26
ENDBRANCH   3   4
TORSDOF 5
