REMARK  5 active torsions:
REMARK  status: ('A' for Active; 'I' for Inactive)
REMARK    1  A    between atoms: C9_9  and  C10_10 
REMARK    2  A    between atoms: C17_18  and  C18_19 
REMARK    3  A    between atoms: C18_19  and  C19_20 
REMARK    4  A    between atoms: C19_20  and  C20_21 
REMARK    5  A    between atoms: C20_21  and  O2_22 
ROOT
HETATM    1  C10 UNL     1      -0.251  -1.270  -0.115  1.00  0.00     0.026 C 
HETATM    2  C11 UNL     1      -0.356  -2.802   0.176  1.00  0.00     0.009 C 
HETATM    3  C12 UNL     1      -1.754  -3.034   0.722  1.00  0.00     0.009 C 
HETATM    4  C13 UNL     1      -2.416  -1.915   0.072  1.00  0.00     0.030 C 
HETATM    5  C14 UNL     1      -3.709  -1.419   0.375  1.00  0.00     0.058 C 
HETATM    6  C15 UNL     1      -4.434  -2.025   1.562  1.00  0.00     0.046 C 
HETATM    7  C16 UNL     1      -4.629  -1.625  -0.819  1.00  0.00     0.046 C 
HETATM    8  O1  UNL     1      -3.566  -0.035   0.522  1.00  0.00    -0.374 OA
HETATM    9  C17 UNL     1      -2.292   0.314   0.001  1.00  0.00     0.131 C 
HETATM   10  C21 UNL     1      -1.461  -0.785   0.526  1.00  0.00    -0.005 C 
HETATM   11  C22 UNL     1      -1.355  -0.727   2.016  1.00  0.00     0.019 C 
ENDROOT
BRANCH   1  12
HETATM   12  C9  UNL     1       1.086  -0.930   0.357  1.00  0.00     0.135 C 
HETATM   13  C7  UNL     1       1.680   0.413   0.241  1.00  0.00    -0.011 C 
HETATM   14  C6  UNL     1       1.742   0.992  -1.130  1.00  0.00     0.012 C 
HETATM   15  C8  UNL     1       1.196   1.436   1.247  1.00  0.00     0.018 C 
HETATM   16  C24 UNL     1       3.096   0.063   0.761  1.00  0.00     0.028 C 
HETATM   17  C5  UNL     1       3.110   1.123  -1.725  1.00  0.00     0.002 C 
HETATM   18  C4  UNL     1       3.955   1.891  -0.746  1.00  0.00     0.009 C 
HETATM   19  C2  UNL     1       4.154   1.012   0.452  1.00  0.00    -0.041 C 
HETATM   20  C1  UNL     1       5.431   0.203   0.161  1.00  0.00     0.015 C 
HETATM   21  C3  UNL     1       4.527   1.911   1.621  1.00  0.00     0.015 C 
HETATM   22  C23 UNL     1       3.270  -1.335   0.226  1.00  0.00     0.174 C 
HETATM   23  O3  UNL     1       2.063  -1.680  -0.380  1.00  0.00    -0.384 OA
ENDBRANCH   1  12
BRANCH   9  24
HETATM   24  C18 UNL     1      -2.320   0.555  -1.448  1.00  0.00     0.035 C 
BRANCH  24  25
HETATM   25  C19 UNL     1      -3.204   1.619  -1.967  1.00  0.00     0.028 C 
BRANCH  25  26
HETATM   26  C20 UNL     1      -2.971   3.016  -1.502  1.00  0.00     0.164 C 
BRANCH  26  27
HETATM   27  O2  UNL     1      -3.123   3.184  -0.138  1.00  0.00    -0.401 OA
ATOM     28  H2  UNL     1      -2.975   4.074   0.158  1.00  0.00     0.209 HD
ENDBRANCH  26  27
ENDBRANCH  25  26
ENDBRANCH  24  25
ENDBRANCH   9  24
TORSDOF 5
