REMARK  5 active torsions:
REMARK  status: ('A' for Active; 'I' for Inactive)
REMARK    1  A    between atoms: C6_7  and  N1_8 
REMARK    2  A    between atoms: N1_8  and  C7_10 
REMARK    3  A    between atoms: C9_13  and  C10_14 
REMARK    4  A    between atoms: N2_20  and  C16_21 
REMARK    5  A    between atoms: C16_21  and  C17_22 
ROOT
HETATM    1  C7  UNL     1      -2.406  -0.937  -0.405  1.00  0.00     0.151 A 
HETATM    2  S1  UNL     1      -3.539  -0.811   0.844  1.00  0.00    -0.063 SA
HETATM    3  C8  UNL     1      -3.276   0.803   1.246  1.00  0.00     0.083 A 
HETATM    4  C9  UNL     1      -2.264   1.212   0.350  1.00  0.00     0.053 A 
HETATM    5  N2  UNL     1      -1.838   0.286  -0.486  1.00  0.00    -0.326 N 
ENDROOT
BRANCH   5   6
HETATM    6  C16 UNL     1      -0.725   0.464  -1.458  1.00  0.00     0.136 C 
BRANCH   6   7
HETATM    7  C17 UNL     1       0.626   0.322  -0.889  1.00  0.00     0.004 C 
HETATM    8  C18 UNL     1       0.973  -1.009  -0.289  1.00  0.00     0.007 C 
HETATM    9  C19 UNL     1       2.460  -1.167  -0.064  1.00  0.00     0.011 C 
HETATM   10  C20 UNL     1       3.247   0.092  -0.038  1.00  0.00    -0.015 C 
HETATM   11  C21 UNL     1       3.033   0.843   1.255  1.00  0.00     0.038 C 
HETATM   12  C23 UNL     1       4.728  -0.342   0.020  1.00  0.00     0.241 C 
HETATM   13  C24 UNL     1       3.001   0.908  -1.259  1.00  0.00     0.011 C 
HETATM   14  C22 UNL     1       4.227   0.519   2.087  1.00  0.00     0.233 C 
HETATM   15  N3  UNL     1       5.310   0.344   1.140  1.00  0.00    -0.074 N 
ATOM     16  H32 UNL     1       5.782   1.213   0.890  1.00  0.00     0.277 HD
ATOM     17  H31 UNL     1       6.126  -0.126   1.531  1.00  0.00     0.277 HD
HETATM   18  C25 UNL     1       1.712   0.578  -1.947  1.00  0.00     0.007 C 
ENDBRANCH   6   7
ENDBRANCH   5   6
BRANCH   1  19
HETATM   19  N1  UNL     1      -2.172  -2.005  -1.145  1.00  0.00    -0.335 N 
ATOM     20  H1  UNL     1      -1.465  -1.993  -1.880  1.00  0.00     0.168 HD
BRANCH  19  21
HETATM   21  C6  UNL     1      -2.931  -3.158  -0.885  1.00  0.00     0.056 A 
HETATM   22  C1  UNL     1      -2.727  -3.879   0.264  1.00  0.00     0.060 A 
HETATM   23 CL1  UNL     1      -1.539  -3.440   1.476  1.00  0.00    -0.082 Cl
HETATM   24  C2  UNL     1      -3.497  -5.019   0.490  1.00  0.00     0.026 A 
HETATM   25  C3  UNL     1      -4.445  -5.411  -0.426  1.00  0.00     0.002 A 
HETATM   26  C4  UNL     1      -4.648  -4.683  -1.583  1.00  0.00     0.002 A 
HETATM   27  C5  UNL     1      -3.881  -3.557  -1.797  1.00  0.00     0.031 A 
ENDBRANCH  19  21
ENDBRANCH   1  19
BRANCH   4  28
HETATM   28  C10 UNL     1      -1.796   2.607   0.565  1.00  0.00    -0.009 A 
HETATM   29  C11 UNL     1      -1.203   3.360  -0.387  1.00  0.00     0.014 A 
HETATM   30  C12 UNL     1      -0.676   4.638  -0.133  1.00  0.00     0.001 A 
HETATM   31  C13 UNL     1      -0.750   5.176   1.119  1.00  0.00     0.000 A 
HETATM   32  C14 UNL     1      -1.348   4.443   2.117  1.00  0.00     0.001 A 
HETATM   33  C15 UNL     1      -1.852   3.198   1.840  1.00  0.00     0.014 A 
ENDBRANCH   4  28
TORSDOF 5
