REMARK  4 active torsions:
REMARK  status: ('A' for Active; 'I' for Inactive)
REMARK    1  A    between atoms: C3_4  and  O2_5 
REMARK    2  A    between atoms: O2_5  and  C4_6 
REMARK    3  A    between atoms: N2_19  and  C14_20 
REMARK    4  A    between atoms: N3_23  and  C17_24 
ROOT
HETATM    1  O1  UNL     1       1.943  -0.554   1.496  1.00  0.00    -0.268 OA
HETATM    2  C1  UNL     1       2.420  -0.106   0.425  1.00  0.00     0.251 A 
HETATM    3  C2  UNL     1       3.781  -0.180   0.158  1.00  0.00     0.114 A 
HETATM    4  C3  UNL     1       4.275   0.318  -1.021  1.00  0.00     0.110 A 
HETATM    5  C10 UNL     1       3.392   0.888  -1.924  1.00  0.00     0.093 A 
HETATM    6  N1  UNL     1       3.557   1.444  -3.119  1.00  0.00    -0.362 N 
ATOM      7  H1  UNL     1       4.457   1.538  -3.590  1.00  0.00     0.165 HD
HETATM    8  C11 UNL     1       2.388   1.866  -3.627  1.00  0.00     0.091 A 
HETATM    9  C12 UNL     1       1.431   1.554  -2.691  1.00  0.00     0.049 A 
HETATM   10  C13 UNL     1       2.051   0.943  -1.622  1.00  0.00     0.068 A 
HETATM   11  N2  UNL     1       1.565   0.443  -0.443  1.00  0.00    -0.307 N 
ENDROOT
BRANCH  11  12
HETATM   12  C14 UNL     1       0.181   0.547  -0.224  1.00  0.00     0.103 C 
HETATM   13  C15 UNL     1      -0.332   0.470   1.169  1.00  0.00     0.071 C 
HETATM   14  C16 UNL     1      -1.762   1.034   1.107  1.00  0.00     0.065 C 
HETATM   15  N3  UNL     1      -2.564   0.552   0.092  1.00  0.00    -0.369 N 
HETATM   16  C24 UNL     1      -2.020   0.188  -1.154  1.00  0.00     0.065 C 
HETATM   17  C25 UNL     1      -0.658  -0.455  -1.028  1.00  0.00     0.071 C 
BRANCH  15  18
HETATM   18  C17 UNL     1      -3.858   0.083   0.335  1.00  0.00     0.088 C 
HETATM   19  C18 UNL     1      -4.692   1.244   0.878  1.00  0.00     0.026 C 
HETATM   20  C19 UNL     1      -5.960   1.353   0.102  1.00  0.00     0.002 C 
HETATM   21  C20 UNL     1      -6.954   0.343   0.624  1.00  0.00     0.000 C 
HETATM   22  C21 UNL     1      -6.429  -1.075   0.515  1.00  0.00     0.000 C 
HETATM   23  C22 UNL     1      -5.441  -1.353   1.584  1.00  0.00     0.002 C 
HETATM   24  C23 UNL     1      -4.019  -1.071   1.246  1.00  0.00     0.026 C 
ENDBRANCH  15  18
ENDBRANCH  11  12
BRANCH   4  25
HETATM   25  O2  UNL     1       5.628   0.275  -1.347  1.00  0.00    -0.308 OA
BRANCH  25  26
HETATM   26  C4  UNL     1       6.485  -0.297  -0.419  1.00  0.00     0.076 A 
HETATM   27  C5  UNL     1       7.108   0.423   0.573  1.00  0.00     0.039 A 
HETATM   28  C6  UNL     1       7.955  -0.151   1.488  1.00  0.00     0.026 A 
HETATM   29  C7  UNL     1       8.199  -1.512   1.418  1.00  0.00     0.034 A 
HETATM   30 CL1  UNL     1       9.268  -2.317   2.549  1.00  0.00    -0.084 Cl
HETATM   31  C8  UNL     1       7.582  -2.250   0.429  1.00  0.00     0.026 A 
HETATM   32  C9  UNL     1       6.723  -1.643  -0.493  1.00  0.00     0.039 A 
ENDBRANCH  25  26
ENDBRANCH   4  25
TORSDOF 4
