REMARK  4 active torsions:
REMARK  status: ('A' for Active; 'I' for Inactive)
REMARK    1  A    between atoms: O1_2  and  C2_3 
REMARK    2  A    between atoms: C16_19  and  O3_20 
REMARK    3  A    between atoms: C16_19  and  C17_22 
REMARK    4  A    between atoms: C18_23  and  C19_24 
ROOT
HETATM    1  C2  UNL     1       3.276  -1.010   0.270  1.00  0.00     0.129 C 
HETATM    2  C3  UNL     1       2.007  -1.249   1.013  1.00  0.00     0.067 C 
HETATM    3  C4  UNL     1       1.216   0.023   1.019  1.00  0.00    -0.063 C 
HETATM    4  C5  UNL     1       0.023   0.211   0.520  1.00  0.00    -0.008 C 
HETATM    5  C6  UNL     1      -0.793  -0.773  -0.175  1.00  0.00    -0.009 C 
HETATM    6  C7  UNL     1      -0.378  -1.713  -0.994  1.00  0.00    -0.015 C 
HETATM    7  C8  UNL     1      -1.156  -2.725  -1.704  1.00  0.00     0.028 C 
HETATM    8  C9  UNL     1      -2.180  -3.424  -0.828  1.00  0.00     0.013 C 
HETATM    9  C10 UNL     1      -3.299  -2.512  -0.549  1.00  0.00     0.048 C 
HETATM   10  C11 UNL     1      -4.424  -2.875   0.335  1.00  0.00     0.176 C 
HETATM   11  O2  UNL     1      -4.263  -1.583   0.927  1.00  0.00    -0.376 OA
HETATM   12  C12 UNL     1      -2.926  -1.652   0.669  1.00  0.00     0.103 C 
HETATM   13  C13 UNL     1      -2.205  -2.399   1.767  1.00  0.00     0.050 C 
HETATM   14  C14 UNL     1      -2.207  -0.477   0.122  1.00  0.00     0.165 C 
HETATM   15  F1  UNL     1      -2.839  -0.171  -1.115  1.00  0.00    -0.234 F 
HETATM   16  C15 UNL     1      -2.251   0.788   0.886  1.00  0.00     0.099 C 
HETATM   17  C16 UNL     1      -0.842   1.402   0.660  1.00  0.00     0.107 C 
HETATM   18  C23 UNL     1       2.043   1.152   1.596  1.00  0.00     0.016 C 
HETATM   19  C24 UNL     1       2.794   0.720   2.822  1.00  0.00     0.009 C 
HETATM   20  C25 UNL     1       4.086   0.096   2.347  1.00  0.00     0.008 C 
HETATM   21  C26 UNL     1       4.049   0.167   0.845  1.00  0.00     0.015 C 
HETATM   22  C27 UNL     1       3.203   1.379   0.592  1.00  0.00     0.016 C 
ENDROOT
BRANCH  17  23
HETATM   23  O3  UNL     1      -0.583   2.049   1.836  1.00  0.00    -0.381 OA
ATOM     24  H3  UNL     1      -1.139   2.814   1.926  1.00  0.00     0.211 HD
ENDBRANCH  17  23
BRANCH  17  25
HETATM   25  C17 UNL     1      -0.836   2.296  -0.488  1.00  0.00     0.018 C 
HETATM   26  C18 UNL     1      -1.691   3.280  -0.680  1.00  0.00     0.036 C 
BRANCH  26  27
HETATM   27  C19 UNL     1      -1.669   4.161  -1.832  1.00  0.00     0.074 A 
HETATM   28  C20 UNL     1      -0.751   4.086  -2.881  1.00  0.00     0.039 A 
HETATM   29  C21 UNL     1      -1.065   5.097  -3.779  1.00  0.00     0.027 A 
HETATM   30  C22 UNL     1      -2.159   5.729  -3.223  1.00  0.00     0.142 A 
HETATM   31  O4  UNL     1      -2.461   5.144  -2.101  1.00  0.00    -0.323 OA
ENDBRANCH  26  27
ENDBRANCH  17  25
BRANCH   1  32
HETATM   32  O1  UNL     1       4.126  -2.079   0.222  1.00  0.00    -0.390 OA
HETATM   33  C1  UNL     1       4.356  -2.420  -1.107  1.00  0.00     0.202 C 
ENDBRANCH   1  32
TORSDOF 4
