REMARK  5 active torsions:
REMARK  status: ('A' for Active; 'I' for Inactive)
REMARK    1  A    between atoms: C2_2  and  C4_5 
REMARK    2  A    between atoms: C2_2  and  S1_22 
REMARK    3  A    between atoms: C9_10  and  C10_11 
REMARK    4  A    between atoms: S1_22  and  N2_23 
REMARK    5  A    between atoms: S1_22  and  C20_27 
ROOT
HETATM    1  C1  UNL     1       3.215  -0.146  -1.839  1.00  0.00     0.053 C 
HETATM    2  C2  UNL     1       2.852   0.013  -0.351  1.00  0.00     0.160 C 
HETATM    3  C3  UNL     1       3.083   1.443  -0.061  1.00  0.00     0.088 C 
HETATM    4  N1  UNL     1       3.250   2.573   0.138  1.00  0.00    -0.195 NA
ENDROOT
BRANCH   2   5
HETATM    5  C4  UNL     1       1.431  -0.249  -0.115  1.00  0.00    -0.021 A 
HETATM    6  C5  UNL     1       0.904  -1.393   0.409  1.00  0.00     0.011 A 
HETATM    7  C6  UNL     1      -0.444  -1.567   0.607  1.00  0.00     0.013 A 
HETATM    8  C7  UNL     1      -1.321  -0.556   0.271  1.00  0.00    -0.025 A 
HETATM    9  C8  UNL     1      -2.689  -0.705   0.453  1.00  0.00     0.024 A 
HETATM   10  C18 UNL     1      -0.840   0.629  -0.266  1.00  0.00    -0.025 A 
HETATM   11  C9  UNL     1      -3.586   0.293   0.115  1.00  0.00    -0.025 A 
HETATM   12  C16 UNL     1      -3.078   1.452  -0.412  1.00  0.00     0.013 A 
HETATM   13  C17 UNL     1      -1.732   1.620  -0.600  1.00  0.00     0.013 A 
HETATM   14  C19 UNL     1       0.524   0.755  -0.447  1.00  0.00     0.022 A 
BRANCH  11  15
HETATM   15  C10 UNL     1      -5.016   0.151   0.296  1.00  0.00    -0.026 A 
HETATM   16  C11 UNL     1      -5.811   1.240   0.576  1.00  0.00     0.014 A 
HETATM   17  C12 UNL     1      -7.168   1.138   0.763  1.00  0.00     0.024 A 
HETATM   18  C13 UNL     1      -7.786  -0.082   0.673  1.00  0.00     0.034 A 
HETATM   19 CL1  UNL     1      -9.497  -0.305   0.887  1.00  0.00    -0.084 Cl
HETATM   20  C14 UNL     1      -7.023  -1.194   0.392  1.00  0.00     0.024 A 
HETATM   21  C15 UNL     1      -5.641  -1.073   0.206  1.00  0.00     0.014 A 
ENDBRANCH  11  15
ENDBRANCH   2   5
BRANCH   2  22
HETATM   22  S1  UNL     1       3.997  -0.903   0.572  1.00  0.00     0.077 S 
HETATM   23  O1  UNL     1       3.733  -0.718   2.016  1.00  0.00    -0.243 OA
BRANCH  22  24
HETATM   24  N2  UNL     1       4.081  -2.407   0.260  1.00  0.00    -0.355 N 
ATOM     25  H22 UNL     1       3.487  -2.827  -0.455  1.00  0.00     0.166 HD
ATOM     26  H21 UNL     1       4.755  -2.946   0.803  1.00  0.00     0.166 HD
ENDBRANCH  22  24
BRANCH  22  27
HETATM   27  C20 UNL     1       5.614  -0.202   0.191  1.00  0.00     0.047 A 
HETATM   28  C21 UNL     1       6.178   0.787   0.928  1.00  0.00     0.029 A 
HETATM   29  C22 UNL     1       7.405   1.244   0.543  1.00  0.00     0.051 A 
HETATM   30  S2  UNL     1       7.752   0.293  -0.830  1.00  0.00    -0.112 SA
HETATM   31  C23 UNL     1       6.338  -0.651  -0.877  1.00  0.00     0.071 A 
ENDBRANCH  22  27
ENDBRANCH   2  22
TORSDOF 5
