REMARK  5 active torsions:
REMARK  status: ('A' for Active; 'I' for Inactive)
REMARK    1  A    between atoms: N1_10  and  N2_12 
REMARK    2  A    between atoms: C18_23  and  C19_24 
REMARK    3  A    between atoms: C19_24  and  O1_25 
REMARK    4  A    between atoms: O1_25  and  C20_26 
REMARK    5  A    between atoms: C23_29  and  C24_30 
ROOT
HETATM    1  C1  UNL     1      -1.742  -0.217  -1.936  1.00  0.00     0.016 C 
HETATM    2  C2  UNL     1      -1.048   0.611  -0.870  1.00  0.00    -0.034 C 
HETATM    3  C3  UNL     1      -0.591  -0.246   0.279  1.00  0.00     0.010 C 
HETATM    4  C4  UNL     1       0.456  -1.247  -0.042  1.00  0.00     0.006 C 
HETATM    5  C5  UNL     1       1.682  -0.686  -0.690  1.00  0.00    -0.006 C 
HETATM    6  C6  UNL     1       2.719  -0.142   0.266  1.00  0.00    -0.005 C 
HETATM    7  C7  UNL     1       3.018  -1.092   1.377  1.00  0.00     0.011 C 
HETATM    8  C8  UNL     1       4.349  -0.690   2.043  1.00  0.00     0.054 C 
HETATM    9  C9  UNL     1       5.437  -0.843   1.068  1.00  0.00     0.003 C 
HETATM   10  N1  UNL     1       6.647  -0.910   1.412  1.00  0.00    -0.315 N 
ATOM     11  H1  UNL     1       7.316  -1.017   0.649  1.00  0.00     0.185 HD
HETATM   12  C10 UNL     1       5.050  -0.918  -0.349  1.00  0.00     0.059 C 
HETATM   13  C11 UNL     1       3.965   0.150  -0.515  1.00  0.00    -0.005 C 
HETATM   14  C12 UNL     1       3.712   0.235  -2.005  1.00  0.00     0.006 C 
HETATM   15  C13 UNL     1       2.507   1.148  -2.174  1.00  0.00     0.006 C 
HETATM   16  C14 UNL     1       1.306   0.294  -1.751  1.00  0.00    -0.005 C 
HETATM   17  C15 UNL     1       0.172   1.182  -1.539  1.00  0.00    -0.002 C 
HETATM   18  C16 UNL     1       0.392   2.507  -0.882  1.00  0.00     0.006 C 
HETATM   19  C17 UNL     1      -1.078   3.022  -0.947  1.00  0.00     0.008 C 
HETATM   20  C18 UNL     1      -1.801   1.782  -0.392  1.00  0.00     0.018 C 
ENDROOT
BRANCH  20  21
HETATM   21  C19 UNL     1      -3.260   1.882  -0.653  1.00  0.00     0.181 C 
BRANCH  21  22
HETATM   22  O1  UNL     1      -4.047   0.978  -0.137  1.00  0.00    -0.349 OA
BRANCH  22  23
HETATM   23  C20 UNL     1      -4.821   0.090   0.368  1.00  0.00     0.090 A 
HETATM   24  C21 UNL     1      -4.788  -1.290   0.131  1.00  0.00     0.039 A 
HETATM   25  C22 UNL     1      -5.678  -2.144   0.740  1.00  0.00     0.017 A 
HETATM   26  C23 UNL     1      -6.643  -1.706   1.607  1.00  0.00     0.003 A 
HETATM   27  C25 UNL     1      -6.710  -0.356   1.868  1.00  0.00     0.041 A 
HETATM   28  C26 UNL     1      -5.833   0.501   1.271  1.00  0.00     0.068 A 
HETATM   29 CL1  UNL     1      -5.936   2.208   1.617  1.00  0.00    -0.081 Cl
BRANCH  26  30
HETATM   30  C24 UNL     1      -7.577  -2.606   2.247  1.00  0.00     0.269 C 
HETATM   31  O2  UNL     1      -7.503  -3.831   2.004  1.00  0.00    -0.301 OA
ENDBRANCH  26  30
ENDBRANCH  22  23
ENDBRANCH  21  22
ENDBRANCH  20  21
BRANCH  10  32
HETATM   32  N2  UNL     1       7.190  -0.859   2.673  1.00  0.00    -0.345 N 
ATOM     33  H22 UNL     1       6.506  -0.752   3.422  1.00  0.00     0.176 HD
ATOM     34  H21 UNL     1       8.170  -0.913   2.952  1.00  0.00     0.176 HD
ENDBRANCH  10  32
TORSDOF 5
