REMARK  5 active torsions:
REMARK  status: ('A' for Active; 'I' for Inactive)
REMARK    1  A    between atoms: C3_5  and  C4_6 
REMARK    2  A    between atoms: N1_11  and  C8_12 
REMARK    3  A    between atoms: C8_12  and  C9_13 
REMARK    4  A    between atoms: C13_19  and  N3_20 
REMARK    5  A    between atoms: N3_20  and  C14_22 
ROOT
HETATM    1  C9  UNL     1      -1.426  -0.976  -0.717  1.00  0.00    -0.039 A 
HETATM    2  C10 UNL     1      -0.538  -0.965  -1.768  1.00  0.00     0.011 A 
HETATM    3  C11 UNL     1       0.785  -0.700  -1.666  1.00  0.00     0.031 A 
HETATM    4  C12 UNL     1       1.351  -0.405  -0.402  1.00  0.00     0.051 A 
HETATM    5  N2  UNL     1       2.619  -0.130  -0.163  1.00  0.00    -0.335 N 
ATOM      6  H2  UNL     1       3.302  -0.114  -0.920  1.00  0.00     0.168 HD
HETATM    7  C13 UNL     1       2.985   0.126   1.092  1.00  0.00     0.150 A 
HETATM    8  S2  UNL     1       1.527  -0.019   1.961  1.00  0.00    -0.052 SA
HETATM    9  C20 UNL     1       0.494  -0.408   0.659  1.00  0.00     0.035 A 
HETATM   10  C21 UNL     1      -0.880  -0.689   0.517  1.00  0.00     0.030 A 
ENDROOT
BRANCH   1  11
HETATM   11  C8  UNL     1      -2.859  -1.263  -0.827  1.00  0.00     0.166 C 
BRANCH  11  12
HETATM   12  N1  UNL     1      -3.541  -1.162   0.457  1.00  0.00    -0.328 N 
HETATM   13  C1  UNL     1      -3.740  -2.251   1.326  1.00  0.00     0.230 C 
HETATM   14  O1  UNL     1      -2.882  -3.172   1.591  1.00  0.00    -0.272 OA
HETATM   15  C2  UNL     1      -5.079  -2.293   1.969  1.00  0.00     0.179 C 
HETATM   16  S1  UNL     1      -5.691  -0.601   1.613  1.00  0.00    -0.128 SA
HETATM   17  C3  UNL     1      -4.084   0.068   1.011  1.00  0.00     0.207 C 
BRANCH  17  18
HETATM   18  C4  UNL     1      -4.276   1.155   0.073  1.00  0.00     0.085 A 
HETATM   19  C5  UNL     1      -5.423   1.901  -0.046  1.00  0.00     0.037 A 
HETATM   20  C6  UNL     1      -5.191   2.823  -1.043  1.00  0.00     0.027 A 
HETATM   21  C7  UNL     1      -3.907   2.587  -1.480  1.00  0.00     0.142 A 
HETATM   22  O2  UNL     1      -3.430   1.608  -0.795  1.00  0.00    -0.324 OA
ENDBRANCH  17  18
ENDBRANCH  11  12
ENDBRANCH   1  11
BRANCH   7  23
HETATM   23  N3  UNL     1       4.194   0.419   1.529  1.00  0.00    -0.337 N 
ATOM     24  H3  UNL     1       4.329   0.592   2.525  1.00  0.00     0.168 HD
BRANCH  23  25
HETATM   25  C14 UNL     1       5.296   0.500   0.674  1.00  0.00     0.034 A 
HETATM   26  C15 UNL     1       6.284  -0.461   0.721  1.00  0.00     0.031 A 
HETATM   27  C16 UNL     1       7.374  -0.378  -0.127  1.00  0.00     0.026 A 
HETATM   28  C17 UNL     1       7.475   0.679  -1.032  1.00  0.00     0.034 A 
HETATM   29 CL1  UNL     1       8.880   0.718  -2.072  1.00  0.00    -0.084 Cl
HETATM   30  C18 UNL     1       6.494   1.643  -1.087  1.00  0.00     0.026 A 
HETATM   31  C19 UNL     1       5.412   1.534  -0.224  1.00  0.00     0.031 A 
ENDBRANCH  23  25
ENDBRANCH   7  23
TORSDOF 5
