REMARK  3 active torsions:
REMARK  status: ('A' for Active; 'I' for Inactive)
REMARK    1  A    between atoms: C2_2  and  N1_3 
REMARK    2  A    between atoms: C2_2  and  C3_7 
REMARK    3  A    between atoms: C3_7  and  N2_8 
ROOT
HETATM    1  C3  UNL     1      -0.221  -0.296   0.179  1.00  0.00     0.151 C 
HETATM    2  C4  UNL     1       0.571   0.184   1.316  1.00  0.00     0.041 C 
HETATM    3  C5  UNL     1       1.946   0.682   1.065  1.00  0.00     0.002 C 
HETATM    4  C6  UNL     1       2.594   0.141  -0.174  1.00  0.00     0.000 C 
HETATM    5  C7  UNL     1       1.652   0.473  -1.310  1.00  0.00     0.002 C 
HETATM    6  C8  UNL     1       0.479  -0.465  -1.123  1.00  0.00     0.041 C 
ENDROOT
BRANCH   1   7
HETATM    7  C2  UNL     1      -1.478   0.563  -0.035  1.00  0.00     0.215 C 
HETATM    8  C1  UNL     1      -2.332   0.009  -1.147  1.00  0.00     0.042 C 
BRANCH   7   9
HETATM    9  N1  UNL     1      -2.293   0.476   1.186  1.00  0.00    -0.073 N 
ATOM     10  H13 UNL     1      -3.200   0.935   1.103  1.00  0.00     0.274 HD
ATOM     11  H12 UNL     1      -2.646  -0.463   1.373  1.00  0.00     0.274 HD
ATOM     12  H11 UNL     1      -1.715   0.851   1.938  1.00  0.00     0.274 HD
ENDBRANCH   7   9
ENDBRANCH   1   7
BRANCH   1  13
HETATM   13  N2  UNL     1      -0.771  -1.624   0.521  1.00  0.00    -0.068 N 
ATOM     14  H23 UNL     1      -1.423  -1.624   1.306  1.00  0.00     0.275 HD
ATOM     15  H22 UNL     1      -1.429  -1.999  -0.162  1.00  0.00     0.275 HD
ATOM     16  H21 UNL     1       0.063  -2.194   0.663  1.00  0.00     0.275 HD
ENDBRANCH   1  13
TORSDOF 3
