REMARK  3 active torsions:
REMARK  status: ('A' for Active; 'I' for Inactive)
REMARK    1  A    between atoms: C2_3  and  N2_4 
REMARK    2  A    between atoms: C2_3  and  N3_8 
REMARK    3  A    between atoms: N3_8  and  C3_10 
ROOT
HETATM    1  N1  UNL     1      -3.352  -1.711   0.666  1.00  0.00    -0.193 NA
HETATM    2  C1  UNL     1      -2.829  -0.682   0.558  1.00  0.00     0.113 C 
HETATM    3  C2  UNL     1      -2.182   0.619   0.406  1.00  0.00     0.385 C 
ENDROOT
BRANCH   3   4
HETATM    4  N2  UNL     1      -2.416   1.196  -0.893  1.00  0.00    -0.046 N 
ATOM      5  H23 UNL     1      -2.136   0.556  -1.636  1.00  0.00     0.278 HD
ATOM      6  H22 UNL     1      -3.414   1.255  -1.096  1.00  0.00     0.278 HD
ATOM      7  H21 UNL     1      -1.964   2.104  -0.999  1.00  0.00     0.278 HD
ENDBRANCH   3   4
BRANCH   3   8
HETATM    8  N3  UNL     1      -0.835   0.660   0.860  1.00  0.00    -0.381 N 
ATOM      9  H3  UNL     1      -0.555   1.271   1.627  1.00  0.00     0.156 HD
BRANCH   8  10
HETATM   10  C3  UNL     1       0.110  -0.181   0.207  1.00  0.00     0.079 C 
HETATM   11  C4  UNL     1       1.287  -0.533   1.124  1.00  0.00     0.025 C 
HETATM   12  C5  UNL     1       2.539  -0.420   0.288  1.00  0.00     0.002 C 
HETATM   13  C6  UNL     1       2.005  -0.446  -1.123  1.00  0.00     0.002 C 
HETATM   14  C7  UNL     1       0.792   0.480  -0.971  1.00  0.00     0.025 C 
ENDBRANCH   8  10
ENDBRANCH   3   8
TORSDOF 3
