REMARK  1 active torsions:
REMARK  status: ('A' for Active; 'I' for Inactive)
REMARK    1  A    between atoms: C2_2  and  C3_3 
ROOT
HETATM    1  C3  UNL     1       0.706   0.589   0.658  1.00  0.00     0.175 C 
HETATM    2  N1  UNL     1       0.178   0.726  -0.635  1.00  0.00    -0.381 N 
ATOM      3  H1  UNL     1       0.769   0.606  -1.458  1.00  0.00     0.160 HD
HETATM    4  C4  UNL     1      -1.182   1.032  -0.764  1.00  0.00     0.062 C 
HETATM    5  C5  UNL     1      -2.016  -0.211  -0.530  1.00  0.00     0.027 C 
HETATM    6  C6  UNL     1      -1.090  -1.383  -0.180  1.00  0.00     0.034 C 
HETATM    7  C7  UNL     1      -1.110  -0.912   1.227  1.00  0.00     0.080 C 
HETATM    8  C8  UNL     1      -2.467  -0.259   0.937  1.00  0.00     0.034 C 
HETATM    9  N2  UNL     1      -0.126  -0.017   1.638  1.00  0.00    -0.397 N 
ATOM     10  H2  UNL     1      -0.004   0.200   2.627  1.00  0.00     0.155 HD
ENDROOT
BRANCH   1  11
HETATM   11  C2  UNL     1       2.040  -0.124   0.657  1.00  0.00     0.042 C 
HETATM   12  C1  UNL     1       3.079   0.601  -0.154  1.00  0.00     0.009 C 
ENDBRANCH   1  11
TORSDOF 1
