REMARK  3 active torsions:
REMARK  status: ('A' for Active; 'I' for Inactive)
REMARK    1  A    between atoms: C10_12  and  O3_13 
REMARK    2  A    between atoms: C15_19  and  C16_20 
REMARK    3  A    between atoms: C16_20  and  O5_22 
ROOT
HETATM    1  C1  UNL     1       4.876  -0.622  -0.582  1.00  0.00     0.025 C 
HETATM    2  C2  UNL     1       3.836  -1.422  -0.524  1.00  0.00     0.014 C 
HETATM    3  C3  UNL     1       3.867  -2.871  -0.361  1.00  0.00     0.289 C 
HETATM    4  O1  UNL     1       4.905  -3.610  -0.332  1.00  0.00    -0.260 OA
HETATM    5  O2  UNL     1       2.536  -3.334  -0.238  1.00  0.00    -0.311 OA
HETATM    6  C4  UNL     1       1.841  -2.218   0.289  1.00  0.00     0.141 C 
HETATM    7  C5  UNL     1       0.368  -2.250   0.047  1.00  0.00     0.038 C 
HETATM    8  C6  UNL     1      -0.323  -1.407   1.049  1.00  0.00    -0.002 C 
HETATM    9  C7  UNL     1      -1.816  -1.239   0.855  1.00  0.00    -0.001 C 
HETATM   10  C8  UNL     1      -2.363  -1.593  -0.481  1.00  0.00     0.008 C 
HETATM   11  C9  UNL     1      -3.631  -0.769  -0.696  1.00  0.00     0.037 C 
HETATM   12  C10 UNL     1      -3.109   0.650  -0.989  1.00  0.00     0.146 C 
HETATM   13  C11 UNL     1      -2.453   1.101   0.292  1.00  0.00    -0.056 C 
HETATM   14  C12 UNL     1      -2.698   2.339   0.666  1.00  0.00     0.017 C 
HETATM   15  C13 UNL     1      -1.604   0.236   1.095  1.00  0.00     0.026 C 
HETATM   16  C14 UNL     1      -0.169   0.081   0.888  1.00  0.00     0.012 C 
HETATM   17  C15 UNL     1       0.545   0.472  -0.340  1.00  0.00     0.091 C 
HETATM   18  C18 UNL     1       2.047   0.242  -0.080  1.00  0.00     0.027 C 
HETATM   19  C19 UNL     1       2.396  -1.096  -0.603  1.00  0.00     0.054 C 
ENDROOT
BRANCH  17  20
HETATM   20  C16 UNL     1       0.464   1.925  -0.631  1.00  0.00     0.263 C 
HETATM   21  O4  UNL     1       0.009   2.382  -1.731  1.00  0.00    -0.265 OA
BRANCH  20  22
HETATM   22  O5  UNL     1       0.886   2.880   0.292  1.00  0.00    -0.326 OA
HETATM   23  C17 UNL     1       0.817   4.271   0.032  1.00  0.00     0.213 C 
ENDBRANCH  20  22
ENDBRANCH  17  20
BRANCH  12  24
HETATM   24  O3  UNL     1      -4.203   1.408  -1.314  1.00  0.00    -0.391 OA
ATOM     25  H3  UNL     1      -3.881   2.283  -1.495  1.00  0.00     0.210 HD
ENDBRANCH  12  24
TORSDOF 3
