REMARK  2 active torsions:
REMARK  status: ('A' for Active; 'I' for Inactive)
REMARK    1  A    between atoms: C6_6  and  N1_7 
REMARK       I    between atoms: N1_7  and  C7_9 
REMARK    2  A    between atoms: C7_9  and  C8_11 
ROOT
HETATM    1  C1  UNL     1       7.847  -0.859  -0.982  1.00  0.00     0.018 C 
HETATM    2  C2  UNL     1       6.673  -0.671  -0.723  1.00  0.00    -0.078 C 
HETATM    3  C3  UNL     1       5.286  -0.471  -0.430  1.00  0.00     0.017 A 
HETATM    4  C4  UNL     1       4.919   0.650   0.284  1.00  0.00     0.023 A 
HETATM    5  C5  UNL     1       3.605   0.907   0.601  1.00  0.00     0.031 A 
HETATM    6  C6  UNL     1       2.593   0.015   0.195  1.00  0.00     0.034 A 
HETATM    7  C15 UNL     1       2.983  -1.082  -0.508  1.00  0.00     0.031 A 
HETATM    8  C16 UNL     1       4.313  -1.353  -0.836  1.00  0.00     0.023 A 
ENDROOT
BRANCH   6   9
HETATM    9  N1  UNL     1       1.263   0.323   0.544  1.00  0.00    -0.324 N 
HETATM   10  C7  UNL     1       0.094  -0.401   0.258  1.00  0.00     0.269 C 
HETATM   11  O1  UNL     1       0.065  -1.477  -0.380  1.00  0.00    -0.269 OA
ATOM     12  H1  UNL     1       1.132   1.185   1.074  1.00  0.00     0.169 HD
BRANCH  10  13
HETATM   13  C8  UNL     1      -1.237   0.109   0.727  1.00  0.00     0.370 C 
HETATM   14  O2  UNL     1      -2.275  -0.757   0.339  1.00  0.00    -0.316 OA
HETATM   15  C9  UNL     1      -3.595  -0.388   0.183  1.00  0.00     0.106 A 
HETATM   16  C10 UNL     1      -4.551  -1.408   0.042  1.00  0.00     0.040 A 
HETATM   17  C14 UNL     1      -4.065   0.905   0.153  1.00  0.00     0.122 A 
HETATM   18  C11 UNL     1      -5.887  -1.127  -0.118  1.00  0.00     0.003 A 
HETATM   19  C12 UNL     1      -6.356   0.168  -0.147  1.00  0.00     0.003 A 
HETATM   20  C13 UNL     1      -5.424   1.169  -0.010  1.00  0.00     0.041 A 
HETATM   21  O3  UNL     1      -3.218   2.000   0.282  1.00  0.00    -0.228 OA
HETATM   22  S1  UNL     1      -1.564   1.711   0.011  1.00  0.00     0.307 S 
HETATM   23  O4  UNL     1      -0.769   2.789   0.636  1.00  0.00    -0.195 OA
HETATM   24  O5  UNL     1      -1.327   1.588  -1.471  1.00  0.00    -0.195 OA
ENDBRANCH  10  13
ENDBRANCH   6   9
TORSDOF 2
