REMARK  5 active torsions:
REMARK  status: ('A' for Active; 'I' for Inactive)
REMARK    1  A    between atoms: C3_4  and  C4_5 
REMARK    2  A    between atoms: C5_6  and  C6_7 
REMARK    3  A    between atoms: C6_7  and  O1_8 
REMARK    4  A    between atoms: C6_7  and  C7_10 
REMARK    5  A    between atoms: C13_18  and  C14_19 
ROOT
HETATM    1  C14 UNL     1      -2.790   0.058  -0.103  1.00  0.00    -0.006 A 
HETATM    2  C15 UNL     1      -2.575   1.342  -0.564  1.00  0.00     0.015 A 
HETATM    3  C16 UNL     1      -3.512   2.337  -0.322  1.00  0.00     0.025 A 
HETATM    4  C17 UNL     1      -4.659   2.064   0.375  1.00  0.00     0.068 A 
HETATM    5  C18 UNL     1      -5.658   3.088   0.642  1.00  0.00     0.101 C 
HETATM    6  N2  UNL     1      -6.449   3.900   0.868  1.00  0.00    -0.191 NA
HETATM    7  C19 UNL     1      -4.851   0.773   0.825  1.00  0.00     0.068 A 
HETATM    8  N3  UNL     1      -6.025   0.434   1.553  1.00  0.00    -0.101 NA
HETATM    9  C20 UNL     1      -3.921  -0.239   0.591  1.00  0.00     0.042 A 
ENDROOT
BRANCH   1  10
HETATM   10  C13 UNL     1      -1.780  -1.011  -0.361  1.00  0.00     0.056 A 
HETATM   11  C2  UNL     1      -2.136  -2.261  -0.806  1.00  0.00     0.009 A 
HETATM   12  C1  UNL     1      -3.512  -2.785  -1.106  1.00  0.00     0.059 C 
HETATM   13  S1  UNL     1      -0.614  -3.033  -0.922  1.00  0.00    -0.066 SA
HETATM   14  C3  UNL     1       0.370  -1.741  -0.407  1.00  0.00     0.130 A 
HETATM   15  N1  UNL     1      -0.510  -0.788  -0.173  1.00  0.00    -0.342 N 
ATOM     16  H1  UNL     1      -0.196   0.125   0.156  1.00  0.00     0.167 HD
BRANCH  14  17
HETATM   17  C4  UNL     1       1.818  -1.658  -0.249  1.00  0.00    -0.038 C 
HETATM   18  C5  UNL     1       3.010  -1.611  -0.125  1.00  0.00    -0.062 C 
BRANCH  18  19
HETATM   19  C6  UNL     1       4.471  -1.578   0.025  1.00  0.00     0.230 C 
BRANCH  19  20
HETATM   20  O1  UNL     1       5.110  -1.914  -1.189  1.00  0.00    -0.379 OA
ATOM     21  H1  UNL     1       6.055  -1.893  -1.092  1.00  0.00     0.211 HD
ENDBRANCH  19  20
BRANCH  19  22
HETATM   22  C7  UNL     1       4.864  -0.210   0.355  1.00  0.00    -0.018 A 
HETATM   23  C8  UNL     1       4.867   0.779  -0.593  1.00  0.00     0.011 A 
HETATM   24  C9  UNL     1       5.248   2.065  -0.232  1.00  0.00     0.001 A 
HETATM   25  C10 UNL     1       5.623   2.381   1.045  1.00  0.00     0.000 A 
HETATM   26  C11 UNL     1       5.613   1.375   1.980  1.00  0.00     0.001 A 
HETATM   27  C12 UNL     1       5.237   0.089   1.641  1.00  0.00     0.011 A 
ENDBRANCH  19  22
ENDBRANCH  18  19
ENDBRANCH  14  17
ENDBRANCH   1  10
TORSDOF 5
