REMARK  2 active torsions:
REMARK  status: ('A' for Active; 'I' for Inactive)
REMARK    1  A    between atoms: C3_4  and  C4_5 
REMARK    2  A    between atoms: C9_11  and  C10_12 
ROOT
HETATM    1  N1  UNL     1      -5.298  -1.069  -2.036  1.00  0.00    -0.191 NA
HETATM    2  C1  UNL     1      -4.203  -0.924  -1.766  1.00  0.00     0.104 C 
HETATM    3  C2  UNL     1      -2.822  -0.792  -1.428  1.00  0.00     0.099 A 
HETATM    4  C3  UNL     1      -2.376  -0.023  -0.416  1.00  0.00     0.008 A 
HETATM    5  C8  UNL     1      -1.006  -0.049  -0.139  1.00  0.00     0.045 A 
HETATM    6  C9  UNL     1      -0.092  -0.817  -0.847  1.00  0.00     0.051 A 
HETATM    7  N2  UNL     1      -0.604  -1.552  -1.840  1.00  0.00    -0.341 N 
ATOM      8  H2  UNL     1       0.034  -2.129  -2.388  1.00  0.00     0.167 HD
HETATM    9  C19 UNL     1      -1.923  -1.575  -2.161  1.00  0.00     0.121 A 
HETATM   10  N3  UNL     1      -2.323  -2.317  -3.135  1.00  0.00    -0.384 N 
ATOM     11  H31 UNL     1      -1.668  -2.888  -3.669  1.00  0.00     0.157 HD
ATOM     12  H32 UNL     1      -3.314  -2.334  -3.376  1.00  0.00     0.157 HD
ENDROOT
BRANCH   4  13
HETATM   13  C4  UNL     1      -3.212   0.906   0.367  1.00  0.00     0.016 A 
HETATM   14  C5  UNL     1      -4.392   1.530   0.155  1.00  0.00     0.020 A 
HETATM   15  C6  UNL     1      -4.840   2.386   1.091  1.00  0.00     0.008 A 
HETATM   16  C7  UNL     1      -4.077   2.576   2.201  1.00  0.00     0.050 A 
HETATM   17  S1  UNL     1      -2.750   1.560   1.922  1.00  0.00    -0.101 SA
ENDBRANCH   4  13
BRANCH   6  18
HETATM   18  C10 UNL     1       1.310  -0.839  -0.489  1.00  0.00     0.067 A 
HETATM   19  C11 UNL     1       1.763   0.148   0.398  1.00  0.00     0.034 A 
HETATM   20  C12 UNL     1       3.093   0.107   0.773  1.00  0.00    -0.001 A 
HETATM   21  C13 UNL     1       3.593   1.075   1.661  1.00  0.00     0.014 A 
HETATM   22  C17 UNL     1       3.909  -0.879   0.273  1.00  0.00     0.089 A 
HETATM   23  C14 UNL     1       4.907   1.062   2.051  1.00  0.00     0.001 A 
HETATM   24  C15 UNL     1       5.735   0.081   1.559  1.00  0.00     0.003 A 
HETATM   25  C16 UNL     1       5.238  -0.863   0.690  1.00  0.00     0.038 A 
HETATM   26  O1  UNL     1       3.476  -1.796  -0.555  1.00  0.00    -0.274 OA
HETATM   27  C18 UNL     1       2.191  -1.786  -0.939  1.00  0.00     0.300 A 
HETATM   28  O2  UNL     1       1.869  -2.709  -1.734  1.00  0.00    -0.259 OA
ENDBRANCH   6  18
TORSDOF 2
