REMARK  3 active torsions:
REMARK  status: ('A' for Active; 'I' for Inactive)
REMARK    1  A    between atoms: C4_7  and  N3_8 
REMARK    2  A    between atoms: N3_8  and  C5_10 
REMARK    3  A    between atoms: C13_23  and  C14_24 
ROOT
HETATM    1  N1  UNL     1       4.286  -0.449   4.225  1.00  0.00    -0.190 NA
HETATM    2  C1  UNL     1       3.476  -0.394   3.403  1.00  0.00     0.118 C 
HETATM    3  C2  UNL     1       2.468  -0.306   2.356  1.00  0.00     0.128 A 
HETATM    4  N2  UNL     1       1.159  -0.535   2.536  1.00  0.00    -0.341 N 
ATOM      5  H2  UNL     1       0.738  -0.795   3.428  1.00  0.00     0.167 HD
HETATM    6  C3  UNL     1       0.472  -0.379   1.392  1.00  0.00     0.117 A 
HETATM    7  C4  UNL     1      -0.750  -0.413   0.756  1.00  0.00     0.156 A 
HETATM    8  N4  UNL     1      -0.502  -0.092  -0.521  1.00  0.00    -0.242 N 
ATOM      9  H4  UNL     1      -1.204  -0.029  -1.259  1.00  0.00     0.196 HD
HETATM   10  O3  UNL     1       0.771   0.127  -0.676  1.00  0.00    -0.233 OA
HETATM   11  C12 UNL     1       1.436  -0.026   0.440  1.00  0.00     0.143 A 
HETATM   12  C13 UNL     1       2.679   0.021   1.033  1.00  0.00     0.050 A 
ENDROOT
BRANCH  12  13
HETATM   13  C14 UNL     1       3.935   0.348   0.373  1.00  0.00    -0.020 A 
HETATM   14  C15 UNL     1       4.818  -0.633  -0.078  1.00  0.00     0.012 A 
HETATM   15  C16 UNL     1       5.996  -0.318  -0.697  1.00  0.00     0.001 A 
HETATM   16  C17 UNL     1       6.327   1.021  -0.884  1.00  0.00     0.000 A 
HETATM   17  C18 UNL     1       5.471   2.013  -0.447  1.00  0.00     0.001 A 
HETATM   18  C19 UNL     1       4.288   1.677   0.175  1.00  0.00     0.012 A 
ENDBRANCH  12  13
BRANCH   7  19
HETATM   19  N3  UNL     1      -1.883  -0.695   1.284  1.00  0.00    -0.339 N 
ATOM     20  H3  UNL     1      -1.905  -0.920   2.279  1.00  0.00     0.167 HD
BRANCH  19  21
HETATM   21  C5  UNL     1      -3.102  -0.713   0.575  1.00  0.00     0.036 A 
HETATM   22  C6  UNL     1      -3.613  -1.891   0.040  1.00  0.00     0.032 A 
HETATM   23  C7  UNL     1      -4.811  -1.904  -0.657  1.00  0.00     0.042 A 
HETATM   24  C8  UNL     1      -5.525  -0.742  -0.837  1.00  0.00     0.105 A 
HETATM   25  C9  UNL     1      -5.050   0.442  -0.321  1.00  0.00     0.107 A 
HETATM   26  O2  UNL     1      -6.732  -0.437  -1.476  1.00  0.00    -0.323 OA
HETATM   27  C10 UNL     1      -3.841   0.432   0.378  1.00  0.00     0.069 A 
HETATM   28  O1  UNL     1      -5.953   1.446  -0.642  1.00  0.00    -0.323 OA
HETATM   29  C11 UNL     1      -6.880   0.964  -1.597  1.00  0.00     0.352 C 
ENDBRANCH  19  21
ENDBRANCH   7  19
TORSDOF 3
