REMARK  4 active torsions:
REMARK  status: ('A' for Active; 'I' for Inactive)
REMARK       I    between atoms: C1_2  and  N2_4 
REMARK    1  A    between atoms: N2_4  and  S1_6 
REMARK    2  A    between atoms: S1_6  and  C2_9 
REMARK    3  A    between atoms: C7_14  and  C8_15 
REMARK       I    between atoms: C8_15  and  N3_17 
REMARK    4  A    between atoms: N3_17  and  C9_19 
ROOT
HETATM    1  C8  UNL     1       0.896   0.293  -0.240  1.00  0.00     0.257 C 
HETATM    2  O4  UNL     1       1.340   1.082  -1.075  1.00  0.00    -0.267 OA
HETATM    3  N3  UNL     1      -0.470   0.510   0.147  1.00  0.00    -0.322 N 
ATOM      4  H3  UNL     1      -0.657   1.145   0.923  1.00  0.00     0.169 HD
ENDROOT
BRANCH   1   5
HETATM    5  C7  UNL     1       1.603  -0.804   0.374  1.00  0.00     0.055 A 
HETATM    6  C2  UNL     1       2.931  -1.074   0.145  1.00  0.00     0.095 A 
HETATM    7  C3  UNL     1       3.539  -2.173   0.760  1.00  0.00     0.026 A 
HETATM    8  C4  UNL     1       2.840  -3.007   1.603  1.00  0.00     0.002 A 
HETATM    9  C5  UNL     1       1.515  -2.754   1.846  1.00  0.00     0.001 A 
HETATM   10  C6  UNL     1       0.930  -1.683   1.243  1.00  0.00     0.018 A 
BRANCH   6  11
HETATM   11  S1  UNL     1       3.909  -0.079  -0.871  1.00  0.00     0.267 S 
HETATM   12  O2  UNL     1       5.337  -0.640  -0.850  1.00  0.00    -0.200 OA
HETATM   13  O3  UNL     1       3.526  -0.134  -2.328  1.00  0.00    -0.200 OA
BRANCH  11  14
HETATM   14  N2  UNL     1       4.068   1.530  -0.282  1.00  0.00    -0.234 N 
HETATM   15  C1  UNL     1       4.834   2.469  -1.001  1.00  0.00     0.342 C 
HETATM   16  N1  UNL     1       4.961   3.795  -0.510  1.00  0.00    -0.039 NA
HETATM   17  O1  UNL     1       5.427   2.195  -2.078  1.00  0.00    -0.250 OA
ATOM     18  H2  UNL     1       3.608   1.804   0.586  1.00  0.00     0.183 HD
ENDBRANCH  11  14
ENDBRANCH   6  11
ENDBRANCH   1   5
BRANCH   3  19
HETATM   19  C9  UNL     1      -1.452  -0.043  -0.421  1.00  0.00     0.046 A 
HETATM   20  C10 UNL     1      -1.284  -0.910  -1.473  1.00  0.00     0.030 A 
HETATM   21  C11 UNL     1      -2.390  -1.510  -2.086  1.00  0.00     0.003 A 
HETATM   22  C12 UNL     1      -3.679  -1.269  -1.677  1.00  0.00     0.012 A 
HETATM   23  C13 UNL     1      -3.897  -0.411  -0.631  1.00  0.00    -0.024 A 
HETATM   24  C14 UNL     1      -5.215  -0.233  -0.294  1.00  0.00     0.012 C 
HETATM   25  C19 UNL     1      -2.734   0.212   0.005  1.00  0.00     0.001 A 
HETATM   26  C15 UNL     1      -5.857   0.690   0.501  1.00  0.00     0.001 C 
HETATM   27  C16 UNL     1      -5.214   1.495   1.435  1.00  0.00     0.000 C 
HETATM   28  C17 UNL     1      -3.865   1.561   1.751  1.00  0.00     0.001 C 
HETATM   29  C18 UNL     1      -2.782   1.101   1.071  1.00  0.00     0.014 C 
ENDBRANCH   3  19
TORSDOF 4
