REMARK  5 active torsions:
REMARK  status: ('A' for Active; 'I' for Inactive)
REMARK    1  A    between atoms: C3_4  and  C4_5 
REMARK    2  A    between atoms: C9_10  and  S1_11 
REMARK    3  A    between atoms: S1_11  and  N2_12 
REMARK    4  A    between atoms: C16_23  and  S2_24 
REMARK    5  A    between atoms: S2_24  and  N3_25 
ROOT
HETATM    1  C4  UNL     1       0.498   0.618  -0.090  1.00  0.00    -0.013 A 
HETATM    2  C5  UNL     1       0.766   1.987  -0.120  1.00  0.00     0.013 A 
HETATM    3  C6  UNL     1       2.060   2.419  -0.304  1.00  0.00     0.002 A 
HETATM    4  C7  UNL     1       3.052   1.492  -0.452  1.00  0.00     0.014 A 
HETATM    5  C8  UNL     1       2.806   0.132  -0.426  1.00  0.00    -0.002 A 
HETATM    6  C9  UNL     1       3.805  -0.796  -0.588  1.00  0.00     0.090 A 
HETATM    7  C10 UNL     1       3.504  -2.150  -0.568  1.00  0.00     0.026 A 
HETATM    8  C11 UNL     1       2.220  -2.598  -0.389  1.00  0.00     0.002 A 
HETATM    9  C12 UNL     1       1.217  -1.667  -0.225  1.00  0.00     0.013 A 
HETATM   10  C13 UNL     1       1.483  -0.319  -0.239  1.00  0.00    -0.013 A 
ENDROOT
BRANCH   1  11
HETATM   11  C3  UNL     1      -0.902   0.250   0.158  1.00  0.00    -0.009 A 
HETATM   12  C2  UNL     1      -1.871   0.731  -0.731  1.00  0.00     0.103 A 
HETATM   13  N1  UNL     1      -3.167   0.473  -0.548  1.00  0.00    -0.350 N 
HETATM   14  C1  UNL     1      -4.130   0.984  -1.495  1.00  0.00     0.156 C 
HETATM   15  C16 UNL     1      -3.560  -0.250   0.493  1.00  0.00     0.150 A 
HETATM   16  C15 UNL     1      -2.632  -0.759   1.418  1.00  0.00     0.045 A 
HETATM   17  C14 UNL     1      -1.298  -0.501   1.241  1.00  0.00     0.017 A 
BRANCH  15  18
HETATM   18  S2  UNL     1      -5.258  -0.569   0.722  1.00  0.00     0.272 S 
HETATM   19  O3  UNL     1      -5.882  -1.289  -0.433  1.00  0.00    -0.199 OA
HETATM   20  O4  UNL     1      -6.030   0.699   1.073  1.00  0.00    -0.199 OA
BRANCH  18  21
HETATM   21  N3  UNL     1      -5.402  -1.567   2.153  1.00  0.00    -0.323 N 
ATOM     22  H32 UNL     1      -4.629  -1.892   2.733  1.00  0.00     0.169 HD
ATOM     23  H31 UNL     1      -6.396  -1.754   2.287  1.00  0.00     0.169 HD
ENDBRANCH  18  21
ENDBRANCH  15  18
ENDBRANCH   1  11
BRANCH   6  24
HETATM   24  S1  UNL     1       5.447  -0.238  -0.805  1.00  0.00     0.257 S 
HETATM   25  O1  UNL     1       5.531   0.549  -2.076  1.00  0.00    -0.201 OA
HETATM   26  O2  UNL     1       6.328  -1.455  -0.931  1.00  0.00    -0.201 OA
BRANCH  24  27
HETATM   27  N2  UNL     1       5.993   0.659   0.567  1.00  0.00    -0.324 N 
ATOM     28  H22 UNL     1       5.418   0.832   1.391  1.00  0.00     0.169 HD
ATOM     29  H21 UNL     1       6.951   0.985   0.440  1.00  0.00     0.169 HD
ENDBRANCH  24  27
ENDBRANCH   6  24
TORSDOF 5
