REMARK  5 active torsions:
REMARK  status: ('A' for Active; 'I' for Inactive)
REMARK    1  A    between atoms: O1_1  and  C1_3 
REMARK    2  A    between atoms: C1_3  and  N1_4 
REMARK    3  A    between atoms: C1_3  and  C12_26 
REMARK       I    between atoms: N1_4  and  C2_6 
REMARK       I    between atoms: C2_6  and  N2_7 
REMARK       I    between atoms: C2_6  and  N4_17 
REMARK    4  A    between atoms: N4_17  and  C5_19 
REMARK    5  A    between atoms: C5_19  and  C6_20 
ROOT
HETATM    1  N1  UNL     1       0.862  -0.852  -0.011  1.00  0.00    -0.308 N 
ATOM      2  H1  UNL     1       0.340  -1.727   0.031  1.00  0.00     0.171 HD
HETATM    3  C2  UNL     1       0.231  -0.183   0.587  1.00  0.00     0.187 C 
HETATM    4  N2  UNL     1      -0.245   0.927   1.240  1.00  0.00    -0.308 N 
ATOM      5  H2  UNL     1      -0.811   0.668   2.048  1.00  0.00     0.171 HD
HETATM    6  C3  UNL     1      -0.174   2.170   1.114  1.00  0.00     0.157 C 
HETATM    7  N3  UNL     1      -0.827   3.052   2.024  1.00  0.00    -0.263 N 
ATOM      8  H3  UNL     1      -1.585   2.762   2.641  1.00  0.00     0.180 HD
HETATM    9  S1  UNL     1      -0.214   4.637   1.976  1.00  0.00     0.241 S 
HETATM   10  O2  UNL     1       0.870   4.815   3.013  1.00  0.00    -0.205 OA
HETATM   11  O3  UNL     1      -1.317   5.662   2.163  1.00  0.00    -0.205 OA
HETATM   12  C4  UNL     1       0.497   4.773   0.367  1.00  0.00     0.245 C 
HETATM   13  S2  UNL     1       0.713   3.052  -0.136  1.00  0.00    -0.076 SA
HETATM   14  N4  UNL     1      -1.049  -1.195   0.921  1.00  0.00    -0.337 N 
ATOM     15  H4  UNL     1      -1.217  -1.678   1.803  1.00  0.00     0.168 HD
ENDROOT
BRANCH   1  16
HETATM   16  C1  UNL     1       1.938  -1.201  -0.780  1.00  0.00     0.153 C 
BRANCH  16  17
HETATM   17  O1  UNL     1       1.746  -2.294  -1.551  1.00  0.00    -0.345 OA
ATOM     18  H1  UNL     1       2.493  -2.536  -2.085  1.00  0.00     0.219 HD
ENDBRANCH  16  17
BRANCH  16  19
HETATM   19  C12 UNL     1       3.251  -0.654  -0.959  1.00  0.00     0.015 A 
HETATM   20  C13 UNL     1       4.164  -1.230  -1.844  1.00  0.00     0.016 A 
HETATM   21  C14 UNL     1       5.425  -0.728  -2.071  1.00  0.00     0.001 A 
HETATM   22  C15 UNL     1       5.861   0.391  -1.425  1.00  0.00     0.000 A 
HETATM   23  C16 UNL     1       4.988   0.998  -0.532  1.00  0.00     0.001 A 
HETATM   24  C17 UNL     1       3.710   0.472  -0.314  1.00  0.00     0.016 A 
ENDBRANCH  16  19
ENDBRANCH   1  16
BRANCH  14  25
HETATM   25  C5  UNL     1      -1.854  -1.266  -0.222  1.00  0.00     0.102 C 
BRANCH  25  26
HETATM   26  C6  UNL     1      -3.071  -2.070  -0.120  1.00  0.00    -0.021 A 
HETATM   27  C7  UNL     1      -4.275  -1.384   0.120  1.00  0.00     0.013 A 
HETATM   28  C8  UNL     1      -5.454  -2.126   0.210  1.00  0.00     0.001 A 
HETATM   29  C9  UNL     1      -5.451  -3.484   0.072  1.00  0.00     0.000 A 
HETATM   30  C10 UNL     1      -4.249  -4.110  -0.161  1.00  0.00     0.001 A 
HETATM   31  C11 UNL     1      -3.050  -3.441  -0.262  1.00  0.00     0.013 A 
ENDBRANCH  25  26
ENDBRANCH  14  25
TORSDOF 5
