REMARK  4 active torsions:
REMARK  status: ('A' for Active; 'I' for Inactive)
REMARK    1  A    between atoms: O1_2  and  N1_3 
REMARK    2  A    between atoms: C6_9  and  S1_10 
REMARK    3  A    between atoms: S1_10  and  N2_13 
REMARK    4  A    between atoms: N2_13  and  C7_15 
ROOT
HETATM    1  N1  UNL     1      -4.580   1.645   0.727  1.00  0.00    -0.268 N 
ATOM      2  H1  UNL     1      -4.443   1.519   1.730  1.00  0.00     0.194 HD
HETATM    3  C2  UNL     1      -3.789   1.021  -0.121  1.00  0.00     0.081 A 
HETATM    4  C3  UNL     1      -2.714   0.147   0.359  1.00  0.00     0.104 A 
HETATM    5  C4  UNL     1      -1.933  -0.466  -0.728  1.00  0.00    -0.017 A 
HETATM    6  C5  UNL     1      -0.874  -1.325  -0.366  1.00  0.00     0.035 A 
HETATM    7  C6  UNL     1      -0.083  -1.948  -1.287  1.00  0.00     0.080 A 
HETATM    8  C15 UNL     1      -0.370  -1.696  -2.625  1.00  0.00     0.028 A 
HETATM    9  C16 UNL     1      -1.394  -0.864  -3.002  1.00  0.00     0.039 A 
HETATM   10  C17 UNL     1      -2.204  -0.226  -2.048  1.00  0.00     0.084 A 
HETATM   11  O4  UNL     1      -3.224   0.602  -2.478  1.00  0.00    -0.297 OA
HETATM   12  C18 UNL     1      -4.018   1.227  -1.543  1.00  0.00     0.167 A 
HETATM   13  S2  UNL     1      -5.253   2.230  -1.999  1.00  0.00    -0.050 SA
ENDROOT
BRANCH   7  14
HETATM   14  S1  UNL     1       1.231  -3.010  -0.871  1.00  0.00     0.263 S 
HETATM   15  O2  UNL     1       1.335  -4.084  -1.938  1.00  0.00    -0.200 OA
HETATM   16  O3  UNL     1       0.909  -3.769   0.411  1.00  0.00    -0.200 OA
BRANCH  14  17
HETATM   17  N2  UNL     1       2.747  -2.228  -0.761  1.00  0.00    -0.280 N 
ATOM     18  H2  UNL     1       3.476  -2.530  -1.407  1.00  0.00     0.179 HD
BRANCH  17  19
HETATM   19  C7  UNL     1       3.077  -1.195   0.153  1.00  0.00     0.048 A 
HETATM   20  C8  UNL     1       2.357  -1.041   1.315  1.00  0.00     0.031 A 
HETATM   21  C9  UNL     1       2.677  -0.040   2.224  1.00  0.00     0.009 A 
HETATM   22  C10 UNL     1       3.712   0.816   1.987  1.00  0.00    -0.061 A 
HETATM   23  C11 UNL     1       4.093   1.911   2.939  1.00  0.00     0.048 C 
HETATM   24  C12 UNL     1       4.446   0.685   0.837  1.00  0.00     0.015 A 
HETATM   25  C13 UNL     1       4.115  -0.310  -0.050  1.00  0.00    -0.034 A 
HETATM   26  C14 UNL     1       4.912  -0.445  -1.288  1.00  0.00     0.050 C 
ENDBRANCH  17  19
ENDBRANCH  14  17
ENDBRANCH   7  14
BRANCH   1  27
HETATM   27  O1  UNL     1      -5.584   2.461   0.280  1.00  0.00    -0.285 OA
HETATM   28  C1  UNL     1      -6.839   2.558   0.944  1.00  0.00     0.237 C 
ENDBRANCH   1  27
TORSDOF 4
