REMARK  4 active torsions:
REMARK  status: ('A' for Active; 'I' for Inactive)
REMARK    1  A    between atoms: C2_2  and  C4_4 
REMARK    2  A    between atoms: C11_13  and  O3_14 
REMARK    3  A    between atoms: C15_19  and  O4_20 
REMARK    4  A    between atoms: O4_20  and  C16_21 
ROOT
HETATM    1  C4  UNL     1       1.334  -0.950   0.379  1.00  0.00     0.044 C 
HETATM    2  C5  UNL     1      -0.017  -1.526   0.877  1.00  0.00     0.025 C 
HETATM    3  C6  UNL     1      -0.767  -0.386   1.437  1.00  0.00     0.006 C 
HETATM    4  C7  UNL     1      -0.525  -0.325   2.927  1.00  0.00     0.019 C 
HETATM    5  C8  UNL     1      -0.191   0.829   0.793  1.00  0.00     0.057 C 
HETATM    6  C9  UNL     1      -1.036   1.309  -0.331  1.00  0.00     0.143 C 
HETATM    7  O1  UNL     1      -2.183   1.904   0.324  1.00  0.00    -0.313 OA
HETATM    8  C10 UNL     1      -2.698   1.056   1.328  1.00  0.00     0.294 C 
HETATM    9  O2  UNL     1      -3.435   1.443   2.239  1.00  0.00    -0.262 OA
HETATM   10  C11 UNL     1      -2.250  -0.377   1.170  1.00  0.00     0.153 C 
HETATM   11  C12 UNL     1      -2.532  -0.702  -0.294  1.00  0.00     0.056 C 
HETATM   12  C13 UNL     1      -1.671   0.177  -1.152  1.00  0.00     0.015 C 
HETATM   13  C14 UNL     1      -2.625   0.898  -2.120  1.00  0.00     0.012 C 
HETATM   14  C15 UNL     1       1.242   0.509   0.455  1.00  0.00     0.147 C 
ENDROOT
BRANCH  14  15
HETATM   15  O4  UNL     1       1.777   1.307  -0.532  1.00  0.00    -0.315 OA
BRANCH  15  16
HETATM   16  C16 UNL     1       2.805   2.245  -0.357  1.00  0.00     0.255 C 
HETATM   17  C17 UNL     1       3.294   3.046  -1.509  1.00  0.00     0.126 C 
HETATM   18  O5  UNL     1       3.278   2.368   0.798  1.00  0.00    -0.266 OA
ENDBRANCH  15  16
ENDBRANCH  14  15
BRANCH   1  19
HETATM   19  C2  UNL     1       1.736  -1.620  -0.854  1.00  0.00    -0.086 C 
HETATM   20  C1  UNL     1       2.053  -1.169  -2.035  1.00  0.00     0.014 C 
HETATM   21  C3  UNL     1       1.819  -3.159  -0.749  1.00  0.00     0.043 C 
ENDBRANCH   1  19
BRANCH  10  22
HETATM   22  O3  UNL     1      -2.981  -1.144   2.039  1.00  0.00    -0.379 OA
ATOM     23  H3  UNL     1      -3.916  -1.138   1.871  1.00  0.00     0.211 HD
ENDBRANCH  10  22
TORSDOF 4
