REMARK  3 active torsions:
REMARK  status: ('A' for Active; 'I' for Inactive)
REMARK    1  A    between atoms: C12_14  and  C13_15 
REMARK    2  A    between atoms: C13_15  and  O3_16 
REMARK    3  A    between atoms: C13_15  and  C14_18 
ROOT
HETATM    1  C1  UNL     1      -0.864  -2.831  -1.445  1.00  0.00     0.040 C 
HETATM    2  C2  UNL     1      -1.688  -1.791  -0.691  1.00  0.00     0.123 C 
HETATM    3  C3  UNL     1      -1.876  -2.328   0.709  1.00  0.00     0.058 C 
HETATM    4  C4  UNL     1      -2.421  -1.211   1.556  1.00  0.00     0.174 C 
HETATM    5  O1  UNL     1      -2.462   0.006   0.977  1.00  0.00    -0.354 OA
HETATM    6  C5  UNL     1      -1.424   0.356   0.139  1.00  0.00     0.174 C 
HETATM    7  O2  UNL     1      -0.893  -0.661  -0.586  1.00  0.00    -0.349 OA
HETATM    8  C6  UNL     1      -2.036   1.350  -0.866  1.00  0.00     0.049 C 
HETATM    9  C7  UNL     1      -2.141   0.774  -2.249  1.00  0.00     0.016 C 
HETATM   10  C8  UNL     1      -1.076   2.512  -0.931  1.00  0.00     0.004 A 
HETATM   11  C9  UNL     1       0.277   2.107  -1.496  1.00  0.00     0.016 A 
HETATM   12  C10 UNL     1       0.090   2.238  -0.059  1.00  0.00    -0.028 A 
HETATM   13  C11 UNL     1       0.675   3.463   0.648  1.00  0.00     0.016 C 
HETATM   14  C12 UNL     1      -0.408   1.167   0.863  1.00  0.00     0.090 C 
ENDROOT
BRANCH  14  15
HETATM   15  C13 UNL     1       0.639   0.453   1.619  1.00  0.00     0.183 C 
BRANCH  15  16
HETATM   16  O3  UNL     1       1.458   1.455   2.206  1.00  0.00    -0.390 OA
ATOM     17  H3  UNL     1       2.132   0.995   2.693  1.00  0.00     0.210 HD
ENDBRANCH  15  16
BRANCH  15  18
HETATM   18  C14 UNL     1       1.557  -0.446   0.890  1.00  0.00     0.294 C 
HETATM   19  O4  UNL     1       2.305   0.213  -0.135  1.00  0.00    -0.330 OA
HETATM   20  C15 UNL     1       3.289  -0.545  -0.757  1.00  0.00     0.136 C 
HETATM   21  C16 UNL     1       3.808  -1.551  -0.072  1.00  0.00     0.023 C 
HETATM   22  C17 UNL     1       3.343  -1.843   1.311  1.00  0.00     0.200 C 
HETATM   23  O5  UNL     1       2.560  -0.818   1.827  1.00  0.00    -0.355 OA
ENDBRANCH  15  18
ENDBRANCH  14  15
TORSDOF 3
