REMARK  3 active torsions:
REMARK  status: ('A' for Active; 'I' for Inactive)
REMARK    1  A    between atoms: O1_2  and  C2_3 
REMARK    2  A    between atoms: C2_3  and  C4_5 
REMARK    3  A    between atoms: C17_21  and  O5_22 
ROOT
HETATM    1  C4  UNL     1       2.378  -0.373   0.811  1.00  0.00     0.179 C 
HETATM    2  O2  UNL     1       1.193   0.220   1.111  1.00  0.00    -0.375 OA
HETATM    3  C5  UNL     1       0.066  -0.390   0.572  1.00  0.00     0.127 C 
HETATM    4  C6  UNL     1      -1.082   0.370   1.156  1.00  0.00     0.052 C 
HETATM    5  C7  UNL     1      -2.428  -0.105   0.733  1.00  0.00     0.053 C 
HETATM    6  C8  UNL     1      -2.726  -1.521   1.071  1.00  0.00     0.026 C 
HETATM    7  C9  UNL     1      -3.451   0.750   1.384  1.00  0.00     0.268 C 
HETATM    8  O3  UNL     1      -3.317   1.301   2.492  1.00  0.00    -0.264 OA
HETATM    9  O4  UNL     1      -4.523   0.780   0.507  1.00  0.00    -0.315 OA
HETATM   10  C10 UNL     1      -4.081   0.591  -0.825  1.00  0.00     0.133 C 
HETATM   11  C11 UNL     1      -4.263   1.944  -1.524  1.00  0.00     0.040 C 
HETATM   12  C12 UNL     1      -2.621   0.239  -0.719  1.00  0.00     0.033 C 
HETATM   13  C13 UNL     1      -2.264  -0.946  -1.543  1.00  0.00     0.009 C 
HETATM   14  C14 UNL     1      -0.837  -1.288  -1.589  1.00  0.00     0.008 C 
HETATM   15  C15 UNL     1       0.108  -0.340  -0.938  1.00  0.00     0.017 C 
HETATM   16  C16 UNL     1       1.498  -0.680  -1.433  1.00  0.00     0.041 C 
HETATM   17  C17 UNL     1       2.371  -1.274  -0.367  1.00  0.00     0.150 C 
ENDROOT
BRANCH   1  18
HETATM   18  C2  UNL     1       3.435   0.728   0.691  1.00  0.00     0.148 C 
HETATM   19  C3  UNL     1       3.571   1.481   1.997  1.00  0.00     0.042 C 
BRANCH  18  20
HETATM   20  O1  UNL     1       4.686   0.204   0.383  1.00  0.00    -0.388 OA
HETATM   21  C1  UNL     1       5.104   0.775  -0.809  1.00  0.00     0.202 C 
ENDBRANCH  18  20
ENDBRANCH   1  18
BRANCH  17  22
HETATM   22  O5  UNL     1       1.976  -2.559  -0.005  1.00  0.00    -0.393 OA
ATOM     23  H5  UNL     1       1.972  -3.136  -0.760  1.00  0.00     0.210 HD
ENDBRANCH  17  22
TORSDOF 3
