REMARK  4 active torsions:
REMARK  status: ('A' for Active; 'I' for Inactive)
REMARK    1  A    between atoms: C2_2  and  O1_6 
REMARK    2  A    between atoms: O1_6  and  C3_7 
REMARK    3  A    between atoms: C3_7  and  C4_9 
REMARK    4  A    between atoms: C10_16  and  C11_17 
ROOT
HETATM    1  C4  UNL     1       0.473   0.178  -0.782  1.00  0.00     0.152 C 
HETATM    2  C5  UNL     1       0.861   1.251  -1.800  1.00  0.00     0.057 C 
HETATM    3  O3  UNL     1      -0.293  -0.818  -1.326  1.00  0.00    -0.356 OA
HETATM    4  C6  UNL     1      -1.143  -1.470  -0.511  1.00  0.00     0.093 C 
HETATM    5  C7  UNL     1      -1.282  -2.908  -1.034  1.00  0.00     0.049 C 
HETATM    6  C8  UNL     1      -0.818  -1.548   0.927  1.00  0.00     0.160 C 
HETATM    7  C9  UNL     1      -0.059  -0.398   1.495  1.00  0.00     0.046 C 
HETATM    8  C10 UNL     1      -0.081   0.758   0.479  1.00  0.00     0.067 C 
HETATM    9  C11 UNL     1      -1.414   1.334   0.467  1.00  0.00     0.067 C 
HETATM   10  C12 UNL     1      -1.325   2.750   1.077  1.00  0.00     0.047 C 
HETATM   11  C13 UNL     1      -2.125   1.500  -0.825  1.00  0.00     0.039 C 
HETATM   12  C14 UNL     1      -2.570   0.236  -1.481  1.00  0.00     0.015 C 
HETATM   13  C15 UNL     1      -2.547  -0.883  -0.502  1.00  0.00     0.078 C 
HETATM   14  C16 UNL     1      -2.740  -0.526   0.911  1.00  0.00     0.268 C 
HETATM   15  O4  UNL     1      -2.071  -1.573   1.585  1.00  0.00    -0.352 OA
HETATM   16  O5  UNL     1      -2.298   0.669   1.342  1.00  0.00    -0.350 OA
ENDROOT
BRANCH   1  17
HETATM   17  C3  UNL     1       1.787  -0.467  -0.395  1.00  0.00     0.300 C 
HETATM   18  O2  UNL     1       2.024  -1.687  -0.581  1.00  0.00    -0.261 OA
BRANCH  17  19
HETATM   19  O1  UNL     1       2.811   0.261   0.192  1.00  0.00    -0.264 OA
BRANCH  19  20
HETATM   20  C2  UNL     1       4.013  -0.323   0.548  1.00  0.00     0.117 C 
HETATM   21  C1  UNL     1       5.071   0.488   1.169  1.00  0.00     0.097 C 
HETATM   22  N1  UNL     1       4.153  -1.578   0.314  1.00  0.00    -0.383 N 
ATOM     23  H12 UNL     1       5.040  -2.009   0.577  1.00  0.00     0.157 HD
ATOM     24  H11 UNL     1       3.419  -2.140  -0.117  1.00  0.00     0.157 HD
ENDBRANCH  19  20
ENDBRANCH  17  19
ENDBRANCH   1  17
TORSDOF 4
