REMARK  5 active torsions:
REMARK  status: ('A' for Active; 'I' for Inactive)
REMARK    1  A    between atoms: C6_6  and  C7_7 
REMARK    2  A    between atoms: C7_7  and  O1_8 
REMARK    3  A    between atoms: C10_12  and  C11_13 
REMARK    4  A    between atoms: C13_15  and  O2_16 
REMARK    5  A    between atoms: C14_18  and  C15_19 
REMARK       I    between atoms: C15_19  and  N1_21 
ROOT
HETATM    1  C11 UNL     1      -0.280  -0.522   0.712  1.00  0.00    -0.006 C 
HETATM    2  C12 UNL     1       0.399   0.729   1.092  1.00  0.00     0.037 C 
HETATM    3  C13 UNL     1       1.576   0.935   0.147  1.00  0.00     0.131 C 
HETATM    4  C14 UNL     1       1.999  -0.475  -0.127  1.00  0.00     0.107 C 
HETATM    5  C20 UNL     1       0.785  -1.334  -0.009  1.00  0.00     0.022 C 
ENDROOT
BRANCH   1   6
HETATM    6  C10 UNL     1      -1.457  -0.419  -0.179  1.00  0.00    -0.001 C 
HETATM    7  C2  UNL     1      -2.608   0.377   0.327  1.00  0.00    -0.030 C 
HETATM    8  C1  UNL     1      -2.846   0.212   1.812  1.00  0.00     0.016 C 
HETATM    9  C3  UNL     1      -2.581   1.827  -0.020  1.00  0.00     0.010 C 
HETATM   10  C6  UNL     1      -3.769  -0.180  -0.469  1.00  0.00    -0.011 C 
HETATM   11  C4  UNL     1      -3.784   2.123  -0.891  1.00  0.00     0.002 C 
HETATM   12  C5  UNL     1      -3.941   0.777  -1.610  1.00  0.00     0.012 C 
HETATM   13  C8  UNL     1      -3.364  -1.513  -0.995  1.00  0.00     0.013 C 
HETATM   14  C9  UNL     1      -2.086  -1.817  -0.272  1.00  0.00     0.007 C 
BRANCH  10  15
HETATM   15  C7  UNL     1      -5.027  -0.294   0.356  1.00  0.00     0.174 C 
BRANCH  15  16
HETATM   16  O1  UNL     1      -6.014  -0.817  -0.491  1.00  0.00    -0.400 OA
ATOM     17  H1  UNL     1      -6.806  -0.889   0.028  1.00  0.00     0.209 HD
ENDBRANCH  15  16
ENDBRANCH  10  15
ENDBRANCH   1   6
BRANCH   3  18
HETATM   18  O2  UNL     1       1.112   1.502  -1.055  1.00  0.00    -0.395 OA
ATOM     19  H2  UNL     1       1.846   1.630  -1.644  1.00  0.00     0.210 HD
ENDBRANCH   3  18
BRANCH   4  20
HETATM   20  C15 UNL     1       3.108  -0.940   0.741  1.00  0.00     0.226 C 
HETATM   21  O3  UNL     1       2.872  -1.930   1.479  1.00  0.00    -0.273 OA
HETATM   22  N1  UNL     1       4.376  -0.317   0.756  1.00  0.00    -0.352 N 
HETATM   23  C16 UNL     1       4.860   0.808   0.009  1.00  0.00     0.126 C 
HETATM   24  C19 UNL     1       5.508  -0.728   1.586  1.00  0.00     0.126 C 
HETATM   25  C17 UNL     1       6.360   0.621  -0.135  1.00  0.00     0.021 C 
HETATM   26  C18 UNL     1       6.616  -0.716   0.525  1.00  0.00     0.021 C 
ENDBRANCH   4  20
TORSDOF 5
