REMARK  10 active torsions:
REMARK  status: ('A' for Active; 'I' for Inactive)
REMARK    1  A    between atoms: C5_5  and  C6_6 
REMARK    2  A    between atoms: C6_6  and  O1_7 
REMARK    3  A    between atoms: C6_6  and  N1_9 
REMARK    4  A    between atoms: N1_9  and  C8_11 
REMARK    5  A    between atoms: C13_16  and  O2_17 
REMARK    6  A    between atoms: C13_16  and  C14_19 
REMARK    7  A    between atoms: C15_20  and  C16_21 
REMARK    8  A    between atoms: C16_21  and  N2_23 
REMARK    9  A    between atoms: N2_23  and  O3_24 
REMARK   10  A    between atoms: N2_23  and  C18_26 
ROOT
HETATM    1  C1  UNL     1       2.719  -2.575   1.119  1.00  0.00     0.048 C 
HETATM    2  C2  UNL     1       1.449  -1.779   1.234  1.00  0.00    -0.037 C 
HETATM    3  C3  UNL     1       0.285  -2.366   1.431  1.00  0.00    -0.015 C 
HETATM    4  C4  UNL     1      -1.009  -1.642   1.553  1.00  0.00     0.070 C 
HETATM    5  C5  UNL     1      -0.978  -0.348   0.883  1.00  0.00    -0.004 C 
HETATM    6  C12 UNL     1       0.211   0.219   0.706  1.00  0.00     0.040 C 
HETATM    7  C13 UNL     1       1.517  -0.325   1.123  1.00  0.00     0.164 C 
ENDROOT
BRANCH   7   8
HETATM    8  O2  UNL     1       1.861   0.284   2.349  1.00  0.00    -0.370 OA
ATOM      9  H2  UNL     1       1.905   1.230   2.277  1.00  0.00     0.212 HD
ENDBRANCH   7   8
BRANCH   7  10
HETATM   10  C14 UNL     1       2.567  -0.011   0.124  1.00  0.00    -0.057 C 
HETATM   11  C15 UNL     1       3.431   0.253  -0.673  1.00  0.00    -0.075 C 
BRANCH  11  12
HETATM   12  C16 UNL     1       4.504   0.593  -1.635  1.00  0.00     0.192 C 
HETATM   13  C17 UNL     1       4.748  -0.677  -2.431  1.00  0.00     0.048 C 
BRANCH  12  14
HETATM   14  N2  UNL     1       5.687   1.026  -0.937  1.00  0.00    -0.220 N 
BRANCH  14  15
HETATM   15  O3  UNL     1       6.277   0.252  -0.008  1.00  0.00    -0.284 OA
ATOM     16  H3  UNL     1       7.057   0.538   0.452  1.00  0.00     0.245 HD
ENDBRANCH  14  15
BRANCH  14  17
HETATM   17  C18 UNL     1       6.255   2.286  -1.218  1.00  0.00     0.377 C 
HETATM   18  O4  UNL     1       5.710   3.013  -2.083  1.00  0.00    -0.281 OA
ENDBRANCH  14  17
ENDBRANCH  12  14
ENDBRANCH  11  12
ENDBRANCH   7  10
BRANCH   5  19
HETATM   19  C6  UNL     1      -2.111   0.404   0.369  1.00  0.00     0.144 C 
BRANCH  19  20
HETATM   20  O1  UNL     1      -1.874   1.533  -0.253  1.00  0.00    -0.346 OA
ATOM     21  H1  UNL     1      -2.614   2.024  -0.589  1.00  0.00     0.219 HD
ENDBRANCH  19  20
BRANCH  19  22
HETATM   22  N1  UNL     1      -3.470   0.106   0.434  1.00  0.00    -0.358 N 
HETATM   23  C7  UNL     1      -4.006  -1.033   1.118  1.00  0.00     0.152 C 
BRANCH  22  24
HETATM   24  C8  UNL     1      -4.418   1.013  -0.252  1.00  0.00     0.023 C 
HETATM   25  C9  UNL     1      -4.329   2.397   0.317  1.00  0.00     0.037 C 
HETATM   26  C10 UNL     1      -5.823   0.515  -0.171  1.00  0.00     0.037 C 
HETATM   27  C11 UNL     1      -4.013   1.042  -1.705  1.00  0.00     0.037 C 
ENDBRANCH  22  24
ENDBRANCH  19  22
ENDBRANCH   5  19
TORSDOF 10
