REMARK  5 active torsions:
REMARK  status: ('A' for Active; 'I' for Inactive)
REMARK    1  A    between atoms: C2_2  and  O1_3 
REMARK    2  A    between atoms: C2_2  and  C5_11 
REMARK    3  A    between atoms: O1_3  and  C3_4 
REMARK    4  A    between atoms: C3_4  and  C4_6 
REMARK    5  A    between atoms: C4_6  and  N1_7 
ROOT
HETATM    1  C1  UNL     1      -0.008  -2.149  -0.742  1.00  0.00     0.047 C 
HETATM    2  C2  UNL     1       0.327  -0.915  -0.466  1.00  0.00     0.051 C 
ENDROOT
BRANCH   2   3
HETATM    3  O1  UNL     1       1.527  -0.414  -0.920  1.00  0.00    -0.282 OA
BRANCH   3   4
HETATM    4  C3  UNL     1       2.711  -0.475  -0.240  1.00  0.00     0.289 C 
HETATM    5  O2  UNL     1       2.734  -1.028   0.896  1.00  0.00    -0.263 OA
BRANCH   4   6
HETATM    6  C4  UNL     1       3.979   0.088  -0.786  1.00  0.00     0.340 C 
BRANCH   6   7
HETATM    7  N1  UNL     1       5.068  -0.111   0.129  1.00  0.00    -0.070 N 
ATOM      8  H13 UNL     1       4.856   0.266   1.053  1.00  0.00     0.274 HD
ATOM      9  H12 UNL     1       5.171  -1.094   0.382  1.00  0.00     0.274 HD
ATOM     10  H11 UNL     1       5.935   0.274  -0.245  1.00  0.00     0.274 HD
ENDBRANCH   6   7
ENDBRANCH   4   6
ENDBRANCH   3   4
ENDBRANCH   2   3
BRANCH   2  11
HETATM   11  C5  UNL     1      -0.563  -0.058   0.324  1.00  0.00     0.042 C 
HETATM   12  C6  UNL     1      -0.860   1.260  -0.324  1.00  0.00     0.011 C 
HETATM   13  C7  UNL     1      -2.282   1.511  -0.635  1.00  0.00     0.001 C 
HETATM   14  C8  UNL     1      -3.269   1.083   0.383  1.00  0.00     0.000 C 
HETATM   15  C9  UNL     1      -2.660   0.207   1.480  1.00  0.00     0.001 C 
HETATM   16  C10 UNL     1      -1.811  -0.816   0.709  1.00  0.00     0.011 C 
ENDBRANCH   2  11
TORSDOF 5
