REMARK  5 active torsions:
REMARK  status: ('A' for Active; 'I' for Inactive)
REMARK    1  A    between atoms: N1_1  and  N2_4 
REMARK       I    between atoms: N2_4  and  C1_6 
REMARK    2  A    between atoms: C1_6  and  O2_8 
REMARK    3  A    between atoms: O2_8  and  C2_9 
REMARK    4  A    between atoms: C2_9  and  C3_10 
REMARK    5  A    between atoms: C3_10  and  C4_11 
ROOT
HETATM    1  O2  UNL     1       2.408  -0.481   0.162  1.00  0.00    -0.303 OA
ENDROOT
BRANCH   1   2
HETATM    2  C1  UNL     1       3.360   0.235  -0.542  1.00  0.00     0.378 C 
HETATM    3  N2  UNL     1       4.750  -0.069  -0.465  1.00  0.00    -0.252 N 
ATOM      4  H2  UNL     1       5.067  -0.838   0.125  1.00  0.00     0.191 HD
HETATM    5  O1  UNL     1       2.979   1.181  -1.271  1.00  0.00    -0.237 OA
BRANCH   3   6
HETATM    6  N1  UNL     1       5.684   0.676  -1.190  1.00  0.00    -0.341 N 
ATOM      7  H12 UNL     1       5.351   1.442  -1.775  1.00  0.00     0.177 HD
ATOM      8  H11 UNL     1       6.679   0.458  -1.135  1.00  0.00     0.177 HD
ENDBRANCH   3   6
ENDBRANCH   1   2
BRANCH   1   9
HETATM    9  C2  UNL     1       1.034  -0.151   0.061  1.00  0.00     0.181 C 
BRANCH   9  10
HETATM   10  C3  UNL     1       0.266  -1.098   0.932  1.00  0.00     0.031 C 
BRANCH  10  11
HETATM   11  C4  UNL     1      -1.216  -0.855   0.915  1.00  0.00    -0.013 C 
HETATM   12  C5  UNL     1      -1.602   0.508   1.384  1.00  0.00     0.005 C 
HETATM   13  C6  UNL     1      -2.099   1.386   0.239  1.00  0.00     0.000 C 
HETATM   14  C7  UNL     1      -3.416   0.843  -0.256  1.00  0.00     0.000 C 
HETATM   15  C8  UNL     1      -3.290  -0.658  -0.340  1.00  0.00     0.000 C 
HETATM   16  C9  UNL     1      -1.833  -1.092  -0.444  1.00  0.00     0.005 C 
ENDBRANCH  10  11
ENDBRANCH   9  10
ENDBRANCH   1   9
TORSDOF 5
