REMARK  4 active torsions:
REMARK  status: ('A' for Active; 'I' for Inactive)
REMARK       I    between atoms: C1_2  and  N2_4 
REMARK    1  A    between atoms: N2_4  and  N3_6 
REMARK    2  A    between atoms: N3_6  and  N4_8 
REMARK    3  A    between atoms: N4_8  and  C2_10 
REMARK    4  A    between atoms: C2_10  and  C3_11 
ROOT
HETATM    1  N4  UNL     1       1.447  -1.256  -0.317  1.00  0.00    -0.322 N 
ATOM      2  H4  UNL     1       1.894  -1.395   0.589  1.00  0.00     0.181 HD
ENDROOT
BRANCH   1   3
HETATM    3  N3  UNL     1       2.098  -0.793  -1.329  1.00  0.00    -0.243 N 
ATOM      4  H3  UNL     1       1.607  -0.671  -2.215  1.00  0.00     0.208 HD
BRANCH   3   5
HETATM    5  N2  UNL     1       3.439  -0.455  -1.259  1.00  0.00    -0.240 N 
HETATM    6  C1  UNL     1       3.886   0.366  -0.202  1.00  0.00     0.348 C 
HETATM    7  N1  UNL     1       5.278   0.731  -0.109  1.00  0.00    -0.038 NA
HETATM    8  O1  UNL     1       3.099   0.798   0.679  1.00  0.00    -0.249 OA
ATOM      9  H2  UNL     1       4.095  -0.795  -1.962  1.00  0.00     0.193 HD
ENDBRANCH   3   5
ENDBRANCH   1   3
BRANCH   1  10
HETATM   10  C2  UNL     1       0.063  -1.565  -0.530  1.00  0.00     0.145 C 
BRANCH  10  11
HETATM   11  C3  UNL     1      -0.855  -0.727   0.370  1.00  0.00     0.005 C 
HETATM   12  C4  UNL     1      -2.239  -1.156   0.036  1.00  0.00     0.006 C 
HETATM   13  C5  UNL     1      -3.321  -0.256   0.481  1.00  0.00     0.000 C 
HETATM   14  C6  UNL     1      -2.923   1.135   0.809  1.00  0.00     0.000 C 
HETATM   15  C7  UNL     1      -1.704   1.622   0.090  1.00  0.00     0.000 C 
HETATM   16  C8  UNL     1      -0.548   0.700   0.115  1.00  0.00     0.006 C 
ENDBRANCH  10  11
ENDBRANCH   1  10
TORSDOF 4
