REMARK  3 active torsions:
REMARK  status: ('A' for Active; 'I' for Inactive)
REMARK    1  A    between atoms: C3_6  and  C4_7 
REMARK    2  A    between atoms: C4_7  and  C5_8 
REMARK    3  A    between atoms: C5_8  and  C6_9 
ROOT
HETATM    1  N1  UNL     1       4.849   1.414   0.551  1.00  0.00    -0.064 NA
HETATM    2  C1  UNL     1       3.869   0.422   0.220  1.00  0.00     0.184 C 
HETATM    3  N2  UNL     1       4.112  -0.849   0.064  1.00  0.00    -0.363 N 
ATOM      4  H2  UNL     1       5.030  -1.284   0.160  1.00  0.00     0.162 HD
HETATM    5  C2  UNL     1       2.889  -1.556  -0.266  1.00  0.00     0.147 C 
HETATM    6  C3  UNL     1       1.841  -0.602   0.179  1.00  0.00     0.102 C 
HETATM    7  N3  UNL     1       2.491   0.679   0.015  1.00  0.00    -0.358 N 
ATOM      8  H3  UNL     1       2.052   1.574  -0.201  1.00  0.00     0.162 HD
ENDROOT
BRANCH   6   9
HETATM    9  C4  UNL     1       0.559  -0.674  -0.606  1.00  0.00     0.027 C 
BRANCH   9  10
HETATM   10  C5  UNL     1      -0.382   0.362  -0.015  1.00  0.00     0.007 C 
BRANCH  10  11
HETATM   11  C6  UNL     1      -1.714   0.378  -0.734  1.00  0.00    -0.014 C 
HETATM   12  C7  UNL     1      -2.431  -0.939  -0.669  1.00  0.00     0.004 C 
HETATM   13  C8  UNL     1      -3.687  -0.714   0.155  1.00  0.00     0.000 C 
HETATM   14  C9  UNL     1      -3.274   0.447   1.037  1.00  0.00     0.000 C 
HETATM   15  C10 UNL     1      -2.600   1.361   0.023  1.00  0.00     0.004 C 
ENDBRANCH  10  11
ENDBRANCH   9  10
ENDBRANCH   6   9
TORSDOF 3
