REMARK  11 active torsions:
REMARK  status: ('A' for Active; 'I' for Inactive)
REMARK    1  A    between atoms: C4_8  and  C5_9 
REMARK    2  A    between atoms: C5_9  and  C6_10 
REMARK    3  A    between atoms: C6_10  and  C7_11 
REMARK    4  A    between atoms: C7_11  and  C8_12 
REMARK    5  A    between atoms: C8_12  and  C9_13 
REMARK    6  A    between atoms: C9_13  and  N3_14 
REMARK       I    between atoms: N3_14  and  C10_16 
REMARK    7  A    between atoms: C10_16  and  C11_18 
REMARK    8  A    between atoms: C11_18  and  C12_19 
REMARK       I    between atoms: N5_26  and  C17_27 
REMARK       I    between atoms: C17_27  and  N6_29 
REMARK    9  A    between atoms: C22_35  and  N7_36 
REMARK   10  A    between atoms: N7_36  and  C23_38 
REMARK   11  A    between atoms: C23_38  and  C24_40 
ROOT
HETATM    1  C11 UNL     1       0.510   1.118   0.051  1.00  0.00     0.152 C 
HETATM    2  C13 UNL     1       0.227   0.388   1.383  1.00  0.00     0.280 C 
HETATM    3  N4  UNL     1       1.507   0.116   1.975  1.00  0.00    -0.056 N 
HETATM    4  C14 UNL     1       1.828  -1.311   1.813  1.00  0.00     0.274 C 
HETATM    5  C15 UNL     1       1.519   0.458   3.395  1.00  0.00     0.274 C 
HETATM    6  C16 UNL     1       2.493   0.862   1.246  1.00  0.00     0.366 C 
HETATM    7  N5  UNL     1       1.926   1.025  -0.066  1.00  0.00    -0.288 N 
HETATM    8  C17 UNL     1       2.746   1.097  -1.242  1.00  0.00     0.325 C 
HETATM    9  O2  UNL     1       2.266   1.258  -2.399  1.00  0.00    -0.247 OA
HETATM   10  N6  UNL     1       4.147   0.997  -1.161  1.00  0.00    -0.314 N 
ATOM     11  H6  UNL     1       4.640   1.845  -0.880  1.00  0.00     0.170 HD
HETATM   12  C18 UNL     1       4.872  -0.016  -1.394  1.00  0.00     0.014 C 
HETATM   13  C19 UNL     1       4.516  -1.389  -1.811  1.00  0.00     0.055 C 
HETATM   14  C20 UNL     1       5.810  -2.206  -1.701  1.00  0.00     0.008 C 
HETATM   15  C21 UNL     1       6.640  -1.378  -0.733  1.00  0.00     0.031 C 
HETATM   16  C22 UNL     1       6.369   0.022  -1.304  1.00  0.00     0.128 C 
ENDROOT
BRANCH   1  17
HETATM   17  C10 UNL     1      -0.259   0.423  -1.013  1.00  0.00     0.248 C 
HETATM   18  N3  UNL     1      -1.567   0.822  -1.397  1.00  0.00    -0.359 N 
ATOM     19  H3  UNL     1      -1.989   1.620  -0.923  1.00  0.00     0.162 HD
HETATM   20  O1  UNL     1       0.259  -0.549  -1.600  1.00  0.00    -0.271 OA
BRANCH  18  21
HETATM   21  C9  UNL     1      -2.325   0.157  -2.420  1.00  0.00     0.122 C 
BRANCH  21  22
HETATM   22  C8  UNL     1      -2.664  -1.268  -2.120  1.00  0.00     0.020 C 
BRANCH  22  23
HETATM   23  C7  UNL     1      -3.515  -1.314  -0.866  1.00  0.00     0.002 C 
BRANCH  23  24
HETATM   24  C6  UNL     1      -4.818  -0.526  -1.069  1.00  0.00     0.002 C 
BRANCH  24  25
HETATM   25  C5  UNL     1      -5.604  -0.638   0.193  1.00  0.00     0.027 C 
BRANCH  25  26
HETATM   26  C4  UNL     1      -6.928   0.090   0.141  1.00  0.00     0.104 C 
HETATM   27  N1  UNL     1      -7.573  -0.095   1.409  1.00  0.00    -0.356 N 
HETATM   28  C1  UNL     1      -7.574   0.813   2.522  1.00  0.00     0.152 C 
HETATM   29  C2  UNL     1      -8.222  -1.354   1.374  1.00  0.00     0.169 C 
HETATM   30  S1  UNL     1      -8.896  -2.206   2.598  1.00  0.00    -0.041 SA
HETATM   31  N2  UNL     1      -8.211  -1.820   0.013  1.00  0.00    -0.365 N 
HETATM   32  C3  UNL     1      -7.884  -0.669  -0.789  1.00  0.00     0.147 C 
ATOM     33  H2  UNL     1      -8.396  -2.768  -0.316  1.00  0.00     0.161 HD
ENDBRANCH  25  26
ENDBRANCH  24  25
ENDBRANCH  23  24
ENDBRANCH  22  23
ENDBRANCH  21  22
ENDBRANCH  18  21
ENDBRANCH   1  17
BRANCH   1  34
HETATM   34  C12 UNL     1       0.062   2.540   0.267  1.00  0.00     0.128 C 
HETATM   35 BR1  UNL     1       0.258   3.574  -1.335  1.00  0.00    -0.093 Br
ENDBRANCH   1  34
BRANCH  16  36
HETATM   36  N7  UNL     1       6.829   0.984  -0.319  1.00  0.00    -0.373 N 
ATOM     37  H7  UNL     1       6.152   1.488   0.253  1.00  0.00     0.161 HD
BRANCH  36  38
HETATM   38  C23 UNL     1       8.211   1.225  -0.150  1.00  0.00     0.102 C 
HETATM   39  S2  UNL     1       9.360   0.463  -1.043  1.00  0.00    -0.063 SA
BRANCH  38  40
HETATM   40  C24 UNL     1       8.640   2.210   0.875  1.00  0.00     0.291 C 
HETATM   41  F1  UNL     1      10.027   2.328   0.884  1.00  0.00    -0.248 F 
ENDBRANCH  38  40
ENDBRANCH  36  38
ENDBRANCH  16  36
TORSDOF 11
