REMARK  12 active torsions:
REMARK  status: ('A' for Active; 'I' for Inactive)
REMARK    1  A    between atoms: C4_6  and  N2_7 
REMARK       I    between atoms: N2_7  and  C5_9 
REMARK    2  A    between atoms: C5_9  and  C6_11 
REMARK    3  A    between atoms: C6_11  and  C7_13 
REMARK    4  A    between atoms: C7_13  and  N3_15 
REMARK       I    between atoms: N3_15  and  C9_17 
REMARK    5  A    between atoms: C9_17  and  C10_19 
REMARK       I    between atoms: C10_19  and  N4_21 
REMARK    6  A    between atoms: C11_23  and  C12_24 
REMARK    7  A    between atoms: C11_23  and  N5_28 
REMARK    8  A    between atoms: C12_24  and  C13_25 
REMARK    9  A    between atoms: N5_28  and  C16_30 
REMARK   10  A    between atoms: C16_30  and  C17_31 
REMARK   11  A    between atoms: C17_31  and  C18_32 
REMARK   12  A    between atoms: C18_32  and  C19_33 
ROOT
HETATM    1  C7  UNL     1       1.338  -0.182   0.756  1.00  0.00     0.104 C 
HETATM    2  C8  UNL     1       2.118  -1.046  -0.235  1.00  0.00     0.034 C 
ENDROOT
BRANCH   1   3
HETATM    3  C6  UNL     1       1.879  -0.302   2.168  1.00  0.00     0.172 C 
HETATM    4 BR1  UNL     1       0.821   0.905   3.270  1.00  0.00    -0.079 Br
BRANCH   3   5
HETATM    5  C5  UNL     1       3.307   0.114   2.250  1.00  0.00     0.252 C 
HETATM    6  N2  UNL     1       4.362  -0.710   1.789  1.00  0.00    -0.158 N 
ATOM      7  H2  UNL     1       4.325  -1.702   2.022  1.00  0.00     0.187 HD
HETATM    8  O1  UNL     1       3.564   1.237   2.748  1.00  0.00    -0.271 OA
BRANCH   6   9
HETATM    9  C4  UNL     1       5.371  -0.291   1.092  1.00  0.00     0.686 A 
HETATM   10  N1  UNL     1       6.400  -1.031   0.630  1.00  0.00    -0.187 N 
HETATM   11  C3  UNL     1       7.241  -0.233  -0.045  1.00  0.00     0.098 A 
ATOM     12  H1  UNL     1       6.519  -2.034   0.771  1.00  0.00     0.184 HD
HETATM   13  C2  UNL     1       8.437  -0.445  -0.718  1.00  0.00     0.036 A 
HETATM   14  C20 UNL     1       6.753   1.052  -0.024  1.00  0.00     0.079 A 
HETATM   15  C1  UNL     1       8.952  -1.839  -0.732  1.00  0.00     0.071 C 
HETATM   16  N7  UNL     1       9.130   0.522  -1.339  1.00  0.00    -0.363 N 
HETATM   17  C22 UNL     1       8.646   1.772  -1.314  1.00  0.00     0.093 A 
HETATM   18  C23 UNL     1      10.389   0.203  -2.026  1.00  0.00     0.155 C 
HETATM   19  C21 UNL     1       7.451   2.058  -0.657  1.00  0.00     0.050 A 
HETATM   20  N6  UNL     1       5.607   0.970   0.683  1.00  0.00    -0.189 N 
ATOM     21  H6  UNL     1       4.997   1.763   0.882  1.00  0.00     0.184 HD
ENDBRANCH   6   9
ENDBRANCH   3   5
ENDBRANCH   1   3
BRANCH   1  22
HETATM   22  N3  UNL     1      -0.019  -0.708   0.749  1.00  0.00    -0.347 N 
HETATM   23  C9  UNL     1      -1.133   0.009   0.241  1.00  0.00     0.310 C 
HETATM   24  O2  UNL     1      -0.995   1.167  -0.232  1.00  0.00    -0.262 OA
ATOM     25  H3  UNL     1      -0.178  -1.641   1.129  1.00  0.00     0.163 HD
BRANCH  23  26
HETATM   26  C10 UNL     1      -2.502  -0.614   0.258  1.00  0.00     0.314 C 
HETATM   27  O3  UNL     1      -2.587  -1.775   0.773  1.00  0.00    -0.262 OA
HETATM   28  N4  UNL     1      -3.514   0.057  -0.255  1.00  0.00    -0.309 N 
HETATM   29  C11 UNL     1      -4.679   0.410  -0.101  1.00  0.00     0.080 C 
ATOM     30  H4  UNL     1      -3.199   0.440  -1.146  1.00  0.00     0.170 HD
BRANCH  29  31
HETATM   31  C12 UNL     1      -5.245   1.245  -1.210  1.00  0.00     0.080 C 
BRANCH  31  32
HETATM   32  C13 UNL     1      -5.973   2.472  -0.880  1.00  0.00    -0.016 C 
HETATM   33  C14 UNL     1      -7.230   2.386  -0.090  1.00  0.00     0.010 C 
HETATM   34  C15 UNL     1      -4.993   3.474  -0.224  1.00  0.00     0.010 C 
ENDBRANCH  31  32
ENDBRANCH  29  31
BRANCH  29  35
HETATM   35  N5  UNL     1      -5.478   0.070   0.992  1.00  0.00    -0.380 N 
ATOM     36  H5  UNL     1      -5.935   0.865   1.439  1.00  0.00     0.160 HD
BRANCH  35  37
HETATM   37  C16 UNL     1      -5.768  -1.177   1.591  1.00  0.00     0.121 C 
BRANCH  37  38
HETATM   38  C17 UNL     1      -6.510  -2.188   0.798  1.00  0.00     0.020 C 
BRANCH  38  39
HETATM   39  C18 UNL     1      -7.875  -1.746   0.336  1.00  0.00     0.012 C 
BRANCH  39  40
HETATM   40  C19 UNL     1      -8.554  -2.886  -0.447  1.00  0.00     0.085 C 
HETATM   41 BR2  UNL     1      -8.730  -4.383   0.729  1.00  0.00    -0.097 Br
ENDBRANCH  39  40
ENDBRANCH  38  39
ENDBRANCH  37  38
ENDBRANCH  35  37
ENDBRANCH  29  35
ENDBRANCH  23  26
ENDBRANCH   1  22
TORSDOF 12
