REMARK  13 active torsions:
REMARK  status: ('A' for Active; 'I' for Inactive)
REMARK    1  A    between atoms: C2_2  and  C3_3 
REMARK    2  A    between atoms: C11_17  and  N3_18 
REMARK    3  A    between atoms: N3_18  and  C12_20 
REMARK    4  A    between atoms: C12_20  and  C13_21 
REMARK    5  A    between atoms: C13_21  and  C14_22 
REMARK    6  A    between atoms: C14_22  and  C15_23 
REMARK    7  A    between atoms: C15_23  and  N4_24 
REMARK    8  A    between atoms: N4_24  and  C17_27 
REMARK    9  A    between atoms: C17_27  and  C18_28 
REMARK       I    between atoms: C18_28  and  N5_30 
REMARK   10  A    between atoms: N5_30  and  C19_32 
REMARK   11  A    between atoms: C19_32  and  C20_33 
REMARK   12  A    between atoms: C20_33  and  C21_34 
REMARK   13  A    between atoms: C21_34  and  C22_35 
ROOT
HETATM    1  C3  UNL     1      -6.166  -0.654   0.133  1.00  0.00     0.027 A 
HETATM    2  C4  UNL     1      -7.505  -1.026  -0.021  1.00  0.00    -0.021 A 
HETATM    3  C5  UNL     1      -8.037  -2.173   0.706  1.00  0.00     0.052 C 
HETATM    4  C6  UNL     1      -8.305  -0.295  -0.859  1.00  0.00     0.022 A 
HETATM    5 BR1  UNL     1     -10.149  -0.743  -1.120  1.00  0.00    -0.050 Br
HETATM    6  C7  UNL     1      -7.772   0.779  -1.521  1.00  0.00     0.068 A 
HETATM    7  C8  UNL     1      -6.444   1.142  -1.365  1.00  0.00     0.115 A 
HETATM    8  N1  UNL     1      -5.730   2.138  -1.923  1.00  0.00    -0.334 N 
ATOM      9  H1  UNL     1      -6.079   2.833  -2.583  1.00  0.00     0.168 HD
HETATM   10  C9  UNL     1      -4.482   2.052  -1.456  1.00  0.00     0.148 A 
HETATM   11  C10 UNL     1      -3.328   2.794  -1.687  1.00  0.00     0.290 A 
HETATM   12  O1  UNL     1      -3.405   3.776  -2.484  1.00  0.00    -0.265 OA
HETATM   13  N2  UNL     1      -2.200   2.446  -1.066  1.00  0.00    -0.154 N 
ATOM     14  H2  UNL     1      -1.350   2.986  -1.230  1.00  0.00     0.187 HD
HETATM   15  C11 UNL     1      -2.165   1.379  -0.215  1.00  0.00     0.686 A 
HETATM   16  N6  UNL     1      -3.270   0.651   0.019  1.00  0.00    -0.173 N 
ATOM     17  H6  UNL     1      -3.228  -0.144   0.656  1.00  0.00     0.186 HD
HETATM   18  C23 UNL     1      -4.419   0.963  -0.577  1.00  0.00     0.162 A 
HETATM   19  N7  UNL     1      -5.662   0.402  -0.528  1.00  0.00    -0.284 N 
ENDROOT
BRANCH  15  20
HETATM   20  N3  UNL     1      -1.071   1.057   0.375  1.00  0.00    -0.202 N 
ATOM     21  H3  UNL     1      -0.234   1.612   0.195  1.00  0.00     0.183 HD
BRANCH  20  22
HETATM   22  C12 UNL     1      -0.984  -0.035   1.262  1.00  0.00     0.106 C 
BRANCH  22  23
HETATM   23  C13 UNL     1       0.277  -0.267   1.957  1.00  0.00     0.016 C 
BRANCH  23  24
HETATM   24  C14 UNL     1       1.381   0.378   1.903  1.00  0.00     0.010 C 
BRANCH  24  25
HETATM   25  C15 UNL     1       1.784   1.548   1.153  1.00  0.00     0.339 C 
BRANCH  25  26
HETATM   26  N4  UNL     1       2.944   1.257   0.288  1.00  0.00     0.021 N 
HETATM   27  C16 UNL     1       2.450   0.700  -0.930  1.00  0.00     0.357 C 
HETATM   28  O2  UNL     1       3.616   2.437   0.070  1.00  0.00    -0.064 OA
BRANCH  26  29
HETATM   29  C17 UNL     1       3.837   0.399   1.023  1.00  0.00     0.413 C 
BRANCH  29  30
HETATM   30  C18 UNL     1       5.204   0.340   0.404  1.00  0.00     0.251 C 
HETATM   31  O3  UNL     1       5.375   1.025  -0.636  1.00  0.00    -0.271 OA
HETATM   32  N5  UNL     1       6.229  -0.452   0.979  1.00  0.00    -0.359 N 
ATOM     33  H5  UNL     1       6.000  -0.977   1.823  1.00  0.00     0.162 HD
BRANCH  32  34
HETATM   34  C19 UNL     1       7.570  -0.573   0.463  1.00  0.00     0.122 C 
BRANCH  34  35
HETATM   35  C20 UNL     1       7.653  -1.120  -0.922  1.00  0.00     0.020 C 
BRANCH  35  36
HETATM   36  C21 UNL     1       9.075  -1.242  -1.397  1.00  0.00     0.012 C 
BRANCH  36  37
HETATM   37  C22 UNL     1       9.770   0.095  -1.409  1.00  0.00     0.085 C 
HETATM   38 BR2  UNL     1      11.600  -0.097  -2.049  1.00  0.00    -0.097 Br
ENDBRANCH  36  37
ENDBRANCH  35  36
ENDBRANCH  34  35
ENDBRANCH  32  34
ENDBRANCH  29  30
ENDBRANCH  26  29
ENDBRANCH  25  26
ENDBRANCH  24  25
ENDBRANCH  23  24
ENDBRANCH  22  23
ENDBRANCH  20  22
ENDBRANCH  15  20
BRANCH   1  39
HETATM   39  C2  UNL     1      -5.381  -1.477   1.050  1.00  0.00     0.054 C 
HETATM   40  C1  UNL     1      -4.837  -2.753   0.449  1.00  0.00     0.011 C 
ENDBRANCH   1  39
TORSDOF 13
