REMARK  11 active torsions:
REMARK  status: ('A' for Active; 'I' for Inactive)
REMARK    1  A    between atoms: C2_2  and  C3_3 
REMARK    2  A    between atoms: C2_2  and  C24_35 
REMARK    3  A    between atoms: C3_3  and  C4_4 
REMARK    4  A    between atoms: N2_12  and  C10_13 
REMARK    5  A    between atoms: C10_13  and  C11_14 
REMARK    6  A    between atoms: C11_14  and  O1_15 
REMARK    7  A    between atoms: O1_15  and  C12_16 
REMARK    8  A    between atoms: C12_16  and  C13_17 
REMARK    9  A    between atoms: C13_17  and  N3_18 
REMARK   10  A    between atoms: N3_18  and  C14_20 
REMARK   11  A    between atoms: C22_31  and  O2_32 
ROOT
HETATM    1  C4  UNL     1      -2.651  -1.042   0.709  1.00  0.00    -0.048 C 
HETATM    2  C5  UNL     1      -2.197  -1.378  -0.625  1.00  0.00     0.046 A 
HETATM    3  N1  UNL     1      -2.939  -2.211  -1.346  1.00  0.00    -0.365 N 
ATOM      4  H1  UNL     1      -3.813  -2.643  -1.047  1.00  0.00     0.165 HD
HETATM    5  C6  UNL     1      -2.337  -2.388  -2.544  1.00  0.00     0.089 A 
HETATM    6  C7  UNL     1      -1.217  -1.662  -2.563  1.00  0.00     0.032 A 
HETATM    7  C8  UNL     1      -1.058  -0.976  -1.346  1.00  0.00     0.018 A 
HETATM    8  C9  UNL     1       0.151  -0.207  -1.336  1.00  0.00     0.250 C 
HETATM    9  N2  UNL     1       0.670   0.526  -0.278  1.00  0.00     0.112 N 
HETATM   10  C15 UNL     1       0.726  -0.056   1.014  1.00  0.00     0.279 C 
HETATM   11  C16 UNL     1      -0.316  -1.036   1.437  1.00  0.00     0.040 C 
HETATM   12  C17 UNL     1      -1.635  -0.393   1.617  1.00  0.00     0.020 C 
HETATM   13  C18 UNL     1      -1.652   1.105   1.550  1.00  0.00     0.039 C 
HETATM   14  C19 UNL     1      -1.343   1.719   0.264  1.00  0.00     0.273 C 
HETATM   15  N5  UNL     1       0.022   1.818  -0.163  1.00  0.00     0.094 N 
HETATM   16  C20 UNL     1       0.683   2.695   0.743  1.00  0.00     0.275 C 
HETATM   17  C21 UNL     1       0.750   4.071   0.114  1.00  0.00     0.064 C 
HETATM   18  C22 UNL     1      -0.118   3.992  -1.092  1.00  0.00     0.148 C 
HETATM   19  C23 UNL     1      -0.047   2.496  -1.420  1.00  0.00     0.304 C 
ENDROOT
BRANCH   9  20
HETATM   20  C10 UNL     1       2.035   0.919  -0.599  1.00  0.00     0.304 C 
BRANCH  20  21
HETATM   21  C11 UNL     1       2.829   0.208  -1.606  1.00  0.00     0.198 C 
BRANCH  21  22
HETATM   22  O1  UNL     1       3.204  -1.086  -1.451  1.00  0.00    -0.388 OA
BRANCH  22  23
HETATM   23  C12 UNL     1       4.072  -1.463  -0.493  1.00  0.00     0.187 C 
BRANCH  23  24
HETATM   24  C13 UNL     1       5.463  -0.844  -0.601  1.00  0.00     0.148 C 
BRANCH  24  25
HETATM   25  N3  UNL     1       6.349  -1.281   0.442  1.00  0.00    -0.367 N 
ATOM     26  H3  UNL     1       6.619  -0.603   1.154  1.00  0.00     0.161 HD
BRANCH  25  27
HETATM   27  C14 UNL     1       6.871  -2.593   0.544  1.00  0.00     0.181 C 
HETATM   28  N4  UNL     1       7.730  -2.966   1.596  1.00  0.00    -0.070 NA
HETATM   29  S1  UNL     1       6.512  -3.733  -0.573  1.00  0.00    -0.044 SA
ENDBRANCH  25  27
ENDBRANCH  24  25
ENDBRANCH  23  24
ENDBRANCH  22  23
ENDBRANCH  21  22
ENDBRANCH  20  21
ENDBRANCH   9  20
BRANCH  18  30
HETATM   30  O2  UNL     1       0.512   4.741  -2.107  1.00  0.00    -0.394 OA
ATOM     31  H2  UNL     1      -0.042   4.691  -2.877  1.00  0.00     0.210 HD
ENDBRANCH  18  30
BRANCH   1  32
HETATM   32  C3  UNL     1      -3.968  -0.384   0.912  1.00  0.00     0.043 C 
BRANCH  32  33
HETATM   33  C2  UNL     1      -5.218  -1.111   0.536  1.00  0.00     0.010 C 
HETATM   34  C1  UNL     1      -5.411  -2.393   1.331  1.00  0.00     0.012 C 
BRANCH  33  35
HETATM   35  C24 UNL     1      -6.364  -0.194   1.062  1.00  0.00     0.133 C 
HETATM   36 BR1  UNL     1      -8.060  -1.043   0.711  1.00  0.00    -0.079 Br
HETATM   37 BR2  UNL     1      -6.330   1.508   0.192  1.00  0.00    -0.079 Br
ENDBRANCH  33  35
ENDBRANCH  32  33
ENDBRANCH   1  32
TORSDOF 11
