REMARK  4 active torsions:
REMARK  status: ('A' for Active; 'I' for Inactive)
REMARK    1  A    between atoms: C9_11  and  O3_12 
REMARK    2  A    between atoms: C12_15  and  O4_16 
REMARK    3  A    between atoms: C17_23  and  O7_25 
REMARK    4  A    between atoms: C19_27  and  O8_28 
ROOT
HETATM    1  C1  UNL     1       4.442  -2.333   0.565  1.00  0.00     0.026 C 
HETATM    2  C2  UNL     1       3.386  -1.639   0.209  1.00  0.00     0.018 A 
HETATM    3  C3  UNL     1       2.352  -1.959  -0.772  1.00  0.00     0.192 A 
HETATM    4  O1  UNL     1       2.368  -3.038  -1.443  1.00  0.00    -0.287 OA
HETATM    5  C4  UNL     1       1.364  -0.891  -0.839  1.00  0.00     0.064 A 
HETATM    6  C5  UNL     1       1.746   0.025   0.029  1.00  0.00     0.094 A 
HETATM    7  O2  UNL     1       1.183   1.235   0.370  1.00  0.00    -0.336 OA
HETATM    8  C6  UNL     1      -0.050   1.907   0.431  1.00  0.00     0.117 C 
HETATM    9  C7  UNL     1      -0.087   2.539   1.815  1.00  0.00     0.052 C 
HETATM   10  C8  UNL     1      -0.076   3.021  -0.541  1.00  0.00     0.052 C 
HETATM   11  C9  UNL     1      -1.234   0.969   0.406  1.00  0.00     0.203 C 
HETATM   12  C11 UNL     1      -1.478   0.506  -0.982  1.00  0.00     0.144 C 
HETATM   13  C12 UNL     1      -1.122  -0.905  -1.229  1.00  0.00     0.207 C 
HETATM   14  O5  UNL     1      -1.308  -1.799  -0.198  1.00  0.00    -0.316 OA
HETATM   15  C14 UNL     1      -1.423  -1.259   1.053  1.00  0.00     0.164 C 
HETATM   16  C15 UNL     1      -2.870  -1.221   1.546  1.00  0.00     0.078 C 
HETATM   17  C16 UNL     1      -0.766  -2.263   2.001  1.00  0.00     0.078 C 
HETATM   18  O6  UNL     1      -0.778  -0.074   1.247  1.00  0.00    -0.316 OA
HETATM   19  C17 UNL     1       0.280  -1.080  -1.778  1.00  0.00     0.144 C 
HETATM   20  C18 UNL     1       0.507  -0.275  -3.037  1.00  0.00     0.057 C 
HETATM   21  C19 UNL     1       2.979  -0.315   0.741  1.00  0.00     0.214 A 
ENDROOT
BRANCH  19  22
HETATM   22  O7  UNL     1       0.302  -2.414  -2.202  1.00  0.00    -0.379 OA
ATOM     23  H7  UNL     1      -0.410  -2.538  -2.819  1.00  0.00     0.211 HD
ENDBRANCH  19  22
BRANCH  13  24
HETATM   24  O4  UNL     1      -1.906  -1.375  -2.278  1.00  0.00    -0.357 OA
HETATM   25  C13 UNL     1      -3.237  -1.494  -2.053  1.00  0.00     0.205 C 
ENDBRANCH  13  24
BRANCH  21  26
HETATM   26  O8  UNL     1       3.969   0.598   0.365  1.00  0.00    -0.379 OA
HETATM   27  C20 UNL     1       4.525   1.223   1.503  1.00  0.00     0.202 C 
ENDBRANCH  21  26
BRANCH  11  28
HETATM   28  O3  UNL     1      -2.265   1.546   1.069  1.00  0.00    -0.357 OA
HETATM   29  C10 UNL     1      -2.948   2.580   0.562  1.00  0.00     0.205 C 
ENDBRANCH  11  28
TORSDOF 4
