REMARK  6 active torsions:
REMARK  status: ('A' for Active; 'I' for Inactive)
REMARK    1  A    between atoms: C2_2  and  O1_3 
REMARK    2  A    between atoms: O1_3  and  C3_4 
REMARK    3  A    between atoms: C3_4  and  C4_6 
REMARK    4  A    between atoms: C9_14  and  C10_15 
REMARK    5  A    between atoms: C10_15  and  O4_17 
REMARK    6  A    between atoms: N2_20  and  N3_22 
ROOT
HETATM    1  C4  UNL     1       2.189  -0.657   1.633  1.00  0.00     0.249 C 
HETATM    2  C5  UNL     1       1.555  -1.193   2.923  1.00  0.00     0.064 C 
HETATM    3  N1  UNL     1       3.186  -1.603   1.238  1.00  0.00    -0.042 N 
ATOM      4  H11 UNL     1       3.137  -2.471   1.771  1.00  0.00     0.280 HD
ATOM      5  H12 UNL     1       4.126  -1.323   1.517  1.00  0.00     0.280 HD
HETATM    6  C6  UNL     1       3.069  -1.814  -0.172  1.00  0.00     0.138 C 
HETATM    7  C7  UNL     1       4.299  -1.249  -0.852  1.00  0.00     0.047 C 
HETATM    8  C8  UNL     1       3.066  -3.305  -0.423  1.00  0.00     0.047 C 
HETATM    9  C9  UNL     1       1.803  -1.188  -0.640  1.00  0.00     0.171 C 
HETATM   10  C12 UNL     1       1.155  -0.658   0.566  1.00  0.00     0.065 C 
HETATM   11  N2  UNL     1      -0.070  -0.267   0.687  1.00  0.00    -0.305 N 
ATOM     12  H2  UNL     1      -0.375   0.079   1.597  1.00  0.00     0.186 HD
ENDROOT
BRANCH   1  13
HETATM   13  C3  UNL     1       2.745   0.694   1.875  1.00  0.00     0.301 C 
HETATM   14  O2  UNL     1       3.978   0.856   1.715  1.00  0.00    -0.262 OA
BRANCH  13  15
HETATM   15  O1  UNL     1       1.999   1.789   2.266  1.00  0.00    -0.320 OA
BRANCH  15  16
HETATM   16  C2  UNL     1       2.618   3.061   2.480  1.00  0.00     0.174 C 
HETATM   17  C1  UNL     1       3.269   3.510   1.208  1.00  0.00     0.034 C 
ENDBRANCH  15  16
ENDBRANCH  13  15
ENDBRANCH   1  13
BRANCH   9  18
HETATM   18  C10 UNL     1       2.005  -0.128  -1.668  1.00  0.00     0.270 C 
HETATM   19  O3  UNL     1       1.634   1.065  -1.488  1.00  0.00    -0.264 OA
BRANCH  18  20
HETATM   20  O4  UNL     1       2.615  -0.421  -2.867  1.00  0.00    -0.326 OA
HETATM   21  C11 UNL     1       2.837   0.529  -3.880  1.00  0.00     0.213 C 
ENDBRANCH  18  20
ENDBRANCH   9  18
BRANCH  11  22
HETATM   22  N3  UNL     1      -0.990  -0.288  -0.337  1.00  0.00    -0.309 N 
HETATM   23  C13 UNL     1      -2.207   0.103  -0.172  1.00  0.00     0.008 C 
HETATM   24  C14 UNL     1      -2.612   0.585   1.158  1.00  0.00     0.084 C 
HETATM   25  C20 UNL     1      -3.159   0.057  -1.317  1.00  0.00     0.094 C 
HETATM   26  C15 UNL     1      -4.077   0.409   1.428  1.00  0.00     0.279 C 
HETATM   27  N4  UNL     1      -4.881   0.562   0.251  1.00  0.00     0.093 N 
HETATM   28  C16 UNL     1      -4.788   1.934  -0.184  1.00  0.00     0.310 C 
HETATM   29  C17 UNL     1      -4.505  -0.365  -0.794  1.00  0.00     0.157 C 
HETATM   30  C18 UNL     1      -5.545  -0.348  -1.895  1.00  0.00     0.049 C 
HETATM   31  C19 UNL     1      -4.382  -1.754  -0.243  1.00  0.00     0.049 C 
ATOM     32  H3  UNL     1      -0.699  -0.624  -1.255  1.00  0.00     0.186 HD
ENDBRANCH  11  22
TORSDOF 6
