REMARK  8 active torsions:
REMARK  status: ('A' for Active; 'I' for Inactive)
REMARK    1  A    between atoms: C3_3  and  O1_4 
REMARK    2  A    between atoms: C9_12  and  O3_13 
REMARK    3  A    between atoms: C9_12  and  C12_17 
REMARK    4  A    between atoms: O3_13  and  C10_14 
REMARK    5  A    between atoms: C12_17  and  O6_19 
REMARK    6  A    between atoms: O6_19  and  C13_20 
REMARK    7  A    between atoms: C13_20  and  C14_22 
REMARK    8  A    between atoms: C14_22  and  C15_23 
ROOT
HETATM    1  C1  UNL     1      -2.541  -1.856   2.424  1.00  0.00     0.017 C 
HETATM    2  C2  UNL     1      -1.602  -1.265   1.699  1.00  0.00    -0.056 C 
HETATM    3  C3  UNL     1      -0.807  -0.316   2.483  1.00  0.00     0.153 C 
HETATM    4  C4  UNL     1      -1.242   1.073   2.192  1.00  0.00     0.114 C 
HETATM    5  C5  UNL     1      -0.905   1.621   0.874  1.00  0.00     0.134 C 
HETATM    6  O2  UNL     1      -0.351   2.737   1.096  1.00  0.00    -0.297 OA
HETATM    7  C6  UNL     1      -0.952   1.401  -0.556  1.00  0.00     0.059 C 
HETATM    8  C7  UNL     1      -1.843   2.533  -1.148  1.00  0.00     0.018 C 
HETATM    9  C8  UNL     1      -1.221   0.119  -1.163  1.00  0.00     0.050 C 
HETATM   10  C9  UNL     1       0.004  -0.779  -1.279  1.00  0.00     0.164 C 
HETATM   11  C17 UNL     1      -0.190  -1.864  -0.256  1.00  0.00     0.059 C 
HETATM   12  C18 UNL     1      -1.588  -1.711   0.301  1.00  0.00     0.028 C 
HETATM   13  C19 UNL     1      -2.256  -0.813  -0.682  1.00  0.00    -0.033 C 
HETATM   14  C20 UNL     1      -3.545  -0.259  -0.234  1.00  0.00     0.016 C 
HETATM   15  C21 UNL     1      -2.597  -1.730  -1.881  1.00  0.00     0.016 C 
ENDROOT
BRANCH  10  16
HETATM   16  O3  UNL     1      -0.128  -1.408  -2.574  1.00  0.00    -0.299 OA
BRANCH  16  17
HETATM   17  C10 UNL     1       0.759  -2.333  -3.060  1.00  0.00     0.256 C 
HETATM   18  C11 UNL     1       0.503  -2.893  -4.425  1.00  0.00     0.126 C 
HETATM   19  O4  UNL     1       1.732  -2.669  -2.358  1.00  0.00    -0.266 OA
ENDBRANCH  16  17
ENDBRANCH  10  16
BRANCH  10  20
HETATM   20  C12 UNL     1       1.286  -0.099  -1.175  1.00  0.00     0.302 C 
HETATM   21  O5  UNL     1       2.054   0.094  -2.182  1.00  0.00    -0.261 OA
BRANCH  20  22
HETATM   22  O6  UNL     1       1.775   0.386   0.016  1.00  0.00    -0.243 OA
BRANCH  22  23
HETATM   23  C13 UNL     1       2.990   1.033   0.151  1.00  0.00     0.266 C 
HETATM   24  O7  UNL     1       3.672   1.172  -0.906  1.00  0.00    -0.265 OA
BRANCH  23  25
HETATM   25  C14 UNL     1       3.451   1.530   1.475  1.00  0.00     0.111 C 
BRANCH  25  26
HETATM   26  C15 UNL     1       4.810   2.180   1.258  1.00  0.00     0.005 C 
HETATM   27  C16 UNL     1       5.320   2.701   2.577  1.00  0.00     0.005 C 
ENDBRANCH  25  26
ENDBRANCH  23  25
ENDBRANCH  22  23
ENDBRANCH  20  22
ENDBRANCH  10  20
BRANCH   3  28
HETATM   28  O1  UNL     1      -1.027  -0.504   3.879  1.00  0.00    -0.391 OA
ATOM     29  H1  UNL     1      -0.512   0.111   4.387  1.00  0.00     0.210 HD
ENDBRANCH   3  28
TORSDOF 8
