REMARK  5 active torsions:
REMARK  status: ('A' for Active; 'I' for Inactive)
REMARK    1  A    between atoms: C2_2  and  C3_3 
REMARK    2  A    between atoms: C3_3  and  C6_6 
REMARK    3  A    between atoms: C6_6  and  C8_8 
REMARK    4  A    between atoms: C12_15  and  C13_16 
REMARK    5  A    between atoms: C20_26  and  O6_28 
ROOT
HETATM    1  C13 UNL     1       1.546   0.740  -1.067  1.00  0.00    -0.002 C 
HETATM    2  C14 UNL     1       2.139   1.813  -1.553  1.00  0.00     0.015 C 
HETATM    3  C15 UNL     1       3.347   2.450  -1.002  1.00  0.00     0.060 C 
HETATM    4  C16 UNL     1       1.530   2.403  -2.741  1.00  0.00     0.094 C 
HETATM    5  N1  UNL     1       1.062   2.863  -3.691  1.00  0.00    -0.192 NA
ENDROOT
BRANCH   1   6
HETATM    6  C12 UNL     1       2.049   0.045   0.117  1.00  0.00     0.048 C 
HETATM    7  C10 UNL     1       1.017  -0.428   1.106  1.00  0.00     0.145 C 
HETATM    8  C9  UNL     1       0.659   0.462   2.189  1.00  0.00     0.279 C 
HETATM    9  C11 UNL     1      -0.311  -0.789   0.520  1.00  0.00     0.178 C 
HETATM   10  C18 UNL     1       1.930  -1.576   1.400  1.00  0.00     0.167 C 
HETATM   11  O1  UNL     1      -0.617   0.892   1.999  1.00  0.00    -0.307 OA
HETATM   12  O2  UNL     1       1.386   0.800   3.161  1.00  0.00    -0.264 OA
HETATM   13  C8  UNL     1      -1.150   0.385   0.722  1.00  0.00     0.207 C 
HETATM   14  O3  UNL     1      -0.492  -1.851   0.026  1.00  0.00    -0.294 OA
HETATM   15  C17 UNL     1       2.426  -1.411  -0.054  1.00  0.00     0.070 C 
HETATM   16  O4  UNL     1       3.049  -1.162   2.155  1.00  0.00    -0.311 OA
HETATM   17  C20 UNL     1       3.879  -1.731   0.027  1.00  0.00     0.148 C 
HETATM   18  C19 UNL     1       4.211  -1.146   1.373  1.00  0.00     0.294 C 
HETATM   19  C21 UNL     1       4.729  -1.180  -1.067  1.00  0.00     0.057 C 
HETATM   20  O5  UNL     1       5.364  -0.740   1.653  1.00  0.00    -0.262 OA
BRANCH  13  21
HETATM   21  C6  UNL     1      -2.594   0.218   0.989  1.00  0.00     0.030 C 
HETATM   22  C7  UNL     1      -3.103   1.552   1.617  1.00  0.00     0.014 C 
BRANCH  21  23
HETATM   23  C3  UNL     1      -3.519  -0.236  -0.054  1.00  0.00    -0.025 C 
HETATM   24  C4  UNL     1      -3.457  -1.586  -0.623  1.00  0.00     0.019 C 
HETATM   25  C5  UNL     1      -4.967  -0.168   0.571  1.00  0.00     0.019 C 
BRANCH  23  26
HETATM   26  C2  UNL     1      -3.649   0.745  -1.193  1.00  0.00    -0.028 C 
HETATM   27  C1  UNL     1      -4.702   0.843  -1.968  1.00  0.00     0.007 C 
ENDBRANCH  23  26
ENDBRANCH  21  23
ENDBRANCH  13  21
BRANCH  17  28
HETATM   28  O6  UNL     1       3.969  -3.142   0.097  1.00  0.00    -0.379 OA
ATOM     29  H6  UNL     1       4.895  -3.346   0.149  1.00  0.00     0.211 HD
ENDBRANCH  17  28
ENDBRANCH   1   6
TORSDOF 5
