REMARK  8 active torsions:
REMARK  status: ('A' for Active; 'I' for Inactive)
REMARK    1  A    between atoms: C2_2  and  O2_4 
REMARK    2  A    between atoms: O2_4  and  C3_5 
REMARK    3  A    between atoms: C4_6  and  C5_7 
REMARK    4  A    between atoms: C10_12  and  N1_13 
REMARK    5  A    between atoms: C14_20  and  O4_21 
REMARK    6  A    between atoms: O4_21  and  C15_22 
REMARK    7  A    between atoms: C17_25  and  O6_26 
REMARK    8  A    between atoms: O6_26  and  C18_27 
ROOT
HETATM    1  C3  UNL     1       0.524   0.780   0.801  1.00  0.00     0.095 C 
HETATM    2  C4  UNL     1       1.269  -0.440   0.422  1.00  0.00    -0.020 C 
HETATM    3  C9  UNL     1       0.521  -1.500   0.147  1.00  0.00     0.013 C 
HETATM    4  C10 UNL     1      -0.964  -1.494   0.208  1.00  0.00     0.163 C 
HETATM    5  C14 UNL     1      -1.606  -0.182  -0.062  1.00  0.00     0.196 C 
HETATM    6  C17 UNL     1      -0.701   1.010  -0.049  1.00  0.00     0.221 C 
ENDROOT
BRANCH   4   7
HETATM    7  N1  UNL     1      -1.456  -2.528  -0.696  1.00  0.00    -0.289 N 
HETATM    8  C11 UNL     1      -1.124  -2.619  -1.998  1.00  0.00     0.116 A 
HETATM    9  C12 UNL     1      -1.751  -3.697  -2.567  1.00  0.00     0.094 A 
HETATM   10  C13 UNL     1      -2.495  -4.271  -1.536  1.00  0.00     0.261 A 
HETATM   11  O3  UNL     1      -3.232  -5.286  -1.593  1.00  0.00    -0.267 OA
HETATM   12  N2  UNL     1      -2.281  -3.529  -0.435  1.00  0.00    -0.264 N 
ATOM     13  H2  UNL     1      -2.698  -3.713   0.477  1.00  0.00     0.190 HD
ENDBRANCH   4   7
BRANCH   5  14
HETATM   14  O4  UNL     1      -2.667  -0.051   0.897  1.00  0.00    -0.311 OA
BRANCH  14  15
HETATM   15  C15 UNL     1      -3.995  -0.054   0.598  1.00  0.00     0.255 C 
HETATM   16  C16 UNL     1      -4.968   0.094   1.728  1.00  0.00     0.126 C 
HETATM   17  O5  UNL     1      -4.345  -0.179  -0.595  1.00  0.00    -0.266 OA
ENDBRANCH  14  15
ENDBRANCH   5  14
BRANCH   2  18
HETATM   18  C5  UNL     1       2.734  -0.565   0.328  1.00  0.00    -0.022 C 
HETATM   19  C6  UNL     1       3.424  -0.277   1.658  1.00  0.00     0.019 C 
HETATM   20  C7  UNL     1       3.326   0.279  -0.781  1.00  0.00     0.019 C 
HETATM   21  C8  UNL     1       3.165  -1.984  -0.031  1.00  0.00     0.019 C 
ENDBRANCH   2  18
BRANCH   6  22
HETATM   22  O6  UNL     1      -0.474   1.593  -1.284  1.00  0.00    -0.307 OA
BRANCH  22  23
HETATM   23  C18 UNL     1      -0.821   2.823  -1.722  1.00  0.00     0.255 C 
HETATM   24  C19 UNL     1      -0.542   3.375  -3.058  1.00  0.00     0.126 C 
HETATM   25  O7  UNL     1      -1.430   3.520  -0.891  1.00  0.00    -0.266 OA
ENDBRANCH  22  23
ENDBRANCH   6  22
BRANCH   1  26
HETATM   26  O2  UNL     1       1.276   1.897   1.077  1.00  0.00    -0.280 OA
BRANCH  26  27
HETATM   27  C2  UNL     1       1.477   2.558   2.224  1.00  0.00     0.259 C 
HETATM   28  C1  UNL     1       2.332   3.744   2.285  1.00  0.00     0.126 C 
HETATM   29  O1  UNL     1       0.915   2.137   3.240  1.00  0.00    -0.265 OA
ENDBRANCH  26  27
ENDBRANCH   1  26
TORSDOF 8
