REMARK  7 active torsions:
REMARK  status: ('A' for Active; 'I' for Inactive)
REMARK    1  A    between atoms: O1_2  and  C2_3 
REMARK    2  A    between atoms: C2_3  and  C3_5 
REMARK    3  A    between atoms: C7_11  and  O5_12 
REMARK    4  A    between atoms: O5_12  and  C8_13 
REMARK    5  A    between atoms: C8_13  and  C9_15 
REMARK    6  A    between atoms: C15_22  and  O8_23 
REMARK    7  A    between atoms: C15_22  and  C16_25 
ROOT
HETATM    1  C3  UNL     1      -2.187   1.550  -0.509  1.00  0.00     0.048 C 
HETATM    2  C4  UNL     1      -1.202   2.016  -1.253  1.00  0.00     0.085 C 
HETATM    3  O3  UNL     1      -0.797   3.312  -1.635  1.00  0.00    -0.281 OA
HETATM    4  C5  UNL     1       0.515   2.795  -1.592  1.00  0.00     0.277 C 
HETATM    5  O4  UNL     1       1.586   3.339  -1.297  1.00  0.00    -0.264 OA
HETATM    6  C6  UNL     1      -0.090   1.508  -2.021  1.00  0.00     0.174 C 
HETATM    7  C7  UNL     1       0.581   0.255  -1.568  1.00  0.00     0.163 C 
HETATM    8  C13 UNL     1      -0.441  -0.816  -1.232  1.00  0.00     0.097 C 
HETATM    9  C14 UNL     1       0.022  -2.070  -0.681  1.00  0.00     0.169 C 
HETATM   10  O7  UNL     1       0.809  -2.994  -0.923  1.00  0.00    -0.294 OA
HETATM   11  C15 UNL     1      -0.902  -1.891   0.489  1.00  0.00     0.126 C 
HETATM   12  C19 UNL     1      -1.092  -0.495   0.123  1.00  0.00     0.046 C 
HETATM   13  C20 UNL     1      -2.413   0.082  -0.237  1.00  0.00     0.056 C 
ENDROOT
BRANCH   7  14
HETATM   14  O5  UNL     1       1.512   0.432  -0.519  1.00  0.00    -0.313 OA
BRANCH  14  15
HETATM   15  C8  UNL     1       2.864   0.131  -0.657  1.00  0.00     0.267 C 
HETATM   16  O6  UNL     1       3.197  -0.316  -1.808  1.00  0.00    -0.264 OA
BRANCH  15  17
HETATM   17  C9  UNL     1       3.866   0.295   0.396  1.00  0.00     0.037 C 
HETATM   18  C10 UNL     1       4.008   1.716   0.893  1.00  0.00     0.025 C 
HETATM   19  C11 UNL     1       3.556  -0.590   1.609  1.00  0.00     0.025 C 
HETATM   20  C12 UNL     1       5.213  -0.141  -0.112  1.00  0.00     0.025 C 
ENDBRANCH  15  17
ENDBRANCH  14  15
ENDBRANCH   7  14
BRANCH   1  21
HETATM   21  C2  UNL     1      -3.125   2.473   0.103  1.00  0.00     0.291 C 
HETATM   22  O2  UNL     1      -4.054   2.001   0.807  1.00  0.00    -0.260 OA
BRANCH  21  23
HETATM   23  O1  UNL     1      -3.069   3.833  -0.033  1.00  0.00    -0.323 OA
HETATM   24  C1  UNL     1      -4.008   4.700   0.585  1.00  0.00     0.213 C 
ENDBRANCH  21  23
ENDBRANCH   1  21
BRANCH  11  25
HETATM   25  O8  UNL     1      -0.048  -1.950   1.644  1.00  0.00    -0.381 OA
ATOM     26  H8  UNL     1      -0.633  -1.837   2.384  1.00  0.00     0.211 HD
ENDBRANCH  11  25
BRANCH  11  27
HETATM   27  C16 UNL     1      -2.033  -2.845   0.601  1.00  0.00     0.020 C 
HETATM   28  C17 UNL     1      -1.524  -4.295   0.727  1.00  0.00     0.013 C 
HETATM   29  C18 UNL     1      -3.020  -2.857  -0.510  1.00  0.00     0.013 C 
ENDBRANCH  11  27
TORSDOF 7
