REMARK  7 active torsions:
REMARK  status: ('A' for Active; 'I' for Inactive)
REMARK    1  A    between atoms: C2_2  and  C3_3 
REMARK    2  A    between atoms: C3_3  and  C4_4 
REMARK    3  A    between atoms: C4_4  and  C5_5 
REMARK    4  A    between atoms: C5_5  and  C6_6 
REMARK    5  A    between atoms: C6_6  and  C7_7 
REMARK    6  A    between atoms: C7_7  and  N1_9 
REMARK    7  A    between atoms: C7_7  and  C11_16 
ROOT
HETATM    1  C7  UNL     1      -1.443  -0.395  -0.078  1.00  0.00     0.060 C 
HETATM    2  C8  UNL     1      -1.561  -0.669  -1.570  1.00  0.00     0.041 C 
ENDROOT
BRANCH   1   3
HETATM    3  C6  UNL     1      -0.041  -0.641   0.260  1.00  0.00     0.033 C 
BRANCH   3   4
HETATM    4  C5  UNL     1       0.989   0.190  -0.485  1.00  0.00     0.002 C 
BRANCH   4   5
HETATM    5  C4  UNL     1       2.337  -0.336   0.080  1.00  0.00     0.000 C 
BRANCH   5   6
HETATM    6  C3  UNL     1       3.480   0.414  -0.583  1.00  0.00    -0.000 C 
BRANCH   6   7
HETATM    7  C2  UNL     1       4.765  -0.128  -0.005  1.00  0.00    -0.005 C 
HETATM    8  C1  UNL     1       5.979   0.555  -0.601  1.00  0.00     0.005 C 
ENDBRANCH   6   7
ENDBRANCH   5   6
ENDBRANCH   4   5
ENDBRANCH   3   4
ENDBRANCH   1   3
BRANCH   1   9
HETATM    9  N1  UNL     1      -2.261  -1.511   0.511  1.00  0.00    -0.241 N 
HETATM   10  N2  UNL     1      -3.461  -1.718   0.080  1.00  0.00    -0.299 N 
HETATM   11  C9  UNL     1      -4.210  -2.666   0.552  1.00  0.00     0.162 A 
ATOM     12  H2  UNL     1      -3.832  -1.116  -0.656  1.00  0.00     0.187 HD
HETATM   13  S1  UNL     1      -3.171  -3.365   1.717  1.00  0.00    -0.021 SA
HETATM   14  C10 UNL     1      -1.826  -2.327   1.472  1.00  0.00     0.306 A 
HETATM   15  O1  UNL     1      -0.748  -2.415   2.105  1.00  0.00    -0.258 OA
ENDBRANCH   1   9
BRANCH   1  16
HETATM   16  C11 UNL     1      -2.057   0.915   0.212  1.00  0.00    -0.024 C 
HETATM   17  C12 UNL     1      -1.430   2.108  -0.457  1.00  0.00     0.017 C 
HETATM   18  C13 UNL     1      -2.077   1.263   1.701  1.00  0.00     0.017 C 
HETATM   19  C14 UNL     1      -3.530   0.978  -0.179  1.00  0.00     0.017 C 
ENDBRANCH   1  16
TORSDOF 7
