REMARK  6 active torsions:
REMARK  status: ('A' for Active; 'I' for Inactive)
REMARK    1  A    between atoms: C2_2  and  C3_4 
REMARK    2  A    between atoms: C3_4  and  C4_5 
REMARK    3  A    between atoms: C4_5  and  C5_6 
REMARK    4  A    between atoms: C5_6  and  C6_7 
REMARK    5  A    between atoms: C6_7  and  C7_8 
REMARK    6  A    between atoms: C7_8  and  C8_9 
ROOT
HETATM    1  C8  UNL     1      -1.219  -0.635   0.217  1.00  0.00     0.075 C 
HETATM    2  C9  UNL     1      -0.556  -1.231   1.450  1.00  0.00     0.051 C 
HETATM    3  N1  UNL     1      -2.181  -1.556  -0.209  1.00  0.00    -0.377 N 
ATOM      4  H1  UNL     1      -1.881  -2.502  -0.443  1.00  0.00     0.160 HD
HETATM    5  C10 UNL     1      -3.370  -1.275  -0.313  1.00  0.00     0.007 C 
HETATM    6  C11 UNL     1      -4.670  -1.954  -0.722  1.00  0.00     0.127 C 
HETATM    7  S1  UNL     1      -5.318  -0.663  -1.858  1.00  0.00    -0.162 SA
HETATM    8  C12 UNL     1      -4.252   0.723  -1.268  1.00  0.00     0.095 C 
HETATM    9  C13 UNL     1      -3.803   0.094   0.035  1.00  0.00     0.105 C 
HETATM   10  S2  UNL     1      -2.253   0.785   0.662  1.00  0.00    -0.127 SA
ENDROOT
BRANCH   1  11
HETATM   11  C7  UNL     1      -0.214  -0.296  -0.846  1.00  0.00     0.042 C 
BRANCH  11  12
HETATM   12  C6  UNL     1       0.763   0.714  -0.249  1.00  0.00     0.003 C 
BRANCH  12  13
HETATM   13  C5  UNL     1       1.808   1.081  -1.291  1.00  0.00     0.001 C 
BRANCH  13  14
HETATM   14  C4  UNL     1       2.784   2.066  -0.736  1.00  0.00     0.007 C 
BRANCH  14  15
HETATM   15  C3  UNL     1       3.524   1.500   0.479  1.00  0.00     0.077 C 
BRANCH  15  16
HETATM   16  C2  UNL     1       4.278   0.270   0.105  1.00  0.00     0.123 C 
HETATM   17  C1  UNL     1       4.092  -0.997   0.866  1.00  0.00     0.091 C 
HETATM   18  O1  UNL     1       5.076   0.263  -0.845  1.00  0.00    -0.298 OA
ENDBRANCH  15  16
ENDBRANCH  14  15
ENDBRANCH  13  14
ENDBRANCH  12  13
ENDBRANCH  11  12
ENDBRANCH   1  11
TORSDOF 6
