REMARK  13 active torsions:
REMARK  status: ('A' for Active; 'I' for Inactive)
REMARK    1  A    between atoms: O1_1  and  C1_3 
REMARK    2  A    between atoms: C1_3  and  C2_4 
REMARK    3  A    between atoms: N2_8  and  C4_9 
REMARK    4  A    between atoms: C4_9  and  C5_10 
REMARK    5  A    between atoms: C5_10  and  C6_11 
REMARK    6  A    between atoms: C6_11  and  C7_12 
REMARK    7  A    between atoms: C7_12  and  C8_13 
REMARK    8  A    between atoms: C9_14  and  C10_15 
REMARK    9  A    between atoms: C11_16  and  C12_17 
REMARK   10  A    between atoms: C12_17  and  C13_18 
REMARK   11  A    between atoms: C13_18  and  C14_19 
REMARK   12  A    between atoms: C14_19  and  C15_20 
REMARK   13  A    between atoms: C15_20  and  N3_21 
ROOT
HETATM    1  C8  UNL     1       2.021  -1.468   2.361  1.00  0.00    -0.092 C 
HETATM    2  C9  UNL     1       1.031  -0.987   1.804  1.00  0.00    -0.015 C 
ENDROOT
BRANCH   1   3
HETATM    3  C7  UNL     1       3.154  -2.040   3.064  1.00  0.00     0.095 C 
BRANCH   3   4
HETATM    4  C6  UNL     1       4.372  -1.211   2.922  1.00  0.00     0.014 C 
BRANCH   4   5
HETATM    5  C5  UNL     1       4.997  -1.047   1.606  1.00  0.00     0.023 C 
BRANCH   5   6
HETATM    6  C4  UNL     1       4.220  -0.468   0.489  1.00  0.00     0.148 C 
BRANCH   6   7
HETATM    7  N2  UNL     1       5.164  -0.381  -0.659  1.00  0.00    -0.303 N 
HETATM    8  N1  UNL     1       5.385  -1.290  -1.561  1.00  0.00    -0.309 N 
HETATM    9  C3  UNL     1       6.302  -0.880  -2.454  1.00  0.00     0.118 A 
ATOM     10  H1  UNL     1       4.922  -2.198  -1.588  1.00  0.00     0.186 HD
HETATM   11  C2  UNL     1       6.657   0.393  -2.040  1.00  0.00    -0.001 A 
HETATM   12  C21 UNL     1       5.937   0.689  -0.918  1.00  0.00     0.120 A 
BRANCH  11  13
HETATM   13  C1  UNL     1       7.658   1.242  -2.740  1.00  0.00     0.205 C 
BRANCH  13  14
HETATM   14  O1  UNL     1       8.936   1.008  -2.221  1.00  0.00    -0.396 OA
ATOM     15  H1  UNL     1       9.575   1.550  -2.668  1.00  0.00     0.209 HD
ENDBRANCH  13  14
ENDBRANCH  11  13
ENDBRANCH   6   7
ENDBRANCH   5   6
ENDBRANCH   4   5
ENDBRANCH   3   4
ENDBRANCH   1   3
BRANCH   2  16
HETATM   16  C10 UNL     1      -0.091  -0.439   1.143  1.00  0.00    -0.015 C 
HETATM   17  C11 UNL     1      -1.052   0.044   0.594  1.00  0.00    -0.092 C 
BRANCH  17  18
HETATM   18  C12 UNL     1      -2.231   0.634  -0.056  1.00  0.00     0.095 C 
BRANCH  18  19
HETATM   19  C13 UNL     1      -3.447  -0.079   0.519  1.00  0.00     0.014 C 
BRANCH  19  20
HETATM   20  C14 UNL     1      -4.728   0.448  -0.080  1.00  0.00     0.021 C 
BRANCH  20  21
HETATM   21  C15 UNL     1      -5.865  -0.337   0.569  1.00  0.00     0.128 C 
BRANCH  21  22
HETATM   22  N3  UNL     1      -7.096   0.166  -0.003  1.00  0.00    -0.366 N 
HETATM   23  C16 UNL     1      -7.744   1.202   0.578  1.00  0.00     0.090 A 
HETATM   24  C17 UNL     1      -8.914   1.638  -0.016  1.00  0.00     0.017 A 
HETATM   25  C18 UNL     1      -9.395   1.036  -1.156  1.00  0.00     0.003 A 
HETATM   26  C19 UNL     1      -8.705  -0.009  -1.708  1.00  0.00     0.017 A 
HETATM   27  C20 UNL     1      -7.551  -0.439  -1.122  1.00  0.00     0.090 A 
ENDBRANCH  21  22
ENDBRANCH  20  21
ENDBRANCH  19  20
ENDBRANCH  18  19
ENDBRANCH  17  18
ENDBRANCH   2  16
TORSDOF 13
