REMARK  10 active torsions:
REMARK  status: ('A' for Active; 'I' for Inactive)
REMARK    1  A    between atoms: N1_1  and  C1_5 
REMARK    2  A    between atoms: C1_5  and  C2_6 
REMARK    3  A    between atoms: C5_9  and  C6_10 
REMARK    4  A    between atoms: C6_10  and  C7_11 
REMARK    5  A    between atoms: N2_14  and  C10_15 
REMARK    6  A    between atoms: C10_15  and  C11_16 
REMARK    7  A    between atoms: C11_16  and  C12_17 
REMARK    8  A    between atoms: C12_17  and  C13_18 
REMARK    9  A    between atoms: C13_18  and  C14_19 
REMARK   10  A    between atoms: C14_19  and  N3_20 
ROOT
HETATM    1  C7  UNL     1       2.192  -2.085  -0.212  1.00  0.00     0.031 A 
HETATM    2  C8  UNL     1       2.333  -2.507  -1.517  1.00  0.00     0.045 A 
HETATM    3  C9  UNL     1       1.136  -2.162  -2.130  1.00  0.00     0.112 A 
HETATM    4  N2  UNL     1       0.319  -1.566  -1.243  1.00  0.00    -0.303 N 
HETATM    5  N4  UNL     1       0.972  -1.531  -0.105  1.00  0.00    -0.303 N 
ATOM      6  H4  UNL     1       0.599  -1.132   0.756  1.00  0.00     0.186 HD
ENDROOT
BRANCH   1   7
HETATM    7  C6  UNL     1       3.208  -2.215   0.893  1.00  0.00     0.097 C 
BRANCH   7   8
HETATM    8  C5  UNL     1       4.032  -0.967   0.835  1.00  0.00    -0.052 A 
HETATM    9  C4  UNL     1       3.649   0.130   1.567  1.00  0.00     0.008 A 
HETATM   10  C3  UNL     1       4.385   1.297   1.536  1.00  0.00     0.009 A 
HETATM   11  C2  UNL     1       5.540   1.413   0.768  1.00  0.00    -0.033 A 
HETATM   12  C21 UNL     1       5.912   0.302   0.040  1.00  0.00     0.009 A 
HETATM   13  C20 UNL     1       5.171  -0.870   0.071  1.00  0.00     0.008 A 
BRANCH  11  14
HETATM   14  C1  UNL     1       6.331   2.673   0.739  1.00  0.00     0.268 C 
BRANCH  14  15
HETATM   15  N1  UNL     1       7.460   2.464  -0.145  1.00  0.00    -0.075 N 
ATOM     16  H13 UNL     1       8.019   1.651   0.112  1.00  0.00     0.274 HD
ATOM     17  H12 UNL     1       7.183   2.149  -1.074  1.00  0.00     0.274 HD
ATOM     18  H11 UNL     1       8.002   3.328  -0.165  1.00  0.00     0.274 HD
ENDBRANCH  14  15
ENDBRANCH  11  14
ENDBRANCH   7   8
ENDBRANCH   1   7
BRANCH   4  19
HETATM   19  C10 UNL     1      -1.041  -1.055  -1.508  1.00  0.00     0.148 C 
BRANCH  19  20
HETATM   20  C11 UNL     1      -2.035  -2.156  -1.244  1.00  0.00     0.022 C 
BRANCH  20  21
HETATM   21  C12 UNL     1      -3.457  -1.750  -1.498  1.00  0.00     0.003 C 
BRANCH  21  22
HETATM   22  C13 UNL     1      -3.813  -0.598  -0.593  1.00  0.00     0.020 C 
BRANCH  22  23
HETATM   23  C14 UNL     1      -5.262  -0.180  -0.822  1.00  0.00     0.128 C 
BRANCH  23  24
HETATM   24  N3  UNL     1      -5.520   0.921   0.078  1.00  0.00    -0.366 N 
HETATM   25  C15 UNL     1      -5.316   2.199  -0.260  1.00  0.00     0.090 A 
HETATM   26  C16 UNL     1      -5.564   3.243   0.601  1.00  0.00     0.017 A 
HETATM   27  C17 UNL     1      -6.040   2.952   1.855  1.00  0.00     0.003 A 
HETATM   28  C18 UNL     1      -6.261   1.632   2.230  1.00  0.00     0.017 A 
HETATM   29  C19 UNL     1      -5.992   0.636   1.320  1.00  0.00     0.090 A 
ENDBRANCH  23  24
ENDBRANCH  22  23
ENDBRANCH  21  22
ENDBRANCH  20  21
ENDBRANCH  19  20
ENDBRANCH   4  19
TORSDOF 10
