REMARK  10 active torsions:
REMARK  status: ('A' for Active; 'I' for Inactive)
REMARK    1  A    between atoms: O1_1  and  C1_3 
REMARK    2  A    between atoms: C1_3  and  C2_4 
REMARK    3  A    between atoms: C2_4  and  C3_5 
REMARK    4  A    between atoms: C8_10  and  C9_11 
REMARK    5  A    between atoms: C9_11  and  C10_12 
REMARK    6  A    between atoms: C10_12  and  C11_13 
REMARK    7  A    between atoms: C11_13  and  C12_14 
REMARK    8  A    between atoms: C12_14  and  N1_15 
REMARK    9  A    between atoms: C15_18  and  C16_19 
REMARK   10  A    between atoms: C16_19  and  N2_20 
ROOT
HETATM    1  C12 UNL     1       0.177  -0.862   0.789  1.00  0.00     0.128 C 
ENDROOT
BRANCH   1   2
HETATM    2  C11 UNL     1      -0.972   0.113   0.732  1.00  0.00     0.021 C 
BRANCH   2   3
HETATM    3  C10 UNL     1      -2.204  -0.689   1.161  1.00  0.00     0.006 C 
BRANCH   3   4
HETATM    4  C9  UNL     1      -3.448   0.130   1.168  1.00  0.00     0.039 C 
BRANCH   4   5
HETATM    5  C8  UNL     1      -3.816   0.718  -0.143  1.00  0.00    -0.052 A 
HETATM    6  C3  UNL     1      -4.494   0.076  -1.146  1.00  0.00    -0.050 A 
HETATM    7  C4  UNL     1      -4.744   0.679  -2.386  1.00  0.00     0.007 A 
HETATM    8  C5  UNL     1      -4.276   1.956  -2.553  1.00  0.00     0.001 A 
HETATM    9  C6  UNL     1      -3.594   2.612  -1.549  1.00  0.00     0.001 A 
HETATM   10  C7  UNL     1      -3.345   2.029  -0.334  1.00  0.00     0.007 A 
BRANCH   6  11
HETATM   11  C2  UNL     1      -5.062  -1.259  -0.954  1.00  0.00     0.065 C 
BRANCH  11  12
HETATM   12  C1  UNL     1      -6.395  -1.273  -0.235  1.00  0.00     0.168 C 
BRANCH  12  13
HETATM   13  O1  UNL     1      -6.850  -2.581  -0.092  1.00  0.00    -0.401 OA
ATOM     14  H1  UNL     1      -7.686  -2.590   0.359  1.00  0.00     0.209 HD
ENDBRANCH  12  13
ENDBRANCH  11  12
ENDBRANCH   6  11
ENDBRANCH   4   5
ENDBRANCH   3   4
ENDBRANCH   2   3
ENDBRANCH   1   2
BRANCH   1  15
HETATM   15  N1  UNL     1       1.445  -0.322   0.425  1.00  0.00    -0.366 N 
HETATM   16  C13 UNL     1       1.870  -0.356  -0.848  1.00  0.00     0.091 A 
HETATM   17  C14 UNL     1       3.090   0.149  -1.261  1.00  0.00     0.026 A 
HETATM   18  C15 UNL     1       3.937   0.725  -0.338  1.00  0.00    -0.037 A 
HETATM   19  C20 UNL     1       3.500   0.762   0.975  1.00  0.00     0.026 A 
HETATM   20  C21 UNL     1       2.278   0.247   1.341  1.00  0.00     0.091 A 
BRANCH  18  21
HETATM   21  C16 UNL     1       5.268   1.288  -0.704  1.00  0.00     0.167 C 
BRANCH  21  22
HETATM   22  N2  UNL     1       6.301   0.295  -0.576  1.00  0.00    -0.347 N 
HETATM   23  C17 UNL     1       6.764  -0.575  -1.472  1.00  0.00     0.109 A 
HETATM   24  C18 UNL     1       7.760  -1.330  -0.894  1.00  0.00     0.106 A 
HETATM   25  N3  UNL     1       7.891  -0.895   0.380  1.00  0.00    -0.361 N 
HETATM   26  C19 UNL     1       7.002   0.089   0.559  1.00  0.00     0.182 A 
ATOM     27  H3  UNL     1       8.546  -1.251   1.076  1.00  0.00     0.166 HD
ENDBRANCH  21  22
ENDBRANCH  18  21
ENDBRANCH   1  15
TORSDOF 10
