REMARK  9 active torsions:
REMARK  status: ('A' for Active; 'I' for Inactive)
REMARK    1  A    between atoms: N1_6  and  C6_7 
REMARK    2  A    between atoms: C6_7  and  C7_8 
REMARK    3  A    between atoms: C7_8  and  C8_9 
REMARK    4  A    between atoms: C8_9  and  C9_10 
REMARK    5  A    between atoms: C9_10  and  C10_11 
REMARK    6  A    between atoms: C10_11  and  C11_12 
REMARK    7  A    between atoms: C11_12  and  C12_13 
REMARK    8  A    between atoms: C12_13  and  C13_14 
REMARK    9  A    between atoms: C13_14  and  N2_15 
ROOT
HETATM    1  C10 UNL     1      -0.016  -0.784   1.334  1.00  0.00     0.000 C 
ENDROOT
BRANCH   1   2
HETATM    2  C9  UNL     1       0.439   0.626   1.506  1.00  0.00     0.000 C 
BRANCH   2   3
HETATM    3  C8  UNL     1       1.910   0.736   1.175  1.00  0.00     0.002 C 
BRANCH   3   4
HETATM    4  C7  UNL     1       2.759  -0.097   2.081  1.00  0.00     0.022 C 
BRANCH   4   5
HETATM    5  C6  UNL     1       4.208   0.015   1.757  1.00  0.00     0.148 C 
BRANCH   5   6
HETATM    6  N1  UNL     1       4.631  -0.449   0.484  1.00  0.00    -0.303 N 
HETATM    7  C5  UNL     1       3.980  -1.185  -0.336  1.00  0.00     0.110 A 
HETATM    8  C4  UNL     1       4.483  -1.629  -1.637  1.00  0.00     0.021 A 
HETATM    9  C3  UNL     1       5.690  -1.279  -2.045  1.00  0.00     0.031 A 
HETATM   10  C2  UNL     1       6.496  -0.443  -1.164  1.00  0.00     0.038 A 
HETATM   11  C1  UNL     1       7.702  -0.093  -1.568  1.00  0.00     0.044 C 
HETATM   12  N4  UNL     1       5.935  -0.057   0.074  1.00  0.00    -0.300 N 
ATOM     13  H4  UNL     1       6.489   0.528   0.700  1.00  0.00     0.187 HD
ENDBRANCH   5   6
ENDBRANCH   4   5
ENDBRANCH   3   4
ENDBRANCH   2   3
ENDBRANCH   1   2
BRANCH   1  14
HETATM   14  C11 UNL     1      -1.483  -0.893   1.668  1.00  0.00     0.002 C 
BRANCH  14  15
HETATM   15  C12 UNL     1      -2.291  -0.038   0.759  1.00  0.00     0.020 C 
BRANCH  15  16
HETATM   16  C13 UNL     1      -3.786  -0.150   1.060  1.00  0.00     0.130 C 
BRANCH  16  17
HETATM   17  N2  UNL     1      -4.460   0.713   0.126  1.00  0.00    -0.341 N 
HETATM   18  C14 UNL     1      -4.757   2.004   0.302  1.00  0.00     0.183 A 
HETATM   19  N3  UNL     1      -5.387   2.460  -0.796  1.00  0.00    -0.350 N 
HETATM   20  C15 UNL     1      -5.496   1.444  -1.689  1.00  0.00     0.060 A 
ATOM     21  H3  UNL     1      -5.726   3.412  -0.934  1.00  0.00     0.166 HD
HETATM   22  C16 UNL     1      -6.040   1.350  -2.950  1.00  0.00     0.032 A 
HETATM   23  C20 UNL     1      -4.905   0.352  -1.085  1.00  0.00     0.062 A 
HETATM   24  C17 UNL     1      -5.988   0.149  -3.607  1.00  0.00     0.002 A 
HETATM   25  C18 UNL     1      -5.403  -0.956  -3.026  1.00  0.00     0.002 A 
HETATM   26  C19 UNL     1      -4.856  -0.873  -1.765  1.00  0.00     0.032 A 
ENDBRANCH  16  17
ENDBRANCH  15  16
ENDBRANCH  14  15
ENDBRANCH   1  14
TORSDOF 9
