REMARK  10 active torsions:
REMARK  status: ('A' for Active; 'I' for Inactive)
REMARK    1  A    between atoms: C1_1  and  C18_21 
REMARK    2  A    between atoms: C2_2  and  C3_3 
REMARK    3  A    between atoms: C6_6  and  C7_7 
REMARK    4  A    between atoms: C7_7  and  C8_8 
REMARK    5  A    between atoms: C8_8  and  C9_9 
REMARK    6  A    between atoms: C9_9  and  C10_10 
REMARK    7  A    between atoms: C10_10  and  C11_11 
REMARK    8  A    between atoms: C11_11  and  C12_12 
REMARK    9  A    between atoms: C12_12  and  N1_13 
REMARK   10  A    between atoms: C18_21  and  N3_22 
ROOT
HETATM    1  C3  UNL     1       2.542   0.057   0.049  1.00  0.00     0.017 A 
HETATM    2  C4  UNL     1       2.449   1.432   0.003  1.00  0.00     0.021 A 
HETATM    3  C5  UNL     1       1.279   2.062   0.334  1.00  0.00     0.008 A 
HETATM    4  C6  UNL     1       0.138   1.352   0.729  1.00  0.00    -0.058 A 
HETATM    5  C16 UNL     1       0.250   0.004   0.768  1.00  0.00     0.008 A 
HETATM    6  C17 UNL     1       1.445  -0.645   0.430  1.00  0.00     0.021 A 
ENDROOT
BRANCH   4   7
HETATM    7  C7  UNL     1      -1.059   2.160   1.067  1.00  0.00     0.038 C 
BRANCH   7   8
HETATM    8  C8  UNL     1      -1.866   2.410  -0.168  1.00  0.00     0.005 C 
BRANCH   8   9
HETATM    9  C9  UNL     1      -2.408   1.211  -0.852  1.00  0.00     0.000 C 
BRANCH   9  10
HETATM   10  C10 UNL     1      -3.371   0.389  -0.022  1.00  0.00     0.002 C 
BRANCH  10  11
HETATM   11  C11 UNL     1      -4.574   1.162   0.396  1.00  0.00     0.022 C 
BRANCH  11  12
HETATM   12  C12 UNL     1      -5.476   0.289   1.224  1.00  0.00     0.148 C 
BRANCH  12  13
HETATM   13  N1  UNL     1      -5.901  -0.854   0.462  1.00  0.00    -0.304 N 
HETATM   14  C13 UNL     1      -7.000  -0.897  -0.314  1.00  0.00     0.111 A 
HETATM   15  C14 UNL     1      -7.117  -2.134  -0.888  1.00  0.00     0.037 A 
HETATM   16  C15 UNL     1      -6.043  -2.862  -0.437  1.00  0.00     0.108 A 
HETATM   17  N2  UNL     1      -5.356  -2.049   0.362  1.00  0.00    -0.310 N 
ATOM     18  H2  UNL     1      -4.500  -2.322   0.845  1.00  0.00     0.186 HD
ENDBRANCH  12  13
ENDBRANCH  11  12
ENDBRANCH  10  11
ENDBRANCH   9  10
ENDBRANCH   8   9
ENDBRANCH   7   8
ENDBRANCH   4   7
BRANCH   1  19
HETATM   19  C2  UNL     1       3.767  -0.624  -0.296  1.00  0.00    -0.065 C 
HETATM   20  C1  UNL     1       4.802  -1.179  -0.573  1.00  0.00    -0.081 C 
BRANCH  20  21
HETATM   21  C18 UNL     1       6.086  -1.845  -0.898  1.00  0.00     0.223 C 
BRANCH  21  22
HETATM   22  N3  UNL     1       7.159  -1.211  -0.170  1.00  0.00    -0.341 N 
HETATM   23  C19 UNL     1       7.571  -1.577   1.046  1.00  0.00     0.110 A 
HETATM   24  C20 UNL     1       8.599  -0.746   1.400  1.00  0.00     0.106 A 
HETATM   25  N4  UNL     1       8.780   0.095   0.394  1.00  0.00    -0.361 N 
HETATM   26  C21 UNL     1       7.900  -0.181  -0.579  1.00  0.00     0.183 A 
ATOM     27  H4  UNL     1       9.479   0.837   0.364  1.00  0.00     0.166 HD
ENDBRANCH  21  22
ENDBRANCH  20  21
ENDBRANCH   1  19
TORSDOF 10
