REMARK  13 active torsions:
REMARK  status: ('A' for Active; 'I' for Inactive)
REMARK       I    between atoms: C1_4  and  N3_6 
REMARK    1  A    between atoms: N3_6  and  C2_8 
REMARK    2  A    between atoms: C2_8  and  C3_9 
REMARK    3  A    between atoms: C3_9  and  C4_10 
REMARK    4  A    between atoms: C4_10  and  C5_11 
REMARK    5  A    between atoms: C5_11  and  N4_12 
REMARK    6  A    between atoms: N4_12  and  S1_14 
REMARK    7  A    between atoms: S1_14  and  C6_17 
REMARK    8  A    between atoms: C7_20  and  N6_21 
REMARK    9  A    between atoms: N10_31  and  O4_32 
REMARK   10  A    between atoms: N13_41  and  C14_42 
REMARK   11  A    between atoms: C15_46  and  N15_47 
REMARK   12  A    between atoms: C16_51  and  N16_52 
REMARK   13  A    between atoms: C17_56  and  O5_57 
ROOT
HETATM    1  C6  UNL     1       0.190  -0.146  -1.757  1.00  0.00     0.180 A 
HETATM    2  N5  UNL     1       0.041  -1.480  -1.784  1.00  0.00    -0.327 N 
ATOM      3  H5  UNL     1       0.844  -2.061  -2.022  1.00  0.00     0.168 HD
HETATM    4  C7  UNL     1      -1.138  -2.077  -1.506  1.00  0.00     0.158 A 
HETATM    5  C10 UNL     1      -2.206  -1.261  -1.186  1.00  0.00     0.121 A 
HETATM    6  N11 UNL     1      -3.439  -1.888  -0.894  1.00  0.00    -0.096 NA
HETATM    7  C11 UNL     1      -2.132   0.124  -1.137  1.00  0.00     0.095 A 
HETATM    8  C12 UNL     1      -0.877   0.666  -1.438  1.00  0.00     0.103 A 
HETATM    9  N12 UNL     1      -1.036   2.005  -1.330  1.00  0.00    -0.348 N 
ATOM     10  H12 UNL     1      -0.311   2.705  -1.485  1.00  0.00     0.167 HD
HETATM   11  C13 UNL     1      -2.305   2.257  -0.986  1.00  0.00     0.186 A 
HETATM   12  N13 UNL     1      -3.004   1.118  -0.861  1.00  0.00    -0.308 N 
ENDROOT
BRANCH  12  13
HETATM   13  C14 UNL     1      -4.387   0.930  -0.509  1.00  0.00     0.325 C 
HETATM   14  N14 UNL     1      -5.115   2.186  -0.749  1.00  0.00    -0.020 N 
HETATM   15  C15 UNL     1      -5.594   2.664   0.502  1.00  0.00     0.415 C 
ATOM     16 2H14 UNL     1      -4.554   2.878  -1.247  1.00  0.00     0.282 HD
ATOM     17 1H14 UNL     1      -5.856   2.086  -1.443  1.00  0.00     0.282 HD
HETATM   18  C16 UNL     1      -4.637   2.064   1.529  1.00  0.00     0.273 C 
HETATM   19  C17 UNL     1      -4.494   0.660   0.962  1.00  0.00     0.203 C 
BRANCH  15  20
HETATM   20  N15 UNL     1      -5.668   4.096   0.615  1.00  0.00    -0.048 N 
ATOM     21 3H15 UNL     1      -4.763   4.514   0.401  1.00  0.00     0.276 HD
ATOM     22 2H15 UNL     1      -6.226   4.482  -0.147  1.00  0.00     0.276 HD
ATOM     23 1H15 UNL     1      -6.012   4.439   1.512  1.00  0.00     0.276 HD
ENDBRANCH  15  20
BRANCH  18  24
HETATM   24  N16 UNL     1      -5.242   2.034   2.847  1.00  0.00    -0.069 N 
ATOM     25 3H16 UNL     1      -5.569   2.957   3.132  1.00  0.00     0.275 HD
ATOM     26 2H16 UNL     1      -6.138   1.547   2.839  1.00  0.00     0.275 HD
ATOM     27 1H16 UNL     1      -4.603   1.633   3.533  1.00  0.00     0.275 HD
ENDBRANCH  18  24
BRANCH  19  28
HETATM   28  O5  UNL     1      -5.690  -0.003   1.213  1.00  0.00    -0.389 OA
ATOM     29  H5  UNL     1      -5.758  -0.174   2.145  1.00  0.00     0.210 HD
ENDBRANCH  19  28
ENDBRANCH  12  13
BRANCH   4  30
HETATM   30  N6  UNL     1      -1.309  -3.489  -1.532  1.00  0.00    -0.202 N 
HETATM   31  N7  UNL     1      -1.386  -4.180  -2.668  1.00  0.00    -0.231 N 
HETATM   32  N8  UNL     1      -1.542  -5.457  -2.416  1.00  0.00    -0.264 N 
ATOM     33  H7  UNL     1      -1.331  -3.773  -3.602  1.00  0.00     0.209 HD
HETATM   34  C8  UNL     1      -1.572  -5.640  -1.076  1.00  0.00     0.224 A 
ATOM     35  H8  UNL     1      -1.627  -6.193  -3.117  1.00  0.00     0.190 HD
HETATM   36  C9  UNL     1      -1.422  -4.374  -0.547  1.00  0.00     0.202 A 
HETATM   37  N10 UNL     1      -1.682  -6.500  -0.046  1.00  0.00    -0.079 N 
HETATM   38  N9  UNL     1      -1.448  -4.523   0.771  1.00  0.00    -0.218 N 
HETATM   39  O3  UNL     1      -1.601  -5.778   1.032  1.00  0.00    -0.125 OA
ATOM     40  H9  UNL     1      -1.362  -3.775   1.459  1.00  0.00     0.199 HD
BRANCH  37  41
HETATM   41  O4  UNL     1      -1.847  -7.870  -0.160  1.00  0.00    -0.260 OA
ATOM     42  H4  UNL     1      -1.925  -8.477   0.567  1.00  0.00     0.247 HD
ENDBRANCH  37  41
ENDBRANCH   4  30
BRANCH   1  43
HETATM   43  S1  UNL     1       1.739   0.569  -2.126  1.00  0.00     0.276 S 
HETATM   44  O1  UNL     1       1.584   1.934  -2.766  1.00  0.00    -0.199 OA
HETATM   45  O2  UNL     1       2.500  -0.276  -3.123  1.00  0.00    -0.199 OA
BRANCH  43  46
HETATM   46  N4  UNL     1       2.720   0.767  -0.742  1.00  0.00    -0.314 N 
ATOM     47  H4  UNL     1       3.047   1.673  -0.407  1.00  0.00     0.172 HD
BRANCH  46  48
HETATM   48  C5  UNL     1       3.038  -0.489  -0.094  1.00  0.00     0.132 C 
BRANCH  48  49
HETATM   49  C4  UNL     1       3.909  -0.172   1.114  1.00  0.00     0.022 C 
BRANCH  49  50
HETATM   50  C3  UNL     1       5.162   0.522   0.615  1.00  0.00     0.021 C 
BRANCH  50  51
HETATM   51  C2  UNL     1       6.045   0.842   1.824  1.00  0.00     0.122 C 
BRANCH  51  52
HETATM   52  N3  UNL     1       7.238   1.505   1.362  1.00  0.00    -0.365 N 
HETATM   53  C1  UNL     1       8.197   0.798   0.591  1.00  0.00     0.181 C 
HETATM   54  N1  UNL     1       8.558  -0.377   0.916  1.00  0.00    -0.374 N 
HETATM   55  N2  UNL     1       8.718   1.475  -0.547  1.00  0.00    -0.064 NA
ATOM     56  H12 UNL     1       9.247  -0.885   0.362  1.00  0.00     0.158 HD
ATOM     57  H11 UNL     1       8.185  -0.862   1.732  1.00  0.00     0.158 HD
ATOM     58  H3  UNL     1       7.394   2.487   1.590  1.00  0.00     0.162 HD
ENDBRANCH  51  52
ENDBRANCH  50  51
ENDBRANCH  49  50
ENDBRANCH  48  49
ENDBRANCH  46  48
ENDBRANCH  43  46
ENDBRANCH   1  43
TORSDOF 13
