REMARK  14 active torsions:
REMARK  status: ('A' for Active; 'I' for Inactive)
REMARK    1  A    between atoms: C2_2  and  O1_3 
REMARK    2  A    between atoms: C2_2  and  C3_5 
REMARK    3  A    between atoms: C2_2  and  C4_8 
REMARK    4  A    between atoms: C3_5  and  O2_6 
REMARK    5  A    between atoms: C4_8  and  C5_9 
REMARK    6  A    between atoms: C6_13  and  N1_14 
REMARK    7  A    between atoms: C11_26  and  N4_27 
REMARK    8  A    between atoms: C12_32  and  S2_33 
REMARK    9  A    between atoms: S2_33  and  C13_34 
REMARK   10  A    between atoms: C13_34  and  C14_35 
REMARK   11  A    between atoms: C14_35  and  C15_36 
REMARK       I    between atoms: C15_36  and  N7_38 
REMARK   12  A    between atoms: N7_38  and  N8_40 
REMARK       I    between atoms: N8_40  and  C16_42 
REMARK   13  A    between atoms: C16_42  and  C17_44 
REMARK   14  A    between atoms: C17_44  and  N9_45 
ROOT
HETATM    1  C4  UNL     1      -3.378  -0.666   1.077  1.00  0.00     0.207 C 
HETATM    2  O5  UNL     1      -4.372   0.132   0.451  1.00  0.00    -0.338 OA
HETATM    3  C6  UNL     1      -3.708   1.234  -0.090  1.00  0.00     0.239 C 
HETATM    4  C10 UNL     1      -2.421   0.687  -0.650  1.00  0.00     0.087 C 
HETATM    5  C11 UNL     1      -2.149  -0.450   0.332  1.00  0.00     0.181 C 
ENDROOT
BRANCH   5   6
HETATM    6  N4  UNL     1      -0.906  -0.274   1.043  1.00  0.00    -0.209 N 
HETATM    7  N5  UNL     1      -0.422  -0.855   2.099  1.00  0.00    -0.223 N 
HETATM    8  N6  UNL     1       0.743  -0.386   2.389  1.00  0.00    -0.263 N 
ATOM      9  H5  UNL     1      -0.900  -1.585   2.628  1.00  0.00     0.210 HD
HETATM   10  C12 UNL     1       1.058   0.557   1.481  1.00  0.00     0.180 A 
ATOM     11  H6  UNL     1       1.327  -0.679   3.172  1.00  0.00     0.190 HD
HETATM   12  N10 UNL     1       0.016   0.611   0.650  1.00  0.00    -0.260 N 
ATOM     13  H10 UNL     1      -0.065   1.229  -0.157  1.00  0.00     0.191 HD
BRANCH  10  14
HETATM   14  S2  UNL     1       2.559   1.528   1.468  1.00  0.00    -0.063 SA
BRANCH  14  15
HETATM   15  C13 UNL     1       3.907   0.701   0.649  1.00  0.00     0.059 C 
BRANCH  15  16
HETATM   16  C14 UNL     1       5.116   1.207   0.765  1.00  0.00     0.083 C 
BRANCH  16  17
HETATM   17  C15 UNL     1       6.304   0.611   0.141  1.00  0.00     0.260 C 
HETATM   18  O8  UNL     1       6.149  -0.430  -0.541  1.00  0.00    -0.267 OA
HETATM   19  N7  UNL     1       7.591   1.171   0.291  1.00  0.00    -0.264 N 
ATOM     20  H7  UNL     1       7.671   2.020   0.851  1.00  0.00     0.190 HD
BRANCH  19  21
HETATM   21  N8  UNL     1       8.746   0.665  -0.257  1.00  0.00    -0.266 N 
HETATM   22  C16 UNL     1       9.388  -0.521   0.174  1.00  0.00     0.261 C 
HETATM   23  O9  UNL     1       8.867  -1.154   1.119  1.00  0.00    -0.270 OA
ATOM     24  H8  UNL     1       9.170   1.180  -1.028  1.00  0.00     0.190 HD
BRANCH  22  25
HETATM   25  C17 UNL     1      10.631  -1.051  -0.422  1.00  0.00     0.333 C 
BRANCH  25  26
HETATM   26  N9  UNL     1      11.120  -0.226  -1.500  1.00  0.00    -0.071 N 
ATOM     27  H93 UNL     1      10.402  -0.086  -2.211  1.00  0.00     0.274 HD
ATOM     28  H92 UNL     1      11.241   0.741  -1.198  1.00  0.00     0.274 HD
ATOM     29  H91 UNL     1      11.978  -0.592  -1.912  1.00  0.00     0.274 HD
ENDBRANCH  25  26
ENDBRANCH  22  25
ENDBRANCH  19  21
ENDBRANCH  16  17
ENDBRANCH  15  16
ENDBRANCH  14  15
ENDBRANCH  10  14
ENDBRANCH   5   6
BRANCH   1  30
HETATM   30  C2  UNL     1      -3.864  -2.084   0.952  1.00  0.00     0.119 C 
HETATM   31  C1  UNL     1      -5.063  -2.300   1.913  1.00  0.00     0.052 C 
BRANCH  30  32
HETATM   32  O1  UNL     1      -2.951  -3.035   1.364  1.00  0.00    -0.384 OA
ATOM     33  H1  UNL     1      -2.217  -2.903   0.776  1.00  0.00     0.210 HD
ENDBRANCH  30  32
BRANCH  30  34
HETATM   34  C3  UNL     1      -4.398  -2.403  -0.393  1.00  0.00     0.205 C 
BRANCH  34  35
HETATM   35  O2  UNL     1      -3.521  -2.500  -1.431  1.00  0.00    -0.398 OA
ATOM     36  H2  UNL     1      -3.863  -2.705  -2.293  1.00  0.00     0.209 HD
ENDBRANCH  34  35
ENDBRANCH  30  34
ENDBRANCH   1  30
BRANCH   1  37
HETATM   37  C5  UNL     1      -3.348  -0.191   2.465  1.00  0.00     0.215 C 
HETATM   38  O3  UNL     1      -3.986   0.891   2.736  1.00  0.00    -0.646 OA
HETATM   39  O4  UNL     1      -2.734  -0.735   3.562  1.00  0.00    -0.646 OA
ENDBRANCH   1  37
BRANCH   3  40
HETATM   40  N1  UNL     1      -4.535   1.827  -1.150  1.00  0.00    -0.248 N 
HETATM   41  C7  UNL     1      -3.981   2.448  -2.204  1.00  0.00     0.334 A 
HETATM   42  O6  UNL     1      -2.714   2.570  -2.347  1.00  0.00    -0.246 OA
HETATM   43  N2  UNL     1      -4.781   2.972  -3.157  1.00  0.00    -0.260 N 
HETATM   44  C8  UNL     1      -6.132   2.901  -3.103  1.00  0.00     0.330 A 
ATOM     45  H2  UNL     1      -4.349   3.442  -3.952  1.00  0.00     0.175 HD
HETATM   46  O7  UNL     1      -6.885   3.383  -3.989  1.00  0.00    -0.246 OA
HETATM   47  N3  UNL     1      -6.651   2.274  -2.036  1.00  0.00    -0.285 N 
HETATM   48  C9  UNL     1      -5.869   1.740  -1.062  1.00  0.00     0.188 A 
ATOM     49  H3  UNL     1      -7.665   2.196  -1.954  1.00  0.00     0.173 HD
HETATM   50  S1  UNL     1      -6.643   1.014   0.203  1.00  0.00    -0.040 SA
ENDBRANCH   3  40
TORSDOF 14
