REMARK  3 active torsions:
REMARK  status: ('A' for Active; 'I' for Inactive)
REMARK    1  A    between atoms: N1_4  and  O1_6 
REMARK    2  A    between atoms: O1_6  and  C4_7 
REMARK    3  A    between atoms: C4_7  and  C5_8 
ROOT
HETATM    1  C5  UNL     1      -0.661  -0.641  -0.940  1.00  0.00     0.018 C 
HETATM    2  C6  UNL     1      -0.710   0.844  -0.828  1.00  0.00     0.040 C 
HETATM    3  C7  UNL     1      -2.188   1.242  -0.919  1.00  0.00     0.186 C 
HETATM    4  C8  UNL     1      -2.867  -0.057  -1.375  1.00  0.00     0.038 C 
HETATM    5  C9  UNL     1      -2.038  -1.074  -0.573  1.00  0.00    -0.005 C 
HETATM    6  C10 UNL     1      -2.391  -0.867   0.863  1.00  0.00     0.032 C 
HETATM    7  C11 UNL     1      -3.193   0.403   1.088  1.00  0.00     0.233 C 
HETATM    8  N2  UNL     1      -2.632   1.539   0.412  1.00  0.00    -0.071 N 
ATOM      9  H21 UNL     1      -3.288   2.320   0.410  1.00  0.00     0.277 HD
ATOM     10  H22 UNL     1      -1.879   1.953   0.962  1.00  0.00     0.277 HD
ENDROOT
BRANCH   1  11
HETATM   11  C4  UNL     1       0.433  -1.254  -0.122  1.00  0.00     0.206 C 
BRANCH  11  12
HETATM   12  O1  UNL     1       1.665  -0.711  -0.599  1.00  0.00    -0.280 OA
BRANCH  12  13
HETATM   13  N1  UNL     1       2.872  -1.048  -0.080  1.00  0.00    -0.276 N 
HETATM   14  C2  UNL     1       3.733  -0.156   0.219  1.00  0.00     0.002 C 
HETATM   15  C1  UNL     1       3.414   1.263  -0.001  1.00  0.00     0.065 C 
HETATM   16  C3  UNL     1       5.030  -0.624   0.783  1.00  0.00     0.065 C 
ATOM     17  H1  UNL     1       3.095  -2.031   0.074  1.00  0.00     0.193 HD
ENDBRANCH  12  13
ENDBRANCH  11  12
ENDBRANCH   1  11
TORSDOF 3
