REMARK  4 active torsions:
REMARK  status: ('A' for Active; 'I' for Inactive)
REMARK    1  A    between atoms: C2_2  and  C3_3 
REMARK    2  A    between atoms: C3_3  and  O1_4 
REMARK    3  A    between atoms: C8_10  and  C9_11 
REMARK    4  A    between atoms: C9_11  and  O3_13 
ROOT
HETATM    1  C3  UNL     1      -0.459  -0.249   0.672  1.00  0.00     0.111 C 
HETATM    2  C5  UNL     1      -1.260   0.129  -0.495  1.00  0.00     0.046 C 
HETATM    3  C6  UNL     1      -1.288   1.503  -1.007  1.00  0.00     0.015 C 
HETATM    4  C7  UNL     1      -0.720  -0.802  -1.570  1.00  0.00     0.176 C 
HETATM    5  O2  UNL     1       0.197  -1.634  -0.977  1.00  0.00    -0.379 OA
HETATM    6  C8  UNL     1       0.781  -0.884   0.083  1.00  0.00     0.188 C 
ENDROOT
BRANCH   1   7
HETATM    7  C2  UNL     1      -0.044   0.759   1.635  1.00  0.00     0.004 C 
HETATM    8  C1  UNL     1      -0.622   1.894   1.934  1.00  0.00     0.010 C 
ENDBRANCH   1   7
BRANCH   1   9
HETATM    9  O1  UNL     1      -1.078  -1.230   1.457  1.00  0.00    -0.378 OA
HETATM   10  C4  UNL     1      -1.577  -2.324   0.892  1.00  0.00     0.203 C 
ENDBRANCH   1   9
BRANCH   6  11
HETATM   11  C9  UNL     1       1.717   0.046  -0.615  1.00  0.00     0.146 C 
HETATM   12  C10 UNL     1       2.625   0.852   0.292  1.00  0.00     0.042 C 
BRANCH  11  13
HETATM   13  O3  UNL     1       2.648  -0.732  -1.378  1.00  0.00    -0.393 OA
ATOM     14  H3  UNL     1       3.244  -0.140  -1.822  1.00  0.00     0.210 HD
ENDBRANCH  11  13
ENDBRANCH   6  11
TORSDOF 4
