REMARK  2 active torsions:
REMARK  status: ('A' for Active; 'I' for Inactive)
REMARK    1  A    between atoms: N1_7  and  C6_8 
REMARK    2  A    between atoms: C6_8  and  C7_9 
ROOT
HETATM    1  C1  UNL     1      -3.503  -1.233   0.194  1.00  0.00     0.198 C 
HETATM    2  C2  UNL     1      -3.426  -0.152  -0.846  1.00  0.00     0.198 C 
HETATM    3  O1  UNL     1      -2.060  -0.035  -1.067  1.00  0.00    -0.351 OA
HETATM    4  C3  UNL     1      -1.552  -0.156   0.221  1.00  0.00     0.192 C 
HETATM    5  C4  UNL     1      -1.599   1.217   0.873  1.00  0.00     0.100 C 
HETATM    6  C5  UNL     1      -0.294   1.821   0.333  1.00  0.00     0.278 C 
HETATM    7  N1  UNL     1       0.618   0.731   0.613  1.00  0.00     0.094 N 
HETATM    8  C10 UNL     1      -0.068  -0.455   0.226  1.00  0.00     0.340 C 
HETATM    9  O2  UNL     1      -2.304  -1.091   0.881  1.00  0.00    -0.351 OA
ENDROOT
BRANCH   7  10
HETATM   10  C6  UNL     1       1.900   0.899  -0.018  1.00  0.00     0.277 C 
BRANCH  10  11
HETATM   11  C7  UNL     1       2.749  -0.304   0.356  1.00  0.00     0.014 A 
HETATM   12  C8  UNL     1       4.146  -0.399  -0.163  1.00  0.00     0.007 A 
HETATM   13  C9  UNL     1       3.036  -1.346  -0.693  1.00  0.00     0.007 A 
ENDBRANCH  10  11
ENDBRANCH   7  10
TORSDOF 2
