REMARK  2 active torsions:
REMARK  status: ('A' for Active; 'I' for Inactive)
REMARK    1  A    between atoms: N1_4  and  C4_5 
REMARK    2  A    between atoms: C4_5  and  C5_6 
ROOT
HETATM    1  C1  UNL     1      -3.103   0.287  -0.498  1.00  0.00     0.028 C 
HETATM    2  C2  UNL     1      -2.212   1.435  -0.083  1.00  0.00     0.022 C 
HETATM    3  C3  UNL     1      -0.856   1.410  -0.716  1.00  0.00     0.122 C 
HETATM    4  N1  UNL     1       0.045   0.419  -0.235  1.00  0.00    -0.389 N 
HETATM    5  C8  UNL     1      -0.076  -0.809  -0.856  1.00  0.00     0.148 C 
HETATM    6  C9  UNL     1      -1.032  -1.696  -0.043  1.00  0.00     0.187 C 
HETATM    7  O2  UNL     1      -1.710  -0.996   0.936  1.00  0.00    -0.390 OA
HETATM    8  C10 UNL     1      -3.049  -0.788   0.591  1.00  0.00     0.167 C 
ENDROOT
BRANCH   4   9
HETATM    9  C4  UNL     1       1.159   0.917   0.393  1.00  0.00     0.090 C 
BRANCH   9  10
HETATM   10  C5  UNL     1       2.256  -0.011   0.818  1.00  0.00     0.161 C 
HETATM   11  C6  UNL     1       3.280  -0.222  -0.307  1.00  0.00     0.063 C 
HETATM   12  C7  UNL     1       4.152  -0.309   0.925  1.00  0.00     0.171 C 
HETATM   13  O1  UNL     1       3.309   0.670   1.485  1.00  0.00    -0.381 OA
ENDBRANCH   9  10
ENDBRANCH   4   9
TORSDOF 2
