REMARK  2 active torsions:
REMARK  status: ('A' for Active; 'I' for Inactive)
REMARK    1  A    between atoms: C2_2  and  O1_3 
REMARK    2  A    between atoms: O1_3  and  C3_4 
ROOT
HETATM    1  C3  UNL     1       0.633  -0.257  -0.626  1.00  0.00     0.141 C 
HETATM    2  C4  UNL     1       0.597  -1.664  -0.107  1.00  0.00     0.036 C 
HETATM    3  C5  UNL     1      -0.323  -1.890   1.034  1.00  0.00     0.037 C 
HETATM    4  C6  UNL     1      -1.650  -1.143   0.900  1.00  0.00     0.151 C 
HETATM    5  O2  UNL     1      -2.151  -1.370  -0.353  1.00  0.00    -0.382 OA
HETATM    6  C7  UNL     1      -1.722  -0.387  -1.206  1.00  0.00     0.183 C 
HETATM    7  C8  UNL     1      -0.681   0.412  -0.481  1.00  0.00     0.038 C 
HETATM    8  C9  UNL     1      -0.720   1.863  -0.720  1.00  0.00     0.043 C 
HETATM    9  C10 UNL     1      -1.902   2.296   0.130  1.00  0.00     0.169 C 
HETATM   10  O3  UNL     1      -2.277   1.195   0.891  1.00  0.00    -0.382 OA
HETATM   11  C11 UNL     1      -1.231   0.330   0.949  1.00  0.00     0.163 C 
ENDROOT
BRANCH   1  12
HETATM   12  O1  UNL     1       1.706   0.501  -0.060  1.00  0.00    -0.358 OA
BRANCH  12  13
HETATM   13  C2  UNL     1       3.016   0.050  -0.265  1.00  0.00     0.125 C 
HETATM   14  C1  UNL     1       3.990   0.264   0.564  1.00  0.00     0.037 C 
ENDBRANCH  12  13
ENDBRANCH   1  12
TORSDOF 2
