REMARK  2 active torsions:
REMARK  status: ('A' for Active; 'I' for Inactive)
REMARK    1  A    between atoms: C4_4  and  C5_5 
REMARK    2  A    between atoms: C5_5  and  N1_6 
ROOT
HETATM    1  C5  UNL     1      -0.187  -0.654  -0.808  1.00  0.00     0.095 C 
ENDROOT
BRANCH   1   2
HETATM    2  C4  UNL     1       0.925  -0.608   0.191  1.00  0.00     0.159 C 
HETATM    3  C3  UNL     1       2.178  -1.149  -0.453  1.00  0.00     0.037 C 
HETATM    4  C2  UNL     1       3.436  -0.703   0.219  1.00  0.00     0.005 C 
HETATM    5  C1  UNL     1       3.397   0.776   0.584  1.00  0.00     0.026 C 
HETATM    6  C10 UNL     1       2.091   1.308  -0.014  1.00  0.00     0.168 C 
HETATM    7  O2  UNL     1       1.064   0.675   0.662  1.00  0.00    -0.381 OA
ENDBRANCH   1   2
BRANCH   1   8
HETATM    8  N1  UNL     1      -1.431  -0.273  -0.292  1.00  0.00    -0.367 N 
HETATM    9  C6  UNL     1      -2.560  -0.265  -1.131  1.00  0.00     0.089 C 
HETATM   10  C7  UNL     1      -3.543   0.810  -0.719  1.00  0.00     0.212 C 
HETATM   11  O1  UNL     1      -3.883   0.778   0.605  1.00  0.00    -0.385 OA
HETATM   12  C8  UNL     1      -2.995   0.144   1.434  1.00  0.00     0.188 C 
HETATM   13  C9  UNL     1      -1.534   0.311   0.983  1.00  0.00     0.153 C 
ENDBRANCH   1   8
TORSDOF 2
