REMARK  10 active torsions:
REMARK  status: ('A' for Active; 'I' for Inactive)
REMARK    1  A    between atoms: C2_2  and  C3_3 
REMARK    2  A    between atoms: C2_2  and  C22_27 
REMARK    3  A    between atoms: C3_3  and  C4_4 
REMARK    4  A    between atoms: C10_10  and  C11_11 
REMARK    5  A    between atoms: C11_11  and  O1_12 
REMARK    6  A    between atoms: C11_11  and  C12_14 
REMARK    7  A    between atoms: C13_15  and  C14_16 
REMARK    8  A    between atoms: C20_23  and  C21_24 
REMARK    9  A    between atoms: C21_24  and  O3_25 
REMARK   10  A    between atoms: C22_27  and  C24_29 
ROOT
HETATM    1  C11 UNL     1      -0.132   0.418  -0.390  1.00  0.00     0.145 C 
ENDROOT
BRANCH   1   2
HETATM    2  C10 UNL     1      -0.798  -0.757  -1.014  1.00  0.00     0.023 C 
HETATM    3  C4  UNL     1      -2.292  -0.851  -0.893  1.00  0.00    -0.003 C 
HETATM    4  C5  UNL     1      -2.769  -2.267  -0.869  1.00  0.00    -0.009 C 
HETATM    5  C6  UNL     1      -1.857  -3.034  -1.875  1.00  0.00     0.010 C 
HETATM    6  C8  UNL     1      -2.136  -3.120   0.189  1.00  0.00     0.010 C 
HETATM    7  C7  UNL     1      -0.936  -3.227  -0.688  1.00  0.00    -0.013 C 
HETATM    8  C9  UNL     1      -0.094  -1.989  -0.468  1.00  0.00     0.012 C 
BRANCH   3   9
HETATM    9  C3  UNL     1      -2.898   0.018   0.112  1.00  0.00     0.010 C 
BRANCH   9  10
HETATM   10  C2  UNL     1      -4.373   0.243   0.114  1.00  0.00    -0.004 C 
HETATM   11  C1  UNL     1      -5.274  -0.905   0.316  1.00  0.00     0.011 C 
BRANCH  10  12
HETATM   12  C22 UNL     1      -4.765   1.341   1.088  1.00  0.00     0.086 C 
HETATM   13  C23 UNL     1      -6.201   1.705   0.773  1.00  0.00     0.021 C 
BRANCH  12  14
HETATM   14  C24 UNL     1      -3.864   2.480   1.084  1.00  0.00     0.176 C 
HETATM   15  O4  UNL     1      -3.253   2.816   2.120  1.00  0.00    -0.648 OA
HETATM   16  O5  UNL     1      -3.666   3.213  -0.068  1.00  0.00    -0.648 OA
ENDBRANCH  12  14
ENDBRANCH  10  12
ENDBRANCH   9  10
ENDBRANCH   3   9
ENDBRANCH   1   2
BRANCH   1  17
HETATM   17  O1  UNL     1      -0.278   0.571   0.968  1.00  0.00    -0.391 OA
ATOM     18  H1  UNL     1       0.147   1.321   1.366  1.00  0.00     0.210 HD
ENDBRANCH   1  17
BRANCH   1  19
HETATM   19  C12 UNL     1       1.311   0.369  -0.764  1.00  0.00     0.001 C 
HETATM   20  C13 UNL     1       2.275   0.818   0.029  1.00  0.00    -0.023 C 
BRANCH  20  21
HETATM   21  C14 UNL     1       3.672   0.741  -0.398  1.00  0.00     0.018 C 
HETATM   22  C15 UNL     1       4.272   2.127  -0.534  1.00  0.00    -0.004 C 
HETATM   23  C16 UNL     1       4.323   2.860   0.765  1.00  0.00     0.011 C 
HETATM   24  C17 UNL     1       5.649   2.034  -1.167  1.00  0.00     0.083 C 
HETATM   25  C18 UNL     1       6.476   0.958  -0.608  1.00  0.00     0.127 C 
HETATM   26  O2  UNL     1       7.670   1.057  -0.350  1.00  0.00    -0.298 OA
HETATM   27  C19 UNL     1       5.835  -0.362  -0.325  1.00  0.00     0.085 C 
HETATM   28  C20 UNL     1       4.577  -0.058   0.474  1.00  0.00     0.024 C 
BRANCH  28  29
HETATM   29  C21 UNL     1       3.987  -1.383   0.891  1.00  0.00     0.169 C 
BRANCH  29  30
HETATM   30  O3  UNL     1       2.805  -1.224   1.606  1.00  0.00    -0.400 OA
ATOM     31  H3  UNL     1       2.434  -2.058   1.868  1.00  0.00     0.209 HD
ENDBRANCH  29  30
ENDBRANCH  28  29
ENDBRANCH  20  21
ENDBRANCH   1  19
TORSDOF 10
