REMARK  8 active torsions:
REMARK  status: ('A' for Active; 'I' for Inactive)
REMARK    1  A    between atoms: C5_5  and  N1_6 
REMARK    2  A    between atoms: N1_6  and  C6_9 
REMARK    3  A    between atoms: C6_9  and  C7_10 
REMARK    4  A    between atoms: C7_10  and  C8_11 
REMARK    5  A    between atoms: C8_11  and  N2_12 
REMARK    6  A    between atoms: N2_12  and  C9_15 
REMARK    7  A    between atoms: C9_15  and  C10_16 
REMARK    8  A    between atoms: C10_16  and  C11_17 
ROOT
HETATM    1  C1  UNL     1      -5.165   2.195   0.419  1.00  0.00     0.018 C 
HETATM    2  C2  UNL     1      -4.179   1.014   0.479  1.00  0.00    -0.014 C 
HETATM    3  C3  UNL     1      -4.044   0.673   1.922  1.00  0.00     0.018 C 
HETATM    4  C4  UNL     1      -2.845   1.445  -0.079  1.00  0.00     0.054 C 
HETATM    5  C5  UNL     1      -1.803   0.384   0.158  1.00  0.00     0.277 C 
HETATM    6  C17 UNL     1      -2.420  -0.979   0.036  1.00  0.00     0.249 C 
HETATM    7  O1  UNL     1      -1.831  -1.966   0.495  1.00  0.00    -0.271 OA
HETATM    8  N3  UNL     1      -3.658  -1.074  -0.603  1.00  0.00    -0.344 N 
ATOM      9  H3  UNL     1      -3.823  -1.837  -1.259  1.00  0.00     0.163 HD
HETATM   10  C18 UNL     1      -4.726  -0.103  -0.353  1.00  0.00     0.083 C 
HETATM   11  C19 UNL     1      -5.235   0.363  -1.678  1.00  0.00     0.043 C 
HETATM   12  C20 UNL     1      -6.717   0.154  -1.668  1.00  0.00     0.043 C 
HETATM   13  C21 UNL     1      -6.980  -0.725  -0.532  1.00  0.00    -0.033 A 
HETATM   14  C22 UNL     1      -8.134  -1.413  -0.127  1.00  0.00     0.010 A 
HETATM   15  C23 UNL     1      -8.081  -2.173   1.004  1.00  0.00     0.018 A 
HETATM   16  C24 UNL     1      -6.935  -2.292   1.768  1.00  0.00     0.088 A 
HETATM   17  N4  UNL     1      -5.847  -1.622   1.354  1.00  0.00    -0.367 N 
ATOM     18  H4  UNL     1      -4.988  -1.694   1.899  1.00  0.00     0.165 HD
HETATM   19  C25 UNL     1      -5.850  -0.848   0.228  1.00  0.00     0.044 A 
ENDROOT
BRANCH   5  20
HETATM   20  N1  UNL     1      -0.786   0.417  -0.917  1.00  0.00    -0.062 N 
ATOM     21  H12 UNL     1      -1.105  -0.036  -1.773  1.00  0.00     0.278 HD
ATOM     22  H11 UNL     1      -0.648   1.353  -1.298  1.00  0.00     0.278 HD
BRANCH  20  23
HETATM   23  C6  UNL     1       0.436  -0.160  -0.405  1.00  0.00     0.235 C 
BRANCH  23  24
HETATM   24  C7  UNL     1       1.400  -0.495  -1.532  1.00  0.00     0.055 C 
BRANCH  24  25
HETATM   25  C8  UNL     1       2.606  -1.154  -0.953  1.00  0.00     0.233 C 
BRANCH  25  26
HETATM   26  N2  UNL     1       3.358  -0.286  -0.108  1.00  0.00    -0.075 N 
ATOM     27  H22 UNL     1       2.778   0.114   0.630  1.00  0.00     0.277 HD
ATOM     28  H21 UNL     1       4.015  -0.806   0.474  1.00  0.00     0.277 HD
BRANCH  26  29
HETATM   29  C9  UNL     1       4.030   0.748  -0.877  1.00  0.00     0.232 C 
BRANCH  29  30
HETATM   30  C10 UNL     1       5.075   1.513  -0.120  1.00  0.00     0.032 C 
BRANCH  30  31
HETATM   31  C11 UNL     1       6.072   0.504   0.398  1.00  0.00    -0.013 C 
HETATM   32  C12 UNL     1       6.708  -0.334  -0.721  1.00  0.00     0.005 C 
HETATM   33  C13 UNL     1       7.367  -1.493   0.060  1.00  0.00     0.000 C 
HETATM   34  C14 UNL     1       8.446  -0.932   0.924  1.00  0.00     0.000 C 
HETATM   35  C15 UNL     1       8.055   0.224   1.781  1.00  0.00     0.000 C 
HETATM   36  C16 UNL     1       7.281   1.257   0.989  1.00  0.00     0.005 C 
ENDBRANCH  30  31
ENDBRANCH  29  30
ENDBRANCH  26  29
ENDBRANCH  25  26
ENDBRANCH  24  25
ENDBRANCH  23  24
ENDBRANCH  20  23
ENDBRANCH   5  20
TORSDOF 8
