REMARK  10 active torsions:
REMARK  status: ('A' for Active; 'I' for Inactive)
REMARK    1  A    between atoms: C6_6  and  O1_8 
REMARK    2  A    between atoms: C8_10  and  C9_11 
REMARK       I    between atoms: C9_11  and  N1_13 
REMARK    3  A    between atoms: N1_13  and  C10_15 
REMARK    4  A    between atoms: C10_15  and  C11_16 
REMARK    5  A    between atoms: C13_18  and  O3_19 
REMARK    6  A    between atoms: C17_24  and  C18_25 
REMARK    7  A    between atoms: C18_25  and  C19_26 
REMARK    8  A    between atoms: C19_26  and  C20_27 
REMARK    9  A    between atoms: C20_27  and  C21_29 
REMARK   10  A    between atoms: C21_29  and  C22_30 
ROOT
HETATM    1  C1  UNL     1      -1.848   2.358   2.004  1.00  0.00     0.014 C 
HETATM    2  C2  UNL     1      -1.358   1.171   1.751  1.00  0.00    -0.084 C 
HETATM    3  C3  UNL     1      -0.685   0.440   2.898  1.00  0.00     0.034 C 
HETATM    4  C4  UNL     1       0.752   0.260   2.365  1.00  0.00     0.013 C 
HETATM    5  C5  UNL     1       0.772  -0.537   1.110  1.00  0.00     0.030 C 
HETATM    6  C6  UNL     1       2.213  -0.841   0.773  1.00  0.00     0.073 C 
HETATM    7  C7  UNL     1       2.821  -1.390   2.077  1.00  0.00     0.047 C 
HETATM    8  C8  UNL     1       2.945   0.420   0.470  1.00  0.00     0.141 C 
HETATM    9  C13 UNL     1       2.262   1.299  -0.549  1.00  0.00     0.135 C 
HETATM   10  C14 UNL     1       0.807   1.518  -0.282  1.00  0.00     0.042 C 
HETATM   11  C15 UNL     1       0.080   0.245  -0.024  1.00  0.00    -0.028 C 
HETATM   12  C16 UNL     1       0.109  -0.647  -1.211  1.00  0.00     0.016 C 
HETATM   13  C17 UNL     1      -1.330   0.445   0.470  1.00  0.00     0.023 C 
ENDROOT
BRANCH  13  14
HETATM   14  C18 UNL     1      -2.330   0.935  -0.475  1.00  0.00     0.017 C 
BRANCH  14  15
HETATM   15  C19 UNL     1      -3.723   0.725   0.071  1.00  0.00     0.079 C 
BRANCH  15  16
HETATM   16  C20 UNL     1      -4.768   1.212  -0.841  1.00  0.00     0.127 C 
HETATM   17  O4  UNL     1      -4.469   1.713  -1.896  1.00  0.00    -0.298 OA
BRANCH  16  18
HETATM   18  C21 UNL     1      -6.192   1.088  -0.469  1.00  0.00     0.082 C 
BRANCH  18  19
HETATM   19  C22 UNL     1      -6.876  -0.052  -1.199  1.00  0.00    -0.016 C 
HETATM   20  C23 UNL     1      -8.321  -0.064  -0.725  1.00  0.00     0.010 C 
HETATM   21  C24 UNL     1      -6.253  -1.396  -0.843  1.00  0.00     0.010 C 
ENDBRANCH  18  19
ENDBRANCH  16  18
ENDBRANCH  15  16
ENDBRANCH  14  15
ENDBRANCH  13  14
BRANCH   6  22
HETATM   22  O1  UNL     1       2.354  -1.856  -0.142  1.00  0.00    -0.389 OA
ATOM     23  H1  UNL     1       3.260  -2.047  -0.354  1.00  0.00     0.210 HD
ENDBRANCH   6  22
BRANCH   9  24
HETATM   24  O3  UNL     1       2.885   2.566  -0.444  1.00  0.00    -0.395 OA
ATOM     25  H3  UNL     1       2.455   3.119  -1.085  1.00  0.00     0.210 HD
ENDBRANCH   9  24
BRANCH   8  26
HETATM   26  C9  UNL     1       4.316   0.173   0.008  1.00  0.00     0.227 C 
HETATM   27  O2  UNL     1       5.286   0.584   0.701  1.00  0.00    -0.273 OA
HETATM   28  N1  UNL     1       4.646  -0.508  -1.186  1.00  0.00    -0.361 N 
ATOM     29  H1  UNL     1       3.880  -0.847  -1.767  1.00  0.00     0.162 HD
BRANCH  28  30
HETATM   30  C10 UNL     1       5.990  -0.755  -1.637  1.00  0.00     0.122 C 
BRANCH  30  31
HETATM   31  C11 UNL     1       6.821  -1.578  -0.696  1.00  0.00     0.015 C 
HETATM   32  C12 UNL     1       8.199  -1.726  -1.358  1.00  0.00     0.006 C 
ENDBRANCH  30  31
ENDBRANCH  28  30
ENDBRANCH   8  26
TORSDOF 10
