REMARK  1 active torsions:
REMARK  status: ('A' for Active; 'I' for Inactive)
REMARK       I    between atoms: C2_2  and  N1_4 
REMARK    1  A    between atoms: N1_4  and  C3_6 
ROOT
HETATM    1  C3  UNL     1      -2.448  -1.328   0.403  1.00  0.00     0.221 C 
HETATM    2  N2  UNL     1      -1.489  -2.143   0.620  1.00  0.00    -0.355 N 
ATOM      3  H2  UNL     1      -1.725  -3.124   0.471  1.00  0.00     0.163 HD
HETATM    4  C4  UNL     1      -0.154  -1.914   1.032  1.00  0.00     0.150 C 
HETATM    5  C5  UNL     1       0.673  -3.094   0.488  1.00  0.00     0.252 C 
HETATM    6  N3  UNL     1       1.869  -2.553  -0.137  1.00  0.00    -0.071 N 
ATOM      7  H31 UNL     1       1.997  -1.565   0.083  1.00  0.00     0.277 HD
ATOM      8  H32 UNL     1       1.764  -2.472  -1.148  1.00  0.00     0.277 HD
HETATM    9  C6  UNL     1       3.032  -3.339   0.221  1.00  0.00     0.270 C 
HETATM   10  C7  UNL     1       4.037  -2.365   0.831  1.00  0.00     0.205 C 
HETATM   11  F1  UNL     1       3.403  -1.698   1.840  1.00  0.00    -0.247 F 
HETATM   12  C8  UNL     1       4.512  -1.399  -0.213  1.00  0.00     0.124 C 
HETATM   13  S1  UNL     1       3.180  -0.247  -0.614  1.00  0.00    -0.095 SA
HETATM   14  S2  UNL     1       3.972   1.718  -0.916  1.00  0.00    -0.098 SA
HETATM   15  C9  UNL     1       2.832   2.895  -0.160  1.00  0.00     0.086 C 
HETATM   16  C10 UNL     1       1.565   3.011  -1.005  1.00  0.00     0.011 C 
HETATM   17  C11 UNL     1       0.568   3.790  -0.184  1.00  0.00     0.001 C 
HETATM   18  C12 UNL     1      -0.832   3.626  -0.705  1.00  0.00     0.000 C 
HETATM   19  C13 UNL     1      -1.614   2.558  -0.002  1.00  0.00     0.002 C 
HETATM   20  C14 UNL     1      -0.850   1.921   1.133  1.00  0.00     0.027 C 
HETATM   21  C15 UNL     1      -1.676   0.722   1.614  1.00  0.00     0.178 C 
HETATM   22  O2  UNL     1      -2.265   0.020   0.567  1.00  0.00    -0.322 OA
ENDROOT
BRANCH   1  23
HETATM   23  N1  UNL     1      -3.697  -1.863  -0.009  1.00  0.00    -0.293 N 
HETATM   24  C2  UNL     1      -4.784  -1.005  -0.267  1.00  0.00     0.220 C 
HETATM   25  C1  UNL     1      -6.074  -1.576  -0.694  1.00  0.00     0.117 C 
HETATM   26  O1  UNL     1      -4.658   0.235  -0.135  1.00  0.00    -0.274 OA
ATOM     27  H1  UNL     1      -3.807  -2.871  -0.118  1.00  0.00     0.172 HD
ENDBRANCH   1  23
TORSDOF 1
