REMARK  1 active torsions:
REMARK  status: ('A' for Active; 'I' for Inactive)
REMARK    1  A    between atoms: C5_5  and  O1_6 
ROOT
HETATM    1  C1  UNL     1      -2.252  -2.234   1.610  1.00  0.00     0.051 C 
HETATM    2  C2  UNL     1      -1.377  -1.826   0.461  1.00  0.00     0.109 C 
HETATM    3  C3  UNL     1      -0.381  -2.874   0.195  1.00  0.00     0.045 C 
HETATM    4  C4  UNL     1       0.771  -2.475  -0.674  1.00  0.00     0.035 C 
HETATM    5  C5  UNL     1       1.900  -1.802   0.070  1.00  0.00     0.118 C 
HETATM    6  C6  UNL     1       2.644  -0.823  -0.825  1.00  0.00     0.032 C 
HETATM    7  C7  UNL     1       3.565   0.065  -0.059  1.00  0.00     0.002 C 
HETATM    8  C8  UNL     1       2.794   1.117   0.718  1.00  0.00     0.000 C 
HETATM    9  C9  UNL     1       2.736   2.444   0.074  1.00  0.00     0.004 C 
HETATM   10  C10 UNL     1       1.492   2.796  -0.662  1.00  0.00     0.048 C 
HETATM   11  C11 UNL     1       0.294   3.075   0.194  1.00  0.00     0.221 C 
HETATM   12 CL1  UNL     1       0.796   4.349   1.365  1.00  0.00    -0.095 Cl
HETATM   13  O2  UNL     1      -0.192   2.036   0.914  1.00  0.00    -0.329 OA
HETATM   14  C12 UNL     1      -1.352   1.457   0.536  1.00  0.00     0.237 C 
HETATM   15  C13 UNL     1      -2.594   2.251   0.683  1.00  0.00     0.252 C 
HETATM   16  O3  UNL     1      -3.692   1.722   0.010  1.00  0.00    -0.317 OA
HETATM   17  C14 UNL     1      -3.666   0.452  -0.645  1.00  0.00     0.215 C 
HETATM   18  N1  UNL     1      -4.699  -0.144  -1.041  1.00  0.00    -0.365 N 
ATOM     19  H11 UNL     1      -4.680  -1.050  -1.508  1.00  0.00     0.159 HD
ATOM     20  H12 UNL     1      -5.629   0.255  -0.915  1.00  0.00     0.159 HD
HETATM   21  N2  UNL     1      -2.383  -0.098  -0.819  1.00  0.00    -0.339 N 
HETATM   22  C15 UNL     1      -2.286  -1.524  -0.755  1.00  0.00     0.167 C 
HETATM   23  C16 UNL     1      -1.329   0.927  -0.919  1.00  0.00     0.200 C 
HETATM   24  O4  UNL     1      -1.499   0.282   1.325  1.00  0.00    -0.196 OA
HETATM   25  O5  UNL     1      -0.727  -0.630   0.842  1.00  0.00    -0.225 OA
ENDROOT
BRANCH   5  26
HETATM   26  O1  UNL     1       2.833  -2.824   0.366  1.00  0.00    -0.396 OA
ATOM     27  H1  UNL     1       3.543  -2.401   0.834  1.00  0.00     0.210 HD
ENDBRANCH   5  26
TORSDOF 1
