REMARK  2 active torsions:
REMARK  status: ('A' for Active; 'I' for Inactive)
REMARK    1  A    between atoms: C7_8  and  O1_9 
REMARK    2  A    between atoms: O1_9  and  C8_10 
ROOT
HETATM    1  C1  UNL     1       3.282  -1.710  -1.857  1.00  0.00     0.221 C 
HETATM    2  N1  UNL     1       2.997  -1.205  -0.836  1.00  0.00    -0.466 NA
HETATM    3  C2  UNL     1       2.649  -0.608   0.373  1.00  0.00     0.162 C 
HETATM    4  C3  UNL     1       2.739   0.899   0.306  1.00  0.00     0.044 C 
HETATM    5  C4  UNL     1       1.521   1.372  -0.428  1.00  0.00    -0.002 A 
HETATM    6  C5  UNL     1       0.768   2.564  -0.105  1.00  0.00     0.015 A 
HETATM    7  C6  UNL     1       0.364   1.351   0.602  1.00  0.00     0.054 A 
HETATM    8  C7  UNL     1      -0.598   0.338   0.096  1.00  0.00     0.184 C 
HETATM    9  O2  UNL     1      -1.303  -0.417   1.009  1.00  0.00    -0.343 OA
HETATM   10  C9  UNL     1      -1.056  -1.566   0.308  1.00  0.00     0.066 C 
HETATM   11  C10 UNL     1      -0.743  -2.696   1.299  1.00  0.00     0.046 C 
HETATM   12  C11 UNL     1      -2.026  -2.031  -0.705  1.00  0.00     0.046 C 
HETATM   13  C12 UNL     1       0.215  -0.901  -0.225  1.00  0.00     0.086 C 
HETATM   14  C13 UNL     1       1.301  -1.099   0.788  1.00  0.00     0.052 C 
ENDROOT
BRANCH   8  15
HETATM   15  O1  UNL     1      -1.417   0.821  -0.906  1.00  0.00    -0.286 OA
BRANCH  15  16
HETATM   16  C8  UNL     1      -2.252   1.890  -0.678  1.00  0.00     0.227 C 
HETATM   17  N2  UNL     1      -2.493   2.256   0.524  1.00  0.00    -0.368 N 
ATOM     18  H22 UNL     1      -2.047   1.729   1.275  1.00  0.00     0.159 HD
ATOM     19  H21 UNL     1      -3.112   3.049   0.693  1.00  0.00     0.159 HD
HETATM   20  N3  UNL     1      -2.869   2.620  -1.717  1.00  0.00    -0.057 NA
ENDBRANCH  15  16
ENDBRANCH   8  15
TORSDOF 2
