REMARK  3 active torsions:
REMARK  status: ('A' for Active; 'I' for Inactive)
REMARK       I    between atoms: N2_5  and  C4_6 
REMARK       I    between atoms: C4_6  and  N4_11 
REMARK    1  A    between atoms: N3_7  and  O1_9 
REMARK    2  A    between atoms: N4_11  and  C5_13 
REMARK    3  A    between atoms: C5_13  and  C6_14 
ROOT
HETATM    1  C1  UNL     1       4.368   1.812   0.595  1.00  0.00     0.310 C 
HETATM    2  N1  UNL     1       3.012   1.327   0.370  1.00  0.00     0.088 N 
HETATM    3  C2  UNL     1       2.642   0.561   1.519  1.00  0.00     0.292 C 
HETATM    4  C3  UNL     1       1.421  -0.283   1.356  1.00  0.00     0.172 C 
HETATM    5  N2  UNL     1       1.121  -0.660  -0.002  1.00  0.00    -0.204 N 
HETATM    6  C4  UNL     1      -0.183  -1.029  -0.391  1.00  0.00     0.696 C 
HETATM    7  N3  UNL     1      -0.372  -2.250  -0.830  1.00  0.00    -0.099 N 
ATOM      8  H3  UNL     1       0.421  -2.890  -0.879  1.00  0.00     0.213 HD
HETATM    9  N4  UNL     1      -1.324  -0.196  -0.360  1.00  0.00    -0.224 N 
ATOM     10  H4  UNL     1      -1.482   0.470  -1.116  1.00  0.00     0.177 HD
HETATM   11  C10 UNL     1       2.253  -0.646  -0.906  1.00  0.00     0.069 C 
HETATM   12  C11 UNL     1       1.754  -0.880  -2.317  1.00  0.00     0.041 C 
HETATM   13  C12 UNL     1       3.242  -1.750  -0.622  1.00  0.00     0.041 C 
HETATM   14  C13 UNL     1       2.875   0.709  -0.884  1.00  0.00     0.302 C 
ENDROOT
BRANCH   7  15
HETATM   15  O1  UNL     1      -1.617  -2.690  -1.227  1.00  0.00    -0.276 OA
ATOM     16  H1  UNL     1      -1.754  -3.575  -1.545  1.00  0.00     0.245 HD
ENDBRANCH   7  15
BRANCH   9  17
HETATM   17  C5  UNL     1      -2.262  -0.276   0.722  1.00  0.00     0.146 C 
BRANCH  17  18
HETATM   18  C6  UNL     1      -3.521   0.526   0.509  1.00  0.00    -0.035 C 
HETATM   19  C7  UNL     1      -3.315   1.990   0.325  1.00  0.00     0.016 C 
HETATM   20  C8  UNL     1      -4.343  -0.044  -0.623  1.00  0.00     0.016 C 
HETATM   21  C9  UNL     1      -4.355   0.327   1.783  1.00  0.00     0.016 C 
ENDBRANCH  17  18
ENDBRANCH   9  17
TORSDOF 3
