REMARK  2 active torsions:
REMARK  status: ('A' for Active; 'I' for Inactive)
REMARK       I    between atoms: N1_2  and  C2_4 
REMARK    1  A    between atoms: C2_4  and  C3_6 
REMARK    2  A    between atoms: C13_17  and  N2_18 
ROOT
HETATM    1  C3  UNL     1       0.556  -0.271   0.242  1.00  0.00     0.067 C 
HETATM    2  C4  UNL     1       1.637  -0.945   1.143  1.00  0.00     0.024 C 
HETATM    3  C5  UNL     1       2.218  -2.089   0.357  1.00  0.00     0.028 C 
HETATM    4  C6  UNL     1       1.131  -3.159   0.252  1.00  0.00     0.168 C 
HETATM    5  O2  UNL     1      -0.110  -2.588   0.562  1.00  0.00    -0.385 OA
HETATM    6  C7  UNL     1      -0.269  -1.371  -0.173  1.00  0.00     0.139 C 
HETATM    7  C8  UNL     1      -1.774  -1.158  -0.469  1.00  0.00     0.040 C 
HETATM    8  C9  UNL     1      -1.994   0.137  -0.017  1.00  0.00     0.019 C 
HETATM    9  C10 UNL     1      -1.731   0.017   1.485  1.00  0.00     0.011 C 
HETATM   10  C11 UNL     1      -1.015   1.301   1.582  1.00  0.00    -0.011 C 
HETATM   11  C12 UNL     1      -2.045   2.180   0.844  1.00  0.00     0.037 C 
HETATM   12  C13 UNL     1      -2.985   1.159   0.111  1.00  0.00     0.188 C 
HETATM   13  C14 UNL     1       0.254   1.024   0.840  1.00  0.00     0.026 C 
ENDROOT
BRANCH   1  14
HETATM   14  C2  UNL     1       1.457   0.111  -0.938  1.00  0.00     0.228 C 
HETATM   15  N1  UNL     1       2.505   1.016  -0.710  1.00  0.00    -0.365 N 
HETATM   16  C1  UNL     1       3.374   1.386  -1.832  1.00  0.00     0.149 C 
ATOM     17  H1  UNL     1       2.659   1.409   0.218  1.00  0.00     0.161 HD
HETATM   18  O1  UNL     1       1.249  -0.387  -2.085  1.00  0.00    -0.273 OA
ENDBRANCH   1  14
BRANCH  12  19
HETATM   19  N2  UNL     1      -3.317   1.763  -1.166  1.00  0.00    -0.075 N 
ATOM     20  H23 UNL     1      -2.483   2.115  -1.636  1.00  0.00     0.274 HD
ATOM     21  H22 UNL     1      -3.600   1.057  -1.846  1.00  0.00     0.274 HD
ATOM     22  H21 UNL     1      -4.024   2.492  -1.075  1.00  0.00     0.274 HD
ENDBRANCH  12  19
TORSDOF 2
