REMARK  4 active torsions:
REMARK  status: ('A' for Active; 'I' for Inactive)
REMARK    1  A    between atoms: C2_2  and  C5_5 
REMARK    2  A    between atoms: C5_5  and  N1_6 
REMARK    3  A    between atoms: C11_15  and  C12_16 
REMARK    4  A    between atoms: N2_20  and  O3_21 
ROOT
HETATM    1  C5  UNL     1      -0.644  -0.258  -0.411  1.00  0.00     0.138 C 
HETATM    2  C6  UNL     1      -0.292  -1.647   0.008  1.00  0.00     0.062 C 
HETATM    3  C7  UNL     1       1.209  -1.814  -0.129  1.00  0.00     0.090 C 
HETATM    4  C8  UNL     1       1.671  -1.371  -1.497  1.00  0.00     0.027 C 
HETATM    5  C9  UNL     1       1.446   0.114  -1.612  1.00  0.00    -0.001 C 
HETATM    6  C10 UNL     1       2.575   0.738  -0.776  1.00  0.00     0.044 C 
HETATM    7  C11 UNL     1       1.641   0.433   0.412  1.00  0.00     0.133 C 
HETATM    8  C13 UNL     1       0.517   0.639  -0.534  1.00  0.00     0.062 C 
HETATM    9  N2  UNL     1       1.816  -0.933   0.845  1.00  0.00    -0.174 NA
ENDROOT
BRANCH   1  10
HETATM   10  C2  UNL     1      -1.789   0.267   0.404  1.00  0.00    -0.018 C 
HETATM   11  C1  UNL     1      -2.225   1.614  -0.172  1.00  0.00     0.017 C 
HETATM   12  C3  UNL     1      -1.547   0.416   1.848  1.00  0.00     0.017 C 
HETATM   13  C4  UNL     1      -2.965  -0.675   0.199  1.00  0.00     0.017 C 
ENDBRANCH   1  10
BRANCH   1  14
HETATM   14  N1  UNL     1      -1.227  -0.370  -1.763  1.00  0.00    -0.069 N 
ATOM     15  H13 UNL     1      -2.079  -0.928  -1.815  1.00  0.00     0.275 HD
ATOM     16  H12 UNL     1      -1.646   0.489  -2.119  1.00  0.00     0.275 HD
ATOM     17  H11 UNL     1      -0.449  -0.727  -2.317  1.00  0.00     0.275 HD
ENDBRANCH   1  14
BRANCH   7  18
HETATM   18  C12 UNL     1       1.873   1.461   1.433  1.00  0.00     0.200 C 
HETATM   19  O1  UNL     1       1.742   2.661   1.139  1.00  0.00    -0.646 OA
HETATM   20  O2  UNL     1       2.234   1.106   2.708  1.00  0.00    -0.646 OA
ENDBRANCH   7  18
BRANCH   9  21
HETATM   21  O3  UNL     1       3.130  -1.189   1.029  1.00  0.00    -0.311 OA
ATOM     22  H3  UNL     1       3.529  -0.611   1.669  1.00  0.00     0.237 HD
ENDBRANCH   9  21
TORSDOF 4
