REMARK  3 active torsions:
REMARK  status: ('A' for Active; 'I' for Inactive)
REMARK    1  A    between atoms: N1_1  and  N2_4 
REMARK    2  A    between atoms: N2_4  and  N3_5 
REMARK    3  A    between atoms: N3_5  and  C1_7 
ROOT
HETATM    1  C1  UNL     1       3.266  -0.668  -0.034  1.00  0.00     0.064 A 
HETATM    2  C2  UNL     1       3.184   0.287   0.960  1.00  0.00     0.034 A 
HETATM    3  C3  UNL     1       1.971   0.802   1.352  1.00  0.00     0.033 A 
HETATM    4  C4  UNL     1       0.788   0.355   0.737  1.00  0.00     0.054 A 
HETATM    5  C5  UNL     1       0.912  -0.594  -0.246  1.00  0.00     0.093 A 
HETATM    6  C6  UNL     1       2.119  -1.111  -0.641  1.00  0.00     0.058 A 
HETATM    7  S1  UNL     1      -0.548  -1.163  -1.024  1.00  0.00     0.211 S 
HETATM    8  O1  UNL     1      -0.485  -0.937  -2.508  1.00  0.00    -0.217 OA
HETATM    9  O2  UNL     1      -0.669  -2.629  -0.712  1.00  0.00    -0.217 OA
HETATM   10  C7  UNL     1      -1.890  -0.323  -0.306  1.00  0.00     0.090 A 
HETATM   11  C8  UNL     1      -3.163  -0.609  -0.763  1.00  0.00     0.026 A 
HETATM   12  C9  UNL     1      -4.235   0.043  -0.209  1.00  0.00     0.002 A 
HETATM   13  C10 UNL     1      -4.083   0.982   0.797  1.00  0.00     0.002 A 
HETATM   14  C11 UNL     1      -2.820   1.264   1.249  1.00  0.00     0.031 A 
HETATM   15  C12 UNL     1      -1.710   0.599   0.686  1.00  0.00     0.054 A 
HETATM   16  N4  UNL     1      -0.425   0.919   1.180  1.00  0.00    -0.354 N 
ATOM     17  H4  UNL     1      -0.371   1.618   1.921  1.00  0.00     0.166 HD
ENDROOT
BRANCH   1  18
HETATM   18  N3  UNL     1       4.543  -1.176  -0.412  1.00  0.00    -0.217 N 
ATOM     19  H3  UNL     1       4.766  -2.160  -0.264  1.00  0.00     0.203 HD
BRANCH  18  20
HETATM   20  N2  UNL     1       5.378  -0.423  -0.918  1.00  0.00    -0.243 NA
BRANCH  20  21
HETATM   21  N1  UNL     1       6.161   0.450  -1.281  1.00  0.00    -0.260 N 
ATOM     22  H12 UNL     1       5.824   1.011  -0.499  1.00  0.00     0.193 HD
ATOM     23  H11 UNL     1       6.852   1.073  -1.700  1.00  0.00     0.193 HD
ENDBRANCH  20  21
ENDBRANCH  18  20
ENDBRANCH   1  18
TORSDOF 3
