REMARK  4 active torsions:
REMARK  status: ('A' for Active; 'I' for Inactive)
REMARK    1  A    between atoms: O1_2  and  C2_3 
REMARK    2  A    between atoms: C2_3  and  C3_5 
REMARK    3  A    between atoms: C8_13  and  C9_14 
REMARK    4  A    between atoms: C14_19  and  N2_20 
ROOT
HETATM    1  C3  UNL     1       1.772  -0.466  -0.125  1.00  0.00     0.088 A 
HETATM    2  C4  UNL     1       2.125  -1.326  -1.124  1.00  0.00     0.024 A 
HETATM    3  C5  UNL     1       3.534  -1.691  -1.368  1.00  0.00     0.069 C 
HETATM    4  N1  UNL     1       1.142  -1.834  -1.884  1.00  0.00    -0.353 N 
ATOM      5  H1  UNL     1       1.375  -2.479  -2.639  1.00  0.00     0.166 HD
HETATM    6  C6  UNL     1      -0.167  -1.501  -1.663  1.00  0.00     0.087 A 
HETATM    7  S1  UNL     1      -1.564  -1.986  -2.494  1.00  0.00    -0.083 SA
HETATM    8  C7  UNL     1      -2.701  -1.099  -1.583  1.00  0.00     0.060 A 
HETATM    9  C8  UNL     1      -1.963  -0.423  -0.623  1.00  0.00    -0.029 A 
HETATM   10  C13 UNL     1      -0.607  -0.649  -0.683  1.00  0.00     0.033 A 
HETATM   11  C14 UNL     1       0.449  -0.133   0.094  1.00  0.00     0.058 A 
ENDROOT
BRANCH   1  12
HETATM   12  C2  UNL     1       2.847   0.084   0.698  1.00  0.00     0.297 C 
HETATM   13  O2  UNL     1       3.226  -0.501   1.742  1.00  0.00    -0.259 OA
BRANCH  12  14
HETATM   14  O1  UNL     1       3.472   1.269   0.343  1.00  0.00    -0.322 OA
HETATM   15  C1  UNL     1       4.505   1.873   1.060  1.00  0.00     0.213 C 
ENDBRANCH  12  14
ENDBRANCH   1  12
BRANCH  11  16
HETATM   16  N2  UNL     1       0.253   0.692   1.016  1.00  0.00    -0.397 N 
ATOM     17  H22 UNL     1       1.017   1.066   1.579  1.00  0.00     0.156 HD
ATOM     18  H21 UNL     1      -0.724   0.938   1.178  1.00  0.00     0.156 HD
ENDBRANCH  11  16
BRANCH   9  19
HETATM   19  C9  UNL     1      -2.689   0.419   0.408  1.00  0.00    -0.023 C 
HETATM   20  C10 UNL     1      -2.573  -0.052   1.814  1.00  0.00     0.019 C 
HETATM   21  C11 UNL     1      -2.496   1.898   0.193  1.00  0.00     0.019 C 
HETATM   22  C12 UNL     1      -4.197   0.242   0.123  1.00  0.00     0.019 C 
ENDBRANCH   9  19
TORSDOF 4
