REMARK  1 active torsions:
REMARK  status: ('A' for Active; 'I' for Inactive)
REMARK    1  A    between atoms: N1_2  and  C2_5 
ROOT
HETATM    1  C2  UNL     1       1.024  -0.334  -0.042  1.00  0.00     0.199 C 
HETATM    2  C3  UNL     1       0.047  -0.074  -1.188  1.00  0.00     0.025 C 
HETATM    3  C4  UNL     1      -0.480  -1.466  -1.422  1.00  0.00     0.008 C 
HETATM    4  C5  UNL     1      -0.626  -1.917   0.041  1.00  0.00     0.012 C 
HETATM    5  C6  UNL     1      -0.229  -0.628   0.723  1.00  0.00    -0.008 C 
HETATM    6  C7  UNL     1      -0.269  -0.554   2.162  1.00  0.00     0.018 C 
HETATM    7  C8  UNL     1      -0.902   0.427  -0.110  1.00  0.00    -0.033 C 
HETATM    8  C9  UNL     1      -0.663   1.850   0.322  1.00  0.00     0.016 C 
HETATM    9  C10 UNL     1      -2.359   0.221  -0.404  1.00  0.00     0.016 C 
ENDROOT
BRANCH   1  10
HETATM   10  N1  UNL     1       1.862   0.720   0.345  1.00  0.00    -0.074 N 
HETATM   11  C1  UNL     1       2.755   1.116  -0.730  1.00  0.00     0.267 C 
ATOM     12  H12 UNL     1       2.379   0.492   1.194  1.00  0.00     0.277 HD
ATOM     13  H11 UNL     1       1.325   1.514   0.695  1.00  0.00     0.277 HD
ENDBRANCH   1  10
TORSDOF 1
