REMARK  1 active torsions:
REMARK  status: ('A' for Active; 'I' for Inactive)
REMARK    1  A    between atoms: N1_2  and  C2_5 
ROOT
HETATM    1  C2  UNL     1      -1.670   0.324  -0.214  1.00  0.00     0.186 C 
HETATM    2  C3  UNL     1      -0.718   1.321   0.437  1.00  0.00     0.038 C 
HETATM    3  C4  UNL     1       0.612   0.814   0.002  1.00  0.00    -0.008 C 
HETATM    4  C5  UNL     1       1.773   1.241   0.834  1.00  0.00     0.005 C 
HETATM    5  C6  UNL     1       2.953   0.361   0.442  1.00  0.00     0.000 C 
HETATM    6  C7  UNL     1       2.673  -0.454  -0.795  1.00  0.00     0.000 C 
HETATM    7  C8  UNL     1       1.591  -1.448  -0.418  1.00  0.00     0.005 C 
HETATM    8  C9  UNL     1       0.448  -0.684   0.184  1.00  0.00    -0.008 C 
HETATM    9  C10 UNL     1      -0.867  -0.916  -0.505  1.00  0.00     0.038 C 
ENDROOT
BRANCH   1  10
HETATM   10  N1  UNL     1      -2.737   0.042   0.730  1.00  0.00    -0.075 N 
HETATM   11  C1  UNL     1      -3.961  -0.070  -0.057  1.00  0.00     0.267 C 
ATOM     12  H12 UNL     1      -2.802   0.725   1.484  1.00  0.00     0.277 HD
ATOM     13  H11 UNL     1      -2.555  -0.774   1.315  1.00  0.00     0.277 HD
ENDBRANCH   1  10
TORSDOF 1
