REMARK  2 active torsions:
REMARK  status: ('A' for Active; 'I' for Inactive)
REMARK    1  A    between atoms: C2_2  and  N1_4 
REMARK    2  A    between atoms: C2_2  and  C5_8 
ROOT
HETATM    1  N1  UNL     1      -2.309   0.871   0.399  1.00  0.00    -0.319 N 
ATOM      2  H1  UNL     1      -2.820   0.911   1.281  1.00  0.00     0.172 HD
HETATM    3  C4  UNL     1      -2.478   1.896  -0.539  1.00  0.00     0.178 C 
HETATM    4  N2  UNL     1      -2.606   2.748  -1.306  1.00  0.00    -0.172 NA
ENDROOT
BRANCH   1   5
HETATM    5  C2  UNL     1      -1.425  -0.244   0.143  1.00  0.00     0.036 C 
HETATM    6  C1  UNL     1      -1.452  -1.167   1.315  1.00  0.00     0.039 C 
HETATM    7  C3  UNL     1      -2.053  -1.008  -1.033  1.00  0.00     0.039 C 
BRANCH   5   8
HETATM    8  C5  UNL     1      -0.036   0.203  -0.233  1.00  0.00     0.014 C 
HETATM    9  C6  UNL     1       0.782  -1.019  -0.580  1.00  0.00     0.007 C 
HETATM   10  C7  UNL     1       2.084  -0.481  -1.142  1.00  0.00     0.000 C 
HETATM   11  C8  UNL     1       2.831   0.176  -0.039  1.00  0.00     0.000 C 
HETATM   12  C9  UNL     1       2.068   1.154   0.775  1.00  0.00     0.000 C 
HETATM   13  C10 UNL     1       0.608   1.057   0.788  1.00  0.00     0.007 C 
ENDBRANCH   5   8
ENDBRANCH   1   5
TORSDOF 2
