REMARK  2 active torsions:
REMARK  status: ('A' for Active; 'I' for Inactive)
REMARK    1  A    between atoms: C2_2  and  N1_4 
REMARK    2  A    between atoms: C2_2  and  C4_8 
ROOT
HETATM    1  C4  UNL     1      -0.350  -0.703   0.150  1.00  0.00     0.029 C 
HETATM    2  C5  UNL     1       0.002  -1.573  -1.043  1.00  0.00     0.008 C 
HETATM    3  C6  UNL     1       1.427  -1.573  -0.462  1.00  0.00     0.010 C 
HETATM    4  C7  UNL     1       1.009  -0.236   0.171  1.00  0.00    -0.034 C 
HETATM    5  C8  UNL     1       1.715   0.142   1.402  1.00  0.00     0.010 C 
HETATM    6  C9  UNL     1       2.691   0.908   0.492  1.00  0.00     0.002 C 
HETATM    7  C10 UNL     1       1.547   0.900  -0.540  1.00  0.00     0.010 C 
ENDROOT
BRANCH   1   8
HETATM    8  C2  UNL     1      -1.528   0.151  -0.009  1.00  0.00     0.121 C 
HETATM    9  C1  UNL     1      -1.740   0.954   1.278  1.00  0.00     0.046 C 
HETATM   10  C3  UNL     1      -1.612   1.058  -1.174  1.00  0.00     0.046 C 
BRANCH   8  11
HETATM   11  N1  UNL     1      -2.692  -0.755  -0.089  1.00  0.00    -0.071 N 
ATOM     12  H13 UNL     1      -2.824  -1.332   0.741  1.00  0.00     0.275 HD
ATOM     13  H12 UNL     1      -3.592  -0.277  -0.043  1.00  0.00     0.275 HD
ATOM     14  H11 UNL     1      -2.551  -1.290  -0.946  1.00  0.00     0.275 HD
ENDBRANCH   8  11
ENDBRANCH   1   8
TORSDOF 2
