REMARK  1 active torsions:
REMARK  status: ('A' for Active; 'I' for Inactive)
REMARK    1  A    between atoms: N1_2  and  C2_5 
ROOT
HETATM    1  C2  UNL     1       0.763  -0.305   0.235  1.00  0.00     0.193 C 
HETATM    2  C3  UNL     1      -0.113  -1.319  -0.492  1.00  0.00     0.016 C 
HETATM    3  C4  UNL     1      -1.317  -1.692   0.342  1.00  0.00     0.007 C 
HETATM    4  C5  UNL     1      -1.847  -0.440   1.002  1.00  0.00     0.005 C 
HETATM    5  C6  UNL     1      -1.449   0.737   0.130  1.00  0.00    -0.009 C 
HETATM    6  C7  UNL     1      -1.767   0.328  -1.304  1.00  0.00     0.005 C 
HETATM    7  C8  UNL     1      -0.658  -0.623  -1.736  1.00  0.00     0.007 C 
HETATM    8  C9  UNL     1       0.032   1.010   0.180  1.00  0.00     0.016 C 
HETATM    9  C10 UNL     1       0.429   1.960   1.269  1.00  0.00     0.012 C 
ENDROOT
BRANCH   1  10
HETATM   10  N1  UNL     1       1.985  -0.204  -0.547  1.00  0.00    -0.074 N 
HETATM   11  C1  UNL     1       3.174  -0.299   0.258  1.00  0.00     0.267 C 
ATOM     12  H12 UNL     1       1.991   0.649  -1.107  1.00  0.00     0.277 HD
ATOM     13  H11 UNL     1       1.996  -0.895  -1.297  1.00  0.00     0.277 HD
ENDBRANCH   1  10
TORSDOF 1
