REMARK  3 active torsions:
REMARK  status: ('A' for Active; 'I' for Inactive)
REMARK    1  A    between atoms: C2_2  and  N1_4 
REMARK    2  A    between atoms: N1_4  and  C4_7 
REMARK    3  A    between atoms: C4_7  and  C5_8 
ROOT
HETATM    1  C5  UNL     1      -0.759  -0.048   0.227  1.00  0.00    -0.015 C 
HETATM    2  C6  UNL     1      -1.613   0.151   1.442  1.00  0.00     0.016 C 
HETATM    3  C7  UNL     1      -2.941   0.512   0.832  1.00  0.00    -0.009 C 
HETATM    4  C8  UNL     1      -3.643  -0.749   0.319  1.00  0.00     0.010 C 
HETATM    5  C9  UNL     1      -2.727  -0.612  -0.906  1.00  0.00    -0.009 C 
HETATM    6  C10 UNL     1      -1.317  -1.141  -0.609  1.00  0.00     0.016 C 
HETATM    7  C11 UNL     1      -2.681   0.851  -0.620  1.00  0.00    -0.005 C 
HETATM    8  C12 UNL     1      -1.199   1.172  -0.599  1.00  0.00     0.016 C 
ENDROOT
BRANCH   1   9
HETATM    9  C4  UNL     1       0.675  -0.091   0.539  1.00  0.00     0.242 C 
BRANCH   9  10
HETATM   10  N1  UNL     1       1.558  -0.279  -0.558  1.00  0.00    -0.071 N 
ATOM     11  H12 UNL     1       1.412   0.410  -1.296  1.00  0.00     0.277 HD
ATOM     12  H11 UNL     1       1.335  -1.116  -1.097  1.00  0.00     0.277 HD
BRANCH  10  13
HETATM   13  C2  UNL     1       2.921  -0.285  -0.071  1.00  0.00     0.177 C 
HETATM   14  C1  UNL     1       3.390   0.993   0.523  1.00  0.00     0.039 C 
HETATM   15  C3  UNL     1       3.924  -0.760  -1.102  1.00  0.00     0.039 C 
ENDBRANCH  10  13
ENDBRANCH   9  10
ENDBRANCH   1   9
TORSDOF 3
