REMARK  3 active torsions:
REMARK  status: ('A' for Active; 'I' for Inactive)
REMARK    1  A    between atoms: C2_2  and  N1_3 
REMARK    2  A    between atoms: C2_2  and  C4_8 
REMARK    3  A    between atoms: N1_3  and  C3_5 
ROOT
HETATM    1  C1  UNL     1       1.370  -2.041  -0.630  1.00  0.00     0.032 C 
HETATM    2  C2  UNL     1       0.952  -0.610  -0.758  1.00  0.00     0.083 C 
ENDROOT
BRANCH   2   3
HETATM    3  N1  UNL     1       2.017   0.341  -0.606  1.00  0.00    -0.365 N 
ATOM      4  H1  UNL     1       2.179   0.995  -1.372  1.00  0.00     0.162 HD
BRANCH   3   5
HETATM    5  C3  UNL     1       2.857   0.438   0.527  1.00  0.00     0.181 C 
HETATM    6  N2  UNL     1       3.878   1.431   0.558  1.00  0.00    -0.070 NA
HETATM    7  S1  UNL     1       2.628  -0.602   1.757  1.00  0.00    -0.044 SA
ENDBRANCH   3   5
ENDBRANCH   2   3
BRANCH   2   8
HETATM    8  C4  UNL     1      -0.224  -0.274   0.133  1.00  0.00     0.008 C 
HETATM    9  C5  UNL     1      -0.531   1.194  -0.100  1.00  0.00     0.007 C 
HETATM   10  C6  UNL     1      -1.755   1.522   0.687  1.00  0.00     0.000 C 
HETATM   11  C7  UNL     1      -2.948   0.709   0.268  1.00  0.00     0.000 C 
HETATM   12  C8  UNL     1      -2.689  -0.757   0.191  1.00  0.00     0.000 C 
HETATM   13  C9  UNL     1      -1.363  -1.150  -0.317  1.00  0.00     0.007 C 
ENDBRANCH   2   8
TORSDOF 3
