REMARK  10 active torsions:
REMARK  status: ('A' for Active; 'I' for Inactive)
REMARK    1  A    between atoms: O1_2  and  C2_3 
REMARK    2  A    between atoms: C5_6  and  O2_7 
REMARK    3  A    between atoms: C7_11  and  C8_12 
REMARK    4  A    between atoms: C8_12  and  C9_13 
REMARK    5  A    between atoms: C9_13  and  N2_14 
REMARK       I    between atoms: N2_14  and  C10_16 
REMARK    6  A    between atoms: C10_16  and  O4_18 
REMARK    7  A    between atoms: O4_18  and  C11_19 
REMARK    8  A    between atoms: C19_27  and  C20_28 
REMARK    9  A    between atoms: C20_28  and  N3_30 
REMARK   10  A    between atoms: C31_44  and  O5_45 
ROOT
HETATM    1  C11 UNL     1      -0.597  -1.220  -0.708  1.00  0.00     0.173 C 
HETATM    2  C12 UNL     1      -0.870  -0.103  -1.674  1.00  0.00     0.037 C 
HETATM    3  C13 UNL     1      -2.342   0.228  -1.592  1.00  0.00     0.012 C 
HETATM    4  C14 UNL     1      -2.736   0.764  -0.248  1.00  0.00    -0.033 C 
HETATM    5  C15 UNL     1      -1.918   2.021  -0.012  1.00  0.00     0.016 C 
HETATM    6  C16 UNL     1      -4.176   1.209  -0.332  1.00  0.00    -0.002 C 
HETATM    7  C17 UNL     1      -4.527   2.140   0.781  1.00  0.00     0.006 C 
HETATM    8  C18 UNL     1      -5.981   2.012   1.199  1.00  0.00     0.007 C 
HETATM    9  C19 UNL     1      -6.859   1.784   0.005  1.00  0.00     0.016 C 
HETATM   10  C22 UNL     1      -6.531   0.449  -0.576  1.00  0.00     0.011 C 
HETATM   11  C23 UNL     1      -5.104   0.033  -0.497  1.00  0.00    -0.009 C 
HETATM   12  C24 UNL     1      -4.875  -1.053   0.489  1.00  0.00     0.005 C 
HETATM   13  C25 UNL     1      -3.717  -0.861   1.402  1.00  0.00     0.009 C 
HETATM   14  C26 UNL     1      -2.466  -0.292   0.773  1.00  0.00     0.036 C 
HETATM   15  C27 UNL     1      -1.559  -1.394   0.400  1.00  0.00     0.130 C 
HETATM   16  C28 UNL     1      -0.722  -1.744   1.647  1.00  0.00     0.055 C 
HETATM   17  F1  UNL     1      -2.355  -2.544   0.229  1.00  0.00    -0.240 F 
ENDROOT
BRANCH   1  18
HETATM   18  O4  UNL     1       0.763  -1.286  -0.323  1.00  0.00    -0.295 OA
BRANCH  18  19
HETATM   19  C10 UNL     1       1.646  -2.252  -0.680  1.00  0.00     0.364 C 
HETATM   20  N2  UNL     1       3.030  -2.248  -0.247  1.00  0.00    -0.316 N 
ATOM     21  H2  UNL     1       3.379  -1.500   0.352  1.00  0.00     0.170 HD
HETATM   22  O3  UNL     1       1.274  -3.174  -1.400  1.00  0.00    -0.238 OA
BRANCH  20  23
HETATM   23  C9  UNL     1       3.887  -3.282  -0.659  1.00  0.00     0.072 C 
BRANCH  23  24
HETATM   24  C8  UNL     1       5.302  -3.272  -0.239  1.00  0.00     0.102 C 
BRANCH  24  25
HETATM   25  C7  UNL     1       6.078  -2.110  -0.706  1.00  0.00     0.029 A 
HETATM   26  N1  UNL     1       6.721  -2.064  -1.932  1.00  0.00    -0.334 N 
HETATM   27  C5  UNL     1       7.284  -0.866  -2.072  1.00  0.00     0.153 A 
HETATM   28  C6  UNL     1       6.734  -3.180  -2.858  1.00  0.00     0.158 C 
HETATM   29  C4  UNL     1       7.023  -0.116  -0.949  1.00  0.00     0.030 A 
HETATM   30  C3  UNL     1       7.368   1.161  -0.538  1.00  0.00     0.056 A 
HETATM   31  C29 UNL     1       6.258  -0.897  -0.076  1.00  0.00     0.004 A 
HETATM   32  C2  UNL     1       6.979   1.654   0.686  1.00  0.00     0.102 A 
HETATM   33  C31 UNL     1       6.228   0.890   1.550  1.00  0.00     0.102 A 
HETATM   34  C30 UNL     1       5.877  -0.374   1.159  1.00  0.00     0.054 A 
BRANCH  27  35
HETATM   35  O2  UNL     1       8.024  -0.403  -3.155  1.00  0.00    -0.345 OA
ATOM     36  H2  UNL     1       8.204  -0.921  -3.931  1.00  0.00     0.219 HD
ENDBRANCH  27  35
BRANCH  32  37
HETATM   37  O1  UNL     1       7.353   2.920   1.032  1.00  0.00    -0.353 OA
HETATM   38  C1  UNL     1       8.100   3.823   0.278  1.00  0.00     0.210 C 
ENDBRANCH  32  37
BRANCH  33  39
HETATM   39  O5  UNL     1       5.829   1.395   2.805  1.00  0.00    -0.353 OA
HETATM   40  C32 UNL     1       5.057   0.551   3.642  1.00  0.00     0.210 C 
ENDBRANCH  33  39
ENDBRANCH  24  25
ENDBRANCH  23  24
ENDBRANCH  20  23
ENDBRANCH  18  19
ENDBRANCH   1  18
BRANCH   9  41
HETATM   41  C20 UNL     1      -8.297   1.728   0.522  1.00  0.00     0.183 C 
HETATM   42  C21 UNL     1      -8.706   2.990   1.210  1.00  0.00     0.040 C 
BRANCH  41  43
HETATM   43  N3  UNL     1      -8.508   0.575   1.360  1.00  0.00    -0.075 N 
ATOM     44  H33 UNL     1      -8.248  -0.288   0.882  1.00  0.00     0.274 HD
ATOM     45  H32 UNL     1      -7.834   0.540   2.125  1.00  0.00     0.274 HD
ATOM     46  H31 UNL     1      -9.467   0.538   1.705  1.00  0.00     0.274 HD
ENDBRANCH  41  43
ENDBRANCH   9  41
TORSDOF 10
