REMARK  12 active torsions:
REMARK  status: ('A' for Active; 'I' for Inactive)
REMARK    1  A    between atoms: C2_2  and  C3_3 
REMARK    2  A    between atoms: C2_2  and  C14_20 
REMARK    3  A    between atoms: C7_8  and  C8_9 
REMARK    4  A    between atoms: C7_8  and  C9_12 
REMARK    5  A    between atoms: C8_9  and  O2_10 
REMARK    6  A    between atoms: C9_12  and  O3_15 
REMARK    7  A    between atoms: C16_22  and  C17_23 
REMARK    8  A    between atoms: C21_28  and  N1_29 
REMARK    9  A    between atoms: N1_29  and  N2_31 
REMARK   10  A    between atoms: C22_36  and  O4_37 
REMARK   11  A    between atoms: C22_36  and  C23_39 
REMARK   12  A    between atoms: C24_40  and  C25_41 
ROOT
HETATM    1  C14 UNL     1      -0.674   0.616  -1.313  1.00  0.00     0.132 C 
HETATM    2  C15 UNL     1      -0.386  -0.814  -1.114  1.00  0.00     0.044 C 
HETATM    3  C16 UNL     1      -1.568  -1.732  -1.220  1.00  0.00     0.058 C 
HETATM    4  C21 UNL     1      -2.681  -1.090  -0.422  1.00  0.00     0.176 C 
HETATM    5  C22 UNL     1      -2.982   0.207  -1.098  1.00  0.00     0.204 C 
HETATM    6  O5  UNL     1      -1.951   1.027  -1.365  1.00  0.00    -0.344 OA
ENDROOT
BRANCH   1   7
HETATM    7  C2  UNL     1       0.093   1.492  -0.311  1.00  0.00     0.040 C 
HETATM    8  C1  UNL     1      -0.279   2.955  -0.601  1.00  0.00     0.015 C 
BRANCH   7   9
HETATM    9  C3  UNL     1       1.576   1.410  -0.491  1.00  0.00     0.128 C 
HETATM   10  C4  UNL     1       2.205   2.363   0.491  1.00  0.00     0.043 C 
HETATM   11  C5  UNL     1       3.228   1.552   1.201  1.00  0.00     0.058 C 
HETATM   12  C6  UNL     1       3.011   0.162   0.694  1.00  0.00     0.146 C 
HETATM   13  C12 UNL     1       4.605   1.532   0.565  1.00  0.00     0.121 C 
HETATM   14  O1  UNL     1       2.146   0.189  -0.352  1.00  0.00    -0.379 OA
HETATM   15  C7  UNL     1       4.470   0.049   0.423  1.00  0.00     0.074 C 
HETATM   16  C13 UNL     1       5.665   1.987   1.569  1.00  0.00     0.053 C 
HETATM   17  F1  UNL     1       4.588   2.257  -0.597  1.00  0.00    -0.242 F 
BRANCH  15  18
HETATM   18  C8  UNL     1       5.191  -0.646   1.568  1.00  0.00     0.182 C 
BRANCH  18  19
HETATM   19  O2  UNL     1       4.694  -1.945   1.768  1.00  0.00    -0.400 OA
ATOM     20  H2  UNL     1       5.144  -2.379   2.483  1.00  0.00     0.209 HD
ENDBRANCH  18  19
ENDBRANCH  15  18
BRANCH  15  21
HETATM   21  C9  UNL     1       4.862  -0.516  -0.916  1.00  0.00     0.066 C 
HETATM   22  C10 UNL     1       6.371  -0.561  -1.027  1.00  0.00     0.046 C 
HETATM   23  C11 UNL     1       4.367  -1.943  -1.015  1.00  0.00     0.046 C 
BRANCH  21  24
HETATM   24  O3  UNL     1       4.351   0.270  -1.945  1.00  0.00    -0.390 OA
ATOM     25  H3  UNL     1       4.598  -0.087  -2.790  1.00  0.00     0.210 HD
ENDBRANCH  21  24
ENDBRANCH  15  21
ENDBRANCH   7   9
ENDBRANCH   1   7
BRANCH   3  26
HETATM   26  C17 UNL     1      -1.283  -3.067  -0.580  1.00  0.00    -0.011 A 
HETATM   27  C18 UNL     1      -1.384  -4.309  -1.149  1.00  0.00     0.015 A 
HETATM   28  C19 UNL     1      -1.077  -5.367  -0.387  1.00  0.00     0.008 A 
HETATM   29  C20 UNL     1      -0.686  -5.118   0.903  1.00  0.00     0.050 A 
HETATM   30  S1  UNL     1      -0.762  -3.418   1.003  1.00  0.00    -0.106 SA
ENDBRANCH   3  26
BRANCH   5  31
HETATM   31  O4  UNL     1      -3.595  -0.125  -2.333  1.00  0.00    -0.360 OA
ATOM     32  H4  UNL     1      -3.786   0.700  -2.763  1.00  0.00     0.213 HD
ENDBRANCH   5  31
BRANCH   5  33
HETATM   33  C23 UNL     1      -4.073   0.858  -0.301  1.00  0.00     0.044 C 
HETATM   34  C24 UNL     1      -5.337   0.686  -0.541  1.00  0.00     0.013 C 
BRANCH  34  35
HETATM   35  C25 UNL     1      -6.365   1.329   0.247  1.00  0.00    -0.036 A 
HETATM   36  C26 UNL     1      -6.130   2.175   1.308  1.00  0.00     0.011 A 
HETATM   37  C27 UNL     1      -7.114   2.780   2.049  1.00  0.00     0.001 A 
HETATM   38  C28 UNL     1      -8.422   2.536   1.722  1.00  0.00     0.000 A 
HETATM   39  C29 UNL     1      -8.692   1.687   0.655  1.00  0.00     0.001 A 
HETATM   40  C30 UNL     1      -7.709   1.095  -0.069  1.00  0.00     0.011 A 
ENDBRANCH  34  35
ENDBRANCH   5  33
BRANCH   4  41
HETATM   41  N1  UNL     1      -3.882  -1.896  -0.415  1.00  0.00    -0.311 N 
ATOM     42  H1  UNL     1      -4.519  -1.895   0.381  1.00  0.00     0.182 HD
BRANCH  41  43
HETATM   43  N2  UNL     1      -4.103  -2.590  -1.422  1.00  0.00    -0.253 N 
HETATM   44  N3  UNL     1      -4.744  -3.005  -2.387  1.00  0.00    -0.331 N 
ATOM     45  H32 UNL     1      -5.581  -2.432  -2.283  1.00  0.00     0.178 HD
ATOM     46  H31 UNL     1      -4.925  -3.575  -3.213  1.00  0.00     0.178 HD
ATOM     47  H2  UNL     1      -3.247  -3.142  -1.487  1.00  0.00     0.207 HD
ENDBRANCH  41  43
ENDBRANCH   4  41
TORSDOF 12
