REMARK  8 active torsions:
REMARK  status: ('A' for Active; 'I' for Inactive)
REMARK    1  A    between atoms: O1_2  and  C2_3 
REMARK    2  A    between atoms: C4_5  and  C5_6 
REMARK    3  A    between atoms: C5_6  and  N1_7 
REMARK    4  A    between atoms: C8_10  and  N2_11 
REMARK    5  A    between atoms: C15_19  and  O3_20 
REMARK    6  A    between atoms: C16_22  and  C17_23 
REMARK    7  A    between atoms: C17_23  and  C18_24 
REMARK    8  A    between atoms: C31_43  and  O4_44 
ROOT
HETATM    1  N2  UNL     1      -0.557  -0.059  -0.305  1.00  0.00     0.110 N 
HETATM    2  C9  UNL     1      -0.121  -0.144   1.104  1.00  0.00     0.281 C 
HETATM    3  C10 UNL     1       1.001   0.795   1.363  1.00  0.00     0.098 C 
HETATM    4  C11 UNL     1       2.236   0.450   0.555  1.00  0.00     0.084 A 
HETATM    5  O2  UNL     1       3.292   0.991   1.116  1.00  0.00    -0.311 OA
HETATM    6  C12 UNL     1       4.483   0.832   0.595  1.00  0.00     0.097 A 
HETATM    7  C13 UNL     1       5.561   1.442   1.253  1.00  0.00     0.006 A 
HETATM    8  C14 UNL     1       5.332   2.232   2.462  1.00  0.00     0.054 C 
HETATM    9  C15 UNL     1       6.816   1.294   0.733  1.00  0.00     0.081 A 
HETATM   10  C16 UNL     1       7.054   0.558  -0.423  1.00  0.00    -0.017 A 
HETATM   11  C21 UNL     1       5.986  -0.066  -1.105  1.00  0.00    -0.038 A 
HETATM   12  C22 UNL     1       6.172  -0.814  -2.329  1.00  0.00     0.050 C 
HETATM   13  C23 UNL     1       4.715   0.103  -0.552  1.00  0.00     0.034 A 
HETATM   14  C24 UNL     1       3.600  -0.484  -1.166  1.00  0.00     0.068 A 
HETATM   15  N3  UNL     1       3.805  -1.169  -2.183  1.00  0.00    -0.396 N 
ATOM     16  H31 UNL     1       2.994  -1.596  -2.630  1.00  0.00     0.156 HD
ATOM     17  H32 UNL     1       4.720  -1.312  -2.611  1.00  0.00     0.156 HD
HETATM   18  C25 UNL     1       2.361  -0.291  -0.587  1.00  0.00     0.087 A 
HETATM   19  N4  UNL     1       1.358  -0.927  -1.387  1.00  0.00    -0.361 N 
ATOM     20  H4  UNL     1       1.601  -1.176  -2.346  1.00  0.00     0.161 HD
HETATM   21  C26 UNL     1      -0.003  -1.246  -0.917  1.00  0.00     0.396 C 
ENDROOT
BRANCH   1  22
HETATM   22  C8  UNL     1      -1.954   0.080  -0.337  1.00  0.00     0.228 C 
HETATM   23  C7  UNL     1      -2.712  -0.870  -1.231  1.00  0.00     0.055 C 
HETATM   24  C6  UNL     1      -4.211  -0.522  -1.126  1.00  0.00     0.124 C 
HETATM   25  N1  UNL     1      -4.462   0.323  -0.040  1.00  0.00    -0.389 N 
HETATM   26  C28 UNL     1      -3.822   1.606  -0.076  1.00  0.00     0.124 C 
HETATM   27  C27 UNL     1      -2.417   1.500  -0.655  1.00  0.00     0.055 C 
BRANCH  25  28
HETATM   28  C5  UNL     1      -5.230  -0.014   1.058  1.00  0.00     0.097 C 
BRANCH  28  29
HETATM   29  C4  UNL     1      -6.691  -0.100   0.980  1.00  0.00    -0.017 A 
HETATM   30  C3  UNL     1      -7.453  -0.568  -0.037  1.00  0.00     0.052 A 
HETATM   31  C2  UNL     1      -8.852  -0.587   0.035  1.00  0.00     0.104 A 
HETATM   32  C31 UNL     1      -9.515  -0.115   1.175  1.00  0.00     0.123 A 
HETATM   33  C30 UNL     1      -8.751   0.362   2.207  1.00  0.00     0.071 A 
HETATM   34  C29 UNL     1      -7.388   0.369   2.113  1.00  0.00     0.039 A 
HETATM   35 CL1  UNL     1      -9.604   0.958   3.638  1.00  0.00    -0.081 Cl
BRANCH  31  36
HETATM   36  O1  UNL     1      -9.655  -1.058  -0.978  1.00  0.00    -0.353 OA
HETATM   37  C1  UNL     1      -9.094  -1.560  -2.157  1.00  0.00     0.210 C 
ENDBRANCH  31  36
BRANCH  32  38
HETATM   38  O4  UNL     1     -10.899  -0.141   1.234  1.00  0.00    -0.351 OA
HETATM   39  C32 UNL     1     -11.577   1.026   0.760  1.00  0.00     0.210 C 
ENDBRANCH  32  38
ENDBRANCH  28  29
ENDBRANCH  25  28
ENDBRANCH   1  22
BRANCH   9  40
HETATM   40  O3  UNL     1       7.854   1.909   1.388  1.00  0.00    -0.359 OA
ATOM     41  H3  UNL     1       8.726   1.806   1.026  1.00  0.00     0.217 HD
ENDBRANCH   9  40
BRANCH  10  42
HETATM   42  C17 UNL     1       8.408   0.402  -0.901  1.00  0.00     0.046 C 
BRANCH  42  43
HETATM   43  C18 UNL     1       9.289  -0.637  -0.335  1.00  0.00    -0.018 C 
HETATM   44  C19 UNL     1       8.803  -2.066  -0.477  1.00  0.00     0.010 C 
HETATM   45  C20 UNL     1       9.736  -0.483   1.093  1.00  0.00     0.010 C 
ENDBRANCH  42  43
ENDBRANCH  10  42
TORSDOF 8
