REMARK  10 active torsions:
REMARK  status: ('A' for Active; 'I' for Inactive)
REMARK    1  A    between atoms: C4_4  and  C5_5 
REMARK    2  A    between atoms: C5_5  and  C6_6 
REMARK    3  A    between atoms: C6_6  and  C7_7 
REMARK    4  A    between atoms: C9_10  and  C10_11 
REMARK    5  A    between atoms: C10_11  and  C11_12 
REMARK    6  A    between atoms: C11_12  and  C12_13 
REMARK    7  A    between atoms: C12_13  and  O2_15 
REMARK    8  A    between atoms: O2_15  and  C13_16 
REMARK    9  A    between atoms: C21_26  and  O4_27 
REMARK   10  A    between atoms: C31_39  and  O6_40 
ROOT
HETATM    1  C7  UNL     1       5.392  -0.062   0.501  1.00  0.00     0.019 C 
HETATM    2  C8  UNL     1       5.111  -0.998  -0.544  1.00  0.00     0.095 C 
HETATM    3  N1  UNL     1       4.868  -1.764  -1.390  1.00  0.00    -0.192 NA
HETATM    4  C9  UNL     1       4.382   0.451   1.169  1.00  0.00    -0.008 C 
ENDROOT
BRANCH   1   5
HETATM    5  C6  UNL     1       6.764   0.347   0.858  1.00  0.00     0.053 C 
BRANCH   5   6
HETATM    6  C5  UNL     1       7.408   0.983  -0.357  1.00  0.00     0.032 C 
BRANCH   6   7
HETATM    7  C4  UNL     1       8.783   1.420  -0.059  1.00  0.00    -0.024 C 
HETATM    8  C2  UNL     1       9.797   0.930  -0.736  1.00  0.00    -0.091 C 
HETATM    9  C1  UNL     1       9.615  -0.067  -1.812  1.00  0.00     0.042 C 
HETATM   10  C3  UNL     1      11.190   1.390  -0.416  1.00  0.00     0.042 C 
ENDBRANCH   6   7
ENDBRANCH   5   6
ENDBRANCH   1   5
BRANCH   4  11
HETATM   11  C10 UNL     1       2.951   0.107   0.892  1.00  0.00     0.038 C 
BRANCH  11  12
HETATM   12  C11 UNL     1       2.270   1.385   0.530  1.00  0.00     0.115 C 
BRANCH  12  13
HETATM   13  C12 UNL     1       0.844   1.213   0.224  1.00  0.00     0.259 C 
HETATM   14  O1  UNL     1       0.155   2.239  -0.037  1.00  0.00    -0.265 OA
BRANCH  13  15
HETATM   15  O2  UNL     1       0.194  -0.007   0.201  1.00  0.00    -0.315 OA
BRANCH  15  16
HETATM   16  C13 UNL     1      -1.212  -0.082  -0.110  1.00  0.00     0.142 C 
HETATM   17  C14 UNL     1      -1.367  -0.860  -1.363  1.00  0.00     0.060 C 
HETATM   18  C15 UNL     1      -2.009  -2.172  -1.251  1.00  0.00    -0.019 C 
HETATM   19  C16 UNL     1      -2.881  -2.643  -2.101  1.00  0.00    -0.047 C 
HETATM   20  C17 UNL     1      -3.438  -4.024  -1.820  1.00  0.00     0.046 C 
HETATM   21  C18 UNL     1      -3.377  -1.938  -3.312  1.00  0.00     0.268 C 
HETATM   22  F1  UNL     1      -2.375  -1.498  -4.147  1.00  0.00    -0.236 F 
HETATM   23  C19 UNL     1      -4.354  -0.876  -2.941  1.00  0.00     0.167 C 
HETATM   24  O3  UNL     1      -4.505   0.057  -3.681  1.00  0.00    -0.294 OA
HETATM   25  C20 UNL     1      -5.130  -0.986  -1.659  1.00  0.00     0.114 C 
HETATM   26  C21 UNL     1      -6.004   0.184  -1.398  1.00  0.00     0.140 C 
HETATM   27  C22 UNL     1      -5.431   1.248  -0.523  1.00  0.00     0.039 C 
HETATM   28  C23 UNL     1      -6.598   2.154  -0.090  1.00  0.00     0.025 C 
HETATM   29  C24 UNL     1      -4.485   2.168  -1.262  1.00  0.00     0.025 C 
HETATM   30  C25 UNL     1      -4.853   0.687   0.719  1.00  0.00     0.137 C 
HETATM   31  O5  UNL     1      -5.413  -0.246   1.236  1.00  0.00    -0.297 OA
HETATM   32  C26 UNL     1      -3.647   1.264   1.274  1.00  0.00     0.084 C 
HETATM   33  C27 UNL     1      -2.649   0.418   1.911  1.00  0.00     0.005 C 
HETATM   34  C28 UNL     1      -3.115  -0.451   3.056  1.00  0.00    -0.011 C 
HETATM   35  C32 UNL     1      -1.910  -0.591   1.096  1.00  0.00     0.049 C 
HETATM   36  C29 UNL     1      -3.644   0.330   4.219  1.00  0.00     0.010 C 
HETATM   37  C30 UNL     1      -1.796  -1.162   3.411  1.00  0.00     0.037 C 
HETATM   38  C31 UNL     1      -0.906  -1.012   2.190  1.00  0.00     0.125 C 
BRANCH  26  39
HETATM   39  O4  UNL     1      -6.491   0.767  -2.579  1.00  0.00    -0.394 OA
ATOM     40  H4  UNL     1      -7.051   1.516  -2.412  1.00  0.00     0.210 HD
ENDBRANCH  26  39
BRANCH  38  41
HETATM   41  O6  UNL     1      -0.167  -2.106   1.881  1.00  0.00    -0.395 OA
ATOM     42  H6  UNL     1       0.390  -2.012   1.117  1.00  0.00     0.210 HD
ENDBRANCH  38  41
ENDBRANCH  15  16
ENDBRANCH  13  15
ENDBRANCH  12  13
ENDBRANCH  11  12
ENDBRANCH   4  11
TORSDOF 10
