REMARK  6 active torsions:
REMARK  status: ('A' for Active; 'I' for Inactive)
REMARK       I    between atoms: C3_3  and  N1_5 
REMARK    1  A    between atoms: N1_5  and  C4_6 
REMARK    2  A    between atoms: C4_6  and  C5_10 
REMARK    3  A    between atoms: C5_10  and  O2_11 
REMARK    4  A    between atoms: C6_14  and  C7_15 
REMARK    5  A    between atoms: C7_15  and  C8_16 
REMARK    6  A    between atoms: C8_16  and  O4_17 
ROOT
HETATM    1  C1  UNL     1       5.194   1.803  -1.826  1.00  0.00     0.024 C 
HETATM    2  C2  UNL     1       4.254   1.630  -1.093  1.00  0.00    -0.001 C 
HETATM    3  C3  UNL     1       3.077   1.423  -0.217  1.00  0.00     0.372 C 
HETATM    4  O1  UNL     1       2.964   2.320   0.640  1.00  0.00    -0.241 OA
HETATM    5  N1  UNL     1       2.258   0.296  -0.434  1.00  0.00    -0.339 NA
ENDROOT
BRANCH   5   6
HETATM    6  C4  UNL     1       1.500  -0.745  -0.634  1.00  0.00     0.236 C 
HETATM    7  N2  UNL     1       1.856  -1.574  -1.649  1.00  0.00    -0.372 N 
ATOM      8  H22 UNL     1       2.697  -1.246  -2.124  1.00  0.00     0.158 HD
ATOM      9  H21 UNL     1       1.263  -2.389  -1.806  1.00  0.00     0.158 HD
BRANCH   6  10
HETATM   10  C5  UNL     1       0.256  -1.230   0.068  1.00  0.00     0.370 C 
HETATM   11  O3  UNL     1      -0.666  -0.196   0.047  1.00  0.00    -0.327 OA
HETATM   12  C6  UNL     1      -1.901  -0.504   0.506  1.00  0.00     0.153 C 
HETATM   13  C9  UNL     1      -1.997  -1.502   1.598  1.00  0.00     0.222 C 
HETATM   14  O5  UNL     1      -0.972  -1.519   2.517  1.00  0.00    -0.269 OA
HETATM   15  S1  UNL     1       0.553  -1.636   1.768  1.00  0.00     0.335 S 
HETATM   16  O6  UNL     1       1.440  -0.696   2.485  1.00  0.00    -0.192 OA
HETATM   17  O7  UNL     1       1.062  -3.048   1.822  1.00  0.00    -0.192 OA
BRANCH  10  18
HETATM   18  O2  UNL     1      -0.195  -2.374  -0.549  1.00  0.00    -0.345 OA
ATOM     19  H2  UNL     1      -0.978  -2.679  -0.107  1.00  0.00     0.214 HD
ENDBRANCH  10  18
BRANCH  12  20
HETATM   20  C7  UNL     1      -2.620   0.772   0.916  1.00  0.00     0.060 C 
BRANCH  20  21
HETATM   21  C8  UNL     1      -2.751   1.708  -0.281  1.00  0.00     0.166 C 
BRANCH  21  22
HETATM   22  O4  UNL     1      -1.513   2.071  -0.802  1.00  0.00    -0.401 OA
ATOM     23  H4  UNL     1      -1.595   2.654  -1.548  1.00  0.00     0.209 HD
ENDBRANCH  21  22
ENDBRANCH  20  21
ENDBRANCH  12  20
ENDBRANCH   6  10
ENDBRANCH   5   6
TORSDOF 6
